# generated using pymatgen
data_Zr3H8C24(Cl3O8)2
_symmetry_space_group_name_H-M   'P 1'
_cell_length_a   14.77490000
_cell_length_b   14.77840000
_cell_length_c   21.00590000
_cell_angle_alpha   90.04760000
_cell_angle_beta   89.98950000
_cell_angle_gamma   89.98950000
_symmetry_Int_Tables_number   1
_chemical_formula_structural   Zr3H8C24(Cl3O8)2
_chemical_formula_sum   'Zr12 H32 C96 Cl24 O64'
_cell_volume   4586.62354973
_cell_formula_units_Z   4
loop_
 _symmetry_equiv_pos_site_id
 _symmetry_equiv_pos_as_xyz
  1  'x, y, z'
loop_
 _atom_site_type_symbol
 _atom_site_label
 _atom_site_symmetry_multiplicity
 _atom_site_fract_x
 _atom_site_fract_y
 _atom_site_fract_z
 _atom_site_occupancy
  Zr  Zr0  1  0.38027000  0.37913000  0.50387000  1.0
  Zr  Zr1  1  0.61883000  0.61817000  0.49628000  1.0
  Zr  Zr2  1  0.50320000  0.50281000  0.61932000  1.0
  Zr  Zr3  1  0.49534000  0.49558000  0.38065000  1.0
  Zr  Zr4  1  0.37938000  0.61825000  0.50006000  1.0
  Zr  Zr5  1  0.61871000  0.37923000  0.49965000  1.0
  Zr  Zr6  1  0.12319000  0.88358000  0.99941000  1.0
  Zr  Zr7  1  0.87702000  0.11498000  0.99967000  1.0
  Zr  Zr8  1  0.11587000  0.12264000  0.99589000  1.0
  Zr  Zr9  1  0.88447000  0.87625000  0.00345000  1.0
  Zr  Zr10  1  0.00382000  0.00327000  0.11898000  1.0
  Zr  Zr11  1  0.99637000  0.99545000  0.88028000  1.0
  H  H12  1  0.31456000  0.50234000  0.59732000  1.0
  H  H13  1  0.49634000  0.68431000  0.40360000  1.0
  H  H14  1  0.69044000  0.50212000  0.59076000  1.0
  H  H15  1  0.49616000  0.30776000  0.40878000  1.0
  H  H16  1  0.19111000  0.00911000  0.09053000  1.0
  H  H17  1  0.81513000  0.99606000  0.09639000  1.0
  H  H18  1  0.99165000  0.18453000  0.90306000  1.0
  H  H19  1  0.00433000  0.80841000  0.90829000  1.0
  H  H20  1  0.09420000  0.62314000  0.45926000  1.0
  H  H21  1  0.90407000  0.36813000  0.53052000  1.0
  H  H22  1  0.62493000  0.09282000  0.46398000  1.0
  H  H23  1  0.37700000  0.90435000  0.55003000  1.0
  H  H24  1  0.87717000  0.14605000  0.72893000  1.0
  H  H25  1  0.60477000  0.33104000  0.76832000  1.0
  H  H26  1  0.10545000  0.83232000  0.26755000  1.0
  H  H27  1  0.39005000  0.66438000  0.23235000  1.0
  H  H28  1  0.13773000  0.86999000  0.72652000  1.0
  H  H29  1  0.39981000  0.67291000  0.77034000  1.0
  H  H30  1  0.89219000  0.16526000  0.27062000  1.0
  H  H31  1  0.61378000  0.33990000  0.22893000  1.0
  H  H32  1  0.73848000  0.72321000  0.13380000  1.0
  H  H33  1  0.77756000  0.75684000  0.36532000  1.0
  H  H34  1  0.28387000  0.25022000  0.86532000  1.0
  H  H35  1  0.22904000  0.23497000  0.63437000  1.0
  H  H36  1  0.83343000  0.89243000  0.73266000  1.0
  H  H37  1  0.65077000  0.61804000  0.76877000  1.0
  H  H38  1  0.13785000  0.13097000  0.26832000  1.0
  H  H39  1  0.33137000  0.39760000  0.23215000  1.0
  H  H40  1  0.40107000  0.86827000  0.01644000  1.0
  H  H41  1  0.59918000  0.12864000  0.97214000  1.0
  H  H42  1  0.86501000  0.59598000  0.99027000  1.0
  H  H43  1  0.13250000  0.40259000  0.02445000  1.0
  C  C44  1  0.19569000  0.49358000  0.50240000  1.0
  C  C45  1  0.50259000  0.80220000  0.49898000  1.0
  C  C46  1  0.80241000  0.50101000  0.49092000  1.0
  C  C47  1  0.49662000  0.19526000  0.50945000  1.0
  C  C48  1  0.35921000  0.34777000  0.65716000  1.0
  C  C49  1  0.33725000  0.35049000  0.35232000  1.0
  C  C50  1  0.64943000  0.64134000  0.34280000  1.0
  C  C51  1  0.64929000  0.65983000  0.64801000  1.0
  C  C52  1  0.35744000  0.66506000  0.64925000  1.0
  C  C53  1  0.65324000  0.34455000  0.64908000  1.0
  C  C54  1  0.65391000  0.34690000  0.34992000  1.0
  C  C55  1  0.33717000  0.64529000  0.35045000  1.0
  C  C56  1  0.15892000  0.85185000  0.14965000  1.0
  C  C57  1  0.84910000  0.15435000  0.15006000  1.0
  C  C58  1  0.83375000  0.13914000  0.84945000  1.0
  C  C59  1  0.16258000  0.85617000  0.84930000  1.0
  C  C60  1  0.30332000  0.00952000  0.99162000  1.0
  C  C61  1  0.00774000  0.69619000  0.00847000  1.0
  C  C62  1  0.69683000  0.98872000  0.00062000  1.0
  C  C63  1  0.99154000  0.30270000  0.99978000  1.0
  C  C64  1  0.14437000  0.16711000  0.14696000  1.0
  C  C65  1  0.14728000  0.14465000  0.84284000  1.0
  C  C66  1  0.84365000  0.84386000  0.85231000  1.0
  C  C67  1  0.86270000  0.84355000  0.15647000  1.0
  C  C68  1  0.90364000  0.50110000  0.49023000  1.0
  C  C69  1  0.09452000  0.49102000  0.50028000  1.0
  C  C70  1  0.95812000  0.57378000  0.46972000  1.0
  C  C71  1  0.04012000  0.41782000  0.52022000  1.0
  C  C72  1  0.05172000  0.56754000  0.47522000  1.0
  C  C73  1  0.94641000  0.42400000  0.51466000  1.0
  C  C74  1  0.50467000  0.90329000  0.50149000  1.0
  C  C75  1  0.49658000  0.09399000  0.51145000  1.0
  C  C76  1  0.57545000  0.95718000  0.47720000  1.0
  C  C77  1  0.42655000  0.03999000  0.53667000  1.0
  C  C78  1  0.57056000  0.05091000  0.48281000  1.0
  C  C79  1  0.43134000  0.94622000  0.53106000  1.0
  C  C80  1  0.70108000  0.28879000  0.69827000  1.0
  C  C81  1  0.78199000  0.18978000  0.79937000  1.0
  C  C82  1  0.77860000  0.23500000  0.68721000  1.0
  C  C83  1  0.70395000  0.24288000  0.81018000  1.0
  C  C84  1  0.81695000  0.18678000  0.73739000  1.0
  C  C85  1  0.66522000  0.29061000  0.75995000  1.0
  C  C86  1  0.28766000  0.69845000  0.30054000  1.0
  C  C87  1  0.20811000  0.79862000  0.19956000  1.0
  C  C88  1  0.20699000  0.74778000  0.31036000  1.0
  C  C89  1  0.28978000  0.75086000  0.19005000  1.0
  C  C90  1  0.16853000  0.79571000  0.26009000  1.0
  C  C91  1  0.32721000  0.70136000  0.23994000  1.0
  C  C92  1  0.31190000  0.72399000  0.69784000  1.0
  C  C93  1  0.22230000  0.81469000  0.79934000  1.0
  C  C94  1  0.23915000  0.78362000  0.68532000  1.0
  C  C95  1  0.30012000  0.76159000  0.81124000  1.0
  C  C96  1  0.19559000  0.82640000  0.73590000  1.0
  C  C97  1  0.34200000  0.71658000  0.76089000  1.0
  C  C98  1  0.70855000  0.29870000  0.30023000  1.0
  C  C99  1  0.79694000  0.20582000  0.19944000  1.0
  C  C100  1  0.78872000  0.24919000  0.31185000  1.0
  C  C101  1  0.71712000  0.25586000  0.18773000  1.0
  C  C102  1  0.83075000  0.20391000  0.26173000  1.0
  C  C103  1  0.67518000  0.30123000  0.23786000  1.0
  C  C104  1  0.70334000  0.68922000  0.29238000  1.0
  C  C105  1  0.81293000  0.79105000  0.20676000  1.0
  C  C106  1  0.69291000  0.67936000  0.22590000  1.0
  C  C107  1  0.82441000  0.79970000  0.27324000  1.0
  C  C108  1  0.74715000  0.73000000  0.18500000  1.0
  C  C109  1  0.76965000  0.74964000  0.31410000  1.0
  C  C110  1  0.31023000  0.29446000  0.70723000  1.0
  C  C111  1  0.20176000  0.19171000  0.79252000  1.0
  C  C112  1  0.32642000  0.29788000  0.77340000  1.0
  C  C113  1  0.18722000  0.18627000  0.72619000  1.0
  C  C114  1  0.27221000  0.24725000  0.81425000  1.0
  C  C115  1  0.24086000  0.23763000  0.68544000  1.0
  C  C116  1  0.69649000  0.71310000  0.69899000  1.0
  C  C117  1  0.78911000  0.79630000  0.80221000  1.0
  C  C118  1  0.74753000  0.79267000  0.68919000  1.0
  C  C119  1  0.73557000  0.71851000  0.81235000  1.0
  C  C120  1  0.79295000  0.83191000  0.74039000  1.0
  C  C121  1  0.69100000  0.67872000  0.76105000  1.0
  C  C122  1  0.28124000  0.30499000  0.30210000  1.0
  C  C123  1  0.19036000  0.22151000  0.19804000  1.0
  C  C124  1  0.22426000  0.22966000  0.31228000  1.0
  C  C125  1  0.24476000  0.29887000  0.18830000  1.0
  C  C126  1  0.18052000  0.18991000  0.26058000  1.0
  C  C127  1  0.28866000  0.33864000  0.23993000  1.0
  C  C128  1  0.59554000  0.98910000  0.99817000  1.0
  C  C129  1  0.40467000  0.00815000  0.99118000  1.0
  C  C130  1  0.53874000  0.91449000  0.01072000  1.0
  C  C131  1  0.46151000  0.08262000  0.97845000  1.0
  C  C132  1  0.44535000  0.92533000  0.00664000  1.0
  C  C133  1  0.55491000  0.07167000  0.98212000  1.0
  C  C134  1  0.99091000  0.40389000  0.00360000  1.0
  C  C135  1  0.00700000  0.59489000  0.01032000  1.0
  C  C136  1  0.91411000  0.45935000  0.99468000  1.0
  C  C137  1  0.08327000  0.53936000  0.02090000  1.0
  C  C138  1  0.92370000  0.55295000  0.99811000  1.0
  C  C139  1  0.07388000  0.44577000  0.01691000  1.0
  Cl  Cl140  1  0.91618000  0.67126000  0.43554000  1.0
  Cl  Cl141  1  0.08195000  0.32005000  0.55439000  1.0
  Cl  Cl142  1  0.66800000  0.91393000  0.43706000  1.0
  Cl  Cl143  1  0.33486000  0.08379000  0.57724000  1.0
  Cl  Cl144  1  0.83315000  0.22612000  0.61470000  1.0
  Cl  Cl145  1  0.65007000  0.25293000  0.88275000  1.0
  Cl  Cl146  1  0.14958000  0.75258000  0.38181000  1.0
  Cl  Cl147  1  0.35077000  0.75216000  0.11988000  1.0
  Cl  Cl148  1  0.19727000  0.80735000  0.61037000  1.0
  Cl  Cl149  1  0.34908000  0.74862000  0.88527000  1.0
  Cl  Cl150  1  0.84135000  0.24239000  0.38508000  1.0
  Cl  Cl151  1  0.66431000  0.26306000  0.11459000  1.0
  Cl  Cl152  1  0.61533000  0.60809000  0.19025000  1.0
  Cl  Cl153  1  0.90352000  0.86927000  0.30897000  1.0
  Cl  Cl154  1  0.41069000  0.36155000  0.80861000  1.0
  Cl  Cl155  1  0.10521000  0.12008000  0.69052000  1.0
  Cl  Cl156  1  0.75605000  0.84675000  0.61668000  1.0
  Cl  Cl157  1  0.72283000  0.66576000  0.88515000  1.0
  Cl  Cl158  1  0.20654000  0.18008000  0.38556000  1.0
  Cl  Cl159  1  0.26162000  0.34946000  0.11524000  1.0
  Cl  Cl160  1  0.57723000  0.80891000  0.03327000  1.0
  Cl  Cl161  1  0.42298000  0.18868000  0.95722000  1.0
  Cl  Cl162  1  0.80742000  0.41888000  0.97716000  1.0
  Cl  Cl163  1  0.18920000  0.58033000  0.04001000  1.0
  O  O164  1  0.23700000  0.41796000  0.50455000  1.0
  O  O165  1  0.57848000  0.76126000  0.49754000  1.0
  O  O166  1  0.76244000  0.57742000  0.49227000  1.0
  O  O167  1  0.42011000  0.23502000  0.50741000  1.0
  O  O168  1  0.41516000  0.40879000  0.67436000  1.0
  O  O169  1  0.39865000  0.40462000  0.33201000  1.0
  O  O170  1  0.58843000  0.58530000  0.32582000  1.0
  O  O171  1  0.59363000  0.59946000  0.66774000  1.0
  O  O172  1  0.33625000  0.67720000  0.59105000  1.0
  O  O173  1  0.67086000  0.32791000  0.59087000  1.0
  O  O174  1  0.66890000  0.32656000  0.40792000  1.0
  O  O175  1  0.32120000  0.66420000  0.40858000  1.0
  O  O176  1  0.59811000  0.40471000  0.66916000  1.0
  O  O177  1  0.59424000  0.40291000  0.33047000  1.0
  O  O178  1  0.39427000  0.58676000  0.33075000  1.0
  O  O179  1  0.41273000  0.60536000  0.66960000  1.0
  O  O180  1  0.33880000  0.32874000  0.59970000  1.0
  O  O181  1  0.66868000  0.67495000  0.59013000  1.0
  O  O182  1  0.66864000  0.66174000  0.40030000  1.0
  O  O183  1  0.32191000  0.33236000  0.41036000  1.0
  O  O184  1  0.57372000  0.23383000  0.50679000  1.0
  O  O185  1  0.23320000  0.57135000  0.50119000  1.0
  O  O186  1  0.42490000  0.76468000  0.49916000  1.0
  O  O187  1  0.76371000  0.42392000  0.49280000  1.0
  O  O188  1  0.49690000  0.36209000  0.43469000  1.0
  O  O189  1  0.63608000  0.50101000  0.56493000  1.0
  O  O190  1  0.49657000  0.63130000  0.43076000  1.0
  O  O191  1  0.36725000  0.50134000  0.56981000  1.0
  O  O192  1  0.50080000  0.59958000  0.54792000  1.0
  O  O193  1  0.39855000  0.49735000  0.45224000  1.0
  O  O194  1  0.59679000  0.49727000  0.44866000  1.0
  O  O195  1  0.50126000  0.40132000  0.55111000  1.0
  O  O196  1  0.17644000  0.83412000  0.09165000  1.0
  O  O197  1  0.83081000  0.17005000  0.09193000  1.0
  O  O198  1  0.81822000  0.15896000  0.90742000  1.0
  O  O199  1  0.17684000  0.83444000  0.90708000  1.0
  O  O200  1  0.26245000  0.08541000  0.99226000  1.0
  O  O201  1  0.92992000  0.73435000  0.00788000  1.0
  O  O202  1  0.73815000  0.91321000  0.00289000  1.0
  O  O203  1  0.06960000  0.26537000  0.99596000  1.0
  O  O204  1  0.09016000  0.10550000  0.16658000  1.0
  O  O205  1  0.08708000  0.08794000  0.82577000  1.0
  O  O206  1  0.90316000  0.89986000  0.83191000  1.0
  O  O207  1  0.91901000  0.90420000  0.17348000  1.0
  O  O208  1  0.16521000  0.16658000  0.90032000  1.0
  O  O209  1  0.82837000  0.82592000  0.91045000  1.0
  O  O210  1  0.84239000  0.82424000  0.09893000  1.0
  O  O211  1  0.16348000  0.18276000  0.08901000  1.0
  O  O212  1  0.26498000  0.93213000  0.99337000  1.0
  O  O213  1  0.91642000  0.26089000  0.00039000  1.0
  O  O214  1  0.73471000  0.06645000  0.00023000  1.0
  O  O215  1  0.08318000  0.73722000  0.00544000  1.0
  O  O216  1  0.09909000  0.90801000  0.82995000  1.0
  O  O217  1  0.10202000  0.91076000  0.16930000  1.0
  O  O218  1  0.90837000  0.09808000  0.17000000  1.0
  O  O219  1  0.89237000  0.08182000  0.82999000  1.0
  O  O220  1  0.00246000  0.86263000  0.93429000  1.0
  O  O221  1  0.99354000  0.13151000  0.93018000  1.0
  O  O222  1  0.86809000  0.99691000  0.06914000  1.0
  O  O223  1  0.13675000  0.00649000  0.06475000  1.0
  O  O224  1  0.99868000  0.10000000  0.04757000  1.0
  O  O225  1  0.00498000  0.90194000  0.05069000  1.0
  O  O226  1  0.89957000  0.99446000  0.95167000  1.0
  O  O227  1  0.09762000  0.00102000  0.94854000  1.0
