# generated using pymatgen
data_ZnH24C26S2(NO3)4
_symmetry_space_group_name_H-M   'P 1'
_cell_length_a   11.30000000
_cell_length_b   11.30001461
_cell_length_c   14.02290000
_cell_angle_alpha   101.87057246
_cell_angle_beta   101.87050000
_cell_angle_gamma   119.10927399
_symmetry_Int_Tables_number   1
_chemical_formula_structural   ZnH24C26S2(NO3)4
_chemical_formula_sum   'Zn2 H48 C52 S4 N8 O24'
_cell_volume   1429.72025333
_cell_formula_units_Z   2
loop_
 _symmetry_equiv_pos_site_id
 _symmetry_equiv_pos_as_xyz
  1  'x, y, z'
loop_
 _atom_site_type_symbol
 _atom_site_label
 _atom_site_symmetry_multiplicity
 _atom_site_fract_x
 _atom_site_fract_y
 _atom_site_fract_z
 _atom_site_occupancy
  Zn  Zn0  1  0.52094000  0.52092000  0.99992000  1.0
  Zn  Zn1  1  0.77108000  0.27102000  0.50004000  1.0
  H  H2  1  0.44337000  0.31575000  0.43817000  1.0
  H  H3  1  0.87761000  0.00436000  0.56135000  1.0
  H  H4  1  0.25459000  0.62761000  0.06168000  1.0
  H  H5  1  0.56563000  0.19319000  0.93818000  1.0
  H  H6  1  0.40112000  0.12039000  0.29065000  1.0
  H  H7  1  0.82968000  0.10977000  0.70898000  1.0
  H  H8  1  0.35990000  0.57969000  0.20935000  1.0
  H  H9  1  0.37023000  0.15076000  0.79057000  1.0
  H  H10  1  0.97789000  0.82846000  0.29837000  1.0
  H  H11  1  0.52924000  0.67931000  0.70185000  1.0
  H  H12  1  0.92951000  0.27928000  0.20218000  1.0
  H  H13  1  0.07811000  0.72764000  0.79854000  1.0
  H  H14  1  0.02658000  0.02631000  0.45348000  1.0
  H  H15  1  0.57221000  0.57296000  0.54650000  1.0
  H  H16  1  0.82313000  0.32211000  0.04679000  1.0
  H  H17  1  0.27608000  0.77665000  0.95388000  1.0
  H  H18  1  0.34002000  0.20990000  0.65514000  1.0
  H  H19  1  0.55500000  0.68533000  0.34507000  1.0
  H  H20  1  0.93554000  0.30500000  0.84521000  1.0
  H  H21  1  0.46021000  0.09055000  0.15534000  1.0
  H  H22  1  0.48756000  0.35610000  0.63729000  1.0
  H  H23  1  0.71898000  0.85021000  0.36223000  1.0
  H  H24  1  0.10031000  0.46898000  0.86228000  1.0
  H  H25  1  0.60653000  0.23786000  0.13740000  1.0
  H  H26  1  0.43681000  0.36053000  0.15071000  1.0
  H  H27  1  0.21030000  0.28694000  0.84941000  1.0
  H  H28  1  0.53686000  0.96052000  0.34929000  1.0
  H  H29  1  0.61047000  0.18666000  0.65069000  1.0
  H  H30  1  0.22316000  0.14657000  0.15830000  1.0
  H  H31  1  0.98899000  0.06570000  0.84186000  1.0
  H  H32  1  0.31550000  0.73920000  0.34156000  1.0
  H  H33  1  0.39643000  0.97299000  0.65810000  1.0
  H  H34  1  0.92421000  0.80970000  0.85497000  1.0
  H  H35  1  0.95378000  0.06843000  0.14497000  1.0
  H  H36  1  0.31847000  0.70412000  0.64484000  1.0
  H  H37  1  0.05944000  0.67413000  0.35472000  1.0
  H  H38  1  0.71264000  0.59700000  0.86429000  1.0
  H  H39  1  0.73187000  0.84761000  0.13555000  1.0
  H  H40  1  0.09771000  0.48205000  0.63547000  1.0
  H  H41  1  0.84695000  0.46251000  0.36415000  1.0
  H  H42  1  0.71426000  0.45102000  0.00901000  1.0
  H  H43  1  0.44260000  0.70577000  0.99097000  1.0
  H  H44  1  0.95563000  0.19249000  0.49099000  1.0
  H  H45  1  0.70131000  0.46438000  0.50897000  1.0
  H  H46  1  0.71651000  0.52119000  0.12347000  1.0
  H  H47  1  0.39800000  0.59354000  0.87646000  1.0
  H  H48  1  0.84331000  0.14780000  0.37649000  1.0
  H  H49  1  0.77120000  0.46660000  0.62350000  1.0
  C  C50  1  0.23584000  0.18033000  0.45327000  1.0
  C  C51  1  0.72687000  0.78218000  0.54664000  1.0
  C  C52  1  0.03233000  0.47688000  0.04695000  1.0
  C  C53  1  0.43014000  0.98573000  0.95335000  1.0
  C  C54  1  0.34206000  0.20956000  0.40842000  1.0
  C  C55  1  0.80103000  0.93303000  0.59130000  1.0
  C  C56  1  0.18318000  0.55105000  0.09162000  1.0
  C  C57  1  0.45938000  0.09189000  0.90844000  1.0
  C  C58  1  0.31726000  0.10050000  0.32390000  1.0
  C  C59  1  0.77647000  0.99278000  0.67588000  1.0
  C  C60  1  0.24294000  0.52646000  0.17617000  1.0
  C  C61  1  0.35030000  0.06694000  0.82386000  1.0
  C  C62  1  0.18515000  0.96574000  0.28548000  1.0
  C  C63  1  0.67985000  0.89920000  0.71446000  1.0
  C  C64  1  0.14940000  0.42985000  0.21475000  1.0
  C  C65  1  0.21554000  0.93482000  0.78551000  1.0
  C  C66  1  0.07937000  0.93514000  0.33063000  1.0
  C  C67  1  0.60398000  0.74844000  0.66949000  1.0
  C  C68  1  0.99864000  0.35394000  0.16979000  1.0
  C  C69  1  0.18488000  0.82913000  0.83080000  1.0
  C  C70  1  0.10594000  0.04462000  0.41587000  1.0
  C  C71  1  0.62830000  0.68978000  0.58417000  1.0
  C  C72  1  0.93996000  0.37829000  0.08450000  1.0
  C  C73  1  0.29438000  0.85584000  0.91608000  1.0
  C  C74  1  0.38872000  0.32150000  0.65661000  1.0
  C  C75  1  0.66492000  0.73218000  0.34321000  1.0
  C  C76  1  0.98230000  0.41491000  0.84334000  1.0
  C  C77  1  0.57175000  0.13899000  0.15673000  1.0
  C  C78  1  0.42160000  0.42573000  0.76171000  1.0
  C  C79  1  0.66380000  0.65975000  0.23801000  1.0
  C  C80  1  0.90975000  0.41376000  0.73818000  1.0
  C  C81  1  0.67586000  0.17168000  0.26182000  1.0
  C  C82  1  0.33497000  0.29285000  0.08415000  1.0
  C  C83  1  0.20898000  0.25130000  0.91596000  1.0
  C  C84  1  0.50120000  0.95913000  0.41583000  1.0
  C  C85  1  0.54278000  0.08491000  0.58406000  1.0
  C  C86  1  0.21543000  0.17346000  0.08797000  1.0
  C  C87  1  0.08592000  0.12785000  0.91213000  1.0
  C  C88  1  0.37769000  0.83603000  0.41190000  1.0
  C  C89  1  0.42336000  0.96534000  0.58779000  1.0
  C  C90  1  0.08731000  0.08721000  0.00006000  1.0
  C  C91  1  0.33706000  0.83733000  0.49981000  1.0
  C  C92  1  0.95831000  0.95820000  0.00004000  1.0
  C  C93  1  0.20806000  0.70839000  0.49985000  1.0
  C  C94  1  0.88621000  0.82359000  0.91926000  1.0
  C  C95  1  0.90394000  0.96648000  0.08076000  1.0
  C  C96  1  0.21649000  0.65417000  0.58064000  1.0
  C  C97  1  0.07347000  0.63624000  0.41905000  1.0
  C  C98  1  0.76658000  0.70431000  0.92320000  1.0
  C  C99  1  0.78066000  0.84293000  0.07671000  1.0
  C  C100  1  0.09301000  0.53085000  0.57662000  1.0
  C  C101  1  0.95429000  0.51660000  0.42306000  1.0
  S  S102  1  0.25998000  0.32401000  0.55616000  1.0
  S  S103  1  0.76772000  0.70359000  0.44363000  1.0
  S  S104  1  0.95373000  0.51765000  0.94385000  1.0
  S  S105  1  0.57388000  0.00998000  0.05618000  1.0
  N  N106  1  0.15396000  0.85192000  0.19342000  1.0
  N  N107  1  0.65805000  0.96014000  0.80653000  1.0
  N  N108  1  0.21025000  0.40819000  0.30694000  1.0
  N  N109  1  0.10177000  0.90363000  0.69345000  1.0
  N  N110  1  0.33209000  0.33228000  0.00004000  1.0
  N  N111  1  0.58222000  0.08218000  0.49996000  1.0
  N  N112  1  0.71327000  0.71327000  0.99997000  1.0
  N  N113  1  0.96334000  0.46334000  0.49985000  1.0
  O  O114  1  0.12178000  0.26064000  0.57956000  1.0
  O  O115  1  0.68109000  0.54217000  0.42050000  1.0
  O  O116  1  0.79231000  0.43094000  0.92072000  1.0
  O  O117  1  0.51043000  0.87184000  0.07967000  1.0
  O  O118  1  0.40061000  0.52584000  0.76152000  1.0
  O  O119  1  0.76443000  0.63951000  0.23801000  1.0
  O  O120  1  0.88916000  0.51417000  0.73822000  1.0
  O  O121  1  0.77570000  0.15030000  0.26155000  1.0
  O  O122  1  0.46777000  0.40046000  0.84087000  1.0
  O  O123  1  0.55899000  0.62604000  0.15903000  1.0
  O  O124  1  0.87634000  0.30913000  0.65917000  1.0
  O  O125  1  0.65072000  0.21795000  0.34101000  1.0
  O  O126  1  0.23876000  0.88326000  0.14455000  1.0
  O  O127  1  0.73805000  0.09363000  0.85498000  1.0
  O  O128  1  0.34374000  0.48811000  0.35543000  1.0
  O  O129  1  0.13316000  0.98854000  0.64467000  1.0
  O  O130  1  0.04296000  0.72893000  0.16798000  1.0
  O  O131  1  0.56069000  0.87487000  0.83244000  1.0
  O  O132  1  0.12485000  0.31103000  0.33292000  1.0
  O  O133  1  0.97877000  0.79262000  0.66792000  1.0
  O  O134  1  0.65321000  0.44254000  0.05258000  1.0
  O  O135  1  0.39042000  0.60130000  0.94753000  1.0
  O  O136  1  0.85113000  0.14039000  0.44762000  1.0
  O  O137  1  0.69265000  0.40333000  0.55258000  1.0
