# generated using pymatgen
data_HgH8C10(IN2)2
_symmetry_space_group_name_H-M   'P 1'
_cell_length_a   8.53540000
_cell_length_b   11.72880000
_cell_length_c   13.67910000
_cell_angle_alpha   89.99970000
_cell_angle_beta   90.00020000
_cell_angle_gamma   89.99970000
_symmetry_Int_Tables_number   1
_chemical_formula_structural   HgH8C10(IN2)2
_chemical_formula_sum   'Hg4 H32 C40 I8 N16'
_cell_volume   1369.41469439
_cell_formula_units_Z   4
loop_
 _symmetry_equiv_pos_site_id
 _symmetry_equiv_pos_as_xyz
  1  'x, y, z'
loop_
 _atom_site_type_symbol
 _atom_site_label
 _atom_site_symmetry_multiplicity
 _atom_site_fract_x
 _atom_site_fract_y
 _atom_site_fract_z
 _atom_site_occupancy
  Hg  Hg0  1  0.88179000  0.55287000  0.25000000  1.0
  Hg  Hg1  1  0.38180000  0.94712000  0.25000000  1.0
  Hg  Hg2  1  0.61820000  0.05288000  0.75000000  1.0
  Hg  Hg3  1  0.11820000  0.44712000  0.75000000  1.0
  H  H4  1  0.91820000  0.32700000  0.39216000  1.0
  H  H5  1  0.41819000  0.17299000  0.39215000  1.0
  H  H6  1  0.91819000  0.32701000  0.10784000  1.0
  H  H7  1  0.58180000  0.82701000  0.89215000  1.0
  H  H8  1  0.08181000  0.67299000  0.60784000  1.0
  H  H9  1  0.58181000  0.82700000  0.60785000  1.0
  H  H10  1  0.08181000  0.67300000  0.89215000  1.0
  H  H11  1  0.41819000  0.17299000  0.10784000  1.0
  H  H12  1  0.09544000  0.22786000  0.51189000  1.0
  H  H13  1  0.59544000  0.27213000  0.51188000  1.0
  H  H14  1  0.09544000  0.22786000  0.98811000  1.0
  H  H15  1  0.40456000  0.72787000  0.01188000  1.0
  H  H16  1  0.90456000  0.77213000  0.48811000  1.0
  H  H17  1  0.40457000  0.72786000  0.48812000  1.0
  H  H18  1  0.90456000  0.77214000  0.01188000  1.0
  H  H19  1  0.59543000  0.27214000  0.98812000  1.0
  H  H20  1  0.34810000  0.32458000  0.56022000  1.0
  H  H21  1  0.84810000  0.17541000  0.56021000  1.0
  H  H22  1  0.34809000  0.32458000  0.93979000  1.0
  H  H23  1  0.15191000  0.82458000  0.06021000  1.0
  H  H24  1  0.65190000  0.67542000  0.43978000  1.0
  H  H25  1  0.15191000  0.82458000  0.43979000  1.0
  H  H26  1  0.65190000  0.67542000  0.06021000  1.0
  H  H27  1  0.84809000  0.17542000  0.93979000  1.0
  H  H28  1  0.22609000  0.59874000  0.36341000  1.0
  H  H29  1  0.72609000  0.90125000  0.36341000  1.0
  H  H30  1  0.22608000  0.59875000  0.13659000  1.0
  H  H31  1  0.27391000  0.09875000  0.86341000  1.0
  H  H32  1  0.77391000  0.40126000  0.63659000  1.0
  H  H33  1  0.27392000  0.09874000  0.63660000  1.0
  H  H34  1  0.77392000  0.40125000  0.86341000  1.0
  H  H35  1  0.72608000  0.90125000  0.13659000  1.0
  C  C36  1  0.02992000  0.36453000  0.41431000  1.0
  C  C37  1  0.52992000  0.13546000  0.41430000  1.0
  C  C38  1  0.02992000  0.36454000  0.08569000  1.0
  C  C39  1  0.47008000  0.86454000  0.91431000  1.0
  C  C40  1  0.97008000  0.63547000  0.58569000  1.0
  C  C41  1  0.47008000  0.86453000  0.58570000  1.0
  C  C42  1  0.97007000  0.63547000  0.91430000  1.0
  C  C43  1  0.52992000  0.13546000  0.08569000  1.0
  C  C44  1  0.12891000  0.31005000  0.48089000  1.0
  C  C45  1  0.62892000  0.18994000  0.48089000  1.0
  C  C46  1  0.12891000  0.31005000  0.01911000  1.0
  C  C47  1  0.37109000  0.81006000  0.98089000  1.0
  C  C48  1  0.87109000  0.68995000  0.51911000  1.0
  C  C49  1  0.37109000  0.81005000  0.51911000  1.0
  C  C50  1  0.87108000  0.68996000  0.98089000  1.0
  C  C51  1  0.62891000  0.18995000  0.01911000  1.0
  C  C52  1  0.26920000  0.36206000  0.50632000  1.0
  C  C53  1  0.76920000  0.13793000  0.50632000  1.0
  C  C54  1  0.26920000  0.36207000  0.99368000  1.0
  C  C55  1  0.23080000  0.86207000  0.00632000  1.0
  C  C56  1  0.73080000  0.63794000  0.49368000  1.0
  C  C57  1  0.23081000  0.86206000  0.49368000  1.0
  C  C58  1  0.73080000  0.63795000  0.00632000  1.0
  C  C59  1  0.76920000  0.13794000  0.99368000  1.0
  C  C60  1  0.30754000  0.46665000  0.46227000  1.0
  C  C61  1  0.80754000  0.03333000  0.46226000  1.0
  C  C62  1  0.30753000  0.46666000  0.03773000  1.0
  C  C63  1  0.19246000  0.96666000  0.96227000  1.0
  C  C64  1  0.69246000  0.53334000  0.53773000  1.0
  C  C65  1  0.19247000  0.96666000  0.53774000  1.0
  C  C66  1  0.69246000  0.53335000  0.96227000  1.0
  C  C67  1  0.80753000  0.03334000  0.03773000  1.0
  C  C68  1  0.19992000  0.51672000  0.39779000  1.0
  C  C69  1  0.69992000  0.98327000  0.39779000  1.0
  C  C70  1  0.19992000  0.51673000  0.10221000  1.0
  C  C71  1  0.30008000  0.01673000  0.89779000  1.0
  C  C72  1  0.80008000  0.48328000  0.60221000  1.0
  C  C73  1  0.30008000  0.01672000  0.60221000  1.0
  C  C74  1  0.80007000  0.48328000  0.89779000  1.0
  C  C75  1  0.69992000  0.98328000  0.10221000  1.0
  I  I76  1  0.65008000  0.39662000  0.25000000  1.0
  I  I77  1  0.15008000  0.10338000  0.25000000  1.0
  I  I78  1  0.84992000  0.89662000  0.75000000  1.0
  I  I79  1  0.34992000  0.60338000  0.75000000  1.0
  I  I80  1  0.98789000  0.76905000  0.25000000  1.0
  I  I81  1  0.48789000  0.73095000  0.25000000  1.0
  I  I82  1  0.51210000  0.26905000  0.75000000  1.0
  I  I83  1  0.01210000  0.23095000  0.75000000  1.0
  N  N84  1  0.06423000  0.46626000  0.37473000  1.0
  N  N85  1  0.56423000  0.03373000  0.37473000  1.0
  N  N86  1  0.06423000  0.46627000  0.12527000  1.0
  N  N87  1  0.43577000  0.96627000  0.87473000  1.0
  N  N88  1  0.93577000  0.53373000  0.62527000  1.0
  N  N89  1  0.43577000  0.96627000  0.62527000  1.0
  N  N90  1  0.93577000  0.53373000  0.87474000  1.0
  N  N91  1  0.56423000  0.03373000  0.12526000  1.0
  N  N92  1  0.44635000  0.52845000  0.47939000  1.0
  N  N93  1  0.94636000  0.97154000  0.47939000  1.0
  N  N94  1  0.44635000  0.52846000  0.02061000  1.0
  N  N95  1  0.05365000  0.02846000  0.97939000  1.0
  N  N96  1  0.55365000  0.47155000  0.52061000  1.0
  N  N97  1  0.05364000  0.02845000  0.52061000  1.0
  N  N98  1  0.55364000  0.47155000  0.97939000  1.0
  N  N99  1  0.94636000  0.97155000  0.02061000  1.0
