# generated using pymatgen
data_Zn4H3C24S4BrCl4O13
_symmetry_space_group_name_H-M   'P 1'
_cell_length_a   19.66240000
_cell_length_b   19.74830000
_cell_length_c   33.36200000
_cell_angle_alpha   78.97860000
_cell_angle_beta   79.23190000
_cell_angle_gamma   63.98860000
_symmetry_Int_Tables_number   1
_chemical_formula_structural   Zn4H3C24S4BrCl4O13
_chemical_formula_sum   'Zn16 H12 C96 S16 Br4 Cl16 O52'
_cell_volume   11349.34629590
_cell_formula_units_Z   4
loop_
 _symmetry_equiv_pos_site_id
 _symmetry_equiv_pos_as_xyz
  1  'x, y, z'
loop_
 _atom_site_type_symbol
 _atom_site_label
 _atom_site_symmetry_multiplicity
 _atom_site_fract_x
 _atom_site_fract_y
 _atom_site_fract_z
 _atom_site_occupancy
  Zn  Zn0  1  0.05512000  0.40010000  0.47787000  1.0
  Zn  Zn1  1  0.98582000  0.48381000  0.56062000  1.0
  Zn  Zn2  1  0.05825000  0.56093000  0.48199000  1.0
  Zn  Zn3  1  0.90041000  0.55499000  0.48009000  1.0
  Zn  Zn4  1  0.69320000  0.34909000  0.27165000  1.0
  Zn  Zn5  1  0.69089000  0.18771000  0.26599000  1.0
  Zn  Zn6  1  0.76965000  0.26629000  0.19033000  1.0
  Zn  Zn7  1  0.84798000  0.19631000  0.27269000  1.0
  Zn  Zn8  1  0.26594000  0.76585000  0.69014000  1.0
  Zn  Zn9  1  0.34981000  0.69708000  0.77174000  1.0
  Zn  Zn10  1  0.19205000  0.84851000  0.77094000  1.0
  Zn  Zn11  1  0.19137000  0.68727000  0.76686000  1.0
  Zn  Zn12  1  0.55873000  0.06165000  0.98323000  1.0
  Zn  Zn13  1  0.40235000  0.05336000  0.97782000  1.0
  Zn  Zn14  1  0.55637000  0.90042000  0.97852000  1.0
  Zn  Zn15  1  0.48206000  0.98482000  0.06055000  1.0
  H  H16  1  0.95368000  0.25030000  0.35175000  1.0
  H  H17  1  0.74617000  0.45421000  0.34976000  1.0
  H  H18  1  0.99828000  0.30137000  0.39981000  1.0
  H  H19  1  0.09631000  0.59578000  0.69955000  1.0
  H  H20  1  0.20206000  0.70145000  0.59897000  1.0
  H  H21  1  0.05035000  0.55109000  0.64897000  1.0
  H  H22  1  0.55008000  0.05118000  0.15367000  1.0
  H  H23  1  0.65078000  0.15210000  0.04817000  1.0
  H  H24  1  0.60152000  0.10006000  0.19934000  1.0
  H  H25  1  0.50151000  0.79390000  0.89789000  1.0
  H  H26  1  0.29841000  0.00208000  0.90023000  1.0
  H  H27  1  0.44822000  0.75172000  0.84981000  1.0
  C  C28  1  0.06170000  0.31646000  0.56178000  1.0
  C  C29  1  0.06931000  0.57068000  0.56854000  1.0
  C  C30  1  0.18334000  0.43970000  0.43840000  1.0
  C  C31  1  0.93601000  0.68402000  0.43875000  1.0
  C  C32  1  0.93042000  0.43070000  0.43106000  1.0
  C  C33  1  0.81745000  0.56091000  0.56293000  1.0
  C  C34  1  0.56605000  0.30947000  0.31103000  1.0
  C  C35  1  0.68268000  0.17989000  0.18043000  1.0
  C  C36  1  0.68973000  0.43329000  0.18826000  1.0
  C  C37  1  0.93560000  0.18822000  0.19002000  1.0
  C  C38  1  0.81854000  0.32040000  0.31935000  1.0
  C  C39  1  0.81304000  0.06590000  0.31132000  1.0
  C  C40  1  0.43313000  0.68954000  0.68804000  1.0
  C  C41  1  0.31798000  0.82079000  0.81888000  1.0
  C  C42  1  0.18815000  0.93287000  0.68796000  1.0
  C  C43  1  0.06546000  0.80871000  0.81091000  1.0
  C  C44  1  0.18048000  0.67923000  0.68125000  1.0
  C  C45  1  0.31425000  0.56596000  0.81113000  1.0
  C  C46  1  0.43703000  0.18389000  0.93858000  1.0
  C  C47  1  0.43259000  0.92861000  0.93060000  1.0
  C  C48  1  0.68363000  0.94060000  0.93884000  1.0
  C  C49  1  0.56063000  0.81708000  0.06212000  1.0
  C  C50  1  0.56787000  0.07036000  0.06969000  1.0
  C  C51  1  0.31530000  0.06190000  0.06045000  1.0
  C  C52  1  0.89822000  0.40598000  0.40211000  1.0
  C  C53  1  0.84698000  0.34945000  0.34793000  1.0
  C  C54  1  0.82638000  0.44915000  0.38758000  1.0
  C  C55  1  0.91846000  0.30585000  0.36192000  1.0
  C  C56  1  0.80154000  0.42075000  0.36080000  1.0
  C  C57  1  0.94299000  0.33429000  0.38852000  1.0
  C  C58  1  0.09979000  0.60049000  0.59573000  1.0
  C  C59  1  0.15199000  0.65143000  0.65211000  1.0
  C  C60  1  0.14318000  0.64337000  0.58175000  1.0
  C  C61  1  0.10913000  0.60889000  0.66658000  1.0
  C  C62  1  0.16872000  0.66840000  0.60984000  1.0
  C  C63  1  0.08379000  0.58420000  0.63854000  1.0
  C  C64  1  0.30517000  0.45385000  0.40073000  1.0
  C  C65  1  0.44484000  0.29487000  0.34950000  1.0
  C  C66  1  0.25851000  0.41536000  0.41387000  1.0
  C  C67  1  0.49138000  0.33337000  0.33612000  1.0
  C  C68  1  0.37702000  0.33883000  0.37308000  1.0
  C  C69  1  0.37317000  0.40981000  0.37725000  1.0
  C  C70  1  0.72574000  0.57543000  0.63073000  1.0
  C  C71  1  0.52473000  0.67380000  0.62023000  1.0
  C  C72  1  0.74310000  0.58500000  0.58817000  1.0
  C  C73  1  0.50751000  0.66452000  0.66284000  1.0
  C  C74  1  0.60442000  0.64125000  0.60853000  1.0
  C  C75  1  0.64607000  0.60784000  0.64239000  1.0
  C  C76  1  0.07642000  0.22474000  0.62976000  1.0
  C  C77  1  0.17426000  0.02436000  0.62002000  1.0
  C  C78  1  0.08608000  0.24209000  0.58715000  1.0
  C  C79  1  0.16436000  0.00713000  0.66263000  1.0
  C  C80  1  0.14214000  0.10379000  0.60805000  1.0
  C  C81  1  0.10864000  0.14531000  0.64170000  1.0
  C  C82  1  0.84218000  0.80169000  0.39695000  1.0
  C  C83  1  0.90700000  0.94805000  0.35297000  1.0
  C  C84  1  0.91060000  0.75850000  0.41368000  1.0
  C  C85  1  0.83853000  0.99123000  0.33622000  1.0
  C  C86  1  0.90836000  0.87880000  0.37505000  1.0
  C  C87  1  0.84102000  0.87076000  0.37472000  1.0
  C  C88  1  0.65491000  0.15349000  0.15010000  1.0
  C  C89  1  0.59753000  0.09875000  0.09802000  1.0
  C  C90  1  0.66850000  0.16810000  0.10688000  1.0
  C  C91  1  0.58333000  0.08381000  0.14080000  1.0
  C  C92  1  0.64000000  0.14076000  0.08140000  1.0
  C  C93  1  0.61186000  0.11098000  0.16603000  1.0
  C  C94  1  0.67380000  0.52492000  0.12026000  1.0
  C  C95  1  0.57575000  0.72531000  0.13010000  1.0
  C  C96  1  0.66470000  0.50762000  0.16289000  1.0
  C  C97  1  0.58501000  0.74274000  0.08749000  1.0
  C  C98  1  0.60812000  0.64586000  0.14201000  1.0
  C  C99  1  0.64127000  0.60438000  0.10833000  1.0
  C  C100  1  0.08305000  0.12300000  0.17810000  1.0
  C  C101  1  0.16782000  0.12620000  0.07236000  1.0
  C  C102  1  0.01056000  0.16249000  0.16544000  1.0
  C  C103  1  0.24033000  0.08701000  0.08503000  1.0
  C  C104  1  0.11045000  0.13931000  0.10635000  1.0
  C  C105  1  0.14039000  0.10980000  0.14411000  1.0
  C  C106  1  0.34389000  0.85210000  0.84771000  1.0
  C  C107  1  0.40292000  0.90092000  0.90192000  1.0
  C  C108  1  0.30158000  0.92342000  0.86234000  1.0
  C  C109  1  0.44568000  0.82991000  0.88783000  1.0
  C  C110  1  0.33119000  0.94710000  0.88910000  1.0
  C  C111  1  0.41606000  0.80662000  0.86119000  1.0
  C  C112  1  0.40816000  0.44804000  0.85294000  1.0
  C  C113  1  0.34294000  0.30194000  0.89703000  1.0
  C  C114  1  0.33986000  0.49127000  0.83611000  1.0
  C  C115  1  0.41142000  0.25862000  0.91374000  1.0
  C  C116  1  0.34182000  0.37104000  0.87484000  1.0
  C  C117  1  0.40923000  0.37897000  0.87516000  1.0
  C  C118  1  0.94410000  0.79463000  0.84956000  1.0
  C  C119  1  0.80532000  0.95434000  0.90053000  1.0
  C  C120  1  0.99080000  0.83290000  0.83595000  1.0
  C  C121  1  0.75848000  0.91616000  0.91403000  1.0
  C  C122  1  0.87299000  0.90994000  0.87699000  1.0
  C  C123  1  0.87643000  0.83898000  0.87310000  1.0
  S  S124  1  0.29805000  0.32556000  0.39769000  1.0
  S  S125  1  0.45207000  0.42307000  0.35247000  1.0
  S  S126  1  0.66213000  0.63332000  0.56253000  1.0
  S  S127  1  0.58848000  0.61601000  0.68842000  1.0
  S  S128  1  0.13444000  0.16135000  0.56190000  1.0
  S  S129  1  0.11600000  0.08789000  0.68787000  1.0
  S  S130  1  0.97324000  0.80226000  0.40222000  1.0
  S  S131  1  0.77616000  0.94721000  0.34750000  1.0
  S  S132  1  0.61634000  0.58833000  0.18817000  1.0
  S  S133  1  0.63315000  0.66201000  0.06219000  1.0
  S  S134  1  0.01263000  0.18319000  0.11215000  1.0
  S  S135  1  0.23822000  0.06620000  0.13832000  1.0
  S  S136  1  0.27716000  0.44756000  0.84752000  1.0
  S  S137  1  0.47398000  0.30246000  0.90240000  1.0
  S  S138  1  0.95194000  0.92278000  0.85198000  1.0
  S  S139  1  0.79739000  0.82622000  0.89805000  1.0
  Br  Br140  1  0.75617000  0.54721000  0.40144000  1.0
  Br  Br141  1  0.17242000  0.67146000  0.52563000  1.0
  Br  Br142  1  0.72439000  0.22442000  0.07837000  1.0
  Br  Br143  1  0.20313000  0.99430000  0.84862000  1.0
  Cl  Cl144  1  0.28696000  0.54230000  0.41046000  1.0
  Cl  Cl145  1  0.46303000  0.20632000  0.33989000  1.0
  Cl  Cl146  1  0.78896000  0.53105000  0.66620000  1.0
  Cl  Cl147  1  0.46156000  0.71807000  0.58474000  1.0
  Cl  Cl148  1  0.03214000  0.28764000  0.66501000  1.0
  Cl  Cl149  1  0.21840000  0.96135000  0.58484000  1.0
  Cl  Cl150  1  0.76720000  0.77814000  0.40106000  1.0
  Cl  Cl151  1  0.98218000  0.97137000  0.34871000  1.0
  Cl  Cl152  1  0.71726000  0.46194000  0.08503000  1.0
  Cl  Cl153  1  0.53198000  0.78823000  0.16536000  1.0
  Cl  Cl154  1  0.10458000  0.09263000  0.22746000  1.0
  Cl  Cl155  1  0.14618000  0.15654000  0.02302000  1.0
  Cl  Cl156  1  0.48337000  0.47131000  0.84868000  1.0
  Cl  Cl157  1  0.26778000  0.27859000  0.90131000  1.0
  Cl  Cl158  1  0.96200000  0.70603000  0.84018000  1.0
  Cl  Cl159  1  0.78761000  0.04287000  0.90991000  1.0
  O  O160  1  0.00077000  0.49821000  0.50017000  1.0
  O  O161  1  0.07799000  0.31504000  0.52282000  1.0
  O  O162  1  0.03324000  0.53071000  0.58656000  1.0
  O  O163  1  0.15424000  0.50623000  0.44904000  1.0
  O  O164  1  0.02695000  0.37498000  0.58061000  1.0
  O  O165  1  0.15400000  0.39136000  0.44668000  1.0
  O  O166  1  0.08117000  0.58714000  0.52994000  1.0
  O  O167  1  0.00385000  0.65697000  0.44857000  1.0
  O  O168  1  0.88935000  0.49469000  0.44382000  1.0
  O  O169  1  0.88931000  0.65322000  0.44854000  1.0
  O  O170  1  0.99691000  0.38523000  0.44077000  1.0
  O  O171  1  0.87681000  0.52594000  0.58147000  1.0
  O  O172  1  0.81508000  0.57791000  0.52400000  1.0
  O  O173  1  0.74937000  0.25012000  0.25060000  1.0
  O  O174  1  0.59504000  0.35814000  0.30307000  1.0
  O  O175  1  0.66477000  0.16187000  0.21856000  1.0
  O  O176  1  0.72733000  0.37475000  0.16964000  1.0
  O  O177  1  0.59503000  0.24360000  0.29955000  1.0
  O  O178  1  0.67122000  0.43463000  0.22714000  1.0
  O  O179  1  0.72171000  0.21794000  0.16619000  1.0
  O  O180  1  0.87827000  0.22421000  0.16950000  1.0
  O  O181  1  0.86267000  0.25480000  0.30882000  1.0
  O  O182  1  0.93393000  0.17295000  0.22893000  1.0
  O  O183  1  0.75294000  0.36333000  0.30796000  1.0
  O  O184  1  0.74672000  0.09167000  0.29962000  1.0
  O  O185  1  0.85853000  0.09812000  0.30363000  1.0
  O  O186  1  0.25005000  0.74913000  0.75045000  1.0
  O  O187  1  0.37420000  0.72422000  0.66913000  1.0
  O  O188  1  0.36445000  0.75564000  0.80822000  1.0
  O  O189  1  0.16989000  0.93428000  0.72684000  1.0
  O  O190  1  0.43481000  0.67393000  0.72705000  1.0
  O  O191  1  0.22439000  0.87420000  0.66933000  1.0
  O  O192  1  0.25242000  0.86072000  0.80725000  1.0
  O  O193  1  0.09405000  0.85766000  0.80238000  1.0
  O  O194  1  0.16497000  0.66144000  0.71958000  1.0
  O  O195  1  0.09488000  0.74234000  0.80004000  1.0
  O  O196  1  0.21793000  0.71854000  0.66516000  1.0
  O  O197  1  0.35959000  0.59835000  0.80279000  1.0
  O  O198  1  0.24742000  0.59144000  0.80011000  1.0
  O  O199  1  0.50077000  0.99906000  0.00011000  1.0
  O  O200  1  0.50365000  0.15803000  0.94992000  1.0
  O  O201  1  0.38929000  0.99404000  0.94157000  1.0
  O  O202  1  0.65438000  0.89217000  0.94701000  1.0
  O  O203  1  0.39160000  0.15158000  0.94659000  1.0
  O  O204  1  0.65467000  0.00683000  0.94987000  1.0
  O  O205  1  0.49830000  0.88484000  0.94164000  1.0
  O  O206  1  0.57848000  0.81543000  0.02322000  1.0
  O  O207  1  0.52921000  0.03248000  0.08640000  1.0
  O  O208  1  0.52438000  0.87581000  0.08070000  1.0
  O  O209  1  0.58380000  0.08647000  0.03121000  1.0
  O  O210  1  0.31665000  0.07664000  0.02152000  1.0
  O  O211  1  0.37285000  0.02712000  0.08088000  1.0
