# generated using pymatgen
data_Cu3H24C14(N13O)2
_symmetry_space_group_name_H-M   'P 1'
_cell_length_a   7.81462000
_cell_length_b   9.36405000
_cell_length_c   11.03470000
_cell_angle_alpha   100.88100000
_cell_angle_beta   103.84500000
_cell_angle_gamma   108.86800000
_symmetry_Int_Tables_number   1
_chemical_formula_structural   Cu3H24C14(N13O)2
_chemical_formula_sum   'Cu3 H24 C14 N26 O2'
_cell_volume   710.08119845
_cell_formula_units_Z   1
loop_
 _symmetry_equiv_pos_site_id
 _symmetry_equiv_pos_as_xyz
  1  'x, y, z'
loop_
 _atom_site_type_symbol
 _atom_site_label
 _atom_site_symmetry_multiplicity
 _atom_site_fract_x
 _atom_site_fract_y
 _atom_site_fract_z
 _atom_site_occupancy
  Cu  Cu0  1  0.44477000  0.15781000  0.10063000  1.0
  Cu  Cu1  1  0.55701000  0.84260000  0.89947000  1.0
  Cu  Cu2  1  0.99829000  0.99840000  0.99933000  1.0
  H  H3  1  0.97281000  0.14655000  0.56686000  1.0
  H  H4  1  0.02741000  0.85328000  0.43322000  1.0
  H  H5  1  0.71097000  0.89378000  0.40830000  1.0
  H  H6  1  0.28904000  0.10607000  0.59188000  1.0
  H  H7  1  0.49659000  0.92147000  0.20864000  1.0
  H  H8  1  0.50377000  0.07842000  0.79141000  1.0
  H  H9  1  0.69038000  0.45046000  0.26977000  1.0
  H  H10  1  0.30958000  0.54956000  0.73055000  1.0
  H  H11  1  0.90091000  0.53598000  0.41061000  1.0
  H  H12  1  0.09911000  0.46395000  0.58962000  1.0
  H  H13  1  0.29604000  0.50956000  0.04841000  1.0
  H  H14  1  0.70405000  0.49046000  0.95161000  1.0
  H  H15  1  0.48276000  0.50377000  0.37899000  1.0
  H  H16  1  0.51728000  0.49628000  0.62103000  1.0
  H  H17  1  0.25404000  0.48242000  0.39465000  1.0
  H  H18  1  0.74586000  0.51749000  0.60519000  1.0
  H  H19  1  0.44066000  0.67438000  0.44363000  1.0
  H  H20  1  0.55932000  0.32557000  0.55647000  1.0
  H  H21  1  0.13320000  0.63679000  0.11223000  1.0
  H  H22  1  0.86694000  0.36324000  0.88774000  1.0
  H  H23  1  0.23803000  0.76622000  0.27459000  1.0
  H  H24  1  0.76188000  0.23378000  0.72541000  1.0
  H  H25  1  0.04970000  0.57922000  0.23917000  1.0
  H  H26  1  0.95035000  0.42070000  0.76076000  1.0
  C  C27  1  0.77168000  0.29618000  0.35547000  1.0
  C  C28  1  0.22846000  0.70373000  0.64468000  1.0
  C  C29  1  0.87187000  0.14743000  0.47944000  1.0
  C  C30  1  0.12833000  0.85241000  0.52064000  1.0
  C  C31  1  0.72800000  0.00789000  0.39269000  1.0
  C  C32  1  0.27219000  0.99195000  0.60741000  1.0
  C  C33  1  0.60979000  0.02315000  0.28469000  1.0
  C  C34  1  0.39044000  0.97671000  0.71539000  1.0
  C  C35  1  0.35829000  0.49555000  0.14418000  1.0
  C  C36  1  0.64202000  0.50465000  0.85588000  1.0
  C  C37  1  0.37660000  0.55701000  0.37234000  1.0
  C  C38  1  0.62341000  0.44302000  0.62766000  1.0
  C  C39  1  0.17663000  0.64219000  0.21539000  1.0
  C  C40  1  0.82344000  0.35782000  0.78459000  1.0
  N  N41  1  0.62835000  0.16434000  0.26521000  1.0
  N  N42  1  0.37181000  0.83552000  0.73491000  1.0
  N  N43  1  0.89472000  0.28841000  0.46214000  1.0
  N  N44  1  0.10553000  0.71143000  0.53793000  1.0
  N  N45  1  0.79341000  0.43813000  0.33984000  1.0
  N  N46  1  0.20655000  0.56179000  0.66043000  1.0
  N  N47  1  0.21770000  0.10227000  0.93720000  1.0
  N  N48  1  0.78210000  0.89809000  0.06381000  1.0
  N  N49  1  0.20653000  0.18893000  0.86918000  1.0
  N  N50  1  0.79287000  0.81060000  0.13098000  1.0
  N  N51  1  0.19454000  0.26845000  0.80118000  1.0
  N  N52  1  0.80439000  0.73096000  0.19898000  1.0
  N  N53  1  0.21837000  0.04999000  0.16069000  1.0
  N  N54  1  0.78165000  0.95114000  0.83836000  1.0
  N  N55  1  0.21443000  0.10654000  0.26828000  1.0
  N  N56  1  0.78503000  0.89296000  0.73108000  1.0
  N  N57  1  0.21355000  0.15870000  0.37211000  1.0
  N  N58  1  0.78513000  0.84008000  0.62717000  1.0
  N  N59  1  0.63224000  0.20427000  0.00787000  1.0
  N  N60  1  0.36796000  0.79651000  0.99168000  1.0
  N  N61  1  0.79844000  0.22936000  0.05461000  1.0
  N  N62  1  0.20184000  0.77168000  0.94535000  1.0
  N  N63  1  0.96119000  0.25218000  0.09238000  1.0
  N  N64  1  0.03909000  0.74921000  0.90792000  1.0
  N  N65  1  0.31497000  0.56995000  0.24134000  1.0
  N  N66  1  0.68524000  0.43022000  0.75870000  1.0
  O  O67  1  0.46246000  0.41839000  0.15711000  1.0
  O  O68  1  0.53800000  0.58199000  0.84295000  1.0
