# generated using pymatgen
data_CdH8(C2O3)2
_symmetry_space_group_name_H-M   'P 1'
_cell_length_a   7.69858000
_cell_length_b   7.96337000
_cell_length_c   12.20240000
_cell_angle_alpha   90.00010000
_cell_angle_beta   90.00060000
_cell_angle_gamma   91.11020000
_symmetry_Int_Tables_number   1
_chemical_formula_structural   CdH8(C2O3)2
_chemical_formula_sum   'Cd4 H32 C16 O24'
_cell_volume   747.94772418
_cell_formula_units_Z   4
loop_
 _symmetry_equiv_pos_site_id
 _symmetry_equiv_pos_as_xyz
  1  'x, y, z'
loop_
 _atom_site_type_symbol
 _atom_site_label
 _atom_site_symmetry_multiplicity
 _atom_site_fract_x
 _atom_site_fract_y
 _atom_site_fract_z
 _atom_site_occupancy
  Cd  Cd0  1  0.82227000  0.91939000  0.41340000  1.0
  Cd  Cd1  1  0.17773000  0.58061000  0.91341000  1.0
  Cd  Cd2  1  0.17773000  0.08061000  0.58659000  1.0
  Cd  Cd3  1  0.82227000  0.41939000  0.08659000  1.0
  H  H4  1  0.35790000  0.52559000  0.38302000  1.0
  H  H5  1  0.64210000  0.97440000  0.88302000  1.0
  H  H6  1  0.64210000  0.47441000  0.61698000  1.0
  H  H7  1  0.35791000  0.02560000  0.11697000  1.0
  H  H8  1  0.24247000  0.71284000  0.38470000  1.0
  H  H9  1  0.75753000  0.78715000  0.88469000  1.0
  H  H10  1  0.75753000  0.28717000  0.61530000  1.0
  H  H11  1  0.24248000  0.21285000  0.11531000  1.0
  H  H12  1  0.40913000  0.56201000  0.17826000  1.0
  H  H13  1  0.59085000  0.93799000  0.67825000  1.0
  H  H14  1  0.59086000  0.43799000  0.82174000  1.0
  H  H15  1  0.40915000  0.06200000  0.32174000  1.0
  H  H16  1  0.30710000  0.75525000  0.18130000  1.0
  H  H17  1  0.69289000  0.74475000  0.68129000  1.0
  H  H18  1  0.69290000  0.24475000  0.81870000  1.0
  H  H19  1  0.30711000  0.25524000  0.31871000  1.0
  H  H20  1  0.03478000  0.67889000  0.51062000  1.0
  H  H21  1  0.96522000  0.82111000  0.01061000  1.0
  H  H22  1  0.96522000  0.32111000  0.48938000  1.0
  H  H23  1  0.03478000  0.17888000  0.98939000  1.0
  H  H24  1  0.97755000  0.60300000  0.39539000  1.0
  H  H25  1  0.02244000  0.89699000  0.89538000  1.0
  H  H26  1  0.02245000  0.39700000  0.60461000  1.0
  H  H27  1  0.97755000  0.10300000  0.10462000  1.0
  H  H28  1  0.63419000  0.20680000  0.45257000  1.0
  H  H29  1  0.36582000  0.29320000  0.95257000  1.0
  H  H30  1  0.36582000  0.79320000  0.54743000  1.0
  H  H31  1  0.63418000  0.70680000  0.04743000  1.0
  H  H32  1  0.70249000  0.22822000  0.33030000  1.0
  H  H33  1  0.29751000  0.27180000  0.83030000  1.0
  H  H34  1  0.29751000  0.77179000  0.66970000  1.0
  H  H35  1  0.70249000  0.72821000  0.16970000  1.0
  C  C36  1  0.51314000  0.74665000  0.36992000  1.0
  C  C37  1  0.48686000  0.75334000  0.86991000  1.0
  C  C38  1  0.48686000  0.25335000  0.63009000  1.0
  C  C39  1  0.51314000  0.24666000  0.13010000  1.0
  C  C40  1  0.34865000  0.64912000  0.34284000  1.0
  C  C41  1  0.65134000  0.85087000  0.84284000  1.0
  C  C42  1  0.65134000  0.35088000  0.65716000  1.0
  C  C43  1  0.34866000  0.14912000  0.15716000  1.0
  C  C44  1  0.30855000  0.63153000  0.22165000  1.0
  C  C45  1  0.69144000  0.86846000  0.72164000  1.0
  C  C46  1  0.69145000  0.36846000  0.77835000  1.0
  C  C47  1  0.30856000  0.13153000  0.27836000  1.0
  C  C48  1  0.13409000  0.54894000  0.19706000  1.0
  C  C49  1  0.86591000  0.95107000  0.69706000  1.0
  C  C50  1  0.86591000  0.45106000  0.80294000  1.0
  C  C51  1  0.13410000  0.04893000  0.30294000  1.0
  O  O52  1  0.53596000  0.79473000  0.46864000  1.0
  O  O53  1  0.46405000  0.70527000  0.96863000  1.0
  O  O54  1  0.46404000  0.20528000  0.53136000  1.0
  O  O55  1  0.53596000  0.29473000  0.03137000  1.0
  O  O56  1  0.62651000  0.78274000  0.29628000  1.0
  O  O57  1  0.37349000  0.71725000  0.79627000  1.0
  O  O58  1  0.37349000  0.21727000  0.70372000  1.0
  O  O59  1  0.62651000  0.28275000  0.20373000  1.0
  O  O60  1  0.01908000  0.52317000  0.26889000  1.0
  O  O61  1  0.98091000  0.97683000  0.76889000  1.0
  O  O62  1  0.98093000  0.47684000  0.73111000  1.0
  O  O63  1  0.01909000  0.02315000  0.23111000  1.0
  O  O64  1  0.10833000  0.50558000  0.09622000  1.0
  O  O65  1  0.89166000  0.99443000  0.59621000  1.0
  O  O66  1  0.89167000  0.49442000  0.90378000  1.0
  O  O67  1  0.10834000  0.00558000  0.40378000  1.0
  O  O68  1  0.93394000  0.66082000  0.46256000  1.0
  O  O69  1  0.06606000  0.83918000  0.96255000  1.0
  O  O70  1  0.06606000  0.33918000  0.53744000  1.0
  O  O71  1  0.93394000  0.16082000  0.03745000  1.0
  O  O72  1  0.74140000  0.19721000  0.40530000  1.0
  O  O73  1  0.25860000  0.30279000  0.90531000  1.0
  O  O74  1  0.25860000  0.80279000  0.59469000  1.0
  O  O75  1  0.74140000  0.69722000  0.09470000  1.0
