# generated using pymatgen
data_AlH18C27(NO2)3
_symmetry_space_group_name_H-M   'P 1'
_cell_length_a   3.95536000
_cell_length_b   15.11531004
_cell_length_c   15.52212881
_cell_angle_alpha   62.67248194
_cell_angle_beta   86.39184082
_cell_angle_gamma   87.55860820
_symmetry_Int_Tables_number   1
_chemical_formula_structural   AlH18C27(NO2)3
_chemical_formula_sum   'Al1 H18 C27 N3 O6'
_cell_volume   822.71183794
_cell_formula_units_Z   1
loop_
 _symmetry_equiv_pos_site_id
 _symmetry_equiv_pos_as_xyz
  1  'x, y, z'
loop_
 _atom_site_type_symbol
 _atom_site_label
 _atom_site_symmetry_multiplicity
 _atom_site_fract_x
 _atom_site_fract_y
 _atom_site_fract_z
 _atom_site_occupancy
  Al  Al0  1  0.99580000  0.50009000  0.49470000  1.0
  H  H1  1  0.48896000  0.50698000  0.76934000  1.0
  H  H2  1  0.29129000  0.59562000  0.86666000  1.0
  H  H3  1  0.16220000  0.86455000  0.60242000  1.0
  H  H4  1  0.90691000  0.58972000  0.04785000  1.0
  H  H5  1  0.39683000  0.76796000  0.22558000  1.0
  H  H6  1  0.52045000  0.85994000  0.04613000  1.0
  H  H7  1  0.50721000  0.04745000  0.85848000  1.0
  H  H8  1  0.85086000  0.23122000  0.50944000  1.0
  H  H9  1  0.98631000  0.04893000  0.60233000  1.0
  H  H10  1  0.09432000  0.79262000  0.44473000  1.0
  H  H11  1  0.52995000  0.76585000  0.43841000  1.0
  H  H12  1  0.39409000  0.87380000  0.45068000  1.0
  H  H13  1  0.74460000  0.42733000  0.19687000  1.0
  H  H14  1  0.67397000  0.42710000  0.31155000  1.0
  H  H15  1  0.07972000  0.45383000  0.25208000  1.0
  H  H16  1  0.03606000  0.23765000  0.78314000  1.0
  H  H17  1  0.37867000  0.31872000  0.75483000  1.0
  H  H18  1  0.37799000  0.20148000  0.86177000  1.0
  C  C19  1  0.51749000  0.34775000  0.56890000  1.0
  C  C20  1  0.46105000  0.57616000  0.57681000  1.0
  C  C21  1  0.52608000  0.57654000  0.34479000  1.0
  C  C22  1  0.81684000  0.78479000  0.93193000  1.0
  C  C23  1  0.05487000  0.78739000  0.79339000  1.0
  C  C24  1  0.82919000  0.92958000  0.79094000  1.0
  C  C25  1  0.41347000  0.58544000  0.73343000  1.0
  C  C26  1  0.30500000  0.63432000  0.78761000  1.0
  C  C27  1  0.20479000  0.73487000  0.73965000  1.0
  C  C28  1  0.23122000  0.78568000  0.63796000  1.0
  C  C29  1  0.32819000  0.73741000  0.58229000  1.0
  C  C30  1  0.41126000  0.63492000  0.63172000  1.0
  C  C31  1  0.79203000  0.62761000  0.08785000  1.0
  C  C32  1  0.71975000  0.57406000  0.18776000  1.0
  C  C33  1  0.58120000  0.62690000  0.23670000  1.0
  C  C34  1  0.50849000  0.72922000  0.18598000  1.0
  C  C35  1  0.57701000  0.78063000  0.08649000  1.0
  C  C36  1  0.72593000  0.73010000  0.03678000  1.0
  C  C37  1  0.57390000  0.08834000  0.78102000  1.0
  C  C38  1  0.48772000  0.18956000  0.73041000  1.0
  C  C39  1  0.58594000  0.23997000  0.63056000  1.0
  C  C40  1  0.76889000  0.18921000  0.58567000  1.0
  C  C41  1  0.84517000  0.08858000  0.63672000  1.0
  C  C42  1  0.74665000  0.03699000  0.73567000  1.0
  C  C43  1  0.33903000  0.79541000  0.47320000  1.0
  C  C44  1  0.80677000  0.46459000  0.24009000  1.0
  C  C45  1  0.31254000  0.24006000  0.78531000  1.0
  N  N46  1  0.97717000  0.73398000  0.88882000  1.0
  N  N47  1  0.99282000  0.88569000  0.74191000  1.0
  N  N48  1  0.73286000  0.88234000  0.88566000  1.0
  O  O49  1  0.73552000  0.59731000  0.39203000  1.0
  O  O50  1  0.73707000  0.39534000  0.49984000  1.0
  O  O51  1  0.70448000  0.51307000  0.59497000  1.0
  O  O52  1  0.27946000  0.51724000  0.38259000  1.0
  O  O53  1  0.24132000  0.59292000  0.51386000  1.0
  O  O54  1  0.24879000  0.38783000  0.58583000  1.0
