# generated using pymatgen
data_ZnH4(CO)4
_symmetry_space_group_name_H-M   'P 1'
_cell_length_a   4.87949000
_cell_length_b   4.87949000
_cell_length_c   11.22880000
_cell_angle_alpha   83.42120000
_cell_angle_beta   83.42100000
_cell_angle_gamma   89.06560000
_symmetry_Int_Tables_number   1
_chemical_formula_structural   ZnH4(CO)4
_chemical_formula_sum   'Zn2 H8 C8 O8'
_cell_volume   263.84046509
_cell_formula_units_Z   2
loop_
 _symmetry_equiv_pos_site_id
 _symmetry_equiv_pos_as_xyz
  1  'x, y, z'
loop_
 _atom_site_type_symbol
 _atom_site_label
 _atom_site_symmetry_multiplicity
 _atom_site_fract_x
 _atom_site_fract_y
 _atom_site_fract_z
 _atom_site_occupancy
  Zn  Zn0  1  0.51426000  0.48574000  0.75000000  1.0
  Zn  Zn1  1  0.48574000  0.51426000  0.25000000  1.0
  H  H2  1  0.24181000  0.97078000  0.90014000  1.0
  H  H3  1  0.97078000  0.24181000  0.40014000  1.0
  H  H4  1  0.75820000  0.02922000  0.09986000  1.0
  H  H5  1  0.02922000  0.75820000  0.59986000  1.0
  H  H6  1  0.23823000  0.20077000  0.00771000  1.0
  H  H7  1  0.20077000  0.23823000  0.50771000  1.0
  H  H8  1  0.76177000  0.79924000  0.99229000  1.0
  H  H9  1  0.79924000  0.76177000  0.49229000  1.0
  C  C10  1  0.10150000  0.09214000  0.95764000  1.0
  C  C11  1  0.09214000  0.10150000  0.45764000  1.0
  C  C12  1  0.89850000  0.90786000  0.04236000  1.0
  C  C13  1  0.90786000  0.89850000  0.54236000  1.0
  C  C14  1  0.96617000  0.30390000  0.87451000  1.0
  C  C15  1  0.30390000  0.96617000  0.37451000  1.0
  C  C16  1  0.03383000  0.69610000  0.12549000  1.0
  C  C17  1  0.69610000  0.03383000  0.62549000  1.0
  O  O18  1  0.70347000  0.32230000  0.88806000  1.0
  O  O19  1  0.32230000  0.70347000  0.38806000  1.0
  O  O20  1  0.29653000  0.67770000  0.11193000  1.0
  O  O21  1  0.67770000  0.29653000  0.61194000  1.0
  O  O22  1  0.11144000  0.45865000  0.79196000  1.0
  O  O23  1  0.45865000  0.11144000  0.29196000  1.0
  O  O24  1  0.88856000  0.54135000  0.20804000  1.0
  O  O25  1  0.54135000  0.88856000  0.70804000  1.0
