# generated using pymatgen
data_CdH9C10N5O2
_symmetry_space_group_name_H-M   'P 1'
_cell_length_a   9.96207000
_cell_length_b   10.74990000
_cell_length_c   10.89530000
_cell_angle_alpha   90.00030000
_cell_angle_beta   90.00070000
_cell_angle_gamma   89.99980000
_symmetry_Int_Tables_number   1
_chemical_formula_structural   CdH9C10N5O2
_chemical_formula_sum   'Cd4 H36 C40 N20 O8'
_cell_volume   1166.79136458
_cell_formula_units_Z   4
loop_
 _symmetry_equiv_pos_site_id
 _symmetry_equiv_pos_as_xyz
  1  'x, y, z'
loop_
 _atom_site_type_symbol
 _atom_site_label
 _atom_site_symmetry_multiplicity
 _atom_site_fract_x
 _atom_site_fract_y
 _atom_site_fract_z
 _atom_site_occupancy
  Cd  Cd0  1  0.05087000  0.23800000  0.91867000  1.0
  Cd  Cd1  1  0.44913000  0.76201000  0.41867000  1.0
  Cd  Cd2  1  0.94913000  0.73799000  0.58133000  1.0
  Cd  Cd3  1  0.55087000  0.26201000  0.08133000  1.0
  H  H4  1  0.07859000  0.07579000  0.10760000  1.0
  H  H5  1  0.42142000  0.92420000  0.60760000  1.0
  H  H6  1  0.92142000  0.57580000  0.39240000  1.0
  H  H7  1  0.57858000  0.42421000  0.89240000  1.0
  H  H8  1  0.17831000  0.18685000  0.15477000  1.0
  H  H9  1  0.32169000  0.81315000  0.65476000  1.0
  H  H10  1  0.82169000  0.68685000  0.34523000  1.0
  H  H11  1  0.67831000  0.31315000  0.84523000  1.0
  H  H12  1  0.96834000  0.15969000  0.27988000  1.0
  H  H13  1  0.53167000  0.84031000  0.77988000  1.0
  H  H14  1  0.03166000  0.65969000  0.22012000  1.0
  H  H15  1  0.46833000  0.34031000  0.72013000  1.0
  H  H16  1  0.00854000  0.40803000  0.14722000  1.0
  H  H17  1  0.49146000  0.59196000  0.64722000  1.0
  H  H18  1  0.99146000  0.90804000  0.35278000  1.0
  H  H19  1  0.50854000  0.09196000  0.85278000  1.0
  H  H20  1  0.90961000  0.38343000  0.28010000  1.0
  H  H21  1  0.59039000  0.61657000  0.78010000  1.0
  H  H22  1  0.09039000  0.88343000  0.21991000  1.0
  H  H23  1  0.40961000  0.11657000  0.71990000  1.0
  H  H24  1  0.24891000  0.43550000  0.16207000  1.0
  H  H25  1  0.25109000  0.56451000  0.66208000  1.0
  H  H26  1  0.75108000  0.93550000  0.33792000  1.0
  H  H27  1  0.74892000  0.06450000  0.83792000  1.0
  H  H28  1  0.22737000  0.33757000  0.60820000  1.0
  H  H29  1  0.27264000  0.66243000  0.10820000  1.0
  H  H30  1  0.77265000  0.83757000  0.89180000  1.0
  H  H31  1  0.72735000  0.16243000  0.39180000  1.0
  H  H32  1  0.43789000  0.42350000  0.51643000  1.0
  H  H33  1  0.06211000  0.57651000  0.01643000  1.0
  H  H34  1  0.56211000  0.92348000  0.98357000  1.0
  H  H35  1  0.93788000  0.07652000  0.48357000  1.0
  H  H36  1  0.02504000  0.31009000  0.47764000  1.0
  H  H37  1  0.47496000  0.68991000  0.97764000  1.0
  H  H38  1  0.97497000  0.81009000  0.02237000  1.0
  H  H39  1  0.52503000  0.18991000  0.52236000  1.0
  C  C40  1  0.84078000  0.21038000  0.12898000  1.0
  C  C41  1  0.65922000  0.78962000  0.62898000  1.0
  C  C42  1  0.15923000  0.71038000  0.37102000  1.0
  C  C43  1  0.34077000  0.28962000  0.87102000  1.0
  C  C44  1  0.97652000  0.21572000  0.19557000  1.0
  C  C45  1  0.52349000  0.78427000  0.69556000  1.0
  C  C46  1  0.02349000  0.71572000  0.30443000  1.0
  C  C47  1  0.47651000  0.28427000  0.80444000  1.0
  C  C48  1  0.00069000  0.35256000  0.23195000  1.0
  C  C49  1  0.49931000  0.64744000  0.73195000  1.0
  C  C50  1  0.99931000  0.85256000  0.26805000  1.0
  C  C51  1  0.50069000  0.14744000  0.76805000  1.0
  C  C52  1  0.24289000  0.41523000  0.25994000  1.0
  C  C53  1  0.25711000  0.58478000  0.75994000  1.0
  C  C54  1  0.75711000  0.91522000  0.24006000  1.0
  C  C55  1  0.74289000  0.08478000  0.74006000  1.0
  C  C56  1  0.35543000  0.43627000  0.33424000  1.0
  C  C57  1  0.14457000  0.56372000  0.83424000  1.0
  C  C58  1  0.64457000  0.93627000  0.16576000  1.0
  C  C59  1  0.85543000  0.06374000  0.66576000  1.0
  C  C60  1  0.12310000  0.37136000  0.31090000  1.0
  C  C61  1  0.37691000  0.62865000  0.81090000  1.0
  C  C62  1  0.87691000  0.87136000  0.18910000  1.0
  C  C63  1  0.62309000  0.12864000  0.68909000  1.0
  C  C64  1  0.23121000  0.36091000  0.51073000  1.0
  C  C65  1  0.26880000  0.63909000  0.01073000  1.0
  C  C66  1  0.76880000  0.86090000  0.98926000  1.0
  C  C67  1  0.73120000  0.13909000  0.48926000  1.0
  C  C68  1  0.34903000  0.40864000  0.45977000  1.0
  C  C69  1  0.15098000  0.59135000  0.95977000  1.0
  C  C70  1  0.65098000  0.90864000  0.04023000  1.0
  C  C71  1  0.84901000  0.09136000  0.54023000  1.0
  C  C72  1  0.11835000  0.34415000  0.43686000  1.0
  C  C73  1  0.38165000  0.65586000  0.93686000  1.0
  C  C74  1  0.88166000  0.84414000  0.06314000  1.0
  C  C75  1  0.61834000  0.15586000  0.56314000  1.0
  C  C76  1  0.47833000  0.49007000  0.28248000  1.0
  C  C77  1  0.02167000  0.50993000  0.78248000  1.0
  C  C78  1  0.52167000  0.99006000  0.21752000  1.0
  C  C79  1  0.97833000  0.00994000  0.71751000  1.0
  N  N80  1  0.08539000  0.17038000  0.11624000  1.0
  N  N81  1  0.41461000  0.82962000  0.61623000  1.0
  N  N82  1  0.91461000  0.67038000  0.38376000  1.0
  N  N83  1  0.58539000  0.32962000  0.88377000  1.0
  N  N84  1  0.54906000  0.44528000  0.18730000  1.0
  N  N85  1  0.95094000  0.55472000  0.68730000  1.0
  N  N86  1  0.45094000  0.94528000  0.31269000  1.0
  N  N87  1  0.04906000  0.05473000  0.81269000  1.0
  N  N88  1  0.54022000  0.59253000  0.32559000  1.0
  N  N89  1  0.95978000  0.40748000  0.82558000  1.0
  N  N90  1  0.45978000  0.09252000  0.17441000  1.0
  N  N91  1  0.04022000  0.90748000  0.67441000  1.0
  N  N92  1  0.65065000  0.60960000  0.25473000  1.0
  N  N93  1  0.84935000  0.39040000  0.75473000  1.0
  N  N94  1  0.34935000  0.10960000  0.24527000  1.0
  N  N95  1  0.15065000  0.89040000  0.74527000  1.0
  N  N96  1  0.65650000  0.52125000  0.17242000  1.0
  N  N97  1  0.84350000  0.47875000  0.67242000  1.0
  N  N98  1  0.34350000  0.02126000  0.32758000  1.0
  N  N99  1  0.15650000  0.97875000  0.82758000  1.0
  O  O100  1  0.83733000  0.20432000  0.01292000  1.0
  O  O101  1  0.66268000  0.79568000  0.51292000  1.0
  O  O102  1  0.16268000  0.70431000  0.48708000  1.0
  O  O103  1  0.33732000  0.29567000  0.98708000  1.0
  O  O104  1  0.73804000  0.21943000  0.19744000  1.0
  O  O105  1  0.76196000  0.78057000  0.69745000  1.0
  O  O106  1  0.26196000  0.71943000  0.30255000  1.0
  O  O107  1  0.23804000  0.28057000  0.80255000  1.0
