# generated using pymatgen
data_Zn2H22C22N2O11
_symmetry_space_group_name_H-M   'P 1'
_cell_length_a   12.93650000
_cell_length_b   14.22870000
_cell_length_c   17.49430000
_cell_angle_alpha   96.77980000
_cell_angle_beta   89.99990000
_cell_angle_gamma   89.99990000
_symmetry_Int_Tables_number   1
_chemical_formula_structural   Zn2H22C22N2O11
_chemical_formula_sum   'Zn8 H88 C88 N8 O44'
_cell_volume   3197.65038622
_cell_formula_units_Z   4
loop_
 _symmetry_equiv_pos_site_id
 _symmetry_equiv_pos_as_xyz
  1  'x, y, z'
loop_
 _atom_site_type_symbol
 _atom_site_label
 _atom_site_symmetry_multiplicity
 _atom_site_fract_x
 _atom_site_fract_y
 _atom_site_fract_z
 _atom_site_occupancy
  Zn  Zn0  1  0.44912000  0.02072000  0.71675000  1.0
  Zn  Zn1  1  0.94911000  0.47928000  0.78325000  1.0
  Zn  Zn2  1  0.55088000  0.97928000  0.28325000  1.0
  Zn  Zn3  1  0.05089000  0.52072000  0.21675000  1.0
  Zn  Zn4  1  0.28173000  0.06946000  0.84520000  1.0
  Zn  Zn5  1  0.78173000  0.43053000  0.65480000  1.0
  Zn  Zn6  1  0.71827000  0.93053000  0.15480000  1.0
  Zn  Zn7  1  0.21827000  0.56947000  0.34520000  1.0
  H  H8  1  0.10955000  0.23516000  0.71947000  1.0
  H  H9  1  0.60955000  0.26483000  0.78053000  1.0
  H  H10  1  0.89045000  0.76483000  0.28053000  1.0
  H  H11  1  0.39045000  0.73517000  0.21947000  1.0
  H  H12  1  0.04623000  0.32149000  0.49720000  1.0
  H  H13  1  0.54622000  0.17851000  0.00281000  1.0
  H  H14  1  0.95378000  0.67851000  0.50281000  1.0
  H  H15  1  0.45378000  0.82149000  0.99720000  1.0
  H  H16  1  0.30933000  0.14313000  0.53062000  1.0
  H  H17  1  0.80932000  0.35687000  0.96938000  1.0
  H  H18  1  0.69068000  0.85687000  0.46938000  1.0
  H  H19  1  0.19068000  0.64313000  0.03062000  1.0
  H  H20  1  0.12908000  0.36068000  0.40370000  1.0
  H  H21  1  0.62907000  0.13933000  0.09630000  1.0
  H  H22  1  0.87093000  0.63933000  0.59630000  1.0
  H  H23  1  0.37094000  0.86067000  0.90370000  1.0
  H  H24  1  0.27996000  0.22141000  0.20237000  1.0
  H  H25  1  0.77996000  0.27859000  0.29763000  1.0
  H  H26  1  0.72004000  0.77858000  0.79763000  1.0
  H  H27  1  0.22004000  0.72141000  0.70237000  1.0
  H  H28  1  0.30430000  0.10403000  0.41573000  1.0
  H  H29  1  0.80430000  0.39598000  0.08428000  1.0
  H  H30  1  0.69570000  0.89597000  0.58428000  1.0
  H  H31  1  0.19569000  0.60403000  0.91572000  1.0
  H  H32  1  0.29769000  0.24077000  0.98450000  1.0
  H  H33  1  0.79769000  0.25924000  0.51549000  1.0
  H  H34  1  0.70231000  0.75924000  0.01549000  1.0
  H  H35  1  0.20231000  0.74077000  0.48451000  1.0
  H  H36  1  0.05926000  0.26942000  0.88264000  1.0
  H  H37  1  0.55927000  0.23058000  0.61736000  1.0
  H  H38  1  0.94073000  0.73058000  0.11736000  1.0
  H  H39  1  0.44073000  0.76942000  0.38264000  1.0
  H  H40  1  0.08354000  0.39424000  0.88843000  1.0
  H  H41  1  0.58355000  0.10576000  0.61157000  1.0
  H  H42  1  0.91645000  0.60576000  0.11158000  1.0
  H  H43  1  0.41645000  0.89424000  0.38842000  1.0
  H  H44  1  0.01139000  0.34821000  0.96249000  1.0
  H  H45  1  0.51139000  0.15179000  0.53751000  1.0
  H  H46  1  0.98861000  0.65179000  0.03751000  1.0
  H  H47  1  0.48861000  0.84821000  0.46248000  1.0
  H  H48  1  0.15392000  0.42177000  0.06038000  1.0
  H  H49  1  0.65392000  0.07823000  0.43962000  1.0
  H  H50  1  0.84608000  0.57823000  0.93962000  1.0
  H  H51  1  0.34609000  0.92177000  0.56038000  1.0
  H  H52  1  0.21982000  0.46317000  0.98077000  1.0
  H  H53  1  0.71983000  0.03684000  0.51922000  1.0
  H  H54  1  0.78017000  0.53684000  0.01922000  1.0
  H  H55  1  0.28018000  0.96317000  0.48077000  1.0
  H  H56  1  0.28283000  0.38503000  0.03910000  1.0
  H  H57  1  0.78283000  0.11498000  0.46089000  1.0
  H  H58  1  0.71717000  0.61498000  0.96089000  1.0
  H  H59  1  0.21717000  0.88504000  0.53911000  1.0
  H  H60  1  0.14656000  0.93579000  0.94876000  1.0
  H  H61  1  0.64655000  0.56420000  0.55124000  1.0
  H  H62  1  0.85344000  0.06421000  0.05123000  1.0
  H  H63  1  0.35345000  0.43579000  0.44876000  1.0
  H  H64  1  0.03821000  0.83017000  0.98154000  1.0
  H  H65  1  0.53820000  0.66982000  0.51846000  1.0
  H  H66  1  0.96179000  0.16982000  0.01846000  1.0
  H  H67  1  0.46180000  0.33018000  0.48154000  1.0
  H  H68  1  0.99742000  0.74175000  0.90563000  1.0
  H  H69  1  0.49742000  0.75824000  0.59437000  1.0
  H  H70  1  0.00258000  0.25824000  0.09437000  1.0
  H  H71  1  0.50259000  0.24176000  0.40563000  1.0
  H  H72  1  0.91421000  0.83838000  0.93732000  1.0
  H  H73  1  0.41420000  0.66162000  0.56268000  1.0
  H  H74  1  0.08579000  0.16162000  0.06267000  1.0
  H  H75  1  0.58580000  0.33838000  0.43732000  1.0
  H  H76  1  0.03951000  0.90465000  0.75752000  1.0
  H  H77  1  0.53950000  0.59534000  0.74249000  1.0
  H  H78  1  0.96049000  0.09534000  0.24248000  1.0
  H  H79  1  0.46049000  0.40466000  0.25751000  1.0
  H  H80  1  0.91531000  0.87818000  0.79555000  1.0
  H  H81  1  0.41530000  0.62182000  0.70445000  1.0
  H  H82  1  0.08470000  0.12182000  0.20445000  1.0
  H  H83  1  0.58470000  0.37818000  0.29555000  1.0
  H  H84  1  0.00474000  0.78495000  0.76907000  1.0
  H  H85  1  0.50473000  0.71505000  0.73093000  1.0
  H  H86  1  0.99526000  0.21505000  0.23093000  1.0
  H  H87  1  0.49526000  0.28495000  0.26906000  1.0
  H  H88  1  0.37379000  0.04016000  0.08513000  1.0
  H  H89  1  0.87379000  0.45984000  0.41487000  1.0
  H  H90  1  0.62621000  0.95984000  0.91487000  1.0
  H  H91  1  0.12620000  0.54017000  0.58513000  1.0
  H  H92  1  0.40135000  0.05972000  0.00122000  1.0
  H  H93  1  0.90135000  0.44028000  0.49878000  1.0
  H  H94  1  0.59865000  0.94028000  0.99878000  1.0
  H  H95  1  0.09865000  0.55973000  0.50122000  1.0
  C  C96  1  0.21359000  0.18094000  0.62868000  1.0
  C  C97  1  0.71358000  0.31906000  0.87133000  1.0
  C  C98  1  0.78642000  0.81906000  0.37133000  1.0
  C  C99  1  0.28641000  0.68095000  0.12868000  1.0
  C  C100  1  0.12888000  0.23338000  0.65884000  1.0
  C  C101  1  0.62887000  0.26661000  0.84116000  1.0
  C  C102  1  0.87113000  0.76661000  0.34116000  1.0
  C  C103  1  0.37113000  0.73339000  0.15884000  1.0
  C  C104  1  0.06938000  0.28423000  0.61103000  1.0
  C  C105  1  0.56938000  0.21577000  0.88898000  1.0
  C  C106  1  0.93062000  0.71577000  0.38898000  1.0
  C  C107  1  0.43062000  0.78424000  0.11103000  1.0
  C  C108  1  0.09424000  0.28192000  0.53322000  1.0
  C  C109  1  0.59423000  0.21809000  0.96678000  1.0
  C  C110  1  0.90577000  0.71808000  0.46678000  1.0
  C  C111  1  0.40577000  0.78191000  0.03322000  1.0
  C  C112  1  0.18102000  0.23154000  0.50242000  1.0
  C  C113  1  0.68101000  0.26846000  0.99758000  1.0
  C  C114  1  0.81898000  0.76846000  0.49758000  1.0
  C  C115  1  0.31898000  0.73154000  0.00242000  1.0
  C  C116  1  0.24031000  0.18181000  0.55139000  1.0
  C  C117  1  0.74030000  0.31820000  0.94861000  1.0
  C  C118  1  0.75969000  0.81819000  0.44861000  1.0
  C  C119  1  0.25969000  0.68180000  0.05139000  1.0
  C  C120  1  0.27594000  0.12486000  0.67930000  1.0
  C  C121  1  0.77593000  0.37513000  0.82070000  1.0
  C  C122  1  0.72407000  0.87514000  0.32070000  1.0
  C  C123  1  0.22406000  0.62486000  0.17930000  1.0
  C  C124  1  0.98275000  0.34334000  0.64660000  1.0
  C  C125  1  0.48275000  0.15666000  0.85341000  1.0
  C  C126  1  0.01725000  0.65666000  0.35341000  1.0
  C  C127  1  0.51724000  0.84334000  0.14660000  1.0
  C  C128  1  0.20956000  0.23066000  0.42058000  1.0
  C  C129  1  0.70955000  0.26935000  0.07943000  1.0
  C  C130  1  0.79045000  0.76934000  0.57942000  1.0
  C  C131  1  0.29045000  0.73066000  0.92058000  1.0
  C  C132  1  0.17480000  0.30126000  0.37717000  1.0
  C  C133  1  0.67479000  0.19875000  0.12284000  1.0
  C  C134  1  0.82520000  0.69875000  0.62284000  1.0
  C  C135  1  0.32521000  0.80125000  0.87716000  1.0
  C  C136  1  0.19916000  0.29735000  0.29898000  1.0
  C  C137  1  0.69916000  0.20265000  0.20102000  1.0
  C  C138  1  0.80084000  0.70265000  0.70102000  1.0
  C  C139  1  0.30084000  0.79735000  0.79898000  1.0
  C  C140  1  0.26098000  0.22436000  0.26325000  1.0
  C  C141  1  0.76098000  0.27564000  0.23676000  1.0
  C  C142  1  0.73902000  0.77564000  0.73675000  1.0
  C  C143  1  0.23902000  0.72435000  0.76324000  1.0
  C  C144  1  0.30075000  0.15652000  0.30678000  1.0
  C  C145  1  0.80075000  0.34348000  0.19323000  1.0
  C  C146  1  0.69925000  0.84348000  0.69322000  1.0
  C  C147  1  0.19925000  0.65652000  0.80677000  1.0
  C  C148  1  0.27359000  0.15941000  0.38430000  1.0
  C  C149  1  0.77359000  0.34060000  0.11571000  1.0
  C  C150  1  0.72641000  0.84059000  0.61571000  1.0
  C  C151  1  0.22641000  0.65941000  0.88429000  1.0
  C  C152  1  0.15701000  0.37025000  0.25305000  1.0
  C  C153  1  0.65701000  0.12975000  0.24696000  1.0
  C  C154  1  0.84299000  0.62975000  0.74696000  1.0
  C  C155  1  0.34299000  0.87024000  0.75304000  1.0
  C  C156  1  0.37660000  0.08376000  0.27181000  1.0
  C  C157  1  0.87661000  0.41623000  0.22820000  1.0
  C  C158  1  0.62339000  0.91624000  0.72820000  1.0
  C  C159  1  0.12338000  0.58376000  0.77180000  1.0
  C  C160  1  0.22361000  0.24011000  0.95327000  1.0
  C  C161  1  0.72361000  0.25989000  0.54673000  1.0
  C  C162  1  0.77639000  0.75989000  0.04673000  1.0
  C  C163  1  0.27639000  0.74011000  0.45327000  1.0
  C  C164  1  0.07546000  0.33369000  0.92155000  1.0
  C  C165  1  0.57546000  0.16631000  0.57845000  1.0
  C  C166  1  0.92454000  0.66631000  0.07846000  1.0
  C  C167  1  0.42454000  0.83369000  0.42154000  1.0
  C  C168  1  0.20901000  0.40259000  0.01354000  1.0
  C  C169  1  0.70901000  0.09742000  0.48646000  1.0
  C  C170  1  0.79099000  0.59742000  0.98646000  1.0
  C  C171  1  0.29099000  0.90259000  0.51354000  1.0
  C  C172  1  0.11931000  0.93176000  0.88871000  1.0
  C  C173  1  0.61930000  0.56822000  0.61129000  1.0
  C  C174  1  0.88070000  0.06822000  0.11129000  1.0
  C  C175  1  0.38071000  0.43178000  0.38871000  1.0
  C  C176  1  0.99532000  0.81742000  0.92726000  1.0
  C  C177  1  0.49532000  0.68257000  0.57274000  1.0
  C  C178  1  0.00468000  0.18257000  0.07274000  1.0
  C  C179  1  0.50469000  0.31743000  0.42726000  1.0
  C  C180  1  0.99770000  0.85938000  0.79334000  1.0
  C  C181  1  0.49769000  0.64062000  0.70666000  1.0
  C  C182  1  0.00230000  0.14061000  0.20666000  1.0
  C  C183  1  0.50231000  0.35939000  0.29334000  1.0
  N  N184  1  0.17159000  0.32144000  0.96265000  1.0
  N  N185  1  0.67159000  0.17856000  0.53734000  1.0
  N  N186  1  0.82841000  0.67856000  0.03734000  1.0
  N  N187  1  0.32841000  0.82145000  0.46266000  1.0
  N  N188  1  0.04122000  0.87216000  0.87073000  1.0
  N  N189  1  0.54121000  0.62784000  0.62927000  1.0
  N  N190  1  0.95878000  0.12784000  0.12927000  1.0
  N  N191  1  0.45879000  0.37216000  0.37073000  1.0
  O  O192  1  0.35281000  0.07828000  0.64785000  1.0
  O  O193  1  0.85281000  0.42172000  0.85215000  1.0
  O  O194  1  0.64719000  0.92172000  0.35215000  1.0
  O  O195  1  0.14719000  0.57828000  0.14785000  1.0
  O  O196  1  0.35740000  0.02139000  0.03073000  1.0
  O  O197  1  0.85740000  0.47861000  0.46927000  1.0
  O  O198  1  0.64260000  0.97862000  0.96927000  1.0
  O  O199  1  0.14259000  0.52139000  0.53073000  1.0
  O  O200  1  0.24733000  0.12761000  0.74892000  1.0
  O  O201  1  0.74733000  0.37237000  0.75108000  1.0
  O  O202  1  0.75267000  0.87238000  0.25108000  1.0
  O  O203  1  0.25267000  0.62762000  0.24892000  1.0
  O  O204  1  0.98333000  0.35749000  0.71960000  1.0
  O  O205  1  0.48332000  0.14251000  0.78041000  1.0
  O  O206  1  0.01668000  0.64251000  0.28041000  1.0
  O  O207  1  0.51668000  0.85749000  0.21959000  1.0
  O  O208  1  0.91403000  0.37547000  0.60336000  1.0
  O  O209  1  0.41403000  0.12452000  0.89664000  1.0
  O  O210  1  0.08597000  0.62452000  0.39664000  1.0
  O  O211  1  0.58597000  0.87548000  0.10336000  1.0
  O  O212  1  0.13077000  0.45193000  0.29164000  1.0
  O  O213  1  0.63077000  0.04807000  0.20836000  1.0
  O  O214  1  0.86923000  0.54807000  0.70836000  1.0
  O  O215  1  0.36923000  0.95193000  0.79164000  1.0
  O  O216  1  0.14259000  0.35245000  0.18244000  1.0
  O  O217  1  0.64258000  0.14755000  0.31756000  1.0
  O  O218  1  0.85742000  0.64755000  0.81756000  1.0
  O  O219  1  0.35742000  0.85245000  0.68244000  1.0
  O  O220  1  0.39324000  0.07288000  0.20111000  1.0
  O  O221  1  0.89324000  0.42711000  0.29889000  1.0
  O  O222  1  0.60676000  0.92711000  0.79889000  1.0
  O  O223  1  0.10675000  0.57289000  0.70111000  1.0
  O  O224  1  0.42433000  0.03856000  0.32246000  1.0
  O  O225  1  0.92433000  0.46144000  0.17754000  1.0
  O  O226  1  0.57567000  0.96144000  0.67754000  1.0
  O  O227  1  0.07566000  0.53856000  0.82246000  1.0
  O  O228  1  0.19187000  0.16713000  0.91228000  1.0
  O  O229  1  0.69187000  0.33287000  0.58771000  1.0
  O  O230  1  0.80812000  0.83287000  0.08771000  1.0
  O  O231  1  0.30812000  0.66713000  0.41229000  1.0
  O  O232  1  0.15972000  0.98017000  0.84091000  1.0
  O  O233  1  0.65971000  0.51983000  0.65910000  1.0
  O  O234  1  0.84029000  0.01983000  0.15909000  1.0
  O  O235  1  0.34029000  0.48017000  0.34090000  1.0
