# generated using pymatgen
data_CdP2H34C22S4(NO)4
_symmetry_space_group_name_H-M   'P 1'
_cell_length_a   8.89477000
_cell_length_b   9.34655000
_cell_length_c   10.37290000
_cell_angle_alpha   66.05010000
_cell_angle_beta   76.65560000
_cell_angle_gamma   72.30640000
_symmetry_Int_Tables_number   1
_chemical_formula_structural   CdP2H34C22S4(NO)4
_chemical_formula_sum   'Cd1 P2 H34 C22 S4 N4 O4'
_cell_volume   745.08885420
_cell_formula_units_Z   1
loop_
 _symmetry_equiv_pos_site_id
 _symmetry_equiv_pos_as_xyz
  1  'x, y, z'
loop_
 _atom_site_type_symbol
 _atom_site_label
 _atom_site_symmetry_multiplicity
 _atom_site_fract_x
 _atom_site_fract_y
 _atom_site_fract_z
 _atom_site_occupancy
  Cd  Cd0  1  0.50000000  0.00000000  0.50000000  1.0
  P  P1  1  0.63523000  0.63042000  0.69036000  1.0
  P  P2  1  0.36477000  0.36958000  0.30964000  1.0
  H  H3  1  0.18140000  0.16319000  0.30707000  1.0
  H  H4  1  0.81860000  0.83681000  0.69293000  1.0
  H  H5  1  0.34941000  0.67040000  0.54496000  1.0
  H  H6  1  0.65060000  0.32959000  0.45504000  1.0
  H  H7  1  0.07009000  0.71087000  0.44161000  1.0
  H  H8  1  0.92990000  0.28912000  0.55839000  1.0
  H  H9  1  0.91457000  0.16310000  0.26162000  1.0
  H  H10  1  0.08543000  0.83690000  0.73838000  1.0
  H  H11  1  0.84883000  0.98302000  0.34259000  1.0
  H  H12  1  0.15117000  0.01697000  0.65741000  1.0
  H  H13  1  0.75477000  0.94904000  0.16522000  1.0
  H  H14  1  0.24523000  0.05097000  0.83478000  1.0
  H  H15  1  0.20344000  0.07904000  0.06870000  1.0
  H  H16  1  0.79656000  0.92096000  0.93129000  1.0
  H  H17  1  0.89388000  0.32812000  0.82447000  1.0
  H  H18  1  0.10612000  0.67188000  0.17553000  1.0
  H  H19  1  0.93950000  0.46683000  0.64991000  1.0
  H  H20  1  0.06050000  0.53317000  0.35009000  1.0
  H  H21  1  0.16482000  0.37807000  0.78936000  1.0
  H  H22  1  0.83518000  0.62193000  0.21064000  1.0
  H  H23  1  0.03950000  0.44680000  0.92324000  1.0
  H  H24  1  0.96050000  0.55320000  0.07676000  1.0
  H  H25  1  0.08086000  0.58701000  0.74810000  1.0
  H  H26  1  0.91914000  0.41299000  0.25189000  1.0
  H  H27  1  0.40036000  0.45915000  0.88645000  1.0
  H  H28  1  0.59963000  0.54085000  0.11355000  1.0
  H  H29  1  0.59412000  0.35344000  0.93477000  1.0
  H  H30  1  0.40587000  0.64656000  0.06523000  1.0
  H  H31  1  0.43535000  0.16175000  0.95993000  1.0
  H  H32  1  0.56465000  0.83825000  0.04007000  1.0
  H  H33  1  0.60236000  0.15340000  0.82768000  1.0
  H  H34  1  0.39764000  0.84660000  0.17232000  1.0
  H  H35  1  0.41135000  0.25852000  0.77462000  1.0
  H  H36  1  0.58865000  0.74148000  0.22539000  1.0
  C  C37  1  0.19160000  0.03437000  0.35855000  1.0
  C  C38  1  0.80840000  0.96562000  0.64145000  1.0
  C  C39  1  0.27253000  0.77903000  0.48140000  1.0
  C  C40  1  0.72746000  0.22098000  0.51859000  1.0
  C  C41  1  0.13626000  0.79627000  0.43002000  1.0
  C  C42  1  0.86375000  0.20374000  0.56998000  1.0
  C  C43  1  0.94777000  0.03509000  0.27501000  1.0
  C  C44  1  0.05223000  0.96492000  0.72499000  1.0
  C  C45  1  0.97622000  0.01583000  0.13308000  1.0
  C  C46  1  0.02378000  0.98417000  0.86693000  1.0
  C  C47  1  0.86238000  0.97194000  0.09254000  1.0
  C  C48  1  0.13762000  0.02806000  0.90746000  1.0
  C  C49  1  0.11396000  0.04390000  0.03906000  1.0
  C  C50  1  0.88604000  0.95610000  0.96094000  1.0
  C  C51  1  0.91826000  0.44797000  0.76394000  1.0
  C  C52  1  0.08174000  0.55203000  0.23607000  1.0
  C  C53  1  0.05824000  0.46681000  0.80951000  1.0
  C  C54  1  0.94176000  0.53319000  0.19049000  1.0
  C  C55  1  0.51280000  0.38122000  0.85806000  1.0
  C  C56  1  0.48720000  0.61878000  0.14194000  1.0
  C  C57  1  0.48881000  0.22980000  0.85452000  1.0
  C  C58  1  0.51119000  0.77020000  0.14548000  1.0
  S  S59  1  0.46702000  0.78207000  0.76748000  1.0
  S  S60  1  0.53298000  0.21793000  0.23252000  1.0
  S  S61  1  0.71456000  0.71405000  0.48400000  1.0
  S  S62  1  0.28543000  0.28595000  0.51600000  1.0
  N  N63  1  0.30526000  0.92841000  0.43640000  1.0
  N  N64  1  0.69475000  0.07158000  0.56360000  1.0
  N  N65  1  0.08624000  0.95893000  0.35267000  1.0
  N  N66  1  0.91376000  0.04106000  0.64733000  1.0
  O  O67  1  0.77724000  0.56818000  0.78883000  1.0
  O  O68  1  0.22275000  0.43182000  0.21117000  1.0
  O  O69  1  0.58041000  0.47105000  0.71563000  1.0
  O  O70  1  0.41959000  0.52895000  0.28437000  1.0
