# generated using pymatgen
data_Li3H5C9O7
_symmetry_space_group_name_H-M   'P 1'
_cell_length_a   7.35936000
_cell_length_b   8.00532000
_cell_length_c   9.42518000
_cell_angle_alpha   106.45300000
_cell_angle_beta   109.27900000
_cell_angle_gamma   104.32300000
_symmetry_Int_Tables_number   1
_chemical_formula_structural   Li3H5C9O7
_chemical_formula_sum   'Li6 H10 C18 O14'
_cell_volume   465.67093996
_cell_formula_units_Z   2
loop_
 _symmetry_equiv_pos_site_id
 _symmetry_equiv_pos_as_xyz
  1  'x, y, z'
loop_
 _atom_site_type_symbol
 _atom_site_label
 _atom_site_symmetry_multiplicity
 _atom_site_fract_x
 _atom_site_fract_y
 _atom_site_fract_z
 _atom_site_occupancy
  Li  Li0  1  0.49993000  0.50131000  0.35917000  1.0
  Li  Li1  1  0.50007000  0.49870000  0.64083000  1.0
  Li  Li2  1  0.32469000  0.84060000  0.04357000  1.0
  Li  Li3  1  0.67531000  0.15940000  0.95643000  1.0
  Li  Li4  1  0.37863000  0.23054000  0.09176000  1.0
  Li  Li5  1  0.62137000  0.76946000  0.90824000  1.0
  H  H6  1  0.04860000  0.78129000  0.14968000  1.0
  H  H7  1  0.95140000  0.21871000  0.85031000  1.0
  H  H8  1  0.92422000  0.63129000  0.52146000  1.0
  H  H9  1  0.07578000  0.36871000  0.47853000  1.0
  H  H10  1  0.39848000  0.15997000  0.65744000  1.0
  H  H11  1  0.60152000  0.84003000  0.34256000  1.0
  H  H12  1  0.10326000  0.33013000  0.17038000  1.0
  H  H13  1  0.89674000  0.66987000  0.82961000  1.0
  H  H14  1  0.19376000  0.45570000  0.08366000  1.0
  H  H15  1  0.80623000  0.54430000  0.91634000  1.0
  C  C16  1  0.34403000  0.12519000  0.34601000  1.0
  C  C17  1  0.65597000  0.87481000  0.65399000  1.0
  C  C18  1  0.78928000  0.51163000  0.18968000  1.0
  C  C19  1  0.21072000  0.48837000  0.81033000  1.0
  C  C20  1  0.22349000  0.94222000  0.78555000  1.0
  C  C21  1  0.77651000  0.05778000  0.21445000  1.0
  C  C22  1  0.23824000  0.98479000  0.39813000  1.0
  C  C23  1  0.76176000  0.01521000  0.60187000  1.0
  C  C24  1  0.08511000  0.81256000  0.27828000  1.0
  C  C25  1  0.91489000  0.18744000  0.72172000  1.0
  C  C26  1  0.96795000  0.68628000  0.32067000  1.0
  C  C27  1  0.03205000  0.31372000  0.67933000  1.0
  C  C28  1  0.01339000  0.72851000  0.48615000  1.0
  C  C29  1  0.98661000  0.27149000  0.51385000  1.0
  C  C30  1  0.17221000  0.89668000  0.60778000  1.0
  C  C31  1  0.82780000  0.10332000  0.39222000  1.0
  C  C32  1  0.28063000  0.02612000  0.56271000  1.0
  C  C33  1  0.71937000  0.97388000  0.43729000  1.0
  O  O34  1  0.43165000  0.29852000  0.44316000  1.0
  O  O35  1  0.56835000  0.70148000  0.55683000  1.0
  O  O36  1  0.33578000  0.06417000  0.20290000  1.0
  O  O37  1  0.66422000  0.93583000  0.79710000  1.0
  O  O38  1  0.79142000  0.44017000  0.05098000  1.0
  O  O39  1  0.20858000  0.55983000  0.94902000  1.0
  O  O40  1  0.64354000  0.44199000  0.22527000  1.0
  O  O41  1  0.35646000  0.55801000  0.77473000  1.0
  O  O42  1  0.11893000  0.83028000  0.82714000  1.0
  O  O43  1  0.88107000  0.16971000  0.17286000  1.0
  O  O44  1  0.37633000  0.09619000  0.89006000  1.0
  O  O45  1  0.62367000  0.90381000  0.10994000  1.0
  O  O46  1  0.22924000  0.39236000  0.16015000  1.0
  O  O47  1  0.77076000  0.60764000  0.83985000  1.0
