# generated using pymatgen
data_CuH4(C2O)4
_symmetry_space_group_name_H-M   'P 1'
_cell_length_a   5.29226000
_cell_length_b   9.74431000
_cell_length_c   10.88400000
_cell_angle_alpha   88.67040000
_cell_angle_beta   89.09880000
_cell_angle_gamma   88.15400000
_symmetry_Int_Tables_number   1
_chemical_formula_structural   CuH4(C2O)4
_chemical_formula_sum   'Cu2 H8 C16 O8'
_cell_volume   560.77621615
_cell_formula_units_Z   2
loop_
 _symmetry_equiv_pos_site_id
 _symmetry_equiv_pos_as_xyz
  1  'x, y, z'
loop_
 _atom_site_type_symbol
 _atom_site_label
 _atom_site_symmetry_multiplicity
 _atom_site_fract_x
 _atom_site_fract_y
 _atom_site_fract_z
 _atom_site_occupancy
  Cu  Cu0  1  0.29603000  0.43737000  0.50498000  1.0
  Cu  Cu1  1  0.70397000  0.56263000  0.49502000  1.0
  H  H2  1  0.15742000  0.19032000  0.36574000  1.0
  H  H3  1  0.84257000  0.80968000  0.63426000  1.0
  H  H4  1  0.62761000  0.04172000  0.63811000  1.0
  H  H5  1  0.37239000  0.95828000  0.36189000  1.0
  H  H6  1  0.83526000  0.61565000  0.11272000  1.0
  H  H7  1  0.16475000  0.38435000  0.88728000  1.0
  H  H8  1  0.16441000  0.37832000  0.11773000  1.0
  H  H9  1  0.83559000  0.62169000  0.88227000  1.0
  C  C10  1  0.08963000  0.10675000  0.42426000  1.0
  C  C11  1  0.91038000  0.89325000  0.57574000  1.0
  C  C12  1  0.88170000  0.12963000  0.50329000  1.0
  C  C13  1  0.11828000  0.87036000  0.49672000  1.0
  C  C14  1  0.74974000  0.26688000  0.50610000  1.0
  C  C15  1  0.25026000  0.73311000  0.49390000  1.0
  C  C16  1  0.79160000  0.02255000  0.57844000  1.0
  C  C17  1  0.20840000  0.97745000  0.42156000  1.0
  C  C18  1  0.68930000  0.56568000  0.06227000  1.0
  C  C19  1  0.31070000  0.43432000  0.93772000  1.0
  C  C20  1  0.50053000  0.49651000  0.12844000  1.0
  C  C21  1  0.49946000  0.50349000  0.87156000  1.0
  C  C22  1  0.50237000  0.49452000  0.26574000  1.0
  C  C23  1  0.49764000  0.50549000  0.73426000  1.0
  C  C24  1  0.31106000  0.43085000  0.06551000  1.0
  C  C25  1  0.68895000  0.56915000  0.93449000  1.0
  O  O26  1  0.50985000  0.26719000  0.51439000  1.0
  O  O27  1  0.49015000  0.73281000  0.48561000  1.0
  O  O28  1  0.88230000  0.37492000  0.49947000  1.0
  O  O29  1  0.11769000  0.62508000  0.50052000  1.0
  O  O30  1  0.31992000  0.43666000  0.32277000  1.0
  O  O31  1  0.68010000  0.56334000  0.67722000  1.0
  O  O32  1  0.68742000  0.55193000  0.31563000  1.0
  O  O33  1  0.31258000  0.44808000  0.68437000  1.0
