# generated using pymatgen
data_CdH26C30(NO)4
_symmetry_space_group_name_H-M   'P 1'
_cell_length_a   10.07900000
_cell_length_b   11.16600000
_cell_length_c   11.50400000
_cell_angle_alpha   88.44900000
_cell_angle_beta   89.19000000
_cell_angle_gamma   83.14880000
_symmetry_Int_Tables_number   1
_chemical_formula_structural   CdH26C30(NO)4
_chemical_formula_sum   'Cd2 H52 C60 N8 O8'
_cell_volume   1284.89097718
_cell_formula_units_Z   2
loop_
 _symmetry_equiv_pos_site_id
 _symmetry_equiv_pos_as_xyz
  1  'x, y, z'
loop_
 _atom_site_type_symbol
 _atom_site_label
 _atom_site_symmetry_multiplicity
 _atom_site_fract_x
 _atom_site_fract_y
 _atom_site_fract_z
 _atom_site_occupancy
  Cd  Cd0  1  0.76951000  0.23721000  0.29446000  1.0
  Cd  Cd1  1  0.23049000  0.76279000  0.70555000  1.0
  H  H2  1  0.58703000  0.06145000  0.40734000  1.0
  H  H3  1  0.41297000  0.93855000  0.59266000  1.0
  H  H4  1  0.66545000  0.91872000  0.46184000  1.0
  H  H5  1  0.33454000  0.08128000  0.53816000  1.0
  H  H6  1  0.52142000  0.92615000  0.37405000  1.0
  H  H7  1  0.47858000  0.07385000  0.62594000  1.0
  H  H8  1  0.90849000  0.05111000  0.09465000  1.0
  H  H9  1  0.09151000  0.94889000  0.90536000  1.0
  H  H10  1  0.84036000  0.82011000  0.05762000  1.0
  H  H11  1  0.15965000  0.17989000  0.94238000  1.0
  H  H12  1  0.65843000  0.70452000  0.14731000  1.0
  H  H13  1  0.34157000  0.29548000  0.85269000  1.0
  H  H14  1  0.56650000  0.76320000  0.26997000  1.0
  H  H15  1  0.43351000  0.23680000  0.73003000  1.0
  H  H16  1  0.64463000  0.70416000  0.46985000  1.0
  H  H17  1  0.35537000  0.29584000  0.53015000  1.0
  H  H18  1  0.80783000  0.59180000  0.59738000  1.0
  H  H19  1  0.19217000  0.40820000  0.40262000  1.0
  H  H20  1  0.05969000  0.49104000  0.30095000  1.0
  H  H21  1  0.94032000  0.50895000  0.69905000  1.0
  H  H22  1  0.89577000  0.60375000  0.17356000  1.0
  H  H23  1  0.10424000  0.39624000  0.82644000  1.0
  H  H24  1  0.99406000  0.15153000  0.47699000  1.0
  H  H25  1  0.00594000  0.84847000  0.52301000  1.0
  H  H26  1  0.94188000  0.06203000  0.59686000  1.0
  H  H27  1  0.05812000  0.93797000  0.40314000  1.0
  H  H28  1  0.03615000  0.18311000  0.62136000  1.0
  H  H29  1  0.96385000  0.81688000  0.37864000  1.0
  H  H30  1  0.57297000  0.40139000  0.47290000  1.0
  H  H31  1  0.42703000  0.59861000  0.52711000  1.0
  H  H32  1  0.60065000  0.40773000  0.71339000  1.0
  H  H33  1  0.39935000  0.59226000  0.28663000  1.0
  H  H34  1  0.82859000  0.33748000  0.83988000  1.0
  H  H35  1  0.17141000  0.66251000  0.16013000  1.0
  H  H36  1  0.92475000  0.20649000  0.78686000  1.0
  H  H37  1  0.07525000  0.79350000  0.21314000  1.0
  H  H38  1  0.75673000  0.03199000  0.73285000  1.0
  H  H39  1  0.24328000  0.96800000  0.26716000  1.0
  H  H40  1  0.59801000  0.91298000  0.82800000  1.0
  H  H41  1  0.40199000  0.08702000  0.17201000  1.0
  H  H42  1  0.52313000  0.18143000  0.09091000  1.0
  H  H43  1  0.47685000  0.81858000  0.90910000  1.0
  H  H44  1  0.68001000  0.30216000  0.99417000  1.0
  H  H45  1  0.31998000  0.69784000  0.00583000  1.0
  H  H46  1  0.44825000  0.48363000  0.07003000  1.0
  H  H47  1  0.55174000  0.51638000  0.92997000  1.0
  H  H48  1  0.23940000  0.52030000  0.95051000  1.0
  H  H49  1  0.76060000  0.47970000  0.04949000  1.0
  H  H50  1  0.04244000  0.41297000  0.00914000  1.0
  H  H51  1  0.95757000  0.58703000  0.99085000  1.0
  H  H52  1  0.26400000  0.23488000  0.29203000  1.0
  H  H53  1  0.73600000  0.76513000  0.70797000  1.0
  C  C54  1  0.61412000  0.96638000  0.38720000  1.0
  C  C55  1  0.38588000  0.03362000  0.61279000  1.0
  C  C56  1  0.69984000  0.95845000  0.28124000  1.0
  C  C57  1  0.30016000  0.04155000  0.71876000  1.0
  C  C58  1  0.84374000  0.99762000  0.14449000  1.0
  C  C59  1  0.15626000  0.00238000  0.85552000  1.0
  C  C60  1  0.81120000  0.88408000  0.12522000  1.0
  C  C61  1  0.18881000  0.11593000  0.87479000  1.0
  C  C62  1  0.66728000  0.74483000  0.23236000  1.0
  C  C63  1  0.33272000  0.25517000  0.76764000  1.0
  C  C64  1  0.75902000  0.66443000  0.31170000  1.0
  C  C65  1  0.24098000  0.33556000  0.68829000  1.0
  C  C66  1  0.73594000  0.65803000  0.43179000  1.0
  C  C67  1  0.26406000  0.34196000  0.56821000  1.0
  C  C68  1  0.82962000  0.59359000  0.50463000  1.0
  C  C69  1  0.17038000  0.40640000  0.49537000  1.0
  C  C70  1  0.94957000  0.53308000  0.46103000  1.0
  C  C71  1  0.05044000  0.46692000  0.53897000  1.0
  C  C72  1  0.96973000  0.53776000  0.33988000  1.0
  C  C73  1  0.03027000  0.46223000  0.66012000  1.0
  C  C74  1  0.87650000  0.60187000  0.26696000  1.0
  C  C75  1  0.12350000  0.39813000  0.73304000  1.0
  C  C76  1  0.95783000  0.15379000  0.56722000  1.0
  C  C77  1  0.04217000  0.84621000  0.43278000  1.0
  C  C78  1  0.83320000  0.23883000  0.57413000  1.0
  C  C79  1  0.16680000  0.76117000  0.42587000  1.0
  C  C80  1  0.64937000  0.35589000  0.52912000  1.0
  C  C81  1  0.35064000  0.64411000  0.47089000  1.0
  C  C82  1  0.66150000  0.35951000  0.64731000  1.0
  C  C83  1  0.33850000  0.64049000  0.35270000  1.0
  C  C84  1  0.82307000  0.25387000  0.79304000  1.0
  C  C85  1  0.17693000  0.74613000  0.20696000  1.0
  C  C86  1  0.72953000  0.17719000  0.85544000  1.0
  C  C87  1  0.27047000  0.82281000  0.14456000  1.0
  C  C88  1  0.70496000  0.06607000  0.81142000  1.0
  C  C89  1  0.29504000  0.93392000  0.18858000  1.0
  C  C90  1  0.61494000  0.99765000  0.86664000  1.0
  C  C91  1  0.38506000  0.00235000  0.13336000  1.0
  C  C92  1  0.54702000  0.03654000  0.96936000  1.0
  C  C93  1  0.45296000  0.96346000  0.03064000  1.0
  C  C94  1  0.57288000  0.14775000  0.01210000  1.0
  C  C95  1  0.42711000  0.85225000  0.98790000  1.0
  C  C96  1  0.66204000  0.21709000  0.95661000  1.0
  C  C97  1  0.33796000  0.78291000  0.04339000  1.0
  C  C98  1  0.49992000  0.32063000  0.24742000  1.0
  C  C99  1  0.50008000  0.67937000  0.75257000  1.0
  C  C100  1  0.37001000  0.35504000  0.18560000  1.0
  C  C101  1  0.62999000  0.64496000  0.81440000  1.0
  C  C102  1  0.36152000  0.43734000  0.09105000  1.0
  C  C103  1  0.63848000  0.56267000  0.90895000  1.0
  C  C104  1  0.24515000  0.45796000  0.02548000  1.0
  C  C105  1  0.75485000  0.54205000  0.97451000  1.0
  C  C106  1  0.13518000  0.39876000  0.05765000  1.0
  C  C107  1  0.86482000  0.60124000  0.94235000  1.0
  C  C108  1  0.13996000  0.32080000  0.15541000  1.0
  C  C109  1  0.86004000  0.67920000  0.84458000  1.0
  C  C110  1  0.25873000  0.29749000  0.21757000  1.0
  C  C111  1  0.74127000  0.70252000  0.78242000  1.0
  C  C112  1  0.01611000  0.27168000  0.20008000  1.0
  C  C113  1  0.98388000  0.72833000  0.79991000  1.0
  N  N114  1  0.77354000  0.04306000  0.24084000  1.0
  N  N115  1  0.22646000  0.95694000  0.75916000  1.0
  N  N116  1  0.71988000  0.86082000  0.21153000  1.0
  N  N117  1  0.28013000  0.13918000  0.78847000  1.0
  N  N118  1  0.75618000  0.28122000  0.48457000  1.0
  N  N119  1  0.24382000  0.71878000  0.51543000  1.0
  N  N120  1  0.77799000  0.28562000  0.67451000  1.0
  N  N121  1  0.22201000  0.71437000  0.32550000  1.0
  O  O122  1  0.60080000  0.37409000  0.21460000  1.0
  O  O123  1  0.39920000  0.62591000  0.78539000  1.0
  O  O124  1  0.50574000  0.23615000  0.32344000  1.0
  O  O125  1  0.49426000  0.76385000  0.67655000  1.0
  O  O126  1  0.02276000  0.20826000  0.29352000  1.0
  O  O127  1  0.97724000  0.79174000  0.70648000  1.0
  O  O128  1  0.90696000  0.30240000  0.14508000  1.0
  O  O129  1  0.09304000  0.69762000  0.85493000  1.0
