# generated using pymatgen
data_InH12C18N4ClO9
_symmetry_space_group_name_H-M   'P 1'
_cell_length_a   7.76249000
_cell_length_b   9.90262000
_cell_length_c   12.54070000
_cell_angle_alpha   90.55710000
_cell_angle_beta   92.68910000
_cell_angle_gamma   104.99200000
_symmetry_Int_Tables_number   1
_chemical_formula_structural   InH12C18N4ClO9
_chemical_formula_sum   'In2 H24 C36 N8 Cl2 O18'
_cell_volume   929.91443626
_cell_formula_units_Z   2
loop_
 _symmetry_equiv_pos_site_id
 _symmetry_equiv_pos_as_xyz
  1  'x, y, z'
loop_
 _atom_site_type_symbol
 _atom_site_label
 _atom_site_symmetry_multiplicity
 _atom_site_fract_x
 _atom_site_fract_y
 _atom_site_fract_z
 _atom_site_occupancy
  In  In0  1  0.42734000  0.99425000  0.25518000  1.0
  In  In1  1  0.57266000  0.00575000  0.74482000  1.0
  H  H2  1  0.87650000  0.53629000  0.83369000  1.0
  H  H3  1  0.12350000  0.46371000  0.16631000  1.0
  H  H4  1  0.60031000  0.44058000  0.19022000  1.0
  H  H5  1  0.39969000  0.55942000  0.80978000  1.0
  H  H6  1  0.74963000  0.93135000  0.04841000  1.0
  H  H7  1  0.25038000  0.06865000  0.95159000  1.0
  H  H8  1  0.05844000  0.06855000  0.59810000  1.0
  H  H9  1  0.94156000  0.93144000  0.40190000  1.0
  H  H10  1  0.11962000  0.57937000  0.67935000  1.0
  H  H11  1  0.88038000  0.42063000  0.32065000  1.0
  H  H12  1  0.37359000  0.43666000  0.34636000  1.0
  H  H13  1  0.62641000  0.56333000  0.65364000  1.0
  H  H14  1  0.85822000  0.81935000  0.89172000  1.0
  H  H15  1  0.14178000  0.18065000  0.10828000  1.0
  H  H16  1  0.00293000  0.27425000  0.70081000  1.0
  H  H17  1  0.99707000  0.72575000  0.29919000  1.0
  H  H18  1  0.75752000  0.03202000  0.32020000  1.0
  H  H19  1  0.24248000  0.96798000  0.67980000  1.0
  H  H20  1  0.75639000  0.04413000  0.19267000  1.0
  H  H21  1  0.24361000  0.95587000  0.80733000  1.0
  H  H22  1  0.62333000  0.73526000  0.18206000  1.0
  H  H23  1  0.37667000  0.26474000  0.81794000  1.0
  H  H24  1  0.23748000  0.16415000  0.43471000  1.0
  H  H25  1  0.76252000  0.83585000  0.56529000  1.0
  C  C26  1  0.31210000  0.79749000  0.57819000  1.0
  C  C27  1  0.68790000  0.20250000  0.42181000  1.0
  C  C28  1  0.78395000  0.26643000  0.87479000  1.0
  C  C29  1  0.21605000  0.73357000  0.12521000  1.0
  C  C30  1  0.77157000  0.38214000  0.95043000  1.0
  C  C31  1  0.22843000  0.61786000  0.04957000  1.0
  C  C32  1  0.81940000  0.51749000  0.91146000  1.0
  C  C33  1  0.18060000  0.48251000  0.08854000  1.0
  C  C34  1  0.66714000  0.21388000  0.10110000  1.0
  C  C35  1  0.33286000  0.78612000  0.89890000  1.0
  C  C36  1  0.69695000  0.35536000  0.05180000  1.0
  C  C37  1  0.30305000  0.64464000  0.94820000  1.0
  C  C38  1  0.66065000  0.46191000  0.11347000  1.0
  C  C39  1  0.33935000  0.53809000  0.88653000  1.0
  C  C40  1  0.70591000  0.59646000  0.07312000  1.0
  C  C41  1  0.29408000  0.40354000  0.92688000  1.0
  C  C42  1  0.78672000  0.62385000  0.97431000  1.0
  C  C43  1  0.21328000  0.37615000  0.02570000  1.0
  C  C44  1  0.75015000  0.82201000  0.04159000  1.0
  C  C45  1  0.24985000  0.17799000  0.95841000  1.0
  C  C46  1  0.10616000  0.17698000  0.57654000  1.0
  C  C47  1  0.89384000  0.82303000  0.42346000  1.0
  C  C48  1  0.23311000  0.36823000  0.49029000  1.0
  C  C49  1  0.76689000  0.63177000  0.50971000  1.0
  C  C50  1  0.15608000  0.40738000  0.58167000  1.0
  C  C51  1  0.84392000  0.59262000  0.41834000  1.0
  C  C52  1  0.17369000  0.54786000  0.60735000  1.0
  C  C53  1  0.82631000  0.45214000  0.39265000  1.0
  C  C54  1  0.26765000  0.64723000  0.53839000  1.0
  C  C55  1  0.73235000  0.35276000  0.46161000  1.0
  C  C56  1  0.33333333  0.60653000  0.44270000  1.0
  C  C57  1  0.66666667  0.39347000  0.55730000  1.0
  C  C58  1  0.31824000  0.46594000  0.41852000  1.0
  C  C59  1  0.68176000  0.53406000  0.58148000  1.0
  C  C60  1  0.41376000  0.71187000  0.36156000  1.0
  C  C61  1  0.58624000  0.28813000  0.63844000  1.0
  N  N62  1  0.81312000  0.76589000  0.95924000  1.0
  N  N63  1  0.18688000  0.23411000  0.04076000  1.0
  N  N64  1  0.68666000  0.72301000  0.11189000  1.0
  N  N65  1  0.31334000  0.27699000  0.88811000  1.0
  N  N66  1  0.20184000  0.22415000  0.49252000  1.0
  N  N67  1  0.79816000  0.77585000  0.50748000  1.0
  N  N68  1  0.07713000  0.28426000  0.63199000  1.0
  N  N69  1  0.92287000  0.71574000  0.36801000  1.0
  Cl  Cl70  1  0.14436000  0.06568000  0.26133000  1.0
  Cl  Cl71  1  0.85564000  0.93432000  0.73867000  1.0
  O  O72  1  0.47530000  0.84472000  0.61383000  1.0
  O  O73  1  0.52470000  0.15528000  0.38617000  1.0
  O  O74  1  0.65723000  0.15257000  0.87931000  1.0
  O  O75  1  0.34277000  0.84743000  0.12069000  1.0
  O  O76  1  0.70560000  0.97700000  0.25156000  1.0
  O  O77  1  0.29440000  0.02300000  0.74844000  1.0
  O  O78  1  0.90647000  0.29112000  0.81060000  1.0
  O  O79  1  0.09353000  0.70889000  0.18940000  1.0
  O  O80  1  0.79468000  0.15587000  0.10356000  1.0
  O  O81  1  0.20531000  0.84413000  0.89644000  1.0
  O  O82  1  0.51606000  0.16810000  0.14318000  1.0
  O  O83  1  0.48393000  0.83190000  0.85682000  1.0
  O  O84  1  0.49987000  0.67548000  0.28934000  1.0
  O  O85  1  0.50013000  0.32452000  0.71066000  1.0
  O  O86  1  0.37969000  0.83224000  0.37311000  1.0
  O  O87  1  0.62031000  0.16776000  0.62689000  1.0
  O  O88  1  0.18916000  0.85841000  0.58490000  1.0
  O  O89  1  0.81084000  0.14159000  0.41510000  1.0
