# generated using pymatgen
data_HgH14C14(BrN2)2
_symmetry_space_group_name_H-M   'P 1'
_cell_length_a   11.49010000
_cell_length_b   11.49010000
_cell_length_c   12.99000000
_cell_angle_alpha   90.00000000
_cell_angle_beta   90.00000000
_cell_angle_gamma   90.00000000
_symmetry_Int_Tables_number   1
_chemical_formula_structural   HgH14C14(BrN2)2
_chemical_formula_sum   'Hg4 H56 C56 Br8 N16'
_cell_volume   1714.97095015
_cell_formula_units_Z   4
loop_
 _symmetry_equiv_pos_site_id
 _symmetry_equiv_pos_as_xyz
  1  'x, y, z'
loop_
 _atom_site_type_symbol
 _atom_site_label
 _atom_site_symmetry_multiplicity
 _atom_site_fract_x
 _atom_site_fract_y
 _atom_site_fract_z
 _atom_site_occupancy
  Hg  Hg0  1  0.25000000  0.25000000  0.11396000  1.0
  Hg  Hg1  1  0.75000000  0.75000000  0.61396000  1.0
  Hg  Hg2  1  0.75000000  0.75000000  0.88604000  1.0
  Hg  Hg3  1  0.25000000  0.25000000  0.38604000  1.0
  H  H4  1  0.46768000  0.37278000  0.98478000  1.0
  H  H5  1  0.62722000  0.96768000  0.48478000  1.0
  H  H6  1  0.87278000  0.53232000  0.48478000  1.0
  H  H7  1  0.03232000  0.12722000  0.98478000  1.0
  H  H8  1  0.53232000  0.62722000  0.01522000  1.0
  H  H9  1  0.37278000  0.03232000  0.51522000  1.0
  H  H10  1  0.12722000  0.46768000  0.51522000  1.0
  H  H11  1  0.96768000  0.87278000  0.01522000  1.0
  H  H12  1  0.50851000  0.50315000  0.83420000  1.0
  H  H13  1  0.49685000  0.00852000  0.33420000  1.0
  H  H14  1  0.00315000  0.49149000  0.33420000  1.0
  H  H15  1  0.99149000  0.99685000  0.83420000  1.0
  H  H16  1  0.49149000  0.49685000  0.16580000  1.0
  H  H17  1  0.50315000  0.99149000  0.66580000  1.0
  H  H18  1  0.99685000  0.50851000  0.66580000  1.0
  H  H19  1  0.00851000  0.00315000  0.16580000  1.0
  H  H20  1  0.13715000  0.53515000  0.79228000  1.0
  H  H21  1  0.46485000  0.63715000  0.29228000  1.0
  H  H22  1  0.03515000  0.86285000  0.29228000  1.0
  H  H23  1  0.36285000  0.96485000  0.79228000  1.0
  H  H24  1  0.86285000  0.46485000  0.20772000  1.0
  H  H25  1  0.53515000  0.36285000  0.70772000  1.0
  H  H26  1  0.96485000  0.13715000  0.70772000  1.0
  H  H27  1  0.63715000  0.03515000  0.20772000  1.0
  H  H28  1  0.11134000  0.40872000  0.94869000  1.0
  H  H29  1  0.59128000  0.61134000  0.44869000  1.0
  H  H30  1  0.90872000  0.88866000  0.44869000  1.0
  H  H31  1  0.38866000  0.09128000  0.94869000  1.0
  H  H32  1  0.88866000  0.59128000  0.05131000  1.0
  H  H33  1  0.40872000  0.38866000  0.55131000  1.0
  H  H34  1  0.09128000  0.11134000  0.55131000  1.0
  H  H35  1  0.61134000  0.90872000  0.05131000  1.0
  H  H36  1  0.43557000  0.63214000  0.69790000  1.0
  H  H37  1  0.36786000  0.93557000  0.19790000  1.0
  H  H38  1  0.13214000  0.56443000  0.19790000  1.0
  H  H39  1  0.06443000  0.86786000  0.69790000  1.0
  H  H40  1  0.56443000  0.36786000  0.30210000  1.0
  H  H41  1  0.63214000  0.06443000  0.80210000  1.0
  H  H42  1  0.86786000  0.43557000  0.80210000  1.0
  H  H43  1  0.93557000  0.13214000  0.30210000  1.0
  H  H44  1  0.27549000  0.64738000  0.48688000  1.0
  H  H45  1  0.35262000  0.77549000  0.98688000  1.0
  H  H46  1  0.14738000  0.72451000  0.98688000  1.0
  H  H47  1  0.22451000  0.85262000  0.48688000  1.0
  H  H48  1  0.72451000  0.35262000  0.51312000  1.0
  H  H49  1  0.64738000  0.22451000  0.01312000  1.0
  H  H50  1  0.85262000  0.27549000  0.01312000  1.0
  H  H51  1  0.77549000  0.14738000  0.51312000  1.0
  H  H52  1  0.38219000  0.72730000  0.55850000  1.0
  H  H53  1  0.27270000  0.88220000  0.05850000  1.0
  H  H54  1  0.22730000  0.61781000  0.05850000  1.0
  H  H55  1  0.11780000  0.77270000  0.55850000  1.0
  H  H56  1  0.61780000  0.27270000  0.44150000  1.0
  H  H57  1  0.72730000  0.11780000  0.94150000  1.0
  H  H58  1  0.77270000  0.38220000  0.94150000  1.0
  H  H59  1  0.88219000  0.22730000  0.44150000  1.0
  C  C60  1  0.39702000  0.41197000  0.94074000  1.0
  C  C61  1  0.58803000  0.89702000  0.44074000  1.0
  C  C62  1  0.91197000  0.60298000  0.44074000  1.0
  C  C63  1  0.10298000  0.08803000  0.94074000  1.0
  C  C64  1  0.60298000  0.58803000  0.05926000  1.0
  C  C65  1  0.41197000  0.10298000  0.55926000  1.0
  C  C66  1  0.08803000  0.39702000  0.55926000  1.0
  C  C67  1  0.89702000  0.91197000  0.05926000  1.0
  C  C68  1  0.41910000  0.48342000  0.85640000  1.0
  C  C69  1  0.51658000  0.91910000  0.35640000  1.0
  C  C70  1  0.98342000  0.58090000  0.35640000  1.0
  C  C71  1  0.08090000  0.01658000  0.85641000  1.0
  C  C72  1  0.58090000  0.51658000  0.14359000  1.0
  C  C73  1  0.48342000  0.08090000  0.64360000  1.0
  C  C74  1  0.01658000  0.41910000  0.64360000  1.0
  C  C75  1  0.91910000  0.98342000  0.14360000  1.0
  C  C76  1  0.32506000  0.52777000  0.80002000  1.0
  C  C77  1  0.47223000  0.82506000  0.30002000  1.0
  C  C78  1  0.02777000  0.67494000  0.30002000  1.0
  C  C79  1  0.17494000  0.97223000  0.80003000  1.0
  C  C80  1  0.67494000  0.47223000  0.19997000  1.0
  C  C81  1  0.52777000  0.17494000  0.69998000  1.0
  C  C82  1  0.97223000  0.32506000  0.69998000  1.0
  C  C83  1  0.82506000  0.02777000  0.19998000  1.0
  C  C84  1  0.21207000  0.50030000  0.83307000  1.0
  C  C85  1  0.49970000  0.71207000  0.33307000  1.0
  C  C86  1  0.00030000  0.78793000  0.33307000  1.0
  C  C87  1  0.28793000  0.99969000  0.83308000  1.0
  C  C88  1  0.78793000  0.49969000  0.16692000  1.0
  C  C89  1  0.50031000  0.28793000  0.66693000  1.0
  C  C90  1  0.99969000  0.21207000  0.66693000  1.0
  C  C91  1  0.71207000  0.00030000  0.16693000  1.0
  C  C92  1  0.19766000  0.43074000  0.91930000  1.0
  C  C93  1  0.56926000  0.69766000  0.41930000  1.0
  C  C94  1  0.93074000  0.80234000  0.41930000  1.0
  C  C95  1  0.30234000  0.06926000  0.91931000  1.0
  C  C96  1  0.80234000  0.56926000  0.08069000  1.0
  C  C97  1  0.43074000  0.30234000  0.58070000  1.0
  C  C98  1  0.06926000  0.19766000  0.58070000  1.0
  C  C99  1  0.69766000  0.93074000  0.08070000  1.0
  C  C100  1  0.34573000  0.60017000  0.70844000  1.0
  C  C101  1  0.39983000  0.84573000  0.20844000  1.0
  C  C102  1  0.10017000  0.65427000  0.20844000  1.0
  C  C103  1  0.15427000  0.89983000  0.70844000  1.0
  C  C104  1  0.65427000  0.39983000  0.29156000  1.0
  C  C105  1  0.60017000  0.15427000  0.79156000  1.0
  C  C106  1  0.89983000  0.34573000  0.79156000  1.0
  C  C107  1  0.84573000  0.10017000  0.29156000  1.0
  C  C108  1  0.29080000  0.69725000  0.55814000  1.0
  C  C109  1  0.30275000  0.79080000  0.05814000  1.0
  C  C110  1  0.19725000  0.70920000  0.05814000  1.0
  C  C111  1  0.20920000  0.80275000  0.55814000  1.0
  C  C112  1  0.70920000  0.30275000  0.44186000  1.0
  C  C113  1  0.69725000  0.20920000  0.94186000  1.0
  C  C114  1  0.80275000  0.29080000  0.94186000  1.0
  C  C115  1  0.79080000  0.19725000  0.44186000  1.0
  Br  Br116  1  0.04247000  0.30892000  0.15897000  1.0
  Br  Br117  1  0.69108000  0.54247000  0.65897000  1.0
  Br  Br118  1  0.80892000  0.95753000  0.65897000  1.0
  Br  Br119  1  0.45753000  0.19108000  0.15897000  1.0
  Br  Br120  1  0.95753000  0.69108000  0.84103000  1.0
  Br  Br121  1  0.30892000  0.45753000  0.34103000  1.0
  Br  Br122  1  0.19108000  0.04247000  0.34103000  1.0
  Br  Br123  1  0.54247000  0.80892000  0.84103000  1.0
  N  N124  1  0.28858000  0.38700000  0.97209000  1.0
  N  N125  1  0.61300000  0.78858000  0.47209000  1.0
  N  N126  1  0.88700000  0.71142000  0.47209000  1.0
  N  N127  1  0.21142000  0.11300000  0.97209000  1.0
  N  N128  1  0.71142000  0.61300000  0.02791000  1.0
  N  N129  1  0.38700000  0.21142000  0.52791000  1.0
  N  N130  1  0.11300000  0.28858000  0.52791000  1.0
  N  N131  1  0.78858000  0.88700000  0.02791000  1.0
  N  N132  1  0.26376000  0.62293000  0.64495000  1.0
  N  N133  1  0.37707000  0.76376000  0.14495000  1.0
  N  N134  1  0.12293000  0.73624000  0.14495000  1.0
  N  N135  1  0.23624000  0.87707000  0.64495000  1.0
  N  N136  1  0.73624000  0.37707000  0.35505000  1.0
  N  N137  1  0.62293000  0.23624000  0.85505000  1.0
  N  N138  1  0.87707000  0.26376000  0.85505000  1.0
  N  N139  1  0.76376000  0.12293000  0.35505000  1.0
