# generated using pymatgen
data_ZnH13C21N4
_symmetry_space_group_name_H-M   'P 1'
_cell_length_a   18.94810000
_cell_length_b   18.94980000
_cell_length_c   20.31490000
_cell_angle_alpha   105.91800000
_cell_angle_beta   107.53900000
_cell_angle_gamma   111.69800000
_symmetry_Int_Tables_number   1
_chemical_formula_structural   ZnH13C21N4
_chemical_formula_sum   'Zn4 H52 C84 N16'
_cell_volume   5817.94154308
_cell_formula_units_Z   4
loop_
 _symmetry_equiv_pos_site_id
 _symmetry_equiv_pos_as_xyz
  1  'x, y, z'
loop_
 _atom_site_type_symbol
 _atom_site_label
 _atom_site_symmetry_multiplicity
 _atom_site_fract_x
 _atom_site_fract_y
 _atom_site_fract_z
 _atom_site_occupancy
  Zn  Zn0  1  0.89517000  0.89604000  0.50286000  1.0
  Zn  Zn1  1  0.10865000  0.11095000  0.49891000  1.0
  Zn  Zn2  1  0.10278000  0.00803000  0.60314000  1.0
  Zn  Zn3  1  0.90229000  0.99885000  0.39545000  1.0
  H  H4  1  0.85230000  0.80053000  0.61624000  1.0
  H  H5  1  0.43863000  0.06434000  0.68508000  1.0
  H  H6  1  0.55587000  0.03437000  0.73162000  1.0
  H  H7  1  0.14507000  0.27885000  0.46532000  1.0
  H  H8  1  0.68328000  0.03118000  0.72633000  1.0
  H  H9  1  0.78144000  0.05179000  0.66764000  1.0
  H  H10  1  0.78765000  0.19393000  0.53383000  1.0
  H  H11  1  0.69355000  0.25683000  0.51690000  1.0
  H  H12  1  0.56693000  0.26108000  0.52315000  1.0
  H  H13  1  0.15699000  0.75268000  0.47210000  1.0
  H  H14  1  0.88565000  0.61684000  0.32851000  1.0
  H  H15  1  0.31086000  0.18049000  0.52876000  1.0
  H  H16  1  0.80762000  0.46086000  0.26536000  1.0
  H  H17  1  0.80422000  0.32710000  0.25718000  1.0
  H  H18  1  0.87728000  0.25348000  0.30456000  1.0
  H  H19  1  0.10080000  0.13460000  0.74619000  1.0
  H  H20  1  0.14932000  0.38977000  0.44540000  1.0
  H  H21  1  0.23261000  0.54093000  0.48020000  1.0
  H  H22  1  0.23581000  0.67489000  0.48915000  1.0
  H  H23  1  0.55559000  0.80472000  0.19341000  1.0
  H  H24  1  0.10094000  0.24529000  0.83870000  1.0
  H  H25  1  0.18790000  0.40076000  0.72891000  1.0
  H  H26  1  0.15241000  0.87792000  0.51376000  1.0
  H  H27  1  0.32259000  0.59056000  0.98448000  1.0
  H  H28  1  0.40889000  0.52255000  0.18470000  1.0
  H  H29  1  0.17698000  0.37088000  0.96154000  1.0
  H  H30  1  0.55305000  0.62661000  0.28810000  1.0
  H  H31  1  0.86204000  0.13795000  0.48354000  1.0
  H  H32  1  0.29642000  0.47329000  0.06437000  1.0
  H  H33  1  0.41299000  0.70063000  0.08980000  1.0
  H  H34  1  0.26276000  0.52682000  0.85189000  1.0
  H  H35  1  0.12166000  0.86897000  0.81218000  1.0
  H  H36  1  0.91035000  0.76527000  0.16513000  1.0
  H  H37  1  0.89108000  0.85268000  0.25619000  1.0
  H  H38  1  0.17940000  0.94325000  0.28249000  1.0
  H  H39  1  0.12219000  0.82934000  0.02535000  1.0
  H  H40  1  0.85508000  0.73321000  0.83253000  1.0
  H  H41  1  0.91942000  0.71791000  0.04468000  1.0
  H  H42  1  0.85152000  0.77474000  0.72744000  1.0
  H  H43  1  0.10762000  0.27409000  0.60870000  1.0
  H  H44  1  0.92674000  0.74260000  0.95049000  1.0
  H  H45  1  0.12547000  0.82947000  0.91768000  1.0
  H  H46  1  0.18838000  0.89513000  0.16144000  1.0
  H  H47  1  0.86072000  0.00476000  0.62640000  1.0
  H  H48  1  0.16482000  0.99785000  0.39625000  1.0
  H  H49  1  0.87210000  0.13489000  0.32548000  1.0
  H  H50  1  0.12563000  0.95603000  0.74916000  1.0
  H  H51  1  0.68932000  0.74121000  0.39661000  1.0
  H  H52  1  0.87780000  0.73483000  0.38024000  1.0
  H  H53  1  0.70431000  0.87297000  0.25355000  1.0
  H  H54  1  0.30557000  0.04542000  0.66948000  1.0
  H  H55  1  0.44630000  0.20911000  0.55360000  1.0
  C  C56  1  0.91978000  0.84442000  0.64029000  1.0
  C  C57  1  0.94436000  0.78106000  0.41819000  1.0
  C  C58  1  0.71452000  0.85058000  0.29753000  1.0
  C  C59  1  0.07775000  0.23252000  0.43326000  1.0
  C  C60  1  0.29352000  0.07581000  0.63249000  1.0
  C  C61  1  0.65679000  0.78180000  0.30218000  1.0
  C  C62  1  0.34680000  0.12084000  0.60603000  1.0
  C  C63  1  0.01757000  0.77282000  0.43122000  1.0
  C  C64  1  0.03296000  0.90361000  0.29865000  1.0
  C  C65  1  0.47433000  0.17974000  0.58435000  1.0
  C  C66  1  0.43162000  0.13448000  0.61745000  1.0
  C  C67  1  0.00954000  0.23852000  0.38811000  1.0
  C  C68  1  0.47015000  0.09894000  0.65810000  1.0
  C  C69  1  0.54716000  0.10364000  0.66264000  1.0
  C  C70  1  0.58749000  0.14558000  0.62488000  1.0
  C  C71  1  0.10000000  0.15771000  0.70276000  1.0
  C  C72  1  0.55123000  0.18591000  0.58702000  1.0
  C  C73  1  0.58547000  0.06449000  0.70105000  1.0
  C  C74  1  0.65592000  0.06272000  0.69814000  1.0
  C  C75  1  0.69408000  0.09942000  0.65614000  1.0
  C  C76  1  0.66040000  0.14342000  0.62158000  1.0
  C  C77  1  0.69772000  0.18086000  0.57986000  1.0
  C  C78  1  0.11256000  0.23698000  0.70627000  1.0
  C  C79  1  0.66344000  0.22586000  0.54671000  1.0
  C  C80  1  0.59337000  0.22820000  0.55013000  1.0
  C  C81  1  0.75892000  0.08866000  0.64363000  1.0
  C  C82  1  0.79077000  0.11864000  0.59690000  1.0
  C  C83  1  0.86751000  0.09905000  0.51316000  1.0
  C  C84  1  0.76233000  0.16803000  0.56866000  1.0
  C  C85  1  0.09735000  0.69349000  0.43441000  1.0
  C  C86  1  0.02079000  0.69465000  0.40423000  1.0
  C  C87  1  0.94549000  0.61741000  0.35433000  1.0
  C  C88  1  0.94367000  0.54001000  0.34046000  1.0
  C  C89  1  0.84329000  0.08954000  0.57065000  1.0
  C  C90  1  0.02072000  0.53955000  0.37675000  1.0
  C  C91  1  0.09892000  0.61767000  0.42180000  1.0
  C  C92  1  0.86609000  0.46066000  0.29500000  1.0
  C  C93  1  0.86423000  0.38666000  0.29053000  1.0
  C  C94  1  0.93988000  0.38516000  0.33086000  1.0
  C  C95  1  0.10469000  0.22936000  0.63307000  1.0
  C  C96  1  0.01881000  0.46272000  0.37190000  1.0
  C  C97  1  0.09531000  0.46298000  0.41160000  1.0
  C  C98  1  0.17394000  0.54141000  0.45185000  1.0
  C  C99  1  0.17569000  0.61544000  0.45677000  1.0
  C  C100  1  0.70710000  0.78273000  0.36978000  1.0
  C  C101  1  0.93843000  0.31170000  0.33422000  1.0
  C  C102  1  0.01267000  0.31248000  0.37693000  1.0
  C  C103  1  0.09059000  0.38797000  0.41300000  1.0
  C  C104  1  0.56769000  0.72277000  0.24703000  1.0
  C  C105  1  0.52440000  0.74219000  0.19107000  1.0
  C  C106  1  0.44341000  0.68334000  0.13258000  1.0
  C  C107  1  0.86677000  0.03132000  0.58604000  1.0
  C  C108  1  0.40084000  0.60137000  0.12671000  1.0
  C  C109  1  0.44118000  0.58469000  0.18649000  1.0
  C  C110  1  0.52270000  0.64357000  0.24492000  1.0
  C  C111  1  0.29630000  0.14481000  0.56110000  1.0
  C  C112  1  0.18019000  0.37803000  0.91084000  1.0
  C  C113  1  0.13719000  0.30694000  0.84128000  1.0
  C  C114  1  0.18413000  0.39356000  0.77942000  1.0
  C  C115  1  0.22667000  0.46483000  0.84895000  1.0
  C  C116  1  0.23009000  0.45869000  0.91736000  1.0
  C  C117  1  0.32383000  0.53235000  0.05932000  1.0
  C  C118  1  0.29213000  0.53228000  0.98987000  1.0
  C  C119  1  0.93885000  0.15928000  0.36218000  1.0
  C  C120  1  0.14171000  0.31227000  0.77455000  1.0
  C  C121  1  0.98697000  0.82823000  0.76307000  1.0
  C  C122  1  0.08423000  0.85394000  0.48661000  1.0
  C  C123  1  0.06289000  0.84015000  0.81690000  1.0
  C  C124  1  0.06492000  0.81720000  0.87636000  1.0
  C  C125  1  0.99062000  0.78069000  0.88517000  1.0
  C  C126  1  0.91378000  0.76295000  0.82786000  1.0
  C  C127  1  0.91186000  0.78641000  0.76857000  1.0
  C  C128  1  0.97673000  0.76816000  0.09647000  1.0
  C  C129  1  0.97164000  0.79498000  0.16473000  1.0
  C  C130  1  0.12187000  0.89349000  0.23063000  1.0
  C  C131  1  0.05911000  0.92273000  0.70738000  1.0
  C  C132  1  0.12707000  0.86631000  0.16218000  1.0
  C  C133  1  0.95643000  0.89562000  0.29982000  1.0
  C  C134  1  0.05371000  0.80727000  0.09233000  1.0
  C  C135  1  0.98999000  0.76945000  0.95292000  1.0
  C  C136  1  0.05803000  0.79898000  0.02048000  1.0
  C  C137  1  0.04300000  0.86222000  0.23267000  1.0
  C  C138  1  0.98793000  0.86158000  0.70639000  1.0
  C  C139  1  0.09607000  0.97018000  0.37087000  1.0
  N  N140  1  0.94836000  0.89112000  0.60502000  1.0
  N  N141  1  0.08758000  0.10859000  0.63377000  1.0
  N  N142  1  0.90083000  0.04913000  0.49541000  1.0
  N  N143  1  0.09025000  0.15241000  0.59086000  1.0
  N  N144  1  0.90034000  0.00754000  0.54029000  1.0
  N  N145  1  0.96326000  0.11069000  0.38971000  1.0
  N  N146  1  0.03531000  0.93998000  0.64707000  1.0
  N  N147  1  0.78752000  0.84680000  0.40244000  1.0
  N  N148  1  0.21988000  0.11650000  0.56106000  1.0
  N  N149  1  0.05233000  0.90498000  0.50527000  1.0
  N  N150  1  0.97361000  0.95378000  0.36658000  1.0
  N  N151  1  0.05932000  0.99953000  0.41030000  1.0
  N  N152  1  0.96636000  0.86010000  0.46317000  1.0
  N  N153  1  0.79205000  0.88901000  0.35720000  1.0
  N  N154  1  0.21807000  0.07341000  0.60551000  1.0
  N  N155  1  0.04993000  0.15653000  0.43399000  1.0
