# generated using pymatgen
data_ZnH8C12(NO3)2
_symmetry_space_group_name_H-M   'P 1'
_cell_length_a   9.48633000
_cell_length_b   10.55340000
_cell_length_c   12.64430000
_cell_angle_alpha   90.00000000
_cell_angle_beta   104.84500000
_cell_angle_gamma   89.99990000
_symmetry_Int_Tables_number   1
_chemical_formula_structural   ZnH8C12(NO3)2
_chemical_formula_sum   'Zn4 H32 C48 N8 O24'
_cell_volume   1223.60798583
_cell_formula_units_Z   4
loop_
 _symmetry_equiv_pos_site_id
 _symmetry_equiv_pos_as_xyz
  1  'x, y, z'
loop_
 _atom_site_type_symbol
 _atom_site_label
 _atom_site_symmetry_multiplicity
 _atom_site_fract_x
 _atom_site_fract_y
 _atom_site_fract_z
 _atom_site_occupancy
  Zn  Zn0  1  0.55377000  0.31857000  0.21359000  1.0
  Zn  Zn1  1  0.94623000  0.81857000  0.28641000  1.0
  Zn  Zn2  1  0.44623000  0.68143000  0.78641000  1.0
  Zn  Zn3  1  0.05377000  0.18143000  0.71359000  1.0
  H  H4  1  0.63560000  0.01874000  0.84065000  1.0
  H  H5  1  0.86440000  0.51874000  0.65935000  1.0
  H  H6  1  0.36440000  0.98126000  0.15935000  1.0
  H  H7  1  0.13560000  0.48126000  0.34065000  1.0
  H  H8  1  0.79306000  0.15563000  0.17198000  1.0
  H  H9  1  0.70694000  0.65563000  0.32802000  1.0
  H  H10  1  0.20694000  0.84437000  0.82801000  1.0
  H  H11  1  0.29306000  0.34437000  0.67199000  1.0
  H  H12  1  0.37752000  0.26098000  0.99267000  1.0
  H  H13  1  0.12249000  0.76098000  0.50733000  1.0
  H  H14  1  0.62249000  0.73902000  0.00733000  1.0
  H  H15  1  0.87751000  0.23902000  0.49267000  1.0
  H  H16  1  0.27374000  0.04487000  0.51435000  1.0
  H  H17  1  0.22626000  0.54487000  0.98565000  1.0
  H  H18  1  0.72626000  0.95512000  0.48565000  1.0
  H  H19  1  0.77374000  0.45513000  0.01435000  1.0
  H  H20  1  0.61897000  0.27228000  0.44654000  1.0
  H  H21  1  0.88103000  0.77228000  0.05346000  1.0
  H  H22  1  0.38103000  0.72772000  0.55346000  1.0
  H  H23  1  0.11897000  0.22772000  0.94654000  1.0
  H  H24  1  0.25493000  0.18806000  0.19157000  1.0
  H  H25  1  0.24507000  0.68806000  0.30843000  1.0
  H  H26  1  0.74507000  0.81194000  0.80843000  1.0
  H  H27  1  0.75493000  0.31194000  0.69157000  1.0
  H  H28  1  0.92938000  0.02869000  0.08551000  1.0
  H  H29  1  0.57062000  0.52868000  0.41450000  1.0
  H  H30  1  0.07062000  0.97132000  0.91450000  1.0
  H  H31  1  0.42938000  0.47132000  0.58551000  1.0
  H  H32  1  0.47977000  0.11953000  0.65047000  1.0
  H  H33  1  0.02023000  0.61953000  0.84952000  1.0
  H  H34  1  0.52023000  0.88047000  0.34952000  1.0
  H  H35  1  0.97977000  0.38047000  0.15048000  1.0
  C  C36  1  0.36259000  0.12427000  0.80661000  1.0
  C  C37  1  0.13741000  0.62428000  0.69339000  1.0
  C  C38  1  0.63741000  0.87573000  0.19339000  1.0
  C  C39  1  0.86259000  0.37573000  0.30661000  1.0
  C  C40  1  0.49061000  0.13653000  0.90476000  1.0
  C  C41  1  0.00939000  0.63653000  0.59524000  1.0
  C  C42  1  0.50940000  0.86347000  0.09524000  1.0
  C  C43  1  0.99061000  0.36347000  0.40476000  1.0
  C  C44  1  0.62119000  0.07374000  0.91006000  1.0
  C  C45  1  0.87881000  0.57374000  0.58994000  1.0
  C  C46  1  0.37881000  0.92627000  0.08994000  1.0
  C  C47  1  0.12119000  0.42626000  0.41006000  1.0
  C  C48  1  0.73388000  0.07973000  0.00681000  1.0
  C  C49  1  0.76612000  0.57973000  0.49320000  1.0
  C  C50  1  0.26612000  0.92027000  0.99319000  1.0
  C  C51  1  0.23388000  0.42027000  0.50681000  1.0
  C  C52  1  0.70961000  0.15009000  0.09483000  1.0
  C  C53  1  0.79039000  0.65010000  0.40518000  1.0
  C  C54  1  0.29039000  0.84991000  0.90517000  1.0
  C  C55  1  0.20960000  0.34991000  0.59483000  1.0
  C  C56  1  0.47620000  0.20750000  0.99488000  1.0
  C  C57  1  0.02380000  0.70750000  0.50512000  1.0
  C  C58  1  0.52380000  0.79250000  0.00512000  1.0
  C  C59  1  0.97620000  0.29250000  0.49488000  1.0
  C  C60  1  0.11077000  0.03643000  0.30085000  1.0
  C  C61  1  0.38923000  0.53642000  0.19915000  1.0
  C  C62  1  0.88923000  0.96357000  0.69915000  1.0
  C  C63  1  0.61077000  0.46358000  0.80085000  1.0
  C  C64  1  0.24909000  0.10839000  0.34810000  1.0
  C  C65  1  0.25091000  0.60839000  0.15190000  1.0
  C  C66  1  0.75092000  0.89161000  0.65190000  1.0
  C  C67  1  0.74908000  0.39161000  0.84810000  1.0
  C  C68  1  0.32108000  0.09962000  0.45894000  1.0
  C  C69  1  0.17892000  0.59962000  0.04106000  1.0
  C  C70  1  0.67892000  0.90038000  0.54106000  1.0
  C  C71  1  0.82108000  0.40038000  0.95894000  1.0
  C  C72  1  0.45579000  0.16088000  0.49697000  1.0
  C  C73  1  0.04421000  0.66087000  0.00303000  1.0
  C  C74  1  0.54421000  0.83912000  0.50303000  1.0
  C  C75  1  0.95579000  0.33912000  0.99697000  1.0
  C  C76  1  0.51388000  0.22503000  0.42060000  1.0
  C  C77  1  0.98612000  0.72503000  0.07940000  1.0
  C  C78  1  0.48612000  0.77497000  0.57940000  1.0
  C  C79  1  0.01388000  0.27497000  0.92060000  1.0
  C  C80  1  0.31188000  0.17753000  0.27760000  1.0
  C  C81  1  0.18812000  0.67753000  0.22240000  1.0
  C  C82  1  0.68812000  0.82247000  0.72240000  1.0
  C  C83  1  0.81188000  0.32247000  0.77760000  1.0
  N  N84  1  0.58390000  0.21291000  0.08737000  1.0
  N  N85  1  0.91610000  0.71291000  0.41263000  1.0
  N  N86  1  0.41610000  0.78709000  0.91263000  1.0
  N  N87  1  0.08390000  0.28709000  0.58737000  1.0
  N  N88  1  0.44388000  0.23226000  0.31396000  1.0
  N  N89  1  0.05611000  0.73225000  0.18603000  1.0
  N  N90  1  0.55612000  0.76774000  0.68603000  1.0
  N  N91  1  0.94388000  0.26774000  0.81397000  1.0
  O  O92  1  0.24324000  0.17060000  0.82077000  1.0
  O  O93  1  0.25676000  0.67060000  0.67924000  1.0
  O  O94  1  0.75676000  0.82940000  0.17923000  1.0
  O  O95  1  0.74324000  0.32940000  0.32077000  1.0
  O  O96  1  0.37531000  0.07004000  0.72108000  1.0
  O  O97  1  0.12469000  0.57004000  0.77893000  1.0
  O  O98  1  0.62469000  0.92996000  0.27893000  1.0
  O  O99  1  0.87532000  0.42996000  0.22108000  1.0
  O  O100  1  0.85838000  0.01774000  0.01195000  1.0
  O  O101  1  0.64162000  0.51774000  0.48805000  1.0
  O  O102  1  0.14162000  0.98226000  0.98805000  1.0
  O  O103  1  0.35837000  0.48226000  0.51195000  1.0
  O  O104  1  0.07760000  0.95110000  0.36375000  1.0
  O  O105  1  0.42240000  0.45110000  0.13625000  1.0
  O  O106  1  0.92240000  0.04889000  0.63625000  1.0
  O  O107  1  0.57760000  0.54889000  0.86375000  1.0
  O  O108  1  0.03999000  0.05954000  0.20457000  1.0
  O  O109  1  0.46001000  0.55954000  0.29543000  1.0
  O  O110  1  0.96001000  0.94046000  0.79543000  1.0
  O  O111  1  0.53999000  0.44046000  0.70457000  1.0
  O  O112  1  0.53570000  0.16012000  0.60126000  1.0
  O  O113  1  0.96430000  0.66012000  0.89874000  1.0
  O  O114  1  0.46430000  0.83988000  0.39874000  1.0
  O  O115  1  0.03570000  0.33988000  0.10126000  1.0
