# generated using pymatgen
data_PrCuH13C15N2O13
_symmetry_space_group_name_H-M   'P 1'
_cell_length_a   8.11680000
_cell_length_b   10.68090000
_cell_length_c   12.27120000
_cell_angle_alpha   100.33400000
_cell_angle_beta   105.98300000
_cell_angle_gamma   102.87500000
_symmetry_Int_Tables_number   1
_chemical_formula_structural   PrCuH13C15N2O13
_chemical_formula_sum   'Pr2 Cu2 H26 C30 N4 O26'
_cell_volume   963.55443144
_cell_formula_units_Z   2
loop_
 _symmetry_equiv_pos_site_id
 _symmetry_equiv_pos_as_xyz
  1  'x, y, z'
loop_
 _atom_site_type_symbol
 _atom_site_label
 _atom_site_symmetry_multiplicity
 _atom_site_fract_x
 _atom_site_fract_y
 _atom_site_fract_z
 _atom_site_occupancy
  Pr  Pr0  1  0.99234000  0.66666667  0.42086000  1.0
  Pr  Pr1  1  0.00766000  0.33329000  0.57914000  1.0
  Cu  Cu2  1  0.03299000  0.23147000  0.04704000  1.0
  Cu  Cu3  1  0.96701000  0.76853000  0.95296000  1.0
  H  H4  1  0.58649000  0.32530000  0.35420000  1.0
  H  H5  1  0.41351000  0.67471000  0.64582000  1.0
  H  H6  1  0.78429000  0.79735000  0.56410000  1.0
  H  H7  1  0.21572000  0.20264000  0.43589000  1.0
  H  H8  1  0.82574000  0.68556000  0.63357000  1.0
  H  H9  1  0.17427000  0.31443000  0.36643000  1.0
  H  H10  1  0.16115000  0.90678000  0.63913000  1.0
  H  H11  1  0.83885000  0.09322000  0.36087000  1.0
  H  H12  1  0.22242000  0.94787000  0.53359000  1.0
  H  H13  1  0.77758000  0.05213000  0.46640000  1.0
  H  H14  1  0.67147000  0.73585000  0.28640000  1.0
  H  H15  1  0.32853000  0.26415000  0.71361000  1.0
  H  H16  1  0.82659000  0.85962000  0.29318000  1.0
  H  H17  1  0.17341000  0.14038000  0.70682000  1.0
  H  H18  1  0.48152000  0.52494000  0.18953000  1.0
  H  H19  1  0.51848000  0.47507000  0.81048000  1.0
  H  H20  1  0.54612000  0.63718000  0.03748000  1.0
  H  H21  1  0.45389000  0.36282000  0.96253000  1.0
  H  H22  1  0.31314000  0.73779000  0.93003000  1.0
  H  H23  1  0.68687000  0.26221000  0.06997000  1.0
  H  H24  1  0.37282000  0.17206000  0.01707000  1.0
  H  H25  1  0.62718000  0.82793000  0.98293000  1.0
  H  H26  1  0.58724000  0.06296000  0.12890000  1.0
  H  H27  1  0.41277000  0.93704000  0.87110000  1.0
  H  H28  1  0.50565000  0.95722000  0.28007000  1.0
  H  H29  1  0.49435000  0.04278000  0.71993000  1.0
  C  C30  1  0.69628000  0.41487000  0.36616000  1.0
  C  C31  1  0.30371000  0.58513000  0.63384000  1.0
  C  C32  1  0.20049000  0.50043000  0.26456000  1.0
  C  C33  1  0.79952000  0.49957000  0.73544000  1.0
  C  C34  1  0.23131000  0.57051000  0.17167000  1.0
  C  C35  1  0.76869000  0.42948000  0.82832000  1.0
  C  C36  1  0.38795000  0.57240000  0.14336000  1.0
  C  C37  1  0.61205000  0.42760000  0.85664000  1.0
  C  C38  1  0.42356000  0.63456000  0.05859000  1.0
  C  C39  1  0.57644000  0.36544000  0.94142000  1.0
  C  C40  1  0.29867000  0.69124000  0.00011000  1.0
  C  C41  1  0.70133000  0.30876000  0.99990000  1.0
  C  C42  1  0.11313000  0.63089000  0.11015000  1.0
  C  C43  1  0.88687000  0.36911000  0.88985000  1.0
  C  C44  1  0.93562000  0.63534000  0.12418000  1.0
  C  C45  1  0.06439000  0.36466000  0.87581000  1.0
  C  C46  1  0.95726000  0.06255000  0.18397000  1.0
  C  C47  1  0.04273000  0.93744000  0.81603000  1.0
  C  C48  1  0.13969000  0.06038000  0.17847000  1.0
  C  C49  1  0.86031000  0.93962000  0.82153000  1.0
  C  C50  1  0.34447000  0.12219000  0.08260000  1.0
  C  C51  1  0.65553000  0.87781000  0.91741000  1.0
  C  C52  1  0.46067000  0.06105000  0.14417000  1.0
  C  C53  1  0.53934000  0.93896000  0.85583000  1.0
  C  C54  1  0.41482000  0.00179000  0.22787000  1.0
  C  C55  1  0.58519000  0.99822000  0.77214000  1.0
  C  C56  1  0.25250000  0.00225000  0.24707000  1.0
  C  C57  1  0.74750000  0.99775000  0.75293000  1.0
  C  C58  1  0.21152000  0.95100000  0.34623000  1.0
  C  C59  1  0.78848000  0.04900000  0.65377000  1.0
  N  N60  1  0.14880000  0.68863000  0.02640000  1.0
  N  N61  1  0.85120000  0.31137000  0.97360000  1.0
  N  N62  1  0.18899000  0.12170000  0.10026000  1.0
  N  N63  1  0.81100000  0.87829000  0.89974000  1.0
  O  O64  1  0.14745000  0.82674000  0.32757000  1.0
  O  O65  1  0.85255000  0.17326000  0.67243000  1.0
  O  O66  1  0.83958000  0.72384000  0.56741000  1.0
  O  O67  1  0.16042000  0.27616000  0.43258000  1.0
  O  O68  1  0.19478000  0.87247000  0.57079000  1.0
  O  O69  1  0.80522000  0.12753000  0.42921000  1.0
  O  O70  1  0.87924000  0.58071000  0.19431000  1.0
  O  O71  1  0.12076000  0.41928000  0.80568000  1.0
  O  O72  1  0.78513000  0.79798000  0.33794000  1.0
  O  O73  1  0.21487000  0.20201000  0.66205000  1.0
  O  O74  1  0.20852000  0.56942000  0.36221000  1.0
  O  O75  1  0.79149000  0.43058000  0.63779000  1.0
  O  O76  1  0.66020000  0.51590000  0.33896000  1.0
  O  O77  1  0.33979000  0.48410000  0.66105000  1.0
  O  O78  1  0.85847000  0.41167000  0.40802000  1.0
  O  O79  1  0.14153000  0.58833000  0.59197000  1.0
  O  O80  1  0.17863000  0.37621000  0.23882000  1.0
  O  O81  1  0.82137000  0.62378000  0.76118000  1.0
  O  O82  1  0.84640000  0.69488000  0.05704000  1.0
  O  O83  1  0.15360000  0.30512000  0.94295000  1.0
  O  O84  1  0.88044000  0.13212000  0.12287000  1.0
  O  O85  1  0.11956000  0.86788000  0.87713000  1.0
  O  O86  1  0.88620000  0.99792000  0.24337000  1.0
  O  O87  1  0.11379000  0.00207000  0.75662000  1.0
  O  O88  1  0.25347000  0.03842000  0.44155000  1.0
  O  O89  1  0.74653000  0.96158000  0.55845000  1.0
