# generated using pymatgen
data_ZnH2C20N2(Cl2O3)2
_symmetry_space_group_name_H-M   'P 1'
_cell_length_a   13.17570000
_cell_length_b   14.39530000
_cell_length_c   23.71650000
_cell_angle_alpha   89.99890000
_cell_angle_beta   89.99990000
_cell_angle_gamma   90.52490000
_symmetry_Int_Tables_number   1
_chemical_formula_structural   ZnH2C20N2(Cl2O3)2
_chemical_formula_sum   'Zn2 H4 C40 N4 Cl8 O12'
_cell_volume   4498.07601418
_cell_formula_units_Z   2
loop_
 _symmetry_equiv_pos_site_id
 _symmetry_equiv_pos_as_xyz
  1  'x, y, z'
loop_
 _atom_site_type_symbol
 _atom_site_label
 _atom_site_symmetry_multiplicity
 _atom_site_fract_x
 _atom_site_fract_y
 _atom_site_fract_z
 _atom_site_occupancy
  Zn  Zn0  1  0.39387000  0.49176000  0.50000000  1.0
  Zn  Zn1  1  0.60612000  0.50824000  0.50000000  1.0
  H  H2  1  0.68561000  0.66222000  0.05337000  1.0
  H  H3  1  0.31439000  0.33776000  0.94664000  1.0
  H  H4  1  0.31439000  0.33776000  0.05337000  1.0
  H  H5  1  0.68561000  0.66222000  0.94663000  1.0
  C  C6  1  0.48369000  0.67948000  0.50000000  1.0
  C  C7  1  0.51631000  0.32053000  0.50001000  1.0
  C  C8  1  0.49999000  0.50000000  0.60934000  1.0
  C  C9  1  0.49998000  0.49999000  0.39066000  1.0
  C  C10  1  0.42863000  0.44099000  0.12166000  1.0
  C  C11  1  0.57137000  0.55898000  0.87834000  1.0
  C  C12  1  0.57137000  0.55899000  0.12166000  1.0
  C  C13  1  0.42864000  0.44099000  0.87834000  1.0
  C  C14  1  0.56848000  0.55918000  0.05925000  1.0
  C  C15  1  0.43152000  0.44080000  0.94075000  1.0
  C  C16  1  0.43152000  0.44080000  0.05925000  1.0
  C  C17  1  0.56848000  0.55918000  0.94075000  1.0
  C  C18  1  0.50000000  0.49998000  0.03005000  1.0
  C  C19  1  0.50000000  0.49998000  0.96995000  1.0
  C  C20  1  0.63423000  0.61724000  0.02960000  1.0
  C  C21  1  0.36577000  0.38274000  0.97040000  1.0
  C  C22  1  0.36577000  0.38274000  0.02960000  1.0
  C  C23  1  0.63423000  0.61724000  0.97040000  1.0
  C  C24  1  0.54672000  0.42745000  0.76187000  1.0
  C  C25  1  0.45329000  0.57256000  0.23813000  1.0
  C  C26  1  0.45328000  0.57255000  0.76188000  1.0
  C  C27  1  0.54671000  0.42744000  0.23813000  1.0
  C  C28  1  0.54540000  0.42700000  0.70265000  1.0
  C  C29  1  0.45460000  0.57300000  0.29735000  1.0
  C  C30  1  0.45459000  0.57300000  0.70265000  1.0
  C  C31  1  0.54539000  0.42699000  0.29735000  1.0
  C  C32  1  0.49999000  0.50000000  0.67308000  1.0
  C  C33  1  0.49999000  0.49999000  0.32693000  1.0
  C  C34  1  0.50000000  0.49999000  0.79116000  1.0
  C  C35  1  0.50000000  0.50000000  0.20884000  1.0
  C  C36  1  0.47881000  0.77947000  0.49999000  1.0
  C  C37  1  0.52120000  0.22054000  0.50001000  1.0
  C  C38  1  0.48513000  0.86458000  0.49999000  1.0
  C  C39  1  0.51489000  0.13543000  0.50000000  1.0
  C  C40  1  0.49449000  0.95738000  0.49999000  1.0
  C  C41  1  0.50554000  0.04263000  0.49999000  1.0
  C  C42  1  0.85142000  0.51010000  0.50000000  1.0
  C  C43  1  0.14858000  0.48991000  0.49999000  1.0
  C  C44  1  0.95380000  0.50322000  0.50000000  1.0
  C  C45  1  0.04619000  0.49679000  0.49999000  1.0
  N  N46  1  0.50000000  0.49999000  0.14857000  1.0
  N  N47  1  0.50000000  0.49999000  0.85143000  1.0
  N  N48  1  0.76321000  0.51612000  0.50000000  1.0
  N  N49  1  0.23678000  0.48389000  0.50000000  1.0
  Cl  Cl50  1  0.60506000  0.34054000  0.79874000  1.0
  Cl  Cl51  1  0.39498000  0.65948000  0.20126000  1.0
  Cl  Cl52  1  0.39496000  0.65947000  0.79874000  1.0
  Cl  Cl53  1  0.60504000  0.34052000  0.20127000  1.0
  Cl  Cl54  1  0.59788000  0.33592000  0.66636000  1.0
  Cl  Cl55  1  0.40214000  0.66408000  0.33364000  1.0
  Cl  Cl56  1  0.40213000  0.66408000  0.66636000  1.0
  Cl  Cl57  1  0.59786000  0.33591000  0.33365000  1.0
  O  O58  1  0.40005000  0.63419000  0.50000000  1.0
  O  O59  1  0.59996000  0.36581000  0.50001000  1.0
  O  O60  1  0.42693000  0.35331000  0.50000000  1.0
  O  O61  1  0.57308000  0.64669000  0.50000000  1.0
  O  O62  1  0.41429000  0.48946000  0.58581000  1.0
  O  O63  1  0.58568000  0.51054000  0.41419000  1.0
  O  O64  1  0.41428000  0.48945000  0.41419000  1.0
  O  O65  1  0.58569000  0.51054000  0.58581000  1.0
  O  O66  1  0.36898000  0.39387000  0.14949000  1.0
  O  O67  1  0.63103000  0.60610000  0.85051000  1.0
  O  O68  1  0.63102000  0.60611000  0.14949000  1.0
  O  O69  1  0.36897000  0.39387000  0.85051000  1.0
