# generated using pymatgen
data_FeH20C22S2(N3O)2
_symmetry_space_group_name_H-M   'P 1'
_cell_length_a   7.20941000
_cell_length_b   8.69794000
_cell_length_c   10.05370000
_cell_angle_alpha   108.33200000
_cell_angle_beta   104.16700000
_cell_angle_gamma   96.44380000
_symmetry_Int_Tables_number   1
_chemical_formula_structural   FeH20C22S2(N3O)2
_chemical_formula_sum   'Fe1 H20 C22 S2 N6 O2'
_cell_volume   567.84878443
_cell_formula_units_Z   1
loop_
 _symmetry_equiv_pos_site_id
 _symmetry_equiv_pos_as_xyz
  1  'x, y, z'
loop_
 _atom_site_type_symbol
 _atom_site_label
 _atom_site_symmetry_multiplicity
 _atom_site_fract_x
 _atom_site_fract_y
 _atom_site_fract_z
 _atom_site_occupancy
  Fe  Fe0  1  0.00006000  0.00006000  0.00000000  1.0
  H  H1  1  0.09876000  0.77503000  0.12761000  1.0
  H  H2  1  0.90122000  0.22525000  0.87262000  1.0
  H  H3  1  0.34397000  0.27059000  0.54338000  1.0
  H  H4  1  0.65597000  0.73011000  0.45694000  1.0
  H  H5  1  0.48348000  0.54614000  0.27506000  1.0
  H  H6  1  0.51704000  0.45398000  0.72507000  1.0
  H  H7  1  0.12701000  0.05885000  0.31733000  1.0
  H  H8  1  0.87297000  0.94156000  0.68297000  1.0
  H  H9  1  0.26442000  0.31820000  0.06085000  1.0
  H  H10  1  0.73561000  0.68191000  0.93926000  1.0
  H  H11  1  0.28520000  0.85356000  0.09596000  1.0
  H  H12  1  0.71488000  0.14637000  0.90403000  1.0
  H  H13  1  0.20834000  0.76810000  0.60857000  1.0
  H  H14  1  0.79133000  0.23174000  0.39124000  1.0
  H  H15  1  0.82295000  0.34161000  0.24883000  1.0
  H  H16  1  0.17681000  0.65802000  0.75108000  1.0
  H  H17  1  0.86676000  0.48888000  0.08428000  1.0
  H  H18  1  0.13311000  0.51051000  0.91551000  1.0
  H  H19  1  0.24037000  0.89384000  0.42813000  1.0
  H  H20  1  0.75937000  0.10575000  0.57153000  1.0
  C  C21  1  0.43732000  0.43293000  0.43359000  1.0
  C  C22  1  0.56302000  0.56735000  0.56657000  1.0
  C  C23  1  0.33409000  0.28954000  0.43997000  1.0
  C  C24  1  0.66604000  0.71085000  0.56025000  1.0
  C  C25  1  0.41068000  0.44048000  0.29234000  1.0
  C  C26  1  0.58969000  0.55970000  0.70778000  1.0
  C  C27  1  0.21202000  0.16771000  0.31316000  1.0
  C  C28  1  0.78813000  0.83261000  0.68710000  1.0
  C  C29  1  0.28641000  0.31334000  0.17025000  1.0
  C  C30  1  0.71386000  0.68683000  0.82991000  1.0
  C  C31  1  0.28073000  0.06424000  0.82810000  1.0
  C  C32  1  0.71928000  0.93583000  0.17165000  1.0
  C  C33  1  0.12749000  0.69962000  0.49402000  1.0
  C  C34  1  0.87224000  0.30011000  0.50580000  1.0
  C  C35  1  0.91341000  0.46569000  0.29629000  1.0
  C  C36  1  0.08638000  0.53394000  0.70356000  1.0
  C  C37  1  0.93821000  0.54853000  0.20193000  1.0
  C  C38  1  0.06159000  0.45101000  0.79788000  1.0
  C  C39  1  0.14544000  0.77231000  0.39192000  1.0
  C  C40  1  0.85427000  0.22733000  0.60783000  1.0
  C  C41  1  0.00958000  0.54133000  0.44730000  1.0
  C  C42  1  0.99014000  0.45840000  0.55256000  1.0
  S  S43  1  0.42631000  0.11276000  0.74015000  1.0
  S  S44  1  0.57396000  0.88739000  0.25987000  1.0
  N  N45  1  0.18515000  0.17701000  0.17809000  1.0
  N  N46  1  0.81513000  0.82319000  0.82212000  1.0
  N  N47  1  0.17280000  0.02935000  0.89092000  1.0
  N  N48  1  0.82725000  0.97078000  0.10888000  1.0
  N  N49  1  0.05240000  0.69922000  0.24767000  1.0
  N  N50  1  0.94733000  0.30034000  0.75209000  1.0
  O  O51  1  0.14268000  0.81030000  0.04949000  1.0
  O  O52  1  0.85733000  0.18990000  0.95071000  1.0
