# generated using pymatgen
data_Cu4SiH8(C5N2)4
_symmetry_space_group_name_H-M   'P 1'
_cell_length_a   21.58190000
_cell_length_b   21.64460000
_cell_length_c   22.30220000
_cell_angle_alpha   90.04370000
_cell_angle_beta   90.06100000
_cell_angle_gamma   89.69800000
_symmetry_Int_Tables_number   1
_chemical_formula_structural   Cu4SiH8(C5N2)4
_chemical_formula_sum   'Cu12 Si3 H24 C60 N24'
_cell_volume   10417.90859884
_cell_formula_units_Z   3
loop_
 _symmetry_equiv_pos_site_id
 _symmetry_equiv_pos_as_xyz
  1  'x, y, z'
loop_
 _atom_site_type_symbol
 _atom_site_label
 _atom_site_symmetry_multiplicity
 _atom_site_fract_x
 _atom_site_fract_y
 _atom_site_fract_z
 _atom_site_occupancy
  Cu  Cu0  1  0.24526000  0.75439000  0.15083000  1.0
  Cu  Cu1  1  0.13616000  0.75862000  0.24568000  1.0
  Cu  Cu2  1  0.24075000  0.86320000  0.24554000  1.0
  Cu  Cu3  1  0.24537000  0.24518000  0.85309000  1.0
  Cu  Cu4  1  0.13684000  0.24369000  0.75721000  1.0
  Cu  Cu5  1  0.23999000  0.13683000  0.75791000  1.0
  Cu  Cu6  1  0.75532000  0.75548000  0.85316000  1.0
  Cu  Cu7  1  0.86420000  0.76033000  0.75815000  1.0
  Cu  Cu8  1  0.75647000  0.86294000  0.75727000  1.0
  Cu  Cu9  1  0.76068000  0.23951000  0.13841000  1.0
  Cu  Cu10  1  0.86256000  0.24272000  0.24108000  1.0
  Cu  Cu11  1  0.75764000  0.13847000  0.24071000  1.0
  Si  Si12  1  0.99730000  0.00238000  0.50091000  1.0
  Si  Si13  1  0.00184000  0.50154000  0.00112000  1.0
  Si  Si14  1  0.49803000  0.99768000  0.00134000  1.0
  H  H15  1  0.20187000  0.64341000  0.06847000  1.0
  H  H16  1  0.04796000  0.65380000  0.19290000  1.0
  H  H17  1  0.34535000  0.95165000  0.19266000  1.0
  H  H18  1  0.35646000  0.79777000  0.06847000  1.0
  H  H19  1  0.05165000  0.80624000  0.35254000  1.0
  H  H20  1  0.19308000  0.94772000  0.35203000  1.0
  H  H21  1  0.20244000  0.35659000  0.93562000  1.0
  H  H22  1  0.04937000  0.34976000  0.80974000  1.0
  H  H23  1  0.34344000  0.04604000  0.81089000  1.0
  H  H24  1  0.35606000  0.19915000  0.93571000  1.0
  H  H25  1  0.05231000  0.19838000  0.64954000  1.0
  H  H26  1  0.19198000  0.05370000  0.65077000  1.0
  H  H27  1  0.80129000  0.64551000  0.93594000  1.0
  H  H28  1  0.95485000  0.65677000  0.81129000  1.0
  H  H29  1  0.64978000  0.95037000  0.80961000  1.0
  H  H30  1  0.64314000  0.79789000  0.93540000  1.0
  H  H31  1  0.94696000  0.80785000  0.65054000  1.0
  H  H32  1  0.80172000  0.94698000  0.64989000  1.0
  H  H33  1  0.80868000  0.34675000  0.05404000  1.0
  H  H34  1  0.94783000  0.35261000  0.19430000  1.0
  H  H35  1  0.64747000  0.05310000  0.19398000  1.0
  H  H36  1  0.65267000  0.19155000  0.05370000  1.0
  H  H37  1  0.94505000  0.19691000  0.35022000  1.0
  H  H38  1  0.80323000  0.05580000  0.34928000  1.0
  C  C39  1  0.16991000  0.65358000  0.10468000  1.0
  C  C40  1  0.11099000  0.62842000  0.11596000  1.0
  C  C41  1  0.09105000  0.65889000  0.16845000  1.0
  C  C42  1  0.34043000  0.90854000  0.16830000  1.0
  C  C43  1  0.37101000  0.88862000  0.11586000  1.0
  C  C44  1  0.34609000  0.82970000  0.10465000  1.0
  C  C45  1  0.09168000  0.83520000  0.34463000  1.0
  C  C46  1  0.10832000  0.89105000  0.37267000  1.0
  C  C47  1  0.16415000  0.90764000  0.34441000  1.0
  C  C48  1  0.17065000  0.34726000  0.89906000  1.0
  C  C49  1  0.11199000  0.37349000  0.88743000  1.0
  C  C50  1  0.09220000  0.34370000  0.83462000  1.0
  C  C51  1  0.33892000  0.08911000  0.83546000  1.0
  C  C52  1  0.36971000  0.10823000  0.88801000  1.0
  C  C53  1  0.34537000  0.16760000  0.89939000  1.0
  C  C54  1  0.09200000  0.16856000  0.65762000  1.0
  C  C55  1  0.10813000  0.11240000  0.62958000  1.0
  C  C56  1  0.16357000  0.09446000  0.65823000  1.0
  C  C57  1  0.83308000  0.65597000  0.89977000  1.0
  C  C58  1  0.89235000  0.63112000  0.88835000  1.0
  C  C59  1  0.91178000  0.66170000  0.83592000  1.0
  C  C60  1  0.65589000  0.90767000  0.83443000  1.0
  C  C61  1  0.62613000  0.88798000  0.88724000  1.0
  C  C62  1  0.65252000  0.82953000  0.89887000  1.0
  C  C63  1  0.90616000  0.83624000  0.65822000  1.0
  C  C64  1  0.88798000  0.89149000  0.62967000  1.0
  C  C65  1  0.83175000  0.90749000  0.65784000  1.0
  C  C66  1  0.83699000  0.34033000  0.09378000  1.0
  C  C67  1  0.89226000  0.37028000  0.11020000  1.0
  C  C68  1  0.90833000  0.34332000  0.16560000  1.0
  C  C69  1  0.65663000  0.09246000  0.16530000  1.0
  C  C70  1  0.62950000  0.10825000  0.10985000  1.0
  C  C71  1  0.65930000  0.16346000  0.09347000  1.0
  C  C72  1  0.90497000  0.16802000  0.34217000  1.0
  C  C73  1  0.88780000  0.11261000  0.37062000  1.0
  C  C74  1  0.83235000  0.09572000  0.34167000  1.0
  C  C75  1  0.07842000  0.58527000  0.08107000  1.0
  C  C76  1  0.04938000  0.54920000  0.04957000  1.0
  C  C77  1  0.07942000  0.41704000  0.92219000  1.0
  C  C78  1  0.05027000  0.45346000  0.95348000  1.0
  C  C79  1  0.92521000  0.58754000  0.92282000  1.0
  C  C80  1  0.95412000  0.55075000  0.95390000  1.0
  C  C81  1  0.92487000  0.41486000  0.07726000  1.0
  C  C82  1  0.95366000  0.45247000  0.04741000  1.0
  C  C83  1  0.41412000  0.92123000  0.08100000  1.0
  C  C84  1  0.45022000  0.95028000  0.04962000  1.0
  C  C85  1  0.58485000  0.07537000  0.07704000  1.0
  C  C86  1  0.54727000  0.04599000  0.04753000  1.0
  C  C87  1  0.41274000  0.07490000  0.92275000  1.0
  C  C88  1  0.44889000  0.04544000  0.95410000  1.0
  C  C89  1  0.58254000  0.92039000  0.92214000  1.0
  C  C90  1  0.54613000  0.94931000  0.95368000  1.0
  C  C91  1  0.07535000  0.92409000  0.41669000  1.0
  C  C92  1  0.04578000  0.95388000  0.45368000  1.0
  C  C93  1  0.92016000  0.92458000  0.58545000  1.0
  C  C94  1  0.94919000  0.95433000  0.54832000  1.0
  C  C95  1  0.92011000  0.08001000  0.41543000  1.0
  C  C96  1  0.94913000  0.05057000  0.45310000  1.0
  C  C97  1  0.07500000  0.07994000  0.58547000  1.0
  C  C98  1  0.04543000  0.05051000  0.54840000  1.0
  N  N99  1  0.13469000  0.69902000  0.18649000  1.0
  N  N100  1  0.18353000  0.69575000  0.14696000  1.0
  N  N101  1  0.30395000  0.81603000  0.14695000  1.0
  N  N102  1  0.30047000  0.86487000  0.18641000  1.0
  N  N103  1  0.17914000  0.86506000  0.30284000  1.0
  N  N104  1  0.13422000  0.82015000  0.30298000  1.0
  N  N105  1  0.13567000  0.30294000  0.81670000  1.0
  N  N106  1  0.18426000  0.30509000  0.85666000  1.0
  N  N107  1  0.30332000  0.18225000  0.85708000  1.0
  N  N108  1  0.29936000  0.13364000  0.81745000  1.0
  N  N109  1  0.17880000  0.13656000  0.70004000  1.0
  N  N110  1  0.13445000  0.18249000  0.69966000  1.0
  N  N111  1  0.86746000  0.70157000  0.81797000  1.0
  N  N112  1  0.81872000  0.69804000  0.85755000  1.0
  N  N113  1  0.69476000  0.81595000  0.85647000  1.0
  N  N114  1  0.69681000  0.86435000  0.81652000  1.0
  N  N115  1  0.81798000  0.86519000  0.69986000  1.0
  N  N116  1  0.86412000  0.82103000  0.70011000  1.0
  N  N117  1  0.86594000  0.30065000  0.18054000  1.0
  N  N118  1  0.82175000  0.29882000  0.13603000  1.0
  N  N119  1  0.70090000  0.17891000  0.13577000  1.0
  N  N120  1  0.69927000  0.13492000  0.18028000  1.0
  N  N121  1  0.81808000  0.13771000  0.29934000  1.0
  N  N122  1  0.86310000  0.18253000  0.29964000  1.0
