# generated using pymatgen
data_ZnH17C24NClO4
_symmetry_space_group_name_H-M   'P 1'
_cell_length_a   16.55840000
_cell_length_b   17.94710000
_cell_length_c   17.95100000
_cell_angle_alpha   90.52770000
_cell_angle_beta   95.26250000
_cell_angle_gamma   92.30530000
_symmetry_Int_Tables_number   1
_chemical_formula_structural   ZnH17C24NClO4
_chemical_formula_sum   'Zn2 H34 C48 N2 Cl2 O8'
_cell_volume   5307.36220377
_cell_formula_units_Z   2
loop_
 _symmetry_equiv_pos_site_id
 _symmetry_equiv_pos_as_xyz
  1  'x, y, z'
loop_
 _atom_site_type_symbol
 _atom_site_label
 _atom_site_symmetry_multiplicity
 _atom_site_fract_x
 _atom_site_fract_y
 _atom_site_fract_z
 _atom_site_occupancy
  Zn  Zn0  1  0.58509000  0.50310000  0.50327000  1.0
  Zn  Zn1  1  0.41490000  0.49692000  0.49671000  1.0
  H  H2  1  0.28856000  0.57392000  0.57345000  1.0
  H  H3  1  0.14347000  0.57348000  0.57261000  1.0
  H  H4  1  0.13238000  0.39986000  0.40126000  1.0
  H  H5  1  0.27847000  0.40919000  0.41042000  1.0
  H  H6  1  0.86761000  0.60013000  0.59875000  1.0
  H  H7  1  0.85652000  0.42643000  0.42749000  1.0
  H  H8  1  0.71143000  0.42604000  0.42659000  1.0
  H  H9  1  0.72152000  0.59082000  0.58957000  1.0
  H  H10  1  0.38424000  0.49588000  0.73507000  1.0
  H  H11  1  0.38903000  0.49560000  0.86836000  1.0
  H  H12  1  0.65183000  0.50542000  0.87964000  1.0
  H  H13  1  0.64344000  0.50552000  0.74586000  1.0
  H  H14  1  0.34816000  0.49453000  0.12034000  1.0
  H  H15  1  0.61095000  0.50448000  0.13162000  1.0
  H  H16  1  0.61574000  0.50415000  0.26491000  1.0
  H  H17  1  0.35655000  0.49446000  0.25412000  1.0
  H  H18  1  0.62989000  0.26560000  0.50514000  1.0
  H  H19  1  0.62851000  0.12562000  0.50522000  1.0
  H  H20  1  0.36991000  0.25820000  0.49564000  1.0
  H  H21  1  0.63010000  0.74180000  0.50450000  1.0
  H  H22  1  0.37013000  0.73446000  0.49514000  1.0
  H  H23  1  0.37155000  0.87443000  0.49513000  1.0
  H  H24  1  0.95318000  0.37818000  0.44917000  1.0
  H  H25  1  0.03346000  0.39293000  0.39384000  1.0
  H  H26  1  0.94893000  0.44763000  0.37865000  1.0
  H  H27  1  0.05092000  0.55246000  0.62138000  1.0
  H  H28  1  0.96651000  0.60728000  0.60594000  1.0
  H  H29  1  0.04693000  0.62177000  0.55074000  1.0
  H  H30  1  0.63137000  0.55451000  0.04560000  1.0
  H  H31  1  0.66278000  0.50580000  0.96943000  1.0
  H  H32  1  0.63117000  0.45529000  0.04495000  1.0
  H  H33  1  0.36870000  0.54463000  0.95515000  1.0
  H  H34  1  0.33720000  0.49383000  0.03054000  1.0
  H  H35  1  0.36873000  0.44541000  0.95426000  1.0
  C  C36  1  0.50884000  0.50155000  0.64647000  1.0
  C  C37  1  0.49969000  0.64652000  0.50073000  1.0
  C  C38  1  0.49114000  0.49843000  0.35351000  1.0
  C  C39  1  0.50030000  0.35351000  0.49933000  1.0
  C  C40  1  0.25082000  0.53597000  0.53583000  1.0
  C  C41  1  0.16676000  0.53483000  0.53452000  1.0
  C  C42  1  0.11611000  0.48599000  0.48622000  1.0
  C  C43  1  0.16111000  0.44048000  0.44131000  1.0
  C  C44  1  0.24524000  0.44468000  0.44554000  1.0
  C  C45  1  0.02505000  0.47928000  0.47948000  1.0
  C  C46  1  0.97494000  0.52075000  0.52049000  1.0
  C  C47  1  0.83887000  0.55952000  0.55869000  1.0
  C  C48  1  0.88388000  0.51401000  0.51378000  1.0
  C  C49  1  0.83323000  0.46513000  0.46552000  1.0
  C  C50  1  0.74917000  0.46401000  0.46419000  1.0
  C  C51  1  0.75475000  0.55532000  0.55445000  1.0
  C  C52  1  0.51319000  0.50126000  0.73002000  1.0
  C  C53  1  0.44313000  0.49830000  0.76775000  1.0
  C  C54  1  0.44690000  0.49810000  0.84548000  1.0
  C  C55  1  0.52129000  0.50080000  0.89229000  1.0
  C  C56  1  0.59109000  0.50344000  0.85126000  1.0
  C  C57  1  0.58760000  0.50364000  0.77368000  1.0
  C  C58  1  0.53116000  0.50110000  0.97637000  1.0
  C  C59  1  0.46883000  0.49882000  0.02360000  1.0
  C  C60  1  0.40889000  0.49650000  0.14872000  1.0
  C  C61  1  0.47870000  0.49915000  0.10769000  1.0
  C  C62  1  0.55308000  0.50192000  0.15450000  1.0
  C  C63  1  0.55685000  0.50170000  0.23223000  1.0
  C  C64  1  0.48679000  0.49873000  0.26996000  1.0
  C  C65  1  0.41239000  0.49634000  0.22629000  1.0
  C  C66  1  0.50005000  0.26985000  0.49985000  1.0
  C  C67  1  0.57307000  0.23255000  0.50281000  1.0
  C  C68  1  0.57220000  0.15526000  0.50298000  1.0
  C  C69  1  0.49833000  0.11245000  0.50017000  1.0
  C  C70  1  0.42534000  0.15127000  0.49754000  1.0
  C  C71  1  0.42621000  0.22872000  0.49743000  1.0
  C  C72  1  0.49864000  0.03394000  0.50012000  1.0
  C  C73  1  0.50142000  0.96609000  0.50012000  1.0
  C  C74  1  0.50172000  0.88758000  0.50007000  1.0
  C  C75  1  0.57470000  0.84873000  0.50268000  1.0
  C  C76  1  0.57381000  0.77129000  0.50276000  1.0
  C  C77  1  0.49997000  0.73018000  0.50033000  1.0
  C  C78  1  0.42696000  0.76750000  0.49744000  1.0
  C  C79  1  0.42785000  0.84479000  0.49733000  1.0
  C  C80  1  0.98865000  0.42177000  0.42258000  1.0
  C  C81  1  0.01134000  0.57830000  0.57734000  1.0
  C  C82  1  0.61833000  0.50433000  0.01037000  1.0
  C  C83  1  0.38165000  0.49552000  0.98960000  1.0
  N  N84  1  0.29049000  0.49183000  0.49226000  1.0
  N  N85  1  0.70949000  0.50817000  0.50774000  1.0
  Cl  Cl86  1  0.33329000  0.10158000  0.49429000  1.0
  Cl  Cl87  1  0.66676000  0.89841000  0.50591000  1.0
  O  O88  1  0.57595000  0.50405000  0.61674000  1.0
  O  O89  1  0.43828000  0.49920000  0.61124000  1.0
  O  O90  1  0.43072000  0.61211000  0.49835000  1.0
  O  O91  1  0.56843000  0.61678000  0.50337000  1.0
  O  O92  1  0.42404000  0.49612000  0.38324000  1.0
  O  O93  1  0.56170000  0.50063000  0.38874000  1.0
  O  O94  1  0.56928000  0.38792000  0.50181000  1.0
  O  O95  1  0.43155000  0.38323000  0.49649000  1.0
