# generated using pymatgen
data_Cu2H27C27S3I2N3
_symmetry_space_group_name_H-M   'P 1'
_cell_length_a   9.21836000
_cell_length_b   14.39810000
_cell_length_c   16.88340000
_cell_angle_alpha   66.72200000
_cell_angle_beta   89.68820000
_cell_angle_gamma   80.23380000
_symmetry_Int_Tables_number   1
_chemical_formula_structural   Cu2H27C27S3I2N3
_chemical_formula_sum   'Cu4 H54 C54 S6 I4 N6'
_cell_volume   2023.93710875
_cell_formula_units_Z   2
loop_
 _symmetry_equiv_pos_site_id
 _symmetry_equiv_pos_as_xyz
  1  'x, y, z'
loop_
 _atom_site_type_symbol
 _atom_site_label
 _atom_site_symmetry_multiplicity
 _atom_site_fract_x
 _atom_site_fract_y
 _atom_site_fract_z
 _atom_site_occupancy
  Cu  Cu0  1  0.01461000  0.94519000  0.32660000  1.0
  Cu  Cu1  1  0.98539000  0.05481000  0.67339000  1.0
  Cu  Cu2  1  0.86728000  0.00231000  0.43506000  1.0
  Cu  Cu3  1  0.13272000  0.99770000  0.56494000  1.0
  H  H4  1  0.90785000  0.75560000  0.94599000  1.0
  H  H5  1  0.09215000  0.24440000  0.05401000  1.0
  H  H6  1  0.70328000  0.68715000  0.36765000  1.0
  H  H7  1  0.29672000  0.31285000  0.63235000  1.0
  H  H8  1  0.74988000  0.56996000  0.45850000  1.0
  H  H9  1  0.25012000  0.43004000  0.54150000  1.0
  H  H10  1  0.33256000  0.17006000  0.41214000  1.0
  H  H11  1  0.66744000  0.82994000  0.58787000  1.0
  H  H12  1  0.32586000  0.88060000  0.40392000  1.0
  H  H13  1  0.67414000  0.11941000  0.59607000  1.0
  H  H14  1  0.53547000  0.74117000  0.42305000  1.0
  H  H15  1  0.46453000  0.25883000  0.57695000  1.0
  H  H16  1  0.54204000  0.03642000  0.41602000  1.0
  H  H17  1  0.45797000  0.96358000  0.58398000  1.0
  H  H18  1  0.25102000  0.61317000  0.30482000  1.0
  H  H19  1  0.74898000  0.38683000  0.69519000  1.0
  H  H20  1  0.04964000  0.75494000  0.29739000  1.0
  H  H21  1  0.95036000  0.24506000  0.70261000  1.0
  H  H22  1  0.89833000  0.33251000  0.47171000  1.0
  H  H23  1  0.10167000  0.66749000  0.52829000  1.0
  H  H24  1  0.85764000  0.43530000  0.50461000  1.0
  H  H25  1  0.14236000  0.56470000  0.49539000  1.0
  H  H26  1  0.04239000  0.37657000  0.50543000  1.0
  H  H27  1  0.95761000  0.62343000  0.49457000  1.0
  H  H28  1  0.84654000  0.71134000  0.07824000  1.0
  H  H29  1  0.15346000  0.28866000  0.92176000  1.0
  H  H30  1  0.00746000  0.62829000  0.07156000  1.0
  H  H31  1  0.99254000  0.37171000  0.92844000  1.0
  H  H32  1  0.89217000  0.86455000  0.79060000  1.0
  H  H33  1  0.10782000  0.13545000  0.20940000  1.0
  H  H34  1  0.15766000  0.05171000  0.82578000  1.0
  H  H35  1  0.84234000  0.94829000  0.17422000  1.0
  H  H36  1  0.14329000  0.44132000  0.15444000  1.0
  H  H37  1  0.85671000  0.55868000  0.84556000  1.0
  H  H38  1  0.28052000  0.44322000  0.22689000  1.0
  H  H39  1  0.71948000  0.55678000  0.77311000  1.0
  H  H40  1  0.21056000  0.55624000  0.13639000  1.0
  H  H41  1  0.78944000  0.44376000  0.86361000  1.0
  H  H42  1  0.19062000  0.31651000  0.31952000  1.0
  H  H43  1  0.80937000  0.68349000  0.68048000  1.0
  H  H44  1  0.12677000  0.29429000  0.42362000  1.0
  H  H45  1  0.87323000  0.70571000  0.57638000  1.0
  H  H46  1  0.64692000  0.37018000  0.38965000  1.0
  H  H47  1  0.35308000  0.62982000  0.61035000  1.0
  H  H48  1  0.18218000  0.95271000  0.98497000  1.0
  H  H49  1  0.81782000  0.04729000  0.01503000  1.0
  H  H50  1  0.75723000  0.78721000  0.24699000  1.0
  H  H51  1  0.24277000  0.21279000  0.75301000  1.0
  H  H52  1  0.62703000  0.72373000  0.22264000  1.0
  H  H53  1  0.37297000  0.27627000  0.77736000  1.0
  H  H54  1  0.75129000  0.78038000  0.14494000  1.0
  H  H55  1  0.24871000  0.21962000  0.85506000  1.0
  H  H56  1  0.84530000  0.22415000  0.39919000  1.0
  H  H57  1  0.15470000  0.77585000  0.60081000  1.0
  C  C58  1  0.96493000  0.82062000  0.92372000  1.0
  C  C59  1  0.03507000  0.17938000  0.07628000  1.0
  C  C60  1  0.47096000  0.28352000  0.39928000  1.0
  C  C61  1  0.52904000  0.71648000  0.60072000  1.0
  C  C62  1  0.41369000  0.66472000  0.36371000  1.0
  C  C63  1  0.58631000  0.33528000  0.63630000  1.0
  C  C64  1  0.94307000  0.47654000  0.37677000  1.0
  C  C65  1  0.05693000  0.52346000  0.62323000  1.0
  C  C66  1  0.84329000  0.57060000  0.33890000  1.0
  C  C67  1  0.15672000  0.42940000  0.66110000  1.0
  C  C68  1  0.72413000  0.60340000  0.38863000  1.0
  C  C69  1  0.27588000  0.39660000  0.61137000  1.0
  C  C70  1  0.44333000  0.18755000  0.40717000  1.0
  C  C71  1  0.55667000  0.81245000  0.59284000  1.0
  C  C72  1  0.31332000  0.81930000  0.38328000  1.0
  C  C73  1  0.68668000  0.18070000  0.61672000  1.0
  C  C74  1  0.84959000  0.63685000  0.25137000  1.0
  C  C75  1  0.15041000  0.36315000  0.74863000  1.0
  C  C76  1  0.05265000  0.45037000  0.32644000  1.0
  C  C77  1  0.94735000  0.54963000  0.67356000  1.0
  C  C78  1  0.43156000  0.74100000  0.39291000  1.0
  C  C79  1  0.56844000  0.25900000  0.60709000  1.0
  C  C80  1  0.56102000  0.11145000  0.41071000  1.0
  C  C81  1  0.43898000  0.88855000  0.58929000  1.0
  C  C82  1  0.95669000  0.60787000  0.20173000  1.0
  C  C83  1  0.04331000  0.39213000  0.79827000  1.0
  C  C84  1  0.27261000  0.67014000  0.32850000  1.0
  C  C85  1  0.72739000  0.32986000  0.67151000  1.0
  C  C86  1  0.06114000  0.51602000  0.23941000  1.0
  C  C87  1  0.93886000  0.48398000  0.76059000  1.0
  C  C88  1  0.16012000  0.74978000  0.32350000  1.0
  C  C89  1  0.83987000  0.25022000  0.67650000  1.0
  C  C90  1  0.93459000  0.40271000  0.46885000  1.0
  C  C91  1  0.06541000  0.59729000  0.53115000  1.0
  C  C92  1  0.95859000  0.67394000  0.10703000  1.0
  C  C93  1  0.04141000  0.32606000  0.89297000  1.0
  C  C94  1  0.04721000  0.84409000  0.98086000  1.0
  C  C95  1  0.95280000  0.15591000  0.01914000  1.0
  C  C96  1  0.95563000  0.88168000  0.83593000  1.0
  C  C97  1  0.04437000  0.11832000  0.16407000  1.0
  C  C98  1  0.10274000  0.98590000  0.85554000  1.0
  C  C99  1  0.89726000  0.01410000  0.14446000  1.0
  C  C100  1  0.17958000  0.48779000  0.18651000  1.0
  C  C101  1  0.82042000  0.51221000  0.81349000  1.0
  C  C102  1  0.16349000  0.35173000  0.36596000  1.0
  C  C103  1  0.83651000  0.64827000  0.63403000  1.0
  C  C104  1  0.61875000  0.29728000  0.39591000  1.0
  C  C105  1  0.38124000  0.70272000  0.60409000  1.0
  C  C106  1  0.11695000  0.92994000  0.94434000  1.0
  C  C107  1  0.88305000  0.07006000  0.05566000  1.0
  C  C108  1  0.74124000  0.73691000  0.21383000  1.0
  C  C109  1  0.25876000  0.26309000  0.78617000  1.0
  C  C110  1  0.72932000  0.21642000  0.40104000  1.0
  C  C111  1  0.27068000  0.78358000  0.59896000  1.0
  S  S112  1  0.06685000  0.77398000  0.09264000  1.0
  S  S113  1  0.93315000  0.22602000  0.90736000  1.0
  S  S114  1  0.33277000  0.38498000  0.39535000  1.0
  S  S115  1  0.66723000  0.61502000  0.60465000  1.0
  S  S116  1  0.55424000  0.56570000  0.36600000  1.0
  S  S117  1  0.44576000  0.43430000  0.63400000  1.0
  I  I118  1  0.11292000  0.07153000  0.38952000  1.0
  I  I119  1  0.88708000  0.92847000  0.61048000  1.0
  I  I120  1  0.77720000  0.86942000  0.38671000  1.0
  I  I121  1  0.22280000  0.13058000  0.61329000  1.0
  N  N122  1  0.02289000  0.96351000  0.80056000  1.0
  N  N123  1  0.97711000  0.03649000  0.19944000  1.0
  N  N124  1  0.17840000  0.82525000  0.34920000  1.0
  N  N125  1  0.82160000  0.17475000  0.65080000  1.0
  N  N126  1  0.70286000  0.12398000  0.40858000  1.0
  N  N127  1  0.29715000  0.87602000  0.59142000  1.0
