# generated using pymatgen
data_NdAgH6C14(NO4)2
_symmetry_space_group_name_H-M   'P 1'
_cell_length_a   7.35410000
_cell_length_b   10.27140000
_cell_length_c   11.59120000
_cell_angle_alpha   98.17930000
_cell_angle_beta   101.33200000
_cell_angle_gamma   95.48200000
_symmetry_Int_Tables_number   1
_chemical_formula_structural   NdAgH6C14(NO4)2
_chemical_formula_sum   'Nd2 Ag2 H12 C28 N4 O16'
_cell_volume   842.85475235
_cell_formula_units_Z   2
loop_
 _symmetry_equiv_pos_site_id
 _symmetry_equiv_pos_as_xyz
  1  'x, y, z'
loop_
 _atom_site_type_symbol
 _atom_site_label
 _atom_site_symmetry_multiplicity
 _atom_site_fract_x
 _atom_site_fract_y
 _atom_site_fract_z
 _atom_site_occupancy
  Nd  Nd0  1  0.74023000  0.02748000  0.42874000  1.0
  Nd  Nd1  1  0.25977000  0.97252000  0.57126000  1.0
  Ag  Ag2  1  0.71158000  0.73503000  0.79976000  1.0
  Ag  Ag3  1  0.28842000  0.26498000  0.20024000  1.0
  H  H4  1  0.80347000  0.84613000  0.06907000  1.0
  H  H5  1  0.19653000  0.15387000  0.93093000  1.0
  H  H6  1  0.13167000  0.80075000  0.81612000  1.0
  H  H7  1  0.86833000  0.19924000  0.18388000  1.0
  H  H8  1  0.42414000  0.87499000  0.97120000  1.0
  H  H9  1  0.57586000  0.12501000  0.02880000  1.0
  H  H10  1  0.72668000  0.46937000  0.65798000  1.0
  H  H11  1  0.27332000  0.53063000  0.34203000  1.0
  H  H12  1  0.27331000  0.65407000  0.72969000  1.0
  H  H13  1  0.72669000  0.34593000  0.27031000  1.0
  H  H14  1  0.04836000  0.46818000  0.60552000  1.0
  H  H15  1  0.95165000  0.53182000  0.39448000  1.0
  C  C16  1  0.06482000  0.94067000  0.26551000  1.0
  C  C17  1  0.93518000  0.05933000  0.73449000  1.0
  C  C18  1  0.09715000  0.89919000  0.14199000  1.0
  C  C19  1  0.90285000  0.10081000  0.85801000  1.0
  C  C20  1  0.94261000  0.85280000  0.04939000  1.0
  C  C21  1  0.05739000  0.14720000  0.95062000  1.0
  C  C22  1  0.12794000  0.82591000  0.90998000  1.0
  C  C23  1  0.87206000  0.17409000  0.09002000  1.0
  C  C24  1  0.28941000  0.86921000  0.99730000  1.0
  C  C25  1  0.71059000  0.13079000  0.00270000  1.0
  C  C26  1  0.27617000  0.90621000  0.11598000  1.0
  C  C27  1  0.72383000  0.09379000  0.88402000  1.0
  C  C28  1  0.44994000  0.95212000  0.21187000  1.0
  C  C29  1  0.55006000  0.04788000  0.78813000  1.0
  C  C30  1  0.54884000  0.24611000  0.52015000  1.0
  C  C31  1  0.45116000  0.75389000  0.47985000  1.0
  C  C32  1  0.45991000  0.35601000  0.57586000  1.0
  C  C33  1  0.54008000  0.64399000  0.42414000  1.0
  C  C34  1  0.57562000  0.46548000  0.64665000  1.0
  C  C35  1  0.42438000  0.53452000  0.35335000  1.0
  C  C36  1  0.32324000  0.56732000  0.68697000  1.0
  C  C37  1  0.67676000  0.43268000  0.31303000  1.0
  C  C38  1  0.19790000  0.46278000  0.61735000  1.0
  C  C39  1  0.80210000  0.53722000  0.38265000  1.0
  C  C40  1  0.26501000  0.35488000  0.55877000  1.0
  C  C41  1  0.73499000  0.64512000  0.44123000  1.0
  C  C42  1  0.12376000  0.25219000  0.47163000  1.0
  C  C43  1  0.87624000  0.74781000  0.52837000  1.0
  N  N44  1  0.95609000  0.81598000  0.93554000  1.0
  N  N45  1  0.04391000  0.18402000  0.06446000  1.0
  N  N46  1  0.51023000  0.56998000  0.70132000  1.0
  N  N47  1  0.48977000  0.43002000  0.29868000  1.0
  O  O48  1  0.90644000  0.97797000  0.27114000  1.0
  O  O49  1  0.09356000  0.02203000  0.72886000  1.0
  O  O50  1  0.19648000  0.93460000  0.35200000  1.0
  O  O51  1  0.80352000  0.06540000  0.64800000  1.0
  O  O52  1  0.50465000  0.07690000  0.24337000  1.0
  O  O53  1  0.49535000  0.92310000  0.75663000  1.0
  O  O54  1  0.53650000  0.86396000  0.25544000  1.0
  O  O55  1  0.46350000  0.13604000  0.74457000  1.0
  O  O56  1  0.71087000  0.26825000  0.49992000  1.0
  O  O57  1  0.28913000  0.73175000  0.50007000  1.0
  O  O58  1  0.45682000  0.12928000  0.49269000  1.0
  O  O59  1  0.54318000  0.87073000  0.50731000  1.0
  O  O60  1  0.06730000  0.14662000  0.51026000  1.0
  O  O61  1  0.93270000  0.85338000  0.48974000  1.0
  O  O62  1  0.06315000  0.28077000  0.37136000  1.0
  O  O63  1  0.93685000  0.71923000  0.62864000  1.0
