# generated using pymatgen
data_Fe3H36C36S4(NO8)2
_symmetry_space_group_name_H-M   'P 1'
_cell_length_a   8.49526000
_cell_length_b   11.09430000
_cell_length_c   11.33700000
_cell_angle_alpha   89.05130000
_cell_angle_beta   68.88400000
_cell_angle_gamma   89.44940000
_symmetry_Int_Tables_number   1
_chemical_formula_structural   Fe3H36C36S4(NO8)2
_chemical_formula_sum   'Fe3 H36 C36 S4 N2 O16'
_cell_volume   996.60961357
_cell_formula_units_Z   1
loop_
 _symmetry_equiv_pos_site_id
 _symmetry_equiv_pos_as_xyz
  1  'x, y, z'
loop_
 _atom_site_type_symbol
 _atom_site_label
 _atom_site_symmetry_multiplicity
 _atom_site_fract_x
 _atom_site_fract_y
 _atom_site_fract_z
 _atom_site_occupancy
  Fe  Fe0  1  0.19315000  0.16638000  0.92510000  1.0
  Fe  Fe1  1  0.80686000  0.83360000  0.07489000  1.0
  Fe  Fe2  1  0.50000000  0.00000000  0.00000000  1.0
  H  H3  1  0.07379000  0.99197000  0.83192000  1.0
  H  H4  1  0.92624000  0.00802000  0.16806000  1.0
  H  H5  1  0.19916000  0.06161000  0.71283000  1.0
  H  H6  1  0.80085000  0.93840000  0.28716000  1.0
  H  H7  1  0.33115000  0.46817000  0.07308000  1.0
  H  H8  1  0.66881000  0.53181000  0.92693000  1.0
  H  H9  1  0.41266000  0.64170000  0.17619000  1.0
  H  H10  1  0.58731000  0.35829000  0.82381000  1.0
  H  H11  1  0.51078000  0.60205000  0.35627000  1.0
  H  H12  1  0.48921000  0.39796000  0.64371000  1.0
  H  H13  1  0.52195000  0.39257000  0.43316000  1.0
  H  H14  1  0.47804000  0.60744000  0.56684000  1.0
  H  H15  1  0.88763000  0.12894000  0.70450000  1.0
  H  H16  1  0.11238000  0.87106000  0.29550000  1.0
  H  H17  1  0.12157000  0.13791000  0.49277000  1.0
  H  H18  1  0.87844000  0.86209000  0.50723000  1.0
  H  H19  1  0.05148000  0.16685000  0.29910000  1.0
  H  H20  1  0.94852000  0.83316000  0.70091000  1.0
  H  H21  1  0.75388000  0.18503000  0.31583000  1.0
  H  H22  1  0.24612000  0.81498000  0.68419000  1.0
  H  H23  1  0.23415000  0.81223000  0.01175000  1.0
  H  H24  1  0.76588000  0.18777000  0.98825000  1.0
  H  H25  1  0.09238000  0.28880000  0.70473000  1.0
  H  H26  1  0.90761000  0.71121000  0.29526000  1.0
  H  H27  1  0.06538000  0.41797000  0.56999000  1.0
  H  H28  1  0.93464000  0.58205000  0.43001000  1.0
  H  H29  1  0.16810000  0.55898000  0.56527000  1.0
  H  H30  1  0.83191000  0.44103000  0.43474000  1.0
  H  H31  1  0.94359000  0.54895000  0.63724000  1.0
  H  H32  1  0.05642000  0.45107000  0.36276000  1.0
  H  H33  1  0.19391000  0.56611000  0.84757000  1.0
  H  H34  1  0.80609000  0.43388000  0.15244000  1.0
  H  H35  1  0.96969000  0.55660000  0.91940000  1.0
  H  H36  1  0.03031000  0.44341000  0.08059000  1.0
  H  H37  1  0.06136000  0.65304000  0.78639000  1.0
  H  H38  1  0.93865000  0.34696000  0.21362000  1.0
  C  C39  1  0.43899000  0.31144000  0.29430000  1.0
  C  C40  1  0.56099000  0.68856000  0.70572000  1.0
  C  C41  1  0.38519000  0.33443000  0.19121000  1.0
  C  C42  1  0.61479000  0.66557000  0.80880000  1.0
  C  C43  1  0.37295000  0.45390000  0.15256000  1.0
  C  C44  1  0.62702000  0.54609000  0.84744000  1.0
  C  C45  1  0.41743000  0.55020000  0.21072000  1.0
  C  C46  1  0.58253000  0.44980000  0.78927000  1.0
  C  C47  1  0.47194000  0.52739000  0.31161000  1.0
  C  C48  1  0.52803000  0.47262000  0.68838000  1.0
  C  C49  1  0.48081000  0.40949000  0.35370000  1.0
  C  C50  1  0.51917000  0.59052000  0.64630000  1.0
  C  C51  1  0.34967000  0.23515000  0.11853000  1.0
  C  C52  1  0.65034000  0.76483000  0.88148000  1.0
  C  C53  1  0.65178000  0.17001000  0.51919000  1.0
  C  C54  1  0.34822000  0.82999000  0.48083000  1.0
  C  C55  1  0.69144000  0.15543000  0.62983000  1.0
  C  C56  1  0.30856000  0.84457000  0.37018000  1.0
  C  C57  1  0.86101000  0.14452000  0.61833000  1.0
  C  C58  1  0.13899000  0.85548000  0.38167000  1.0
  C  C59  1  0.99058000  0.14941000  0.50104000  1.0
  C  C60  1  0.00942000  0.85059000  0.49897000  1.0
  C  C61  1  0.95139000  0.16480000  0.39218000  1.0
  C  C62  1  0.04861000  0.83521000  0.60783000  1.0
  C  C63  1  0.78372000  0.17497000  0.40132000  1.0
  C  C64  1  0.21628000  0.82504000  0.59869000  1.0
  C  C65  1  0.56023000  0.14972000  0.75844000  1.0
  C  C66  1  0.43977000  0.85027000  0.24156000  1.0
  C  C67  1  0.18731000  0.88945000  0.97079000  1.0
  C  C68  1  0.81270000  0.11054000  0.02920000  1.0
  C  C69  1  0.09031000  0.35614000  0.77547000  1.0
  C  C70  1  0.90969000  0.64386000  0.22453000  1.0
  C  C71  1  0.06299000  0.50096000  0.62176000  1.0
  C  C72  1  0.93702000  0.49905000  0.37824000  1.0
  C  C73  1  0.07538000  0.56684000  0.82941000  1.0
  C  C74  1  0.92463000  0.43316000  0.17059000  1.0
  S  S75  1  0.44891000  0.15928000  0.34527000  1.0
  S  S76  1  0.55109000  0.84072000  0.65474000  1.0
  S  S77  1  0.43693000  0.17774000  0.53012000  1.0
  S  S78  1  0.56307000  0.82227000  0.46990000  1.0
  N  N79  1  0.07715000  0.47021000  0.74271000  1.0
  N  N80  1  0.92285000  0.52980000  0.25729000  1.0
  O  O81  1  0.26258000  0.25746000  0.05010000  1.0
  O  O82  1  0.73743000  0.74251000  0.94990000  1.0
  O  O83  1  0.41349000  0.13203000  0.12902000  1.0
  O  O84  1  0.58650000  0.86797000  0.87099000  1.0
  O  O85  1  0.40893000  0.17582000  0.76696000  1.0
  O  O86  1  0.59108000  0.82417000  0.23305000  1.0
  O  O87  1  0.60342000  0.12202000  0.85183000  1.0
  O  O88  1  0.39658000  0.87797000  0.14818000  1.0
  O  O89  1  0.25927000  0.99082000  0.96908000  1.0
  O  O90  1  0.74075000  0.00917000  0.03091000  1.0
  O  O91  1  0.06814000  0.87350000  0.93050000  1.0
  O  O92  1  0.93189000  0.12649000  0.06948000  1.0
  O  O93  1  0.09934000  0.32620000  0.88063000  1.0
  O  O94  1  0.90066000  0.67380000  0.11936000  1.0
  O  O95  1  0.09933000  0.07306000  0.78922000  1.0
  O  O96  1  0.90068000  0.92693000  0.21077000  1.0
