# generated using pymatgen
data_Al4H28C46O25
_symmetry_space_group_name_H-M   'P 1'
_cell_length_a   6.67906000
_cell_length_b   18.05110000
_cell_length_c   20.82830000
_cell_angle_alpha   72.22190000
_cell_angle_beta   89.34010000
_cell_angle_gamma   88.74900000
_symmetry_Int_Tables_number   1
_chemical_formula_structural   Al4H28C46O25
_chemical_formula_sum   'Al4 H28 C46 O25'
_cell_volume   2390.63299273
_cell_formula_units_Z   1
loop_
 _symmetry_equiv_pos_site_id
 _symmetry_equiv_pos_as_xyz
  1  'x, y, z'
loop_
 _atom_site_type_symbol
 _atom_site_label
 _atom_site_symmetry_multiplicity
 _atom_site_fract_x
 _atom_site_fract_y
 _atom_site_fract_z
 _atom_site_occupancy
  Al  Al0  1  0.11805000  0.49937000  0.50079000  1.0
  Al  Al1  1  0.61815000  0.49850000  0.50117000  1.0
  Al  Al2  1  0.62597000  0.99938000  0.00023000  1.0
  Al  Al3  1  0.12597000  0.99931000  0.99979000  1.0
  H  H4  1  0.22338000  0.27552000  0.27255000  1.0
  H  H5  1  0.03272000  0.31507000  0.14499000  1.0
  H  H6  1  0.52845000  0.21517000  0.23380000  1.0
  H  H7  1  0.02638000  0.78716000  0.77414000  1.0
  H  H8  1  0.54289000  0.68129000  0.85191000  1.0
  H  H9  1  0.15134000  0.10580000  0.34720000  1.0
  H  H10  1  0.11492000  0.61658000  0.84964000  1.0
  H  H11  1  0.77876000  0.66746000  0.71871000  1.0
  H  H12  1  0.54204000  0.04070000  0.48849000  1.0
  H  H13  1  0.33568000  0.09193000  0.44215000  1.0
  H  H14  1  0.39926000  0.99640000  0.43948000  1.0
  H  H15  1  0.51422000  0.09419000  0.33291000  1.0
  H  H16  1  0.72103000  0.04496000  0.37911000  1.0
  H  H17  1  0.79166000  0.15609000  0.42105000  1.0
  H  H18  1  0.56546000  0.20331000  0.38798000  1.0
  H  H19  1  0.59917000  0.38407000  0.16019000  1.0
  H  H20  1  0.03555000  0.95636000  0.51275000  1.0
  H  H21  1  0.82085000  0.91496000  0.56019000  1.0
  H  H22  1  0.89615000  0.00953000  0.55789000  1.0
  H  H23  1  0.99900000  0.91263000  0.66788000  1.0
  H  H24  1  0.21073000  0.95338000  0.62101000  1.0
  H  H25  1  0.26315000  0.83749000  0.58188000  1.0
  H  H26  1  0.03628000  0.79741000  0.62009000  1.0
  H  H27  1  0.70347000  0.88216000  0.69079000  1.0
  H  H28  1  0.37229000  0.40879000  0.48787000  1.0
  H  H29  1  0.86188000  0.59913000  0.46235000  1.0
  H  H30  1  0.37017000  0.09338000  0.00651000  1.0
  H  H31  1  0.88064000  0.90479000  0.99440000  1.0
  C  C32  1  0.36428000  0.57576000  0.57688000  1.0
  C  C33  1  0.36373000  0.60686000  0.39660000  1.0
  C  C34  1  0.87229000  0.41878000  0.42591000  1.0
  C  C35  1  0.87444000  0.39415000  0.60493000  1.0
  C  C36  1  0.87407000  0.33244000  0.66811000  1.0
  C  C37  1  0.87281000  0.27963000  0.72137000  1.0
  C  C38  1  0.87177000  0.22150000  0.78028000  1.0
  C  C39  1  0.87093000  0.16892000  0.83373000  1.0
  C  C40  1  0.78643000  0.20562000  0.31347000  1.0
  C  C41  1  0.97998000  0.17817000  0.28152000  1.0
  C  C42  1  0.86910000  0.11772000  0.12601000  1.0
  C  C43  1  0.87747000  0.37365000  0.37972000  1.0
  C  C44  1  0.68243000  0.22880000  0.24288000  1.0
  C  C45  1  0.87229000  0.20025000  0.21051000  1.0
  C  C46  1  0.77212000  0.31216000  0.22513000  1.0
  C  C47  1  0.87997000  0.29033000  0.29592000  1.0
  C  C48  1  0.96418000  0.28450000  0.19352000  1.0
  C  C49  1  0.06956000  0.26176000  0.26357000  1.0
  C  C50  1  0.87111000  0.15528000  0.16565000  1.0
  C  C51  1  0.87940000  0.33560000  0.34042000  1.0
  C  C52  1  0.46830000  0.81849000  0.71470000  1.0
  C  C53  1  0.26970000  0.79286000  0.68919000  1.0
  C  C54  1  0.35890000  0.62075000  0.62323000  1.0
  C  C55  1  0.38577000  0.88096000  0.87405000  1.0
  C  C56  1  0.55797000  0.73380000  0.73237000  1.0
  C  C57  1  0.36047000  0.70633000  0.70503000  1.0
  C  C58  1  0.46562000  0.71270000  0.80516000  1.0
  C  C59  1  0.37418000  0.79806000  0.79000000  1.0
  C  C60  1  0.26766000  0.68722000  0.77825000  1.0
  C  C61  1  0.17833000  0.77196000  0.76200000  1.0
  C  C62  1  0.35461000  0.65997000  0.66161000  1.0
  C  C63  1  0.38169000  0.84285000  0.83478000  1.0
  C  C64  1  0.36660000  0.66821000  0.33323000  1.0
  C  C65  1  0.37024000  0.72059000  0.27967000  1.0
  C  C66  1  0.37421000  0.77823000  0.22046000  1.0
  C  C67  1  0.37829000  0.83034000  0.16677000  1.0
  C  C68  1  0.38068000  0.89134000  0.10302000  1.0
  C  C69  1  0.38139000  0.92413000  0.92176000  1.0
  C  C70  1  0.87042000  0.10751000  0.89717000  1.0
  C  C71  1  0.87200000  0.07451000  0.07829000  1.0
  C  C72  1  0.68568000  0.16453000  0.37897000  1.0
  C  C73  1  0.59818000  0.08632000  0.37988000  1.0
  C  C74  1  0.46155000  0.05184000  0.44059000  1.0
  C  C75  1  0.16208000  0.83390000  0.62498000  1.0
  C  C76  1  0.08366000  0.91551000  0.62129000  1.0
  C  C77  1  0.95163000  0.95117000  0.55966000  1.0
  O  O78  1  0.53321000  0.58552000  0.42435000  1.0
  O  O79  1  0.19697000  0.56304000  0.55393000  1.0
  O  O80  1  0.04400000  0.42152000  0.58266000  1.0
  O  O81  1  0.19243000  0.58072000  0.41868000  1.0
  O  O82  1  0.04041000  0.43287000  0.44789000  1.0
  O  O83  1  0.53644000  0.55372000  0.56217000  1.0
  O  O84  1  0.37010000  0.45288000  0.50531000  1.0
  O  O85  1  0.69919000  0.43978000  0.44121000  1.0
  O  O86  1  0.70494000  0.41450000  0.57726000  1.0
  O  O87  1  0.86541000  0.54583000  0.49170000  1.0
  O  O88  1  0.20886000  0.94435000  0.93813000  1.0
  O  O89  1  0.55178000  0.91704000  0.08064000  1.0
  O  O90  1  0.70362000  0.06105000  0.05623000  1.0
  O  O91  1  0.54896000  0.93753000  0.94435000  1.0
  O  O92  1  0.69971000  0.08170000  0.91996000  1.0
  O  O93  1  0.21101000  0.91229000  0.07554000  1.0
  O  O94  1  0.37347000  0.04525000  0.99500000  1.0
  O  O95  1  0.04069000  0.08621000  0.92409000  1.0
  O  O96  1  0.04388000  0.05436000  0.06144000  1.0
  O  O97  1  0.87834000  0.95337000  0.00516000  1.0
  O  O98  1  0.08334000  0.10802000  0.30543000  1.0
  O  O99  1  0.16756000  0.61807000  0.80543000  1.0
  O  O100  1  0.75311000  0.72224000  0.71428000  1.0
  O  O101  1  0.66950000  0.38247000  0.20134000  1.0
  O  O102  1  0.56257000  0.88524000  0.67811000  1.0
