# generated using pymatgen
data_CdH16(CN)14
_symmetry_space_group_name_H-M   'P 1'
_cell_length_a   7.14021000
_cell_length_b   9.30220107
_cell_length_c   9.30240000
_cell_angle_alpha   61.39593622
_cell_angle_beta   71.32200000
_cell_angle_gamma   71.32158578
_symmetry_Int_Tables_number   1
_chemical_formula_structural   CdH16(CN)14
_chemical_formula_sum   'Cd1 H16 C14 N14'
_cell_volume   503.42498652
_cell_formula_units_Z   1
loop_
 _symmetry_equiv_pos_site_id
 _symmetry_equiv_pos_as_xyz
  1  'x, y, z'
loop_
 _atom_site_type_symbol
 _atom_site_label
 _atom_site_symmetry_multiplicity
 _atom_site_fract_x
 _atom_site_fract_y
 _atom_site_fract_z
 _atom_site_occupancy
  Cd  Cd0  1  0.50000000  0.00000000  0.00000000  1.0
  H  H1  1  0.87964000  0.19458000  0.94434000  1.0
  H  H2  1  0.12039000  0.05567000  0.80538000  1.0
  H  H3  1  0.12036000  0.80542000  0.05566000  1.0
  H  H4  1  0.87961000  0.94433000  0.19462000  1.0
  H  H5  1  0.85081000  0.53896000  0.80672000  1.0
  H  H6  1  0.14919000  0.19329000  0.46102000  1.0
  H  H7  1  0.14919000  0.46104000  0.19328000  1.0
  H  H8  1  0.85081000  0.80671000  0.53898000  1.0
  H  H9  1  0.30269000  0.43867000  0.82475000  1.0
  H  H10  1  0.69730000  0.17525000  0.56134000  1.0
  H  H11  1  0.69731000  0.56133000  0.17525000  1.0
  H  H12  1  0.30270000  0.82475000  0.43866000  1.0
  H  H13  1  0.51242000  0.77713000  0.77714000  1.0
  H  H14  1  0.48759000  0.22287000  0.22286000  1.0
  H  H15  1  0.31022000  0.73615000  0.73615000  1.0
  H  H16  1  0.68978000  0.26385000  0.26385000  1.0
  C  C17  1  0.75539000  0.29524000  0.89809000  1.0
  C  C18  1  0.24464000  0.10186000  0.70471000  1.0
  C  C19  1  0.24461000  0.70476000  0.10191000  1.0
  C  C20  1  0.75536000  0.89814000  0.29529000  1.0
  C  C21  1  0.74529000  0.46433000  0.82995000  1.0
  C  C22  1  0.25475000  0.17000000  0.53564000  1.0
  C  C23  1  0.25471000  0.53567000  0.17005000  1.0
  C  C24  1  0.74525000  0.83000000  0.46437000  1.0
  C  C25  1  0.45656000  0.41438000  0.83861000  1.0
  C  C26  1  0.54341000  0.16142000  0.58563000  1.0
  C  C27  1  0.54343000  0.58562000  0.16139000  1.0
  C  C28  1  0.45659000  0.83858000  0.41437000  1.0
  C  C29  1  0.47475000  0.71677000  0.71678000  1.0
  C  C30  1  0.52525000  0.28323000  0.28322000  1.0
  N  N31  1  0.57443000  0.26581000  0.90366000  1.0
  N  N32  1  0.42555000  0.09633000  0.73418000  1.0
  N  N33  1  0.42557000  0.73419000  0.09634000  1.0
  N  N34  1  0.57445000  0.90367000  0.26582000  1.0
  N  N35  1  0.55490000  0.53831000  0.79257000  1.0
  N  N36  1  0.44510000  0.20743000  0.46168000  1.0
  N  N37  1  0.44510000  0.46169000  0.20743000  1.0
  N  N38  1  0.55490000  0.79256000  0.53833000  1.0
  N  N39  1  0.15336000  0.09377000  0.09378000  1.0
  N  N40  1  0.84663000  0.90623000  0.90623000  1.0
  N  N41  1  0.08069000  0.17395000  0.17395000  1.0
  N  N42  1  0.91932000  0.82604000  0.82606000  1.0
  N  N43  1  0.00183000  0.25345000  0.25343000  1.0
  N  N44  1  0.99816000  0.74656000  0.74657000  1.0
