# generated using pymatgen
data_CuH8(C7N6)2
_symmetry_space_group_name_H-M   'P 1'
_cell_length_a   8.66439000
_cell_length_b   12.97870000
_cell_length_c   14.43300000
_cell_angle_alpha   100.05200000
_cell_angle_beta   89.99830000
_cell_angle_gamma   89.99920000
_symmetry_Int_Tables_number   1
_chemical_formula_structural   CuH8(C7N6)2
_chemical_formula_sum   'Cu4 H32 C56 N48'
_cell_volume   1598.11332410
_cell_formula_units_Z   4
loop_
 _symmetry_equiv_pos_site_id
 _symmetry_equiv_pos_as_xyz
  1  'x, y, z'
loop_
 _atom_site_type_symbol
 _atom_site_label
 _atom_site_symmetry_multiplicity
 _atom_site_fract_x
 _atom_site_fract_y
 _atom_site_fract_z
 _atom_site_occupancy
  Cu  Cu0  1  0.52949000  0.82483000  0.39458000  1.0
  Cu  Cu1  1  0.02948000  0.67517000  0.10542000  1.0
  Cu  Cu2  1  0.47052000  0.17517000  0.60541000  1.0
  Cu  Cu3  1  0.97052000  0.32483000  0.89458000  1.0
  H  H4  1  0.24587000  0.67876000  0.40136000  1.0
  H  H5  1  0.74586000  0.82124000  0.09864000  1.0
  H  H6  1  0.75413000  0.32123000  0.59863000  1.0
  H  H7  1  0.25414000  0.17876000  0.90136000  1.0
  H  H8  1  0.15822000  0.56236000  0.51042000  1.0
  H  H9  1  0.65822000  0.93764000  0.98959000  1.0
  H  H10  1  0.84178000  0.43764000  0.48959000  1.0
  H  H11  1  0.34179000  0.06236000  0.01041000  1.0
  H  H12  1  0.33594000  0.53239000  0.64095000  1.0
  H  H13  1  0.83595000  0.96761000  0.85905000  1.0
  H  H14  1  0.66405000  0.46761000  0.35905000  1.0
  H  H15  1  0.16406000  0.03239000  0.14095000  1.0
  H  H16  1  0.59289000  0.61902000  0.65560000  1.0
  H  H17  1  0.09290000  0.88099000  0.84440000  1.0
  H  H18  1  0.40710000  0.38099000  0.34439000  1.0
  H  H19  1  0.90710000  0.11902000  0.15561000  1.0
  H  H20  1  0.81357000  0.68749000  0.65176000  1.0
  H  H21  1  0.31359000  0.81252000  0.84824000  1.0
  H  H22  1  0.18642000  0.31252000  0.34824000  1.0
  H  H23  1  0.68641000  0.18748000  0.15176000  1.0
  H  H24  1  0.05995000  0.78197000  0.63829000  1.0
  H  H25  1  0.55997000  0.71802000  0.86171000  1.0
  H  H26  1  0.94004000  0.21803000  0.36170000  1.0
  H  H27  1  0.44003000  0.28197000  0.13829000  1.0
  H  H28  1  0.08410000  0.89690000  0.51665000  1.0
  H  H29  1  0.58411000  0.60310000  0.98335000  1.0
  H  H30  1  0.91589000  0.10310000  0.48334000  1.0
  H  H31  1  0.41589000  0.39690000  0.01665000  1.0
  H  H32  1  0.85145000  0.92090000  0.41835000  1.0
  H  H33  1  0.35145000  0.57910000  0.08165000  1.0
  H  H34  1  0.14855000  0.07910000  0.58164000  1.0
  H  H35  1  0.64855000  0.42090000  0.91835000  1.0
  C  C36  1  0.61849000  0.62274000  0.22281000  1.0
  C  C37  1  0.11849000  0.87727000  0.27719000  1.0
  C  C38  1  0.38151000  0.37727000  0.77719000  1.0
  C  C39  1  0.88150000  0.12273000  0.72281000  1.0
  C  C40  1  0.49313000  0.55874000  0.23865000  1.0
  C  C41  1  0.99313000  0.94126000  0.26136000  1.0
  C  C42  1  0.50687000  0.44127000  0.76135000  1.0
  C  C43  1  0.00687000  0.05874000  0.73865000  1.0
  C  C44  1  0.54409000  0.00109000  0.27583000  1.0
  C  C45  1  0.04410000  0.49892000  0.22417000  1.0
  C  C46  1  0.45590000  0.99892000  0.72416000  1.0
  C  C47  1  0.95591000  0.50108000  0.77583000  1.0
  C  C48  1  0.48140000  0.94345000  0.19227000  1.0
  C  C49  1  0.98141000  0.55656000  0.30774000  1.0
  C  C50  1  0.51858000  0.05655000  0.80772000  1.0
  C  C51  1  0.01858000  0.44344000  0.69227000  1.0
  C  C52  1  0.31969000  0.66445000  0.45859000  1.0
  C  C53  1  0.81969000  0.83554000  0.04141000  1.0
  C  C54  1  0.68030000  0.33554000  0.54141000  1.0
  C  C55  1  0.18032000  0.16446000  0.95859000  1.0
  C  C56  1  0.27146000  0.59905000  0.51977000  1.0
  C  C57  1  0.77146000  0.90094000  0.98023000  1.0
  C  C58  1  0.72854000  0.40094000  0.48023000  1.0
  C  C59  1  0.22855000  0.09906000  0.01977000  1.0
  C  C60  1  0.37053000  0.58282000  0.59174000  1.0
  C  C61  1  0.87053000  0.91718000  0.90826000  1.0
  C  C62  1  0.62947000  0.41719000  0.40826000  1.0
  C  C63  1  0.12947000  0.08282000  0.09174000  1.0
  C  C64  1  0.51408000  0.63152000  0.59996000  1.0
  C  C65  1  0.01408000  0.86847000  0.90005000  1.0
  C  C66  1  0.48591000  0.36847000  0.40005000  1.0
  C  C67  1  0.98592000  0.13153000  0.09996000  1.0
  C  C68  1  0.55486000  0.69662000  0.53656000  1.0
  C  C69  1  0.05487000  0.80338000  0.96345000  1.0
  C  C70  1  0.44513000  0.30337000  0.46345000  1.0
  C  C71  1  0.94513000  0.19662000  0.03656000  1.0
  C  C72  1  0.70229000  0.75301000  0.53994000  1.0
  C  C73  1  0.20229000  0.74699000  0.96007000  1.0
  C  C74  1  0.29772000  0.24698000  0.46007000  1.0
  C  C75  1  0.79771000  0.25302000  0.03993000  1.0
  C  C76  1  0.82409000  0.73947000  0.60032000  1.0
  C  C77  1  0.32410000  0.76053000  0.89969000  1.0
  C  C78  1  0.17591000  0.26053000  0.39968000  1.0
  C  C79  1  0.67591000  0.23947000  0.10032000  1.0
  C  C80  1  0.96251000  0.79190000  0.59289000  1.0
  C  C81  1  0.46253000  0.70809000  0.90712000  1.0
  C  C82  1  0.03748000  0.20809000  0.40711000  1.0
  C  C83  1  0.53747000  0.29190000  0.09289000  1.0
  C  C84  1  0.97635000  0.85655000  0.52571000  1.0
  C  C85  1  0.47636000  0.64344000  0.97430000  1.0
  C  C86  1  0.02366000  0.14344000  0.47429000  1.0
  C  C87  1  0.52364000  0.35655000  0.02570000  1.0
  C  C88  1  0.84903000  0.86917000  0.46996000  1.0
  C  C89  1  0.34903000  0.63083000  0.03005000  1.0
  C  C90  1  0.15098000  0.13082000  0.53004000  1.0
  C  C91  1  0.65098000  0.36917000  0.96996000  1.0
  N  N92  1  0.64517000  0.72086000  0.27039000  1.0
  N  N93  1  0.14517000  0.77915000  0.22962000  1.0
  N  N94  1  0.35483000  0.27915000  0.72961000  1.0
  N  N95  1  0.85481000  0.22085000  0.77038000  1.0
  N  N96  1  0.77703000  0.75014000  0.23644000  1.0
  N  N97  1  0.27703000  0.74987000  0.26357000  1.0
  N  N98  1  0.22298000  0.24987000  0.76356000  1.0
  N  N99  1  0.72296000  0.25013000  0.73643000  1.0
  N  N100  1  0.82583000  0.67197000  0.17051000  1.0
  N  N101  1  0.32583000  0.82803000  0.32950000  1.0
  N  N102  1  0.17418000  0.32803000  0.82950000  1.0
  N  N103  1  0.67418000  0.17196000  0.67050000  1.0
  N  N104  1  0.73012000  0.59051000  0.15961000  1.0
  N  N105  1  0.23012000  0.90950000  0.34039000  1.0
  N  N106  1  0.26988000  0.40950000  0.84039000  1.0
  N  N107  1  0.76988000  0.09050000  0.65960000  1.0
  N  N108  1  0.39288000  0.50298000  0.25130000  1.0
  N  N109  1  0.89287000  0.99704000  0.24870000  1.0
  N  N110  1  0.60712000  0.49703000  0.74870000  1.0
  N  N111  1  0.10712000  0.00298000  0.75130000  1.0
  N  N112  1  0.57762000  0.96413000  0.35591000  1.0
  N  N113  1  0.07762000  0.53587000  0.14409000  1.0
  N  N114  1  0.42239000  0.03587000  0.64409000  1.0
  N  N115  1  0.92238000  0.46413000  0.85591000  1.0
  N  N116  1  0.63881000  0.04560000  0.41427000  1.0
  N  N117  1  0.13880000  0.45440000  0.08573000  1.0
  N  N118  1  0.36121000  0.95441000  0.58572000  1.0
  N  N119  1  0.86120000  0.54559000  0.91427000  1.0
  N  N120  1  0.64250000  0.12740000  0.37078000  1.0
  N  N121  1  0.14249000  0.37261000  0.12921000  1.0
  N  N122  1  0.35751000  0.87261000  0.62920000  1.0
  N  N123  1  0.85751000  0.62739000  0.87079000  1.0
  N  N124  1  0.58285000  0.10260000  0.28404000  1.0
  N  N125  1  0.08285000  0.39741000  0.21596000  1.0
  N  N126  1  0.41714000  0.89740000  0.71595000  1.0
  N  N127  1  0.91716000  0.60259000  0.78404000  1.0
  N  N128  1  0.43040000  0.89949000  0.12127000  1.0
  N  N129  1  0.93040000  0.60052000  0.37873000  1.0
  N  N130  1  0.56959000  0.10051000  0.87872000  1.0
  N  N131  1  0.06961000  0.39948000  0.62126000  1.0
  N  N132  1  0.45755000  0.71206000  0.46662000  1.0
  N  N133  1  0.95755000  0.78794000  0.03338000  1.0
  N  N134  1  0.54245000  0.28794000  0.53337000  1.0
  N  N135  1  0.04246000  0.21206000  0.96663000  1.0
  N  N136  1  0.71536000  0.81928000  0.47733000  1.0
  N  N137  1  0.21536000  0.68072000  0.02267000  1.0
  N  N138  1  0.28464000  0.18072000  0.52267000  1.0
  N  N139  1  0.78464000  0.31927000  0.97733000  1.0
