# generated using pymatgen
data_Cd3H12C28(NO6)2
_symmetry_space_group_name_H-M   'P 1'
_cell_length_a   9.39300000
_cell_length_b   9.41412000
_cell_length_c   16.48320000
_cell_angle_alpha   78.12030000
_cell_angle_beta   78.09320000
_cell_angle_gamma   71.18390000
_symmetry_Int_Tables_number   1
_chemical_formula_structural   Cd3H12C28(NO6)2
_chemical_formula_sum   'Cd6 H24 C56 N4 O24'
_cell_volume   1334.62053877
_cell_formula_units_Z   2
loop_
 _symmetry_equiv_pos_site_id
 _symmetry_equiv_pos_as_xyz
  1  'x, y, z'
loop_
 _atom_site_type_symbol
 _atom_site_label
 _atom_site_symmetry_multiplicity
 _atom_site_fract_x
 _atom_site_fract_y
 _atom_site_fract_z
 _atom_site_occupancy
  Cd  Cd0  1  0.94614000  0.07841000  0.09119000  1.0
  Cd  Cd1  1  0.92172000  0.05380000  0.40880000  1.0
  Cd  Cd2  1  0.05386000  0.92159000  0.90881000  1.0
  Cd  Cd3  1  0.07828000  0.94620000  0.59120000  1.0
  Cd  Cd4  1  0.19044000  0.80979000  0.24997000  1.0
  Cd  Cd5  1  0.80956000  0.19021000  0.75004000  1.0
  H  H6  1  0.40471000  0.14181000  0.22495000  1.0
  H  H7  1  0.85888000  0.59595000  0.27475000  1.0
  H  H8  1  0.59529000  0.85819000  0.77505000  1.0
  H  H9  1  0.14112000  0.40406000  0.72525000  1.0
  H  H10  1  0.55720000  0.32201000  0.19781000  1.0
  H  H11  1  0.67854000  0.44348000  0.30207000  1.0
  H  H12  1  0.44281000  0.67799000  0.80219000  1.0
  H  H13  1  0.32146000  0.55652000  0.69793000  1.0
  H  H14  1  0.03804000  0.49065000  0.12054000  1.0
  H  H15  1  0.50914000  0.96156000  0.37947000  1.0
  H  H16  1  0.96196000  0.50935000  0.87946000  1.0
  H  H17  1  0.49086000  0.03844000  0.62053000  1.0
  H  H18  1  0.66386000  0.46808000  0.05404000  1.0
  H  H19  1  0.53248000  0.33679000  0.44594000  1.0
  H  H20  1  0.33614000  0.53192000  0.94596000  1.0
  H  H21  1  0.46752000  0.66321000  0.55406000  1.0
  H  H22  1  0.82056000  0.64904000  0.02200000  1.0
  H  H23  1  0.35139000  0.18018000  0.47787000  1.0
  H  H24  1  0.17943000  0.35097000  0.97800000  1.0
  H  H25  1  0.64862000  0.81982000  0.52213000  1.0
  H  H26  1  0.46415000  0.94508000  0.17256000  1.0
  H  H27  1  0.05439000  0.53566000  0.32761000  1.0
  H  H28  1  0.53585000  0.05492000  0.82745000  1.0
  H  H29  1  0.94561000  0.46434000  0.67239000  1.0
  C  C30  1  0.12885000  0.18991000  0.17945000  1.0
  C  C31  1  0.81037000  0.87116000  0.32050000  1.0
  C  C32  1  0.87115000  0.81008000  0.82055000  1.0
  C  C33  1  0.18963000  0.12884000  0.67950000  1.0
  C  C34  1  0.21128000  0.30520000  0.17426000  1.0
  C  C35  1  0.69504000  0.78881000  0.32562000  1.0
  C  C36  1  0.78872000  0.69480000  0.82574000  1.0
  C  C37  1  0.30496000  0.21120000  0.67438000  1.0
  C  C38  1  0.35722000  0.25871000  0.19683000  1.0
  C  C39  1  0.74174000  0.64321000  0.30297000  1.0
  C  C40  1  0.64278000  0.74129000  0.80317000  1.0
  C  C41  1  0.25826000  0.35679000  0.69703000  1.0
  C  C42  1  0.44235000  0.36027000  0.18184000  1.0
  C  C43  1  0.64012000  0.55809000  0.31805000  1.0
  C  C44  1  0.55765000  0.63973000  0.81816000  1.0
  C  C45  1  0.35988000  0.44192000  0.68195000  1.0
  C  C46  1  0.38220000  0.51205000  0.14648000  1.0
  C  C47  1  0.48802000  0.61795000  0.35357000  1.0
  C  C48  1  0.61780000  0.48795000  0.85352000  1.0
  C  C49  1  0.51198000  0.38205000  0.64643000  1.0
  C  C50  1  0.23368000  0.56024000  0.12598000  1.0
  C  C51  1  0.43963000  0.76616000  0.37403000  1.0
  C  C52  1  0.76632000  0.43976000  0.87402000  1.0
  C  C53  1  0.56036000  0.23384000  0.62597000  1.0
  C  C54  1  0.15025000  0.45618000  0.13953000  1.0
  C  C55  1  0.54375000  0.84960000  0.36041000  1.0
  C  C56  1  0.84975000  0.54381000  0.86047000  1.0
  C  C57  1  0.45625000  0.15040000  0.63959000  1.0
  C  C58  1  0.47886000  0.61503000  0.12824000  1.0
  C  C59  1  0.38499000  0.52135000  0.37187000  1.0
  C  C60  1  0.52114000  0.38498000  0.87176000  1.0
  C  C61  1  0.61501000  0.47865000  0.62813000  1.0
  C  C62  1  0.62236000  0.57501000  0.07919000  1.0
  C  C63  1  0.42530000  0.37816000  0.42084000  1.0
  C  C64  1  0.37764000  0.42499000  0.92081000  1.0
  C  C65  1  0.57470000  0.62184000  0.57916000  1.0
  C  C66  1  0.70996000  0.67468000  0.06169000  1.0
  C  C67  1  0.32557000  0.29059000  0.43828000  1.0
  C  C68  1  0.29003000  0.32532000  0.93831000  1.0
  C  C69  1  0.67443000  0.70941000  0.56172000  1.0
  C  C70  1  0.65529000  0.80987000  0.09591000  1.0
  C  C71  1  0.19007000  0.34499000  0.40411000  1.0
  C  C72  1  0.34471000  0.19014000  0.90409000  1.0
  C  C73  1  0.80993000  0.65501000  0.59589000  1.0
  C  C74  1  0.51210000  0.84106000  0.14501000  1.0
  C  C75  1  0.15865000  0.48794000  0.35512000  1.0
  C  C76  1  0.48789000  0.15894000  0.85499000  1.0
  C  C77  1  0.84135000  0.51206000  0.64488000  1.0
  C  C78  1  0.75137000  0.91467000  0.08170000  1.0
  C  C79  1  0.08546000  0.24864000  0.41820000  1.0
  C  C80  1  0.24863000  0.08533000  0.91829000  1.0
  C  C81  1  0.91454000  0.75136000  0.58180000  1.0
  C  C82  1  0.16537000  0.71682000  0.08007000  1.0
  C  C83  1  0.28281000  0.83440000  0.41996000  1.0
  C  C84  1  0.83463000  0.28318000  0.91993000  1.0
  C  C85  1  0.71719000  0.16560000  0.58005000  1.0
  N  N86  1  0.42507000  0.74735000  0.16002000  1.0
  N  N87  1  0.25237000  0.57498000  0.34013000  1.0
  N  N88  1  0.57493000  0.25265000  0.83998000  1.0
  N  N89  1  0.74763000  0.42502000  0.65987000  1.0
  O  O90  1  0.99876000  0.23693000  0.15439000  1.0
  O  O91  1  0.76322000  0.00105000  0.34546000  1.0
  O  O92  1  0.00124000  0.76307000  0.84561000  1.0
  O  O93  1  0.23677000  0.99895000  0.65454000  1.0
  O  O94  1  0.19834000  0.05329000  0.20413000  1.0
  O  O95  1  0.94730000  0.80162000  0.29595000  1.0
  O  O96  1  0.80166000  0.94671000  0.79587000  1.0
  O  O97  1  0.05270000  0.19838000  0.70405000  1.0
  O  O98  1  0.17418000  0.72556000  0.00193000  1.0
  O  O99  1  0.27401000  0.82565000  0.49809000  1.0
  O  O100  1  0.82583000  0.27444000  0.99807000  1.0
  O  O101  1  0.72600000  0.17435000  0.50191000  1.0
  O  O102  1  0.10045000  0.82501000  0.12350000  1.0
  O  O103  1  0.17453000  0.89942000  0.37649000  1.0
  O  O104  1  0.89955000  0.17499000  0.87650000  1.0
  O  O105  1  0.82546000  0.10058000  0.62351000  1.0
  O  O106  1  0.84504000  0.91506000  0.01420000  1.0
  O  O107  1  0.08569000  0.15464000  0.48551000  1.0
  O  O108  1  0.15496000  0.08494000  0.98580000  1.0
  O  O109  1  0.91431000  0.84536000  0.51449000  1.0
  O  O110  1  0.73802000  0.99332000  0.13892000  1.0
  O  O111  1  0.00642000  0.26207000  0.36110000  1.0
  O  O112  1  0.26198000  0.00668000  0.86108000  1.0
  O  O113  1  0.99358000  0.73793000  0.63890000  1.0
