# generated using pymatgen
data_LaCuH8C14(NO4)2
_symmetry_space_group_name_H-M   'P 1'
_cell_length_a   9.32911000
_cell_length_b   11.37940000
_cell_length_c   17.48010000
_cell_angle_alpha   72.54300000
_cell_angle_beta   89.99850000
_cell_angle_gamma   65.81300000
_symmetry_Int_Tables_number   1
_chemical_formula_structural   LaCuH8C14(NO4)2
_chemical_formula_sum   'La4 Cu4 H32 C56 N8 O32'
_cell_volume   1598.62990316
_cell_formula_units_Z   4
loop_
 _symmetry_equiv_pos_site_id
 _symmetry_equiv_pos_as_xyz
  1  'x, y, z'
loop_
 _atom_site_type_symbol
 _atom_site_label
 _atom_site_symmetry_multiplicity
 _atom_site_fract_x
 _atom_site_fract_y
 _atom_site_fract_z
 _atom_site_occupancy
  La  La0  1  0.69837000  0.96139000  0.07710000  1.0
  La  La1  1  0.65963000  0.03868000  0.42293000  1.0
  La  La2  1  0.30163000  0.03860000  0.92291000  1.0
  La  La3  1  0.34035000  0.96134000  0.57706000  1.0
  Cu  Cu4  1  0.75347000  0.33201000  0.86320000  1.0
  Cu  Cu5  1  0.08516000  0.66802000  0.63684000  1.0
  Cu  Cu6  1  0.24655000  0.66797000  0.13680000  1.0
  Cu  Cu7  1  0.91482000  0.33198000  0.36315000  1.0
  H  H8  1  0.38192000  0.19682000  0.22007000  1.0
  H  H9  1  0.57881000  0.80273000  0.28016000  1.0
  H  H10  1  0.61806000  0.80320000  0.77993000  1.0
  H  H11  1  0.42120000  0.19727000  0.71983000  1.0
  H  H12  1  0.21344000  0.30581000  0.31139000  1.0
  H  H13  1  0.51924000  0.69401000  0.18865000  1.0
  H  H14  1  0.78653000  0.69420000  0.68860000  1.0
  H  H15  1  0.48078000  0.30598000  0.81135000  1.0
  H  H16  1  0.83892000  0.23716000  0.23840000  1.0
  H  H17  1  0.07586000  0.76298000  0.26139000  1.0
  H  H18  1  0.16108000  0.76283000  0.76160000  1.0
  H  H19  1  0.92415000  0.23702000  0.73861000  1.0
  H  H20  1  0.98838000  0.13570000  0.13857000  1.0
  H  H21  1  0.12379000  0.86428000  0.36130000  1.0
  H  H22  1  0.01161000  0.86429000  0.86143000  1.0
  H  H23  1  0.87622000  0.13573000  0.63869000  1.0
  H  H24  1  0.44444000  0.73145000  0.94227000  1.0
  H  H25  1  0.17594000  0.26839000  0.55792000  1.0
  H  H26  1  0.55557000  0.26853000  0.05772000  1.0
  H  H27  1  0.82405000  0.73162000  0.44207000  1.0
  H  H28  1  0.50622000  0.57823000  0.86198000  1.0
  H  H29  1  0.08441000  0.42160000  0.63816000  1.0
  H  H30  1  0.49380000  0.42174000  0.13802000  1.0
  H  H31  1  0.91558000  0.57840000  0.36184000  1.0
  H  H32  1  0.95400000  0.32766000  0.99627000  1.0
  H  H33  1  0.28126000  0.67252000  0.50372000  1.0
  H  H34  1  0.04601000  0.67232000  0.00373000  1.0
  H  H35  1  0.71873000  0.32749000  0.49628000  1.0
  H  H36  1  0.91328000  0.48267000  0.07898000  1.0
  H  H37  1  0.39558000  0.51749000  0.42103000  1.0
  H  H38  1  0.08674000  0.51732000  0.92102000  1.0
  H  H39  1  0.60442000  0.48252000  0.57897000  1.0
  C  C40  1  0.29832000  0.09076000  0.11554000  1.0
  C  C41  1  0.38898000  0.90890000  0.38461000  1.0
  C  C42  1  0.70168000  0.90924000  0.88447000  1.0
  C  C43  1  0.61101000  0.09110000  0.61538000  1.0
  C  C44  1  0.19880000  0.15714000  0.17162000  1.0
  C  C45  1  0.35584000  0.84258000  0.32845000  1.0
  C  C46  1  0.80120000  0.84286000  0.82838000  1.0
  C  C47  1  0.64417000  0.15743000  0.67155000  1.0
  C  C48  1  0.26109000  0.20647000  0.22090000  1.0
  C  C49  1  0.46757000  0.79320000  0.27923000  1.0
  C  C50  1  0.73890000  0.79354000  0.77910000  1.0
  C  C51  1  0.53244000  0.20680000  0.72077000  1.0
  C  C52  1  0.16797000  0.26617000  0.27267000  1.0
  C  C53  1  0.43414000  0.73365000  0.22736000  1.0
  C  C54  1  0.83201000  0.73384000  0.72732000  1.0
  C  C55  1  0.56587000  0.26634000  0.77264000  1.0
  C  C56  1  0.95831000  0.22862000  0.23112000  1.0
  C  C57  1  0.18680000  0.77136000  0.26877000  1.0
  C  C58  1  0.04168000  0.77137000  0.76888000  1.0
  C  C59  1  0.81321000  0.22864000  0.73123000  1.0
  C  C60  1  0.04310000  0.17117000  0.17622000  1.0
  C  C61  1  0.21407000  0.82874000  0.32372000  1.0
  C  C62  1  0.95689000  0.82882000  0.82378000  1.0
  C  C63  1  0.78594000  0.17126000  0.67627000  1.0
  C  C64  1  0.65463000  0.72791000  0.05567000  1.0
  C  C65  1  0.38236000  0.27219000  0.44437000  1.0
  C  C66  1  0.34539000  0.27207000  0.94434000  1.0
  C  C67  1  0.61764000  0.72784000  0.55562000  1.0
  C  C68  1  0.67666000  0.62213000  0.01634000  1.0
  C  C69  1  0.29866000  0.37787000  0.48376000  1.0
  C  C70  1  0.32336000  0.37785000  0.98366000  1.0
  C  C71  1  0.70133000  0.62215000  0.51623000  1.0
  C  C72  1  0.55966000  0.64463000  0.95701000  1.0
  C  C73  1  0.20427000  0.35526000  0.54315000  1.0
  C  C74  1  0.44036000  0.35535000  0.04299000  1.0
  C  C75  1  0.79573000  0.64474000  0.45684000  1.0
  C  C76  1  0.59244000  0.55744000  0.91198000  1.0
  C  C77  1  0.14981000  0.44246000  0.58816000  1.0
  C  C78  1  0.40758000  0.44254000  0.08803000  1.0
  C  C79  1  0.85019000  0.55754000  0.41184000  1.0
  C  C80  1  0.84357000  0.41929000  0.98627000  1.0
  C  C81  1  0.26259000  0.58080000  0.51378000  1.0
  C  C82  1  0.15644000  0.58069000  0.01374000  1.0
  C  C83  1  0.73741000  0.41921000  0.48622000  1.0
  C  C84  1  0.81999000  0.50481000  0.03227000  1.0
  C  C85  1  0.32454000  0.49527000  0.46779000  1.0
  C  C86  1  0.18003000  0.49517000  0.96773000  1.0
  C  C87  1  0.67545000  0.50474000  0.53221000  1.0
  C  C88  1  0.05595000  0.92634000  0.02614000  1.0
  C  C89  1  0.98241000  0.07357000  0.47373000  1.0
  C  C90  1  0.94405000  0.07364000  0.97387000  1.0
  C  C91  1  0.01757000  0.92644000  0.52628000  1.0
  C  C92  1  0.78683000  0.92248000  0.27230000  1.0
  C  C93  1  0.70922000  0.07752000  0.22779000  1.0
  C  C94  1  0.21318000  0.07753000  0.72771000  1.0
  C  C95  1  0.29077000  0.92249000  0.77221000  1.0
  N  N96  1  0.01946000  0.27529000  0.27945000  1.0
  N  N97  1  0.29468000  0.72465000  0.22049000  1.0
  N  N98  1  0.98053000  0.72471000  0.72055000  1.0
  N  N99  1  0.70534000  0.27534000  0.77951000  1.0
  N  N100  1  0.73287000  0.44642000  0.92535000  1.0
  N  N101  1  0.17910000  0.55358000  0.57474000  1.0
  N  N102  1  0.26714000  0.55356000  0.07466000  1.0
  N  N103  1  0.82089000  0.44642000  0.42526000  1.0
  O  O104  1  0.44800000  0.03779000  0.13499000  1.0
  O  O105  1  0.48551000  0.96209000  0.36512000  1.0
  O  O106  1  0.55200000  0.96221000  0.86502000  1.0
  O  O107  1  0.51448000  0.03792000  0.63487000  1.0
  O  O108  1  0.22521000  0.09432000  0.05304000  1.0
  O  O109  1  0.31965000  0.90501000  0.44719000  1.0
  O  O110  1  0.77480000  0.90567000  0.94696000  1.0
  O  O111  1  0.68034000  0.09499000  0.55281000  1.0
  O  O112  1  0.76387000  0.70600000  0.10846000  1.0
  O  O113  1  0.46944000  0.29424000  0.39147000  1.0
  O  O114  1  0.23615000  0.29399000  0.89155000  1.0
  O  O115  1  0.53055000  0.70579000  0.60852000  1.0
  O  O116  1  0.52918000  0.84183000  0.03111000  1.0
  O  O117  1  0.37100000  0.15816000  0.46897000  1.0
  O  O118  1  0.47084000  0.15815000  0.96890000  1.0
  O  O119  1  0.62900000  0.84187000  0.53102000  1.0
  O  O120  1  0.99943000  0.86390000  0.08171000  1.0
  O  O121  1  0.86353000  0.13586000  0.41813000  1.0
  O  O122  1  0.00057000  0.13609000  0.91830000  1.0
  O  O123  1  0.13644000  0.86416000  0.58188000  1.0
  O  O124  1  0.19664000  0.87647000  0.01106000  1.0
  O  O125  1  0.07337000  0.12347000  0.48863000  1.0
  O  O126  1  0.80335000  0.12352000  0.98895000  1.0
  O  O127  1  0.92663000  0.87654000  0.51137000  1.0
  O  O128  1  0.80061000  0.84562000  0.23052000  1.0
  O  O129  1  0.64617000  0.15433000  0.26960000  1.0
  O  O130  1  0.19939000  0.15438000  0.76949000  1.0
  O  O131  1  0.35382000  0.84569000  0.73039000  1.0
  O  O132  1  0.83390000  0.88541000  0.34741000  1.0
  O  O133  1  0.71911000  0.11469000  0.15268000  1.0
  O  O134  1  0.16610000  0.11462000  0.65260000  1.0
  O  O135  1  0.28089000  0.88531000  0.84732000  1.0
