# generated using pymatgen
data_AgH9C10S(NO)2
_symmetry_space_group_name_H-M   'P 1'
_cell_length_a   5.81591000
_cell_length_b   9.78400000
_cell_length_c   10.11610000
_cell_angle_alpha   116.14300000
_cell_angle_beta   89.99980000
_cell_angle_gamma   89.99990000
_symmetry_Int_Tables_number   1
_chemical_formula_structural   AgH9C10S(NO)2
_chemical_formula_sum   'Ag2 H18 C20 S2 N4 O4'
_cell_volume   516.74595126
_cell_formula_units_Z   2
loop_
 _symmetry_equiv_pos_site_id
 _symmetry_equiv_pos_as_xyz
  1  'x, y, z'
loop_
 _atom_site_type_symbol
 _atom_site_label
 _atom_site_symmetry_multiplicity
 _atom_site_fract_x
 _atom_site_fract_y
 _atom_site_fract_z
 _atom_site_occupancy
  Ag  Ag0  1  0.10174000  0.58962000  0.16961000  1.0
  Ag  Ag1  1  0.60175000  0.41038000  0.83039000  1.0
  H  H2  1  0.79151000  0.06675000  0.75218000  1.0
  H  H3  1  0.29151000  0.93325000  0.24782000  1.0
  H  H4  1  0.50586000  0.05043000  0.95133000  1.0
  H  H5  1  0.00584000  0.94956000  0.04867000  1.0
  H  H6  1  0.67582000  0.19649000  0.21939000  1.0
  H  H7  1  0.17581000  0.80350000  0.78062000  1.0
  H  H8  1  0.52846000  0.44050000  0.22035000  1.0
  H  H9  1  0.02842000  0.55951000  0.77965000  1.0
  H  H10  1  0.84093000  0.49369000  0.40831000  1.0
  H  H11  1  0.34091000  0.50631000  0.59169000  1.0
  H  H12  1  0.82313000  0.74017000  0.63982000  1.0
  H  H13  1  0.32312000  0.25984000  0.36019000  1.0
  H  H14  1  0.49527000  0.91837000  0.67485000  1.0
  H  H15  1  0.99527000  0.08163000  0.32515000  1.0
  H  H16  1  0.03419000  0.84055000  0.40675000  1.0
  H  H17  1  0.53420000  0.15944000  0.59324000  1.0
  H  H18  1  0.16095000  0.97389000  0.57404000  1.0
  H  H19  1  0.66095000  0.02611000  0.42595000  1.0
  C  C20  1  0.20689000  0.24610000  0.86185000  1.0
  C  C21  1  0.70691000  0.75390000  0.13816000  1.0
  C  C22  1  0.01346000  0.20655000  0.93349000  1.0
  C  C23  1  0.51347000  0.79344000  0.06651000  1.0
  C  C24  1  0.82103000  0.11907000  0.87047000  1.0
  C  C25  1  0.32102000  0.88094000  0.12955000  1.0
  C  C26  1  0.66951000  0.11044000  0.97657000  1.0
  C  C27  1  0.16949000  0.88957000  0.02343000  1.0
  C  C28  1  0.75163000  0.18869000  0.11824000  1.0
  C  C29  1  0.25164000  0.81132000  0.88176000  1.0
  C  C30  1  0.52798000  0.54416000  0.32394000  1.0
  C  C31  1  0.02797000  0.45585000  0.67607000  1.0
  C  C32  1  0.70095000  0.57388000  0.42701000  1.0
  C  C33  1  0.20094000  0.42614000  0.57301000  1.0
  C  C34  1  0.69032000  0.71162000  0.55586000  1.0
  C  C35  1  0.19034000  0.28837000  0.44413000  1.0
  C  C36  1  0.51068000  0.81099000  0.57631000  1.0
  C  C37  1  0.01069000  0.18900000  0.42368000  1.0
  C  C38  1  0.33868000  0.77362000  0.46652000  1.0
  C  C39  1  0.83868000  0.22638000  0.53348000  1.0
  S  S40  1  0.00853000  0.27637000  0.12257000  1.0
  S  S41  1  0.50852000  0.72363000  0.87742000  1.0
  N  N42  1  0.35052000  0.63985000  0.34175000  1.0
  N  N43  1  0.85050000  0.36016000  0.65825000  1.0
  N  N44  1  0.16222000  0.86960000  0.48384000  1.0
  N  N45  1  0.66221000  0.13040000  0.51616000  1.0
  O  O46  1  0.31599000  0.36966000  0.94531000  1.0
  O  O47  1  0.81598000  0.63032000  0.05467000  1.0
  O  O48  1  0.25479000  0.16058000  0.72919000  1.0
  O  O49  1  0.75480000  0.83940000  0.27080000  1.0
