# generated using pymatgen
data_ZnH12C10N5O6
_symmetry_space_group_name_H-M   'P 1'
_cell_length_a   7.17929000
_cell_length_b   7.58435000
_cell_length_c   26.38100000
_cell_angle_alpha   90.00000000
_cell_angle_beta   90.00000000
_cell_angle_gamma   110.33000000
_symmetry_Int_Tables_number   1
_chemical_formula_structural   ZnH12C10N5O6
_chemical_formula_sum   'Zn4 H48 C40 N20 O24'
_cell_volume   1346.97130815
_cell_formula_units_Z   4
loop_
 _symmetry_equiv_pos_site_id
 _symmetry_equiv_pos_as_xyz
  1  'x, y, z'
loop_
 _atom_site_type_symbol
 _atom_site_label
 _atom_site_symmetry_multiplicity
 _atom_site_fract_x
 _atom_site_fract_y
 _atom_site_fract_z
 _atom_site_occupancy
  Zn  Zn0  1  0.00982000  0.71502000  0.84577000  1.0
  Zn  Zn1  1  0.99018000  0.78499000  0.34577000  1.0
  Zn  Zn2  1  0.99018000  0.28498000  0.15423000  1.0
  Zn  Zn3  1  0.00982000  0.21501000  0.65423000  1.0
  H  H4  1  0.42465000  0.05925000  0.85266000  1.0
  H  H5  1  0.57536000  0.44075000  0.35265000  1.0
  H  H6  1  0.57535000  0.94075000  0.14734000  1.0
  H  H7  1  0.42464000  0.55925000  0.64735000  1.0
  H  H8  1  0.65829000  0.28034000  0.78855000  1.0
  H  H9  1  0.34172000  0.21966000  0.28855000  1.0
  H  H10  1  0.34171000  0.71966000  0.21145000  1.0
  H  H11  1  0.65828000  0.78034000  0.71145000  1.0
  H  H12  1  0.06668000  0.13957000  0.89068000  1.0
  H  H13  1  0.93332000  0.36044000  0.39068000  1.0
  H  H14  1  0.93332000  0.86044000  0.10932000  1.0
  H  H15  1  0.06669000  0.63957000  0.60932000  1.0
  H  H16  1  0.20941000  0.70636000  0.96125000  1.0
  H  H17  1  0.79059000  0.79364000  0.46125000  1.0
  H  H18  1  0.79059000  0.29364000  0.03875000  1.0
  H  H19  1  0.20941000  0.20636000  0.53875000  1.0
  H  H20  1  0.16468000  0.30221000  0.01773000  1.0
  H  H21  1  0.83532000  0.19779000  0.51773000  1.0
  H  H22  1  0.83532000  0.69779000  0.98227000  1.0
  H  H23  1  0.16468000  0.80221000  0.48227000  1.0
  H  H24  1  0.20428000  0.38889000  0.95404000  1.0
  H  H25  1  0.79572000  0.11112000  0.45403000  1.0
  H  H26  1  0.79572000  0.61111000  0.04596000  1.0
  H  H27  1  0.20429000  0.88889000  0.54597000  1.0
  H  H28  1  0.55560000  0.37758000  0.96037000  1.0
  H  H29  1  0.44440000  0.12242000  0.46037000  1.0
  H  H30  1  0.44440000  0.62242000  0.03963000  1.0
  H  H31  1  0.55560000  0.87758000  0.53963000  1.0
  H  H32  1  0.50829000  0.32097000  0.02573000  1.0
  H  H33  1  0.49171000  0.17903000  0.52573000  1.0
  H  H34  1  0.49171000  0.67903000  0.97427000  1.0
  H  H35  1  0.50829000  0.82097000  0.47427000  1.0
  H  H36  1  0.67874000  0.76936000  0.81443000  1.0
  H  H37  1  0.32125000  0.73064000  0.31443000  1.0
  H  H38  1  0.32126000  0.23064000  0.18557000  1.0
  H  H39  1  0.67875000  0.26936000  0.68557000  1.0
  H  H40  1  0.83821000  0.97158000  0.82798000  1.0
  H  H41  1  0.16178000  0.52842000  0.32798000  1.0
  H  H42  1  0.16179000  0.02842000  0.17202000  1.0
  H  H43  1  0.83822000  0.47158000  0.67202000  1.0
  H  H44  1  0.84134000  0.36181000  0.85905000  1.0
  H  H45  1  0.15865000  0.13819000  0.35904000  1.0
  H  H46  1  0.15866000  0.63819000  0.14095000  1.0
  H  H47  1  0.84135000  0.86181000  0.64096000  1.0
  H  H48  1  0.65934000  0.43753000  0.86830000  1.0
  H  H49  1  0.34066000  0.06247000  0.36830000  1.0
  H  H50  1  0.34066000  0.56247000  0.13170000  1.0
  H  H51  1  0.65934000  0.93753000  0.63170000  1.0
  C  C52  1  0.39766000  0.04468000  0.81203000  1.0
  C  C53  1  0.60235000  0.45532000  0.31203000  1.0
  C  C54  1  0.60234000  0.95532000  0.18796000  1.0
  C  C55  1  0.39765000  0.54468000  0.68797000  1.0
  C  C56  1  0.31207000  0.98752000  0.65387000  1.0
  C  C57  1  0.68793000  0.51249000  0.15387000  1.0
  C  C58  1  0.68793000  0.01248000  0.34613000  1.0
  C  C59  1  0.31207000  0.48751000  0.84613000  1.0
  C  C60  1  0.32898000  0.00288000  0.71109000  1.0
  C  C61  1  0.67102000  0.49713000  0.21109000  1.0
  C  C62  1  0.67102000  0.99712000  0.28891000  1.0
  C  C63  1  0.32897000  0.50287000  0.78891000  1.0
  C  C64  1  0.01254000  0.71997000  0.73190000  1.0
  C  C65  1  0.98747000  0.78004000  0.23191000  1.0
  C  C66  1  0.98746000  0.28003000  0.26810000  1.0
  C  C67  1  0.01253000  0.21996000  0.76809000  1.0
  C  C68  1  0.19631000  0.88433000  0.74619000  1.0
  C  C69  1  0.80369000  0.61568000  0.24618000  1.0
  C  C70  1  0.80369000  0.11567000  0.25381000  1.0
  C  C71  1  0.19631000  0.38433000  0.75381000  1.0
  C  C72  1  0.52650000  0.16421000  0.77702000  1.0
  C  C73  1  0.47351000  0.33580000  0.27702000  1.0
  C  C74  1  0.47350000  0.83579000  0.22298000  1.0
  C  C75  1  0.52649000  0.66420000  0.72298000  1.0
  C  C76  1  0.11547000  0.05619000  0.91746000  1.0
  C  C77  1  0.88453000  0.44381000  0.41746000  1.0
  C  C78  1  0.88453000  0.94381000  0.08254000  1.0
  C  C79  1  0.11548000  0.55619000  0.58254000  1.0
  C  C80  1  0.19157000  0.84032000  0.95440000  1.0
  C  C81  1  0.80844000  0.65969000  0.45440000  1.0
  C  C82  1  0.80843000  0.15968000  0.04560000  1.0
  C  C83  1  0.19157000  0.34032000  0.54560000  1.0
  C  C84  1  0.25045000  0.30814000  0.98294000  1.0
  C  C85  1  0.74955000  0.19186000  0.48294000  1.0
  C  C86  1  0.74955000  0.69186000  0.01706000  1.0
  C  C87  1  0.25045000  0.80814000  0.51706000  1.0
  C  C88  1  0.47211000  0.39592000  0.99371000  1.0
  C  C89  1  0.52789000  0.10408000  0.49371000  1.0
  C  C90  1  0.52789000  0.60408000  0.00629000  1.0
  C  C91  1  0.47211000  0.89592000  0.50629000  1.0
  N  N92  1  0.23433000  0.90765000  0.79617000  1.0
  N  N93  1  0.76567000  0.59235000  0.29617000  1.0
  N  N94  1  0.76567000  0.09234000  0.20383000  1.0
  N  N95  1  0.23433000  0.40765000  0.70383000  1.0
  N  N96  1  0.49262000  0.14177000  0.72730000  1.0
  N  N97  1  0.50738000  0.35823000  0.22730000  1.0
  N  N98  1  0.50737000  0.85823000  0.27270000  1.0
  N  N99  1  0.49262000  0.64177000  0.77270000  1.0
  N  N100  1  0.10880000  0.87892000  0.91095000  1.0
  N  N101  1  0.89120000  0.62109000  0.41095000  1.0
  N  N102  1  0.89120000  0.12108000  0.08905000  1.0
  N  N103  1  0.10881000  0.37892000  0.58905000  1.0
  N  N104  1  0.19867000  0.11860000  0.96248000  1.0
  N  N105  1  0.80133000  0.38140000  0.46248000  1.0
  N  N106  1  0.80133000  0.88140000  0.03752000  1.0
  N  N107  1  0.19868000  0.61860000  0.53752000  1.0
  N  N108  1  0.24748000  0.98237000  0.98697000  1.0
  N  N109  1  0.75252000  0.51764000  0.48697000  1.0
  N  N110  1  0.75252000  0.01763000  0.01303000  1.0
  N  N111  1  0.24748000  0.48237000  0.51303000  1.0
  O  O112  1  0.92605000  0.60894000  0.76742000  1.0
  O  O113  1  0.07395000  0.89106000  0.26741000  1.0
  O  O114  1  0.07395000  0.39105000  0.23258000  1.0
  O  O115  1  0.92605000  0.10894000  0.73258000  1.0
  O  O116  1  0.41566000  0.90379000  0.63283000  1.0
  O  O117  1  0.58434000  0.59621000  0.13283000  1.0
  O  O118  1  0.58434000  0.09621000  0.36717000  1.0
  O  O119  1  0.41566000  0.40379000  0.86717000  1.0
  O  O120  1  0.96163000  0.70174000  0.68548000  1.0
  O  O121  1  0.03837000  0.79827000  0.18547000  1.0
  O  O122  1  0.03837000  0.29826000  0.31452000  1.0
  O  O123  1  0.96163000  0.20173000  0.81453000  1.0
  O  O124  1  0.20654000  0.06645000  0.63131000  1.0
  O  O125  1  0.79346000  0.43355000  0.13130000  1.0
  O  O126  1  0.79346000  0.93355000  0.36869000  1.0
  O  O127  1  0.20653000  0.56644000  0.86870000  1.0
  O  O128  1  0.78581000  0.83725000  0.83919000  1.0
  O  O129  1  0.21419000  0.66275000  0.33919000  1.0
  O  O130  1  0.21419000  0.16276000  0.16081000  1.0
  O  O131  1  0.78581000  0.33725000  0.66081000  1.0
  O  O132  1  0.80368000  0.46229000  0.87444000  1.0
  O  O133  1  0.19632000  0.03771000  0.37444000  1.0
  O  O134  1  0.19632000  0.53771000  0.12556000  1.0
  O  O135  1  0.80368000  0.96229000  0.62556000  1.0
