# generated using pymatgen
data_CuH27C24(SO)8
_symmetry_space_group_name_H-M   'P 1'
_cell_length_a   9.60933000
_cell_length_b   13.36850000
_cell_length_c   13.46810000
_cell_angle_alpha   92.08630000
_cell_angle_beta   110.59300000
_cell_angle_gamma   109.39100000
_symmetry_Int_Tables_number   1
_chemical_formula_structural   CuH27C24(SO)8
_chemical_formula_sum   'Cu2 H54 C48 S16 O16'
_cell_volume   1504.55593949
_cell_formula_units_Z   2
loop_
 _symmetry_equiv_pos_site_id
 _symmetry_equiv_pos_as_xyz
  1  'x, y, z'
loop_
 _atom_site_type_symbol
 _atom_site_label
 _atom_site_symmetry_multiplicity
 _atom_site_fract_x
 _atom_site_fract_y
 _atom_site_fract_z
 _atom_site_occupancy
  Cu  Cu0  1  0.85550000  0.77499000  0.21638000  1.0
  Cu  Cu1  1  0.14449000  0.22501000  0.78362000  1.0
  H  H2  1  0.96325000  0.56878000  0.54710000  1.0
  H  H3  1  0.03675000  0.43122000  0.45290000  1.0
  H  H4  1  0.05997000  0.50086000  0.64366000  1.0
  H  H5  1  0.94003000  0.49914000  0.35634000  1.0
  H  H6  1  0.96816000  0.58254000  0.68251000  1.0
  H  H7  1  0.03184000  0.41747000  0.31749000  1.0
  H  H8  1  0.38633000  0.64003000  0.26294000  1.0
  H  H9  1  0.61367000  0.35997000  0.73706000  1.0
  H  H10  1  0.30736000  0.56947000  0.12832000  1.0
  H  H11  1  0.69263000  0.43052000  0.87169000  1.0
  H  H12  1  0.49719000  0.57415000  0.22048000  1.0
  H  H13  1  0.50281000  0.42585000  0.77952000  1.0
  H  H14  1  0.65495000  0.37721000  0.23895000  1.0
  H  H15  1  0.34505000  0.62280000  0.76105000  1.0
  H  H16  1  0.96118000  0.70848000  0.45205000  1.0
  H  H17  1  0.03882000  0.29152000  0.54795000  1.0
  H  H18  1  0.76627000  0.60530000  0.38743000  1.0
  H  H19  1  0.23373000  0.39470000  0.61257000  1.0
  H  H20  1  0.81199000  0.69302000  0.50830000  1.0
  H  H21  1  0.18801000  0.30698000  0.49170000  1.0
  H  H22  1  0.33043000  0.92621000  0.43699000  1.0
  H  H23  1  0.66957000  0.07379000  0.56301000  1.0
  H  H24  1  0.26372000  0.83733000  0.31374000  1.0
  H  H25  1  0.73628000  0.16267000  0.68627000  1.0
  H  H26  1  0.17780000  0.79480000  0.41089000  1.0
  H  H27  1  0.82220000  0.20520000  0.58912000  1.0
  H  H28  1  0.84016000  0.75190000  0.96578000  1.0
  H  H29  1  0.15984000  0.24810000  0.03422000  1.0
  H  H30  1  0.80296000  0.87433000  0.96627000  1.0
  H  H31  1  0.19704000  0.12567000  0.03373000  1.0
  H  H32  1  0.65293000  0.75649000  0.87375000  1.0
  H  H33  1  0.34707000  0.24351000  0.12625000  1.0
  H  H34  1  0.96161000  0.51139000  0.08798000  1.0
  H  H35  1  0.03839000  0.48861000  0.91201000  1.0
  H  H36  1  0.10471000  0.63898000  0.16801000  1.0
  H  H37  1  0.89529000  0.36102000  0.83198000  1.0
  H  H38  1  0.96202000  0.63633000  0.03948000  1.0
  H  H39  1  0.03798000  0.36367000  0.96051000  1.0
  H  H40  1  0.63483000  0.77721000  0.62375000  1.0
  H  H41  1  0.36516000  0.22279000  0.37625000  1.0
  H  H42  1  0.83773000  0.12104000  0.33214000  1.0
  H  H43  1  0.16227000  0.87895000  0.66786000  1.0
  H  H44  1  0.83098000  0.21414000  0.23821000  1.0
  H  H45  1  0.16902000  0.78585000  0.76179000  1.0
  H  H46  1  0.01578000  0.19783000  0.31259000  1.0
  H  H47  1  0.98422000  0.80217000  0.68741000  1.0
  H  H48  1  0.38706000  0.04653000  0.25319000  1.0
  H  H49  1  0.61294000  0.95347000  0.74681000  1.0
  H  H50  1  0.59314000  0.12890000  0.29064000  1.0
  H  H51  1  0.40686000  0.87110000  0.70936000  1.0
  H  H52  1  0.53396000  0.04175000  0.37829000  1.0
  H  H53  1  0.46604000  0.95826000  0.62171000  1.0
  H  H54  1  0.20525000  0.75587000  0.00173000  1.0
  H  H55  1  0.79475000  0.24413000  0.99827000  1.0
  C  C56  1  0.62719000  0.46125000  0.53595000  1.0
  C  C57  1  0.37281000  0.53875000  0.46405000  1.0
  C  C58  1  0.52268000  0.43769000  0.42712000  1.0
  C  C59  1  0.47732000  0.56231000  0.57289000  1.0
  C  C60  1  0.39703000  0.47580000  0.39000000  1.0
  C  C61  1  0.60298000  0.52420000  0.61000000  1.0
  C  C62  1  0.54730000  0.37217000  0.34617000  1.0
  C  C63  1  0.45270000  0.62783000  0.65383000  1.0
  C  C64  1  0.95938000  0.52833000  0.61574000  1.0
  C  C65  1  0.04062000  0.47167000  0.38426000  1.0
  C  C66  1  0.37791000  0.57015000  0.21266000  1.0
  C  C67  1  0.62209000  0.42985000  0.78734000  1.0
  C  C68  1  0.89429000  0.90200000  0.43197000  1.0
  C  C69  1  0.10571000  0.09800000  0.56803000  1.0
  C  C70  1  0.03291000  0.96127000  0.41495000  1.0
  C  C71  1  0.96709000  0.03873000  0.58505000  1.0
  C  C72  1  0.83340000  0.68711000  0.43406000  1.0
  C  C73  1  0.16660000  0.31289000  0.56594000  1.0
  C  C74  1  0.22719000  0.86346000  0.37553000  1.0
  C  C75  1  0.77281000  0.13654000  0.62447000  1.0
  C  C76  1  0.57434000  0.61287000  0.02568000  1.0
  C  C77  1  0.42566000  0.38713000  0.97432000  1.0
  C  C78  1  0.65930000  0.54776000  0.07425000  1.0
  C  C79  1  0.34070000  0.45224000  0.92575000  1.0
  C  C80  1  0.58568000  0.43505000  0.04690000  1.0
  C  C81  1  0.41432000  0.56495000  0.95310000  1.0
  C  C82  1  0.67923000  0.36179000  0.08420000  1.0
  C  C83  1  0.32077000  0.63821000  0.91580000  1.0
  C  C84  1  0.74807000  0.78619000  0.95425000  1.0
  C  C85  1  0.25193000  0.21381000  0.04575000  1.0
  C  C86  1  0.98230000  0.59632000  0.10954000  1.0
  C  C87  1  0.01769000  0.40368000  0.89046000  1.0
  C  C88  1  0.86178000  0.94053000  0.51639000  1.0
  C  C89  1  0.13823000  0.05947000  0.48361000  1.0
  C  C90  1  0.71075000  0.87791000  0.53317000  1.0
  C  C91  1  0.28925000  0.12209000  0.46683000  1.0
  C  C92  1  0.65557000  0.02514000  0.07913000  1.0
  C  C93  1  0.34443000  0.97486000  0.92087000  1.0
  C  C94  1  0.52079000  0.97691000  0.10507000  1.0
  C  C95  1  0.47921000  0.02309000  0.89493000  1.0
  C  C96  1  0.36719000  0.95229000  0.02551000  1.0
  C  C97  1  0.63281000  0.04771000  0.97449000  1.0
  C  C98  1  0.22140000  0.90274000  0.05246000  1.0
  C  C99  1  0.77860000  0.09726000  0.94754000  1.0
  C  C100  1  0.88569000  0.15711000  0.27361000  1.0
  C  C101  1  0.11431000  0.84289000  0.72639000  1.0
  C  C102  1  0.51031000  0.05121000  0.29422000  1.0
  C  C103  1  0.48969000  0.94879000  0.70578000  1.0
  S  S104  1  0.78084000  0.40785000  0.57557000  1.0
  S  S105  1  0.21916000  0.59215000  0.42443000  1.0
  S  S106  1  0.27621000  0.44626000  0.24985000  1.0
  S  S107  1  0.72379000  0.55374000  0.75016000  1.0
  S  S108  1  0.75765000  0.77552000  0.34988000  1.0
  S  S109  1  0.24235000  0.22448000  0.65012000  1.0
  S  S110  1  0.07747000  0.91904000  0.30562000  1.0
  S  S111  1  0.92253000  0.08096000  0.69438000  1.0
  S  S112  1  0.66064000  0.75697000  0.05466000  1.0
  S  S113  1  0.33935000  0.24303000  0.94534000  1.0
  S  S114  1  0.85408000  0.60592000  0.17827000  1.0
  S  S115  1  0.14592000  0.39408000  0.82173000  1.0
  S  S116  1  0.85603000  0.05467000  0.16848000  1.0
  S  S117  1  0.14397000  0.94533000  0.83152000  1.0
  S  S118  1  0.54111000  0.94093000  0.23374000  1.0
  S  S119  1  0.45889000  0.05907000  0.76626000  1.0
  O  O120  1  0.63809000  0.42845000  0.30035000  1.0
  O  O121  1  0.36191000  0.57155000  0.69965000  1.0
  O  O122  1  0.48311000  0.27188000  0.32664000  1.0
  O  O123  1  0.51688000  0.72813000  0.67336000  1.0
  O  O124  1  0.69128000  0.32752000  0.17304000  1.0
  O  O125  1  0.30871000  0.67247000  0.82696000  1.0
  O  O126  1  0.73795000  0.33940000  0.02054000  1.0
  O  O127  1  0.26205000  0.66060000  0.97946000  1.0
  O  O128  1  0.73256000  0.81036000  0.60149000  1.0
  O  O129  1  0.26745000  0.18965000  0.39851000  1.0
  O  O130  1  0.58535000  0.89232000  0.48801000  1.0
  O  O131  1  0.41465000  0.10767000  0.51199000  1.0
  O  O132  1  0.15020000  0.79578000  0.03043000  1.0
  O  O133  1  0.84981000  0.20422000  0.96958000  1.0
  O  O134  1  0.16959000  0.95849000  0.09274000  1.0
  O  O135  1  0.83041000  0.04151000  0.90726000  1.0
