# generated using pymatgen
data_Ag2H11C12S2(NO2)3
_symmetry_space_group_name_H-M   'P 1'
_cell_length_a   8.21483000
_cell_length_b   10.29190000
_cell_length_c   11.03440000
_cell_angle_alpha   89.21590000
_cell_angle_beta   73.33050000
_cell_angle_gamma   67.44050000
_symmetry_Int_Tables_number   1
_chemical_formula_structural   Ag2H11C12S2(NO2)3
_chemical_formula_sum   'Ag4 H22 C24 S4 N6 O12'
_cell_volume   820.41508671
_cell_formula_units_Z   2
loop_
 _symmetry_equiv_pos_site_id
 _symmetry_equiv_pos_as_xyz
  1  'x, y, z'
loop_
 _atom_site_type_symbol
 _atom_site_label
 _atom_site_symmetry_multiplicity
 _atom_site_fract_x
 _atom_site_fract_y
 _atom_site_fract_z
 _atom_site_occupancy
  Ag  Ag0  1  0.39613000  0.44727000  0.34925000  1.0
  Ag  Ag1  1  0.60387000  0.55273000  0.65075000  1.0
  Ag  Ag2  1  0.49473000  0.80675000  0.09505000  1.0
  Ag  Ag3  1  0.50528000  0.19325000  0.90495000  1.0
  H  H4  1  0.23000000  0.74532000  0.48294000  1.0
  H  H5  1  0.77000000  0.25468000  0.51705000  1.0
  H  H6  1  0.91847000  0.94645000  0.56310000  1.0
  H  H7  1  0.08153000  0.05355000  0.43690000  1.0
  H  H8  1  0.65175000  0.93353000  0.50803000  1.0
  H  H9  1  0.34825000  0.06647000  0.49197000  1.0
  H  H10  1  0.01276000  0.51017000  0.32517000  1.0
  H  H11  1  0.98724000  0.48982000  0.67484000  1.0
  H  H12  1  0.49469000  0.13535000  0.27203000  1.0
  H  H13  1  0.50531000  0.86464000  0.72797000  1.0
  H  H14  1  0.77520000  0.91437000  0.18679000  1.0
  H  H15  1  0.22480000  0.08563000  0.81320000  1.0
  H  H16  1  0.08943000  0.92477000  0.13507000  1.0
  H  H17  1  0.91058000  0.07524000  0.86493000  1.0
  H  H18  1  0.80981000  0.37011000  0.27028000  1.0
  H  H19  1  0.19018000  0.62989000  0.72972000  1.0
  H  H20  1  0.00044000  0.62851000  0.06080000  1.0
  H  H21  1  0.99956000  0.37150000  0.93920000  1.0
  H  H22  1  0.16694000  0.46748000  0.08971000  1.0
  H  H23  1  0.83307000  0.53253000  0.91029000  1.0
  H  H24  1  0.18985000  0.51258000  0.93046000  1.0
  H  H25  1  0.81016000  0.48742000  0.06954000  1.0
  C  C26  1  0.10798000  0.74064000  0.46604000  1.0
  C  C27  1  0.89201000  0.25937000  0.53395000  1.0
  C  C28  1  0.93637000  0.85299000  0.50744000  1.0
  C  C29  1  0.06363000  0.14702000  0.49256000  1.0
  C  C30  1  0.78590000  0.84480000  0.47864000  1.0
  C  C31  1  0.21409000  0.15519000  0.52137000  1.0
  C  C32  1  0.81328000  0.72109000  0.41098000  1.0
  C  C33  1  0.18672000  0.27891000  0.58903000  1.0
  C  C34  1  0.98765000  0.60974000  0.37553000  1.0
  C  C35  1  0.01235000  0.39026000  0.62447000  1.0
  C  C36  1  0.63196000  0.13634000  0.25144000  1.0
  C  C37  1  0.36804000  0.86366000  0.74856000  1.0
  C  C38  1  0.78981000  0.01273000  0.20323000  1.0
  C  C39  1  0.21019000  0.98727000  0.79677000  1.0
  C  C40  1  0.96283000  0.01873000  0.17427000  1.0
  C  C41  1  0.03717000  0.98128000  0.82573000  1.0
  C  C42  1  0.97156000  0.14880000  0.19686000  1.0
  C  C43  1  0.02844000  0.85120000  0.80314000  1.0
  C  C44  1  0.80871000  0.26783000  0.24760000  1.0
  C  C45  1  0.19129000  0.73217000  0.75240000  1.0
  C  C46  1  0.25758000  0.63105000  0.04504000  1.0
  C  C47  1  0.74244000  0.36896000  0.95497000  1.0
  C  C48  1  0.14750000  0.55594000  0.03035000  1.0
  C  C49  1  0.85250000  0.44407000  0.96965000  1.0
  S  S50  1  0.63306000  0.70539000  0.35979000  1.0
  S  S51  1  0.36693000  0.29461000  0.64022000  1.0
  S  S52  1  0.19016000  0.16297000  0.15678000  1.0
  S  S53  1  0.80983000  0.83703000  0.84322000  1.0
  N  N54  1  0.13300000  0.62024000  0.40141000  1.0
  N  N55  1  0.86700000  0.37976000  0.59859000  1.0
  N  N56  1  0.64123000  0.26160000  0.27313000  1.0
  N  N57  1  0.35877000  0.73840000  0.72687000  1.0
  N  N58  1  0.34443000  0.69340000  0.05790000  1.0
  N  N59  1  0.65557000  0.30661000  0.94210000  1.0
  O  O60  1  0.70308000  0.70036000  0.21935000  1.0
  O  O61  1  0.29692000  0.29963000  0.78066000  1.0
  O  O62  1  0.62384000  0.57023000  0.39860000  1.0
  O  O63  1  0.37616000  0.42977000  0.60140000  1.0
  O  O64  1  0.46553000  0.83011000  0.41989000  1.0
  O  O65  1  0.53447000  0.16989000  0.58010000  1.0
  O  O66  1  0.15727000  0.30119000  0.21487000  1.0
  O  O67  1  0.84273000  0.69881000  0.78513000  1.0
  O  O68  1  0.31053000  0.04334000  0.20732000  1.0
  O  O69  1  0.68947000  0.95666000  0.79268000  1.0
  O  O70  1  0.24803000  0.14922000  0.01587000  1.0
  O  O71  1  0.75197000  0.85078000  0.98413000  1.0
