# generated using pymatgen
data_FeCu2H16(C7N3)4
_symmetry_space_group_name_H-M   'P 1'
_cell_length_a   6.77508000
_cell_length_b   7.61464000
_cell_length_c   13.89158272
_cell_angle_alpha   74.09878088
_cell_angle_beta   83.74956408
_cell_angle_gamma   79.99400000
_symmetry_Int_Tables_number   1
_chemical_formula_structural   FeCu2H16(C7N3)4
_chemical_formula_sum   'Fe1 Cu2 H16 C28 N12'
_cell_volume   677.33564747
_cell_formula_units_Z   1
loop_
 _symmetry_equiv_pos_site_id
 _symmetry_equiv_pos_as_xyz
  1  'x, y, z'
loop_
 _atom_site_type_symbol
 _atom_site_label
 _atom_site_symmetry_multiplicity
 _atom_site_fract_x
 _atom_site_fract_y
 _atom_site_fract_z
 _atom_site_occupancy
  Fe  Fe0  1  0.00820000  0.01119000  0.98868000  1.0
  Cu  Cu1  1  0.43684000  0.39736000  0.07721000  1.0
  Cu  Cu2  1  0.56906000  0.61524000  0.91547000  1.0
  H  H3  1  0.09274000  0.45915000  0.19967000  1.0
  H  H4  1  0.91368000  0.54425000  0.79761000  1.0
  H  H5  1  0.81978000  0.51321000  0.08475000  1.0
  H  H6  1  0.19012000  0.49176000  0.91033000  1.0
  H  H7  1  0.47242000  0.18222000  0.30105000  1.0
  H  H8  1  0.53122000  0.82374000  0.69100000  1.0
  H  H9  1  0.85333000  0.14744000  0.79386000  1.0
  H  H10  1  0.13144000  0.86366000  0.21198000  1.0
  H  H11  1  0.42324000  0.06406000  0.89620000  1.0
  H  H12  1  0.56150000  0.92184000  0.11642000  1.0
  H  H13  1  0.05201000  0.25211000  0.37562000  1.0
  H  H14  1  0.94891000  0.75137000  0.62131000  1.0
  H  H15  1  0.34131000  0.33140000  0.58200000  1.0
  H  H16  1  0.66345000  0.64653000  0.42791000  1.0
  H  H17  1  0.56788000  0.20321000  0.72442000  1.0
  H  H18  1  0.42720000  0.76854000  0.29038000  1.0
  C  C19  1  0.27826000  0.22107000  0.06898000  1.0
  C  C20  1  0.72820000  0.79035000  0.92321000  1.0
  C  C21  1  0.31417000  0.65251000  0.03742000  1.0
  C  C22  1  0.68453000  0.35759000  0.95987000  1.0
  C  C23  1  0.95755000  0.39625000  0.22633000  1.0
  C  C24  1  0.04802000  0.60783000  0.76984000  1.0
  C  C25  1  0.80578000  0.42667000  0.16123000  1.0
  C  C26  1  0.20180000  0.57818000  0.83372000  1.0
  C  C27  1  0.61070000  0.24255000  0.28092000  1.0
  C  C28  1  0.39346000  0.76291000  0.71242000  1.0
  C  C29  1  0.75819000  0.20436000  0.35060000  1.0
  C  C30  1  0.24406000  0.79978000  0.64389000  1.0
  C  C31  1  0.01032000  0.16305000  0.77522000  1.0
  C  C32  1  0.97694000  0.83862000  0.23265000  1.0
  C  C33  1  0.32968000  0.11567000  0.83261000  1.0
  C  C34  1  0.65732000  0.87266000  0.17945000  1.0
  C  C35  1  0.93547000  0.28334000  0.32271000  1.0
  C  C36  1  0.06719000  0.72059000  0.67326000  1.0
  C  C37  1  0.07992000  0.24708000  0.67782000  1.0
  C  C38  1  0.91638000  0.74471000  0.33039000  1.0
  C  C39  1  0.73482000  0.08129000  0.44752000  1.0
  C  C40  1  0.26574000  0.92201000  0.54664000  1.0
  C  C41  1  0.28453000  0.26390000  0.65697000  1.0
  C  C42  1  0.71410000  0.71983000  0.35284000  1.0
  C  C43  1  0.40830000  0.19428000  0.73659000  1.0
  C  C44  1  0.58424000  0.78658000  0.27572000  1.0
  C  C45  1  0.93210000  0.32017000  0.60597000  1.0
  C  C46  1  0.06747000  0.67015000  0.40033000  1.0
  N  N47  1  0.17402000  0.13582000  0.04313000  1.0
  N  N48  1  0.83500000  0.87978000  0.94370000  1.0
  N  N49  1  0.20017000  0.79203000  0.01988000  1.0
  N  N50  1  0.80711000  0.22413000  0.96786000  1.0
  N  N51  1  0.13153000  0.10092000  0.85217000  1.0
  N  N52  1  0.84996000  0.89856000  0.15986000  1.0
  N  N53  1  0.63498000  0.35109000  0.18754000  1.0
  N  N54  1  0.37173000  0.65490000  0.80616000  1.0
  N  N55  1  0.72318000  0.97739000  0.52645000  1.0
  N  N56  1  0.27719000  0.02494000  0.46737000  1.0
  N  N57  1  0.80070000  0.38125000  0.55291000  1.0
  N  N58  1  0.20086000  0.60689000  0.45199000  1.0
