# generated using pymatgen
data_ZnSiH12C24Br4(N2F3)2
_symmetry_space_group_name_H-M   'P 1'
_cell_length_a   7.79940000
_cell_length_b   13.99820000
_cell_length_c   13.99790000
_cell_angle_alpha   89.94310000
_cell_angle_beta   88.67220000
_cell_angle_gamma   88.67350000
_symmetry_Int_Tables_number   1
_chemical_formula_structural   ZnSiH12C24Br4(N2F3)2
_chemical_formula_sum   'Zn1 Si1 H12 C24 Br4 N4 F6'
_cell_volume   1527.43661233
_cell_formula_units_Z   1
loop_
 _symmetry_equiv_pos_site_id
 _symmetry_equiv_pos_as_xyz
  1  'x, y, z'
loop_
 _atom_site_type_symbol
 _atom_site_label
 _atom_site_symmetry_multiplicity
 _atom_site_fract_x
 _atom_site_fract_y
 _atom_site_fract_z
 _atom_site_occupancy
  Zn  Zn0  1  0.50002000  0.50000000  0.50000000  1.0
  Si  Si1  1  0.00001000  0.49999000  0.50000000  1.0
  H  H2  1  0.23833000  0.34010000  0.50014000  1.0
  H  H3  1  0.23023000  0.16297000  0.50011000  1.0
  H  H4  1  0.77302000  0.33554000  0.49999000  1.0
  H  H5  1  0.22700000  0.66446000  0.50004000  1.0
  H  H6  1  0.76170000  0.65992000  0.49983000  1.0
  H  H7  1  0.76979000  0.83705000  0.49981000  1.0
  H  H8  1  0.23833000  0.50012000  0.34010000  1.0
  H  H9  1  0.23022000  0.50011000  0.16298000  1.0
  H  H10  1  0.77301000  0.49996000  0.33553000  1.0
  H  H11  1  0.22704000  0.50002000  0.66444000  1.0
  H  H12  1  0.76172000  0.49993000  0.65992000  1.0
  H  H13  1  0.76977000  0.49995000  0.83705000  1.0
  C  C14  1  0.35676000  0.29746000  0.50010000  1.0
  C  C15  1  0.35274000  0.19858000  0.50009000  1.0
  C  C16  1  0.50686000  0.14410000  0.50004000  1.0
  C  C17  1  0.66041000  0.19557000  0.50003000  1.0
  C  C18  1  0.65524000  0.29513000  0.50002000  1.0
  C  C19  1  0.50439000  0.04342000  0.49998000  1.0
  C  C20  1  0.49562000  0.95659000  0.49991000  1.0
  C  C21  1  0.49317000  0.85591000  0.49987000  1.0
  C  C22  1  0.33961000  0.80444000  0.49993000  1.0
  C  C23  1  0.34478000  0.70488000  0.49998000  1.0
  C  C24  1  0.64327000  0.70256000  0.49987000  1.0
  C  C25  1  0.64730000  0.80143000  0.49985000  1.0
  C  C26  1  0.35675000  0.50008000  0.29746000  1.0
  C  C27  1  0.35271000  0.50008000  0.19859000  1.0
  C  C28  1  0.50685000  0.50007000  0.14411000  1.0
  C  C29  1  0.66040000  0.50005000  0.19557000  1.0
  C  C30  1  0.65523000  0.50000000  0.29513000  1.0
  C  C31  1  0.50437000  0.50005000  0.04342000  1.0
  C  C32  1  0.49560000  0.50001000  0.95659000  1.0
  C  C33  1  0.49314000  0.49997000  0.85590000  1.0
  C  C34  1  0.33961000  0.49998000  0.80442000  1.0
  C  C35  1  0.34480000  0.50000000  0.70486000  1.0
  C  C36  1  0.64329000  0.49995000  0.70256000  1.0
  C  C37  1  0.64729000  0.49996000  0.80143000  1.0
  Br  Br38  1  0.87498000  0.12979000  0.50006000  1.0
  Br  Br39  1  0.12504000  0.87024000  0.49986000  1.0
  Br  Br40  1  0.87497000  0.50018000  0.12978000  1.0
  Br  Br41  1  0.12503000  0.49991000  0.87021000  1.0
  N  N42  1  0.50548000  0.34499000  0.50005000  1.0
  N  N43  1  0.49453000  0.65501000  0.49995000  1.0
  N  N44  1  0.50546000  0.50002000  0.34499000  1.0
  N  N45  1  0.49459000  0.49998000  0.65501000  1.0
  F  F46  1  0.22712000  0.50092000  0.50094000  1.0
  F  F47  1  0.77290000  0.49907000  0.49908000  1.0
  F  F48  1  0.99999000  0.41425000  0.58575000  1.0
  F  F49  1  0.00001000  0.58574000  0.41425000  1.0
  F  F50  1  0.00838000  0.41427000  0.41428000  1.0
  F  F51  1  0.99167000  0.58571000  0.58572000  1.0
