# generated using pymatgen
data_CuH7C5O7
_symmetry_space_group_name_H-M   'P 1'
_cell_length_a   9.36211000
_cell_length_b   10.80970000
_cell_length_c   10.80990000
_cell_angle_alpha   111.86900000
_cell_angle_beta   105.63400000
_cell_angle_gamma   105.63300000
_symmetry_Int_Tables_number   1
_chemical_formula_structural   CuH7C5O7
_chemical_formula_sum   'Cu4 H28 C20 O28'
_cell_volume   890.03909596
_cell_formula_units_Z   4
loop_
 _symmetry_equiv_pos_site_id
 _symmetry_equiv_pos_as_xyz
  1  'x, y, z'
loop_
 _atom_site_type_symbol
 _atom_site_label
 _atom_site_symmetry_multiplicity
 _atom_site_fract_x
 _atom_site_fract_y
 _atom_site_fract_z
 _atom_site_occupancy
  Cu  Cu0  1  0.64577000  0.20054000  0.32892000  1.0
  Cu  Cu1  1  0.85424000  0.67107000  0.79947000  1.0
  Cu  Cu2  1  0.35423000  0.79946000  0.67107000  1.0
  Cu  Cu3  1  0.14576000  0.32893000  0.20053000  1.0
  H  H4  1  0.79181000  0.92860000  0.50799000  1.0
  H  H5  1  0.70821000  0.49201000  0.07142000  1.0
  H  H6  1  0.20819000  0.07140000  0.49200000  1.0
  H  H7  1  0.29180000  0.50799000  0.92859000  1.0
  H  H8  1  0.39377000  0.14467000  0.11296000  1.0
  H  H9  1  0.10624000  0.88704000  0.85533000  1.0
  H  H10  1  0.60623000  0.85533000  0.88704000  1.0
  H  H11  1  0.89377000  0.11296000  0.14467000  1.0
  H  H12  1  0.41145000  0.99304000  0.08950000  1.0
  H  H13  1  0.08855000  0.91049000  0.00695000  1.0
  H  H14  1  0.58854000  0.00696000  0.91050000  1.0
  H  H15  1  0.91146000  0.08951000  0.99304000  1.0
  H  H16  1  0.95908000  0.33256000  0.44850000  1.0
  H  H17  1  0.54093000  0.55150000  0.66744000  1.0
  H  H18  1  0.04092000  0.66743000  0.55150000  1.0
  H  H19  1  0.45908000  0.44850000  0.33256000  1.0
  H  H20  1  0.89658000  0.37514000  0.58105000  1.0
  H  H21  1  0.60343000  0.41896000  0.62485000  1.0
  H  H22  1  0.10342000  0.62485000  0.41895000  1.0
  H  H23  1  0.39658000  0.58104000  0.37515000  1.0
  H  H24  1  0.43271000  0.21649000  0.45106000  1.0
  H  H25  1  0.06728000  0.54893000  0.78351000  1.0
  H  H26  1  0.56729000  0.78352000  0.54894000  1.0
  H  H27  1  0.93271000  0.45107000  0.21649000  1.0
  H  H28  1  0.54140000  0.17931000  0.56310000  1.0
  H  H29  1  0.95858000  0.43689000  0.82068000  1.0
  H  H30  1  0.45858000  0.82068000  0.43690000  1.0
  H  H31  1  0.04141000  0.56310000  0.17932000  1.0
  C  C32  1  0.75763000  0.83872000  0.28243000  1.0
  C  C33  1  0.74239000  0.71757000  0.16125000  1.0
  C  C34  1  0.24237000  0.16127000  0.71756000  1.0
  C  C35  1  0.25761000  0.28243000  0.83873000  1.0
  C  C36  1  0.77142000  0.83226000  0.41123000  1.0
  C  C37  1  0.72860000  0.58879000  0.16775000  1.0
  C  C38  1  0.22858000  0.16774000  0.58876000  1.0
  C  C39  1  0.27140000  0.41122000  0.83225000  1.0
  C  C40  1  0.76401000  0.70499000  0.42019000  1.0
  C  C41  1  0.73601000  0.57985000  0.29505000  1.0
  C  C42  1  0.23599000  0.29502000  0.57982000  1.0
  C  C43  1  0.26400000  0.42015000  0.70496000  1.0
  C  C44  1  0.76074000  0.97461000  0.27315000  1.0
  C  C45  1  0.73929000  0.72685000  0.02541000  1.0
  C  C46  1  0.23926000  0.02539000  0.72685000  1.0
  C  C47  1  0.26072000  0.27315000  0.97459000  1.0
  C  C48  1  0.78785000  0.71221000  0.56565000  1.0
  C  C49  1  0.71215000  0.43435000  0.28781000  1.0
  C  C50  1  0.21214000  0.28780000  0.43435000  1.0
  C  C51  1  0.28785000  0.56566000  0.71220000  1.0
  O  O52  1  0.86534000  0.03570000  0.23854000  1.0
  O  O53  1  0.63471000  0.76146000  0.96430000  1.0
  O  O54  1  0.13468000  0.96430000  0.76147000  1.0
  O  O55  1  0.36531000  0.23854000  0.03570000  1.0
  O  O56  1  0.65027000  0.01321000  0.30290000  1.0
  O  O57  1  0.84973000  0.69710000  0.98680000  1.0
  O  O58  1  0.34973000  0.98678000  0.69709000  1.0
  O  O59  1  0.15026000  0.30290000  0.01320000  1.0
  O  O60  1  0.72389000  0.77938000  0.64020000  1.0
  O  O61  1  0.77613000  0.35981000  0.22064000  1.0
  O  O62  1  0.27611000  0.22064000  0.35980000  1.0
  O  O63  1  0.22387000  0.64019000  0.77936000  1.0
  O  O64  1  0.87594000  0.65222000  0.61205000  1.0
  O  O65  1  0.62405000  0.38797000  0.34781000  1.0
  O  O66  1  0.12405000  0.34779000  0.38795000  1.0
  O  O67  1  0.37596000  0.61204000  0.65221000  1.0
  O  O68  1  0.42442000  0.08653000  0.16271000  1.0
  O  O69  1  0.07560000  0.83729000  0.91347000  1.0
  O  O70  1  0.57558000  0.91347000  0.83729000  1.0
  O  O71  1  0.92441000  0.16272000  0.08653000  1.0
  O  O72  1  0.87229000  0.30085000  0.48017000  1.0
  O  O73  1  0.62771000  0.51983000  0.69915000  1.0
  O  O74  1  0.12771000  0.69914000  0.51983000  1.0
  O  O75  1  0.37229000  0.48016000  0.30085000  1.0
  O  O76  1  0.54924000  0.23925000  0.51472000  1.0
  O  O77  1  0.95076000  0.48527000  0.76074000  1.0
  O  O78  1  0.45076000  0.76075000  0.48528000  1.0
  O  O79  1  0.04924000  0.51472000  0.23925000  1.0
