# generated using pymatgen
data_ZnH13C19N5O4
_symmetry_space_group_name_H-M   'P 1'
_cell_length_a   9.13832000
_cell_length_b   11.12880000
_cell_length_c   11.61920000
_cell_angle_alpha   84.70660000
_cell_angle_beta   68.87920000
_cell_angle_gamma   71.25980000
_symmetry_Int_Tables_number   1
_chemical_formula_structural   ZnH13C19N5O4
_chemical_formula_sum   'Zn2 H26 C38 N10 O8'
_cell_volume   1043.46847072
_cell_formula_units_Z   2
loop_
 _symmetry_equiv_pos_site_id
 _symmetry_equiv_pos_as_xyz
  1  'x, y, z'
loop_
 _atom_site_type_symbol
 _atom_site_label
 _atom_site_symmetry_multiplicity
 _atom_site_fract_x
 _atom_site_fract_y
 _atom_site_fract_z
 _atom_site_occupancy
  Zn  Zn0  1  0.40017000  0.30483000  0.30863000  1.0
  Zn  Zn1  1  0.59984000  0.69518000  0.69137000  1.0
  H  H2  1  0.92680000  0.72791000  0.05136000  1.0
  H  H3  1  0.07319000  0.27209000  0.94864000  1.0
  H  H4  1  0.37849000  0.42990000  0.86972000  1.0
  H  H5  1  0.62150000  0.57010000  0.13028000  1.0
  H  H6  1  0.03578000  0.63271000  0.68769000  1.0
  H  H7  1  0.96421000  0.36728000  0.31231000  1.0
  H  H8  1  0.13417000  0.59752000  0.37583000  1.0
  H  H9  1  0.86583000  0.40248000  0.62417000  1.0
  H  H10  1  0.02354000  0.72721000  0.19513000  1.0
  H  H11  1  0.97646000  0.27278000  0.80487000  1.0
  H  H12  1  0.38339000  0.37080000  0.04898000  1.0
  H  H13  1  0.61662000  0.62920000  0.95102000  1.0
  H  H14  1  0.55872000  0.37581000  0.68074000  1.0
  H  H15  1  0.44128000  0.62418000  0.31926000  1.0
  H  H16  1  0.65284000  0.26385000  0.45037000  1.0
  H  H17  1  0.34716000  0.73615000  0.54964000  1.0
  H  H18  1  0.14652000  0.47249000  0.56211000  1.0
  H  H19  1  0.85348000  0.52751000  0.43788000  1.0
  H  H20  1  0.82048000  0.09092000  0.87545000  1.0
  H  H21  1  0.17952000  0.90907000  0.12456000  1.0
  H  H22  1  0.10207000  0.93360000  0.77891000  1.0
  H  H23  1  0.89793000  0.06640000  0.22109000  1.0
  H  H24  1  0.26814000  0.96668000  0.32662000  1.0
  H  H25  1  0.73186000  0.03332000  0.67338000  1.0
  H  H26  1  0.14697000  0.78768000  0.39604000  1.0
  H  H27  1  0.85304000  0.21233000  0.60395000  1.0
  C  C28  1  0.01337000  0.66808000  0.97069000  1.0
  C  C29  1  0.98662000  0.33191000  0.02931000  1.0
  C  C30  1  0.15906000  0.57762000  0.97447000  1.0
  C  C31  1  0.84094000  0.42239000  0.02554000  1.0
  C  C32  1  0.26534000  0.50213000  0.86937000  1.0
  C  C33  1  0.73466000  0.49787000  0.13063000  1.0
  C  C34  1  0.22045000  0.52092000  0.76505000  1.0
  C  C35  1  0.77955000  0.47907000  0.23495000  1.0
  C  C36  1  0.07312000  0.61472000  0.76864000  1.0
  C  C37  1  0.92687000  0.38528000  0.23136000  1.0
  C  C38  1  0.17296000  0.57021000  0.27932000  1.0
  C  C39  1  0.82703000  0.42979000  0.72068000  1.0
  C  C40  1  0.11174000  0.63425000  0.19186000  1.0
  C  C41  1  0.88825000  0.36575000  0.80814000  1.0
  C  C42  1  0.30145000  0.45129000  0.11074000  1.0
  C  C43  1  0.69855000  0.54871000  0.88926000  1.0
  C  C44  1  0.48839000  0.37799000  0.62256000  1.0
  C  C45  1  0.51161000  0.62201000  0.37744000  1.0
  C  C46  1  0.53399000  0.32448000  0.50847000  1.0
  C  C47  1  0.46601000  0.67552000  0.49153000  1.0
  C  C48  1  0.27172000  0.43160000  0.56148000  1.0
  C  C49  1  0.72828000  0.56840000  0.43852000  1.0
  C  C50  1  0.84355000  0.08815000  0.05338000  1.0
  C  C51  1  0.15646000  0.91185000  0.94663000  1.0
  C  C52  1  0.90098000  0.05095000  0.92867000  1.0
  C  C53  1  0.09903000  0.94905000  0.07133000  1.0
  C  C54  1  0.05659000  0.96383000  0.87541000  1.0
  C  C55  1  0.94341000  0.03616000  0.12459000  1.0
  C  C56  1  0.67680000  0.18453000  0.10805000  1.0
  C  C57  1  0.32320000  0.81547000  0.89195000  1.0
  C  C58  1  0.06738000  0.09990000  0.46097000  1.0
  C  C59  1  0.93262000  0.90010000  0.53903000  1.0
  C  C60  1  0.15090000  0.97989000  0.40241000  1.0
  C  C61  1  0.84910000  0.02011000  0.59759000  1.0
  C  C62  1  0.08368000  0.88102000  0.44138000  1.0
  C  C63  1  0.91633000  0.11898000  0.55861000  1.0
  C  C64  1  0.14114000  0.20601000  0.42032000  1.0
  C  C65  1  0.85886000  0.79400000  0.57968000  1.0
  N  N66  1  0.97183000  0.68572000  0.86992000  1.0
  N  N67  1  0.02816000  0.31428000  0.13008000  1.0
  N  N68  1  0.29158000  0.45687000  0.22702000  1.0
  N  N69  1  0.70842000  0.54314000  0.77297000  1.0
  N  N70  1  0.19365000  0.55774000  0.08516000  1.0
  N  N71  1  0.80634000  0.44226000  0.91484000  1.0
  N  N72  1  0.39806000  0.35896000  0.47175000  1.0
  N  N73  1  0.60194000  0.64104000  0.52825000  1.0
  N  N74  1  0.32158000  0.44640000  0.65561000  1.0
  N  N75  1  0.67842000  0.55359000  0.34439000  1.0
  O  O76  1  0.63394000  0.21448000  0.22399000  1.0
  O  O77  1  0.36607000  0.78552000  0.77602000  1.0
  O  O78  1  0.59130000  0.23065000  0.04191000  1.0
  O  O79  1  0.40870000  0.76936000  0.95809000  1.0
  O  O80  1  0.29206000  0.17242000  0.34558000  1.0
  O  O81  1  0.70794000  0.82759000  0.65442000  1.0
  O  O82  1  0.05676000  0.31835000  0.45924000  1.0
  O  O83  1  0.94324000  0.68166000  0.54077000  1.0
