# generated using pymatgen
data_Cu3H7C6(NCl)3
_symmetry_space_group_name_H-M   'P 1'
_cell_length_a   3.78339000
_cell_length_b   13.85410000
_cell_length_c   19.48620000
_cell_angle_alpha   98.40830000
_cell_angle_beta   90.00980000
_cell_angle_gamma   97.81930000
_symmetry_Int_Tables_number   1
_chemical_formula_structural   Cu3H7C6(NCl)3
_chemical_formula_sum   'Cu12 H28 C24 N12 Cl12'
_cell_volume   1000.79513393
_cell_formula_units_Z   4
loop_
 _symmetry_equiv_pos_site_id
 _symmetry_equiv_pos_as_xyz
  1  'x, y, z'
loop_
 _atom_site_type_symbol
 _atom_site_label
 _atom_site_symmetry_multiplicity
 _atom_site_fract_x
 _atom_site_fract_y
 _atom_site_fract_z
 _atom_site_occupancy
  Cu  Cu0  1  0.15618000  0.56978000  0.05313000  1.0
  Cu  Cu1  1  0.58785000  0.43028000  0.44687000  1.0
  Cu  Cu2  1  0.84376000  0.43021000  0.94687000  1.0
  Cu  Cu3  1  0.41218000  0.56973000  0.55314000  1.0
  Cu  Cu4  1  0.93007000  0.83003000  0.16076000  1.0
  Cu  Cu5  1  0.10107000  0.16977000  0.33876000  1.0
  Cu  Cu6  1  0.06995000  0.16997000  0.83924000  1.0
  Cu  Cu7  1  0.89893000  0.83023000  0.66124000  1.0
  Cu  Cu8  1  0.49741000  0.96118000  0.18287000  1.0
  Cu  Cu9  1  0.53707000  0.03856000  0.31691000  1.0
  Cu  Cu10  1  0.50260000  0.03882000  0.81713000  1.0
  Cu  Cu11  1  0.46295000  0.96144000  0.68309000  1.0
  H  H12  1  0.45129000  0.77716000  0.05362000  1.0
  H  H13  1  0.67463000  0.22289000  0.44627000  1.0
  H  H14  1  0.54867000  0.22283000  0.94638000  1.0
  H  H15  1  0.32537000  0.77712000  0.55373000  1.0
  H  H16  1  0.39896000  0.90291000  0.97421000  1.0
  H  H17  1  0.49657000  0.09700000  0.52551000  1.0
  H  H18  1  0.60098000  0.09709000  0.02579000  1.0
  H  H19  1  0.50341000  0.90300000  0.47449000  1.0
  H  H20  1  0.06600000  0.84334000  0.85828000  1.0
  H  H21  1  0.22394000  0.15645000  0.64153000  1.0
  H  H22  1  0.93394000  0.15665000  0.14171000  1.0
  H  H23  1  0.77608000  0.84355000  0.35847000  1.0
  H  H24  1  0.80268000  0.48768000  0.79485000  1.0
  H  H25  1  0.31375000  0.51213000  0.70516000  1.0
  H  H26  1  0.19730000  0.51231000  0.20515000  1.0
  H  H27  1  0.68628000  0.48787000  0.29484000  1.0
  H  H28  1  0.40438000  0.52011000  0.83272000  1.0
  H  H29  1  0.88355000  0.47938000  0.66719000  1.0
  H  H30  1  0.59560000  0.47987000  0.16727000  1.0
  H  H31  1  0.11649000  0.52063000  0.33282000  1.0
  H  H32  1  0.56588000  0.68512000  0.80385000  1.0
  H  H33  1  0.88221000  0.31452000  0.69617000  1.0
  H  H34  1  0.43409000  0.31486000  0.19614000  1.0
  H  H35  1  0.11784000  0.68548000  0.30383000  1.0
  H  H36  1  0.97615000  0.65438000  0.77181000  1.0
  H  H37  1  0.32336000  0.34546000  0.72808000  1.0
  H  H38  1  0.02384000  0.34561000  0.22819000  1.0
  H  H39  1  0.67669000  0.65455000  0.27193000  1.0
  C  C40  1  0.99783000  0.63173000  0.92562000  1.0
  C  C41  1  0.36646000  0.36821000  0.57432000  1.0
  C  C42  1  0.00215000  0.36826000  0.07438000  1.0
  C  C43  1  0.63356000  0.63179000  0.42568000  1.0
  C  C44  1  0.31144000  0.75665000  0.00353000  1.0
  C  C45  1  0.55526000  0.24335000  0.49634000  1.0
  C  C46  1  0.68850000  0.24335000  0.99646000  1.0
  C  C47  1  0.44477000  0.75666000  0.50366000  1.0
  C  C48  1  0.28532000  0.82651000  0.95922000  1.0
  C  C49  1  0.45946000  0.17339000  0.54057000  1.0
  C  C50  1  0.71463000  0.17349000  0.04078000  1.0
  C  C51  1  0.54055000  0.82661000  0.45943000  1.0
  C  C52  1  0.10719000  0.79561000  0.89636000  1.0
  C  C53  1  0.31275000  0.20423000  0.60349000  1.0
  C  C54  1  0.89278000  0.20439000  0.10364000  1.0
  C  C55  1  0.68727000  0.79577000  0.39652000  1.0
  C  C56  1  0.69352000  0.54280000  0.83219000  1.0
  C  C57  1  0.15034000  0.45692000  0.66778000  1.0
  C  C58  1  0.30647000  0.45720000  0.16780000  1.0
  C  C59  1  0.84970000  0.54308000  0.33222000  1.0
  C  C60  1  0.79433000  0.64892000  0.81553000  1.0
  C  C61  1  0.14637000  0.35081000  0.68441000  1.0
  C  C62  1  0.20566000  0.35107000  0.18447000  1.0
  C  C63  1  0.85368000  0.64920000  0.31559000  1.0
  N  N64  1  0.17299000  0.66128000  0.98822000  1.0
  N  N65  1  0.51225000  0.33873000  0.51172000  1.0
  N  N66  1  0.82699000  0.33872000  0.01178000  1.0
  N  N67  1  0.48777000  0.66128000  0.48828000  1.0
  N  N68  1  0.84546000  0.54250000  0.90188000  1.0
  N  N69  1  0.30288000  0.45741000  0.59814000  1.0
  N  N70  1  0.15453000  0.45750000  0.09812000  1.0
  N  N71  1  0.69715000  0.54260000  0.40187000  1.0
  N  N72  1  0.97315000  0.69967000  0.88050000  1.0
  N  N73  1  0.27436000  0.30017000  0.61940000  1.0
  N  N74  1  0.02681000  0.30032000  0.11950000  1.0
  N  N75  1  0.72566000  0.69983000  0.38060000  1.0
  Cl  Cl76  1  0.75228000  0.67094000  0.13892000  1.0
  Cl  Cl77  1  0.07886000  0.32883000  0.36129000  1.0
  Cl  Cl78  1  0.24771000  0.32906000  0.86108000  1.0
  Cl  Cl79  1  0.92119000  0.67118000  0.63871000  1.0
  Cl  Cl80  1  0.90590000  0.95514000  0.09982000  1.0
  Cl  Cl81  1  0.95107000  0.04498000  0.40008000  1.0
  Cl  Cl82  1  0.09411000  0.04486000  0.90017000  1.0
  Cl  Cl83  1  0.04894000  0.95501000  0.59992000  1.0
  Cl  Cl84  1  0.28360000  0.87194000  0.26641000  1.0
  Cl  Cl85  1  0.41255000  0.12815000  0.23340000  1.0
  Cl  Cl86  1  0.71641000  0.12806000  0.73359000  1.0
  Cl  Cl87  1  0.58744000  0.87185000  0.76660000  1.0
