# generated using pymatgen
data_NdAgH10C20(N3O4)2
_symmetry_space_group_name_H-M   'P 1'
_cell_length_a   9.22132000
_cell_length_b   11.18530000
_cell_length_c   11.18530000
_cell_angle_alpha   100.64900000
_cell_angle_beta   106.42900000
_cell_angle_gamma   106.42900000
_symmetry_Int_Tables_number   1
_chemical_formula_structural   NdAgH10C20(N3O4)2
_chemical_formula_sum   'Nd2 Ag2 H20 C40 N12 O16'
_cell_volume   1016.49427054
_cell_formula_units_Z   2
loop_
 _symmetry_equiv_pos_site_id
 _symmetry_equiv_pos_as_xyz
  1  'x, y, z'
loop_
 _atom_site_type_symbol
 _atom_site_label
 _atom_site_symmetry_multiplicity
 _atom_site_fract_x
 _atom_site_fract_y
 _atom_site_fract_z
 _atom_site_occupancy
  Nd  Nd0  1  0.25000000  0.59376000  0.40624000  1.0
  Nd  Nd1  1  0.75000000  0.40624000  0.59376000  1.0
  Ag  Ag2  1  0.25000000  0.86498000  0.13502000  1.0
  Ag  Ag3  1  0.75000000  0.13502000  0.86499000  1.0
  H  H4  1  0.12583000  0.56326000  0.93139000  1.0
  H  H5  1  0.37416000  0.06861000  0.43674000  1.0
  H  H6  1  0.87417000  0.43674000  0.06861000  1.0
  H  H7  1  0.62584000  0.93140000  0.56326000  1.0
  H  H8  1  0.62986000  0.67974000  0.16195000  1.0
  H  H9  1  0.87014000  0.83804000  0.32026000  1.0
  H  H10  1  0.37014000  0.32026000  0.83805000  1.0
  H  H11  1  0.12986000  0.16195000  0.67974000  1.0
  H  H12  1  0.48132000  0.65122000  0.75007000  1.0
  H  H13  1  0.01867000  0.24992000  0.34878000  1.0
  H  H14  1  0.51867000  0.34878000  0.24992000  1.0
  H  H15  1  0.98133000  0.75008000  0.65122000  1.0
  H  H16  1  0.87906000  0.67062000  0.12550000  1.0
  H  H17  1  0.62093000  0.87450000  0.32937000  1.0
  H  H18  1  0.12094000  0.32937000  0.87450000  1.0
  H  H19  1  0.37907000  0.12550000  0.67063000  1.0
  H  H20  1  0.71158000  0.83215000  0.82305000  1.0
  H  H21  1  0.78842000  0.17695000  0.16785000  1.0
  H  H22  1  0.28842000  0.16785000  0.17695000  1.0
  H  H23  1  0.21158000  0.82305000  0.83215000  1.0
  C  C24  1  0.25187000  0.59167000  0.93821000  1.0
  C  C25  1  0.24812000  0.06179000  0.40834000  1.0
  C  C26  1  0.74813000  0.40834000  0.06179000  1.0
  C  C27  1  0.75188000  0.93821000  0.59167000  1.0
  C  C28  1  0.37446000  0.61711000  0.05737000  1.0
  C  C29  1  0.12553000  0.94263000  0.38289000  1.0
  C  C30  1  0.62553000  0.38289000  0.94263000  1.0
  C  C31  1  0.87447000  0.05737000  0.61711000  1.0
  C  C32  1  0.53671000  0.65893000  0.06769000  1.0
  C  C33  1  0.96329000  0.93231000  0.34107000  1.0
  C  C34  1  0.46329000  0.34107000  0.93231000  1.0
  C  C35  1  0.03671000  0.06769000  0.65893000  1.0
  C  C36  1  0.57451000  0.67433000  0.95814000  1.0
  C  C37  1  0.92549000  0.04186000  0.32567000  1.0
  C  C38  1  0.42549000  0.32567000  0.04186000  1.0
  C  C39  1  0.07452000  0.95814000  0.67433000  1.0
  C  C40  1  0.45336000  0.64328000  0.83739000  1.0
  C  C41  1  0.04664000  0.16261000  0.35671000  1.0
  C  C42  1  0.54664000  0.35671000  0.16261000  1.0
  C  C43  1  0.95336000  0.83739000  0.64329000  1.0
  C  C44  1  0.29158000  0.60344000  0.82803000  1.0
  C  C45  1  0.20842000  0.17197000  0.39656000  1.0
  C  C46  1  0.70842000  0.39656000  0.17197000  1.0
  C  C47  1  0.79158000  0.82803000  0.60344000  1.0
  C  C48  1  0.87536000  0.72369000  0.05335000  1.0
  C  C49  1  0.62464000  0.94664000  0.27631000  1.0
  C  C50  1  0.12464000  0.27631000  0.94665000  1.0
  C  C51  1  0.37536000  0.05336000  0.72369000  1.0
  C  C52  1  0.79248000  0.80628000  0.89625000  1.0
  C  C53  1  0.70752000  0.10374000  0.19371000  1.0
  C  C54  1  0.20752000  0.19372000  0.10375000  1.0
  C  C55  1  0.29248000  0.89625000  0.80629000  1.0
  C  C56  1  0.33409000  0.60675000  0.17689000  1.0
  C  C57  1  0.16591000  0.82311000  0.39325000  1.0
  C  C58  1  0.66591000  0.39325000  0.82311000  1.0
  C  C59  1  0.83410000  0.17689000  0.60675000  1.0
  C  C60  1  0.16221000  0.58392000  0.70072000  1.0
  C  C61  1  0.33779000  0.29927000  0.41608000  1.0
  C  C62  1  0.83780000  0.41608000  0.29927000  1.0
  C  C63  1  0.66220000  0.70073000  0.58392000  1.0
  N  N64  1  0.73915000  0.72913000  0.96907000  1.0
  N  N65  1  0.76085000  0.03092000  0.27087000  1.0
  N  N66  1  0.26085000  0.27087000  0.03093000  1.0
  N  N67  1  0.23915000  0.96907000  0.72913000  1.0
  N  N68  1  0.00208000  0.79322000  0.03133000  1.0
  N  N69  1  0.49792000  0.96867000  0.20678000  1.0
  N  N70  1  0.99792000  0.20678000  0.96868000  1.0
  N  N71  1  0.50209000  0.03132000  0.79322000  1.0
  N  N72  1  0.95058000  0.84555000  0.93167000  1.0
  N  N73  1  0.54942000  0.06834000  0.15445000  1.0
  N  N74  1  0.04942000  0.15446000  0.06834000  1.0
  N  N75  1  0.45058000  0.93166000  0.84555000  1.0
  O  O76  1  0.18637000  0.57987000  0.16860000  1.0
  O  O77  1  0.31363000  0.83140000  0.42014000  1.0
  O  O78  1  0.81363000  0.42014000  0.83140000  1.0
  O  O79  1  0.68638000  0.16860000  0.57986000  1.0
  O  O80  1  0.44784000  0.62693000  0.28314000  1.0
  O  O81  1  0.05216000  0.71686000  0.37307000  1.0
  O  O82  1  0.55216000  0.37307000  0.71686000  1.0
  O  O83  1  0.94785000  0.28315000  0.62693000  1.0
  O  O84  1  0.02043000  0.56683000  0.70107000  1.0
  O  O85  1  0.47957000  0.29893000  0.43317000  1.0
  O  O86  1  0.97956000  0.43316000  0.29893000  1.0
  O  O87  1  0.52043000  0.70106000  0.56683000  1.0
  O  O88  1  0.20506000  0.59333000  0.60380000  1.0
  O  O89  1  0.29494000  0.39620000  0.40667000  1.0
  O  O90  1  0.79494000  0.40667000  0.39620000  1.0
  O  O91  1  0.70506000  0.60380000  0.59333000  1.0
