# generated using pymatgen
data_Al3H16C40Br4O17
_symmetry_space_group_name_H-M   'P 1'
_cell_length_a   12.07820000
_cell_length_b   12.39330000
_cell_length_c   28.73560000
_cell_angle_alpha   89.58390000
_cell_angle_beta   88.12170000
_cell_angle_gamma   118.24240000
_symmetry_Int_Tables_number   1
_chemical_formula_structural   Al3H16C40Br4O17
_chemical_formula_sum   'Al6 H32 C80 Br8 O34'
_cell_volume   3786.02720532
_cell_formula_units_Z   2
loop_
 _symmetry_equiv_pos_site_id
 _symmetry_equiv_pos_as_xyz
  1  'x, y, z'
loop_
 _atom_site_type_symbol
 _atom_site_label
 _atom_site_symmetry_multiplicity
 _atom_site_fract_x
 _atom_site_fract_y
 _atom_site_fract_z
 _atom_site_occupancy
  Al  Al0  1  0.60165000  0.40962000  0.49931000  1.0
  Al  Al1  1  0.58185000  0.66052000  0.49761000  1.0
  Al  Al2  1  0.34206000  0.42310000  0.50026000  1.0
  Al  Al3  1  0.06761000  0.92300000  0.00000000  1.0
  Al  Al4  1  0.32933000  0.91387000  0.99836000  1.0
  Al  Al5  1  0.09081000  0.67506000  0.99760000  1.0
  H  H6  1  0.52383000  0.75609000  0.20949000  1.0
  H  H7  1  0.54561000  0.24875000  0.28634000  1.0
  H  H8  1  0.87010000  0.49504000  0.21100000  1.0
  H  H9  1  0.53219000  0.30696000  0.70372000  1.0
  H  H10  1  0.53147000  0.29322000  0.79030000  1.0
  H  H11  1  0.13806000  0.02406000  0.79296000  1.0
  H  H12  1  0.60391000  0.61483000  0.72571000  1.0
  H  H13  1  0.64719000  0.62866000  0.81022000  1.0
  H  H14  1  0.98720000  0.69468000  0.69263000  1.0
  H  H15  1  0.10962000  0.57347000  0.29121000  1.0
  H  H16  1  0.15231000  0.15381000  0.29348000  1.0
  H  H17  1  0.53255000  0.20960000  0.20099000  1.0
  H  H18  1  0.69002000  0.89119000  0.33244000  1.0
  H  H19  1  0.65948000  0.73731000  0.34433000  1.0
  H  H20  1  0.59811000  0.77194000  0.29364000  1.0
  H  H21  1  0.25058000  0.33906000  0.72928000  1.0
  H  H22  1  0.31428000  0.41301000  0.67322000  1.0
  H  H23  1  0.15359000  0.29607000  0.67951000  1.0
  H  H24  1  0.37831000  0.92140000  0.82765000  1.0
  H  H25  1  0.43870000  0.99697000  0.77166000  1.0
  H  H26  1  0.53572000  0.04471000  0.82147000  1.0
  H  H27  1  0.49706000  0.99907000  0.22564000  1.0
  H  H28  1  0.61884000  0.95933000  0.23762000  1.0
  H  H29  1  0.59944000  0.06872000  0.27272000  1.0
  H  H30  1  0.54516000  0.57885000  0.20837000  1.0
  H  H31  1  0.40783000  0.43113000  0.20798000  1.0
  H  H32  1  0.53739000  0.45413000  0.24287000  1.0
  H  H33  1  0.24490000  0.91531000  0.29056000  1.0
  H  H34  1  0.10335000  0.77108000  0.29567000  1.0
  H  H35  1  0.10906000  0.89173000  0.25916000  1.0
  H  H36  1  0.72736000  0.32536000  0.47098000  1.0
  H  H37  1  0.97130000  0.03421000  0.03048000  1.0
  C  C38  1  0.74398000  0.63392000  0.43535000  1.0
  C  C39  1  0.35886000  0.63568000  0.38768000  1.0
  C  C40  1  0.26107000  0.73812000  0.24255000  1.0
  C  C41  1  0.30534000  0.67534000  0.20319000  1.0
  C  C42  1  0.20170000  0.61615000  0.27302000  1.0
  C  C43  1  0.32926000  0.65864000  0.29840000  1.0
  C  C44  1  0.24326000  0.55361000  0.23469000  1.0
  C  C45  1  0.37334000  0.59608000  0.25879000  1.0
  C  C46  1  0.29690000  0.68657000  0.15467000  1.0
  C  C47  1  0.34346000  0.64704000  0.34652000  1.0
  C  C48  1  0.36785000  0.25004000  0.38482000  1.0
  C  C49  1  0.38757000  0.61208000  0.43349000  1.0
  C  C50  1  0.23541000  0.16584000  0.27329000  1.0
  C  C51  1  0.22846000  0.14133000  0.22613000  1.0
  C  C52  1  0.44984000  0.19689000  0.22171000  1.0
  C  C53  1  0.45727000  0.21890000  0.26898000  1.0
  C  C54  1  0.35001000  0.20402000  0.29540000  1.0
  C  C55  1  0.33543000  0.15704000  0.19900000  1.0
  C  C56  1  0.32700000  0.13011000  0.15124000  1.0
  C  C57  1  0.35789000  0.22770000  0.34351000  1.0
  C  C58  1  0.31487000  0.10293000  0.11037000  1.0
  C  C59  1  0.80052000  0.66203000  0.38908000  1.0
  C  C60  1  0.39488000  0.29558000  0.43119000  1.0
  C  C61  1  0.83902000  0.56522000  0.27581000  1.0
  C  C62  1  0.85010000  0.56267000  0.22781000  1.0
  C  C63  1  0.80906000  0.73690000  0.22159000  1.0
  C  C64  1  0.80447000  0.74414000  0.27014000  1.0
  C  C65  1  0.82018000  0.65713000  0.29811000  1.0
  C  C66  1  0.83626000  0.64945000  0.19999000  1.0
  C  C67  1  0.85347000  0.65076000  0.15129000  1.0
  C  C68  1  0.81378000  0.66206000  0.34686000  1.0
  C  C69  1  0.87671000  0.66091000  0.10947000  1.0
  C  C70  1  0.36249000  0.64243000  0.61024000  1.0
  C  C71  1  0.70998000  0.61285000  0.56709000  1.0
  C  C72  1  0.27034000  0.56140000  0.72852000  1.0
  C  C73  1  0.27018000  0.56608000  0.77715000  1.0
  C  C74  1  0.43404000  0.78082000  0.77224000  1.0
  C  C75  1  0.43586000  0.77539000  0.72359000  1.0
  C  C76  1  0.35513000  0.66612000  0.70108000  1.0
  C  C77  1  0.35013000  0.67564000  0.79965000  1.0
  C  C78  1  0.34239000  0.68637000  0.84839000  1.0
  C  C79  1  0.35842000  0.65611000  0.65217000  1.0
  C  C80  1  0.33116000  0.69985000  0.88999000  1.0
  C  C81  1  0.34512000  0.21749000  0.60926000  1.0
  C  C82  1  0.38467000  0.61549000  0.56345000  1.0
  C  C83  1  0.44662000  0.24534000  0.72368000  1.0
  C  C84  1  0.44611000  0.23808000  0.77181000  1.0
  C  C85  1  0.22388000  0.08606000  0.77333000  1.0
  C  C86  1  0.22537000  0.09459000  0.72514000  1.0
  C  C87  1  0.33640000  0.17429000  0.69921000  1.0
  C  C88  1  0.33472000  0.15754000  0.79717000  1.0
  C  C89  1  0.33139000  0.14015000  0.84597000  1.0
  C  C90  1  0.33847000  0.19167000  0.65059000  1.0
  C  C91  1  0.32147000  0.11404000  0.88739000  1.0
  C  C92  1  0.75042000  0.63834000  0.61414000  1.0
  C  C93  1  0.37366000  0.27332000  0.56345000  1.0
  C  C94  1  0.69659000  0.63462000  0.73717000  1.0
  C  C95  1  0.72066000  0.64248000  0.78418000  1.0
  C  C96  1  0.93599000  0.68906000  0.76539000  1.0
  C  C97  1  0.91276000  0.67980000  0.71830000  1.0
  C  C98  1  0.79250000  0.65308000  0.70368000  1.0
  C  C99  1  0.84091000  0.66994000  0.79948000  1.0
  C  C100  1  0.86693000  0.67995000  0.84721000  1.0
  C  C101  1  0.76962000  0.64561000  0.65560000  1.0
  C  C102  1  0.89440000  0.69052000  0.88790000  1.0
  C  C103  1  0.28476000  0.05011000  0.06513000  1.0
  C  C104  1  0.39195000  0.78110000  0.26720000  1.0
  C  C105  1  0.27380000  0.72122000  0.06532000  1.0
  C  C106  1  0.93353000  0.69875000  0.06347000  1.0
  C  C107  1  0.29026000  0.05745000  0.93318000  1.0
  C  C108  1  0.29878000  0.72577000  0.93548000  1.0
  C  C109  1  0.94949000  0.71712000  0.93275000  1.0
  C  C110  1  0.43278000  0.71717000  0.22838000  1.0
  C  C111  1  0.29208000  0.69812000  0.11270000  1.0
  C  C112  1  0.67704000  0.80597000  0.31689000  1.0
  C  C113  1  0.23005000  0.37195000  0.69673000  1.0
  C  C114  1  0.46227000  0.96651000  0.80413000  1.0
  C  C115  1  0.55003000  0.98456000  0.25323000  1.0
  C  C116  1  0.48294000  0.49639000  0.22948000  1.0
  C  C117  1  0.16343000  0.84860000  0.27193000  1.0
  Br  Br118  1  0.84966000  0.44267000  0.31242000  1.0
  Br  Br119  1  0.77433000  0.84250000  0.18406000  1.0
  Br  Br120  1  0.15790000  0.42628000  0.81284000  1.0
  Br  Br121  1  0.54699000  0.91591000  0.68793000  1.0
  Br  Br122  1  0.07511000  0.00025000  0.69382000  1.0
  Br  Br123  1  0.10091000  0.73243000  0.78378000  1.0
  Br  Br124  1  0.13725000  0.39360000  0.21260000  1.0
  Br  Br125  1  0.07014000  0.07685000  0.19877000  1.0
  O  O126  1  0.50286000  0.32274000  0.44511000  1.0
  O  O127  1  0.48407000  0.69560000  0.54127000  1.0
  O  O128  1  0.30780000  0.51072000  0.54812000  1.0
  O  O129  1  0.29243000  0.30060000  0.54619000  1.0
  O  O130  1  0.50801000  0.49904000  0.49887000  1.0
  O  O131  1  0.96270000  0.80698000  0.05097000  1.0
  O  O132  1  0.17716000  0.02283000  0.05080000  1.0
  O  O133  1  0.36945000  0.03090000  0.04385000  1.0
  O  O134  1  0.35666000  0.82110000  0.04543000  1.0
  O  O135  1  0.17264000  0.64276000  0.04710000  1.0
  O  O136  1  0.95534000  0.62161000  0.04032000  1.0
  O  O137  1  0.72214000  0.53213000  0.45311000  1.0
  O  O138  1  0.96537000  0.81496000  0.95140000  1.0
  O  O139  1  0.18218000  0.02992000  0.95008000  1.0
  O  O140  1  0.37293000  0.03455000  0.95178000  1.0
  O  O141  1  0.37249000  0.82974000  0.95237000  1.0
  O  O142  1  0.19455000  0.64564000  0.95474000  1.0
  O  O143  1  0.98251000  0.63959000  0.94881000  1.0
  O  O144  1  0.16352000  0.83656000  0.99865000  1.0
  O  O145  1  0.71315000  0.71179000  0.45311000  1.0
  O  O146  1  0.49451000  0.68836000  0.44868000  1.0
  O  O147  1  0.30712000  0.51374000  0.45513000  1.0
  O  O148  1  0.30805000  0.30879000  0.45375000  1.0
  O  O149  1  0.47905000  0.29660000  0.54507000  1.0
  O  O150  1  0.68993000  0.51023000  0.55192000  1.0
  O  O151  1  0.69360000  0.69542000  0.54550000  1.0
  O  O152  1  0.79201000  0.83726000  0.28967000  1.0
  O  O153  1  0.18647000  0.46000000  0.70662000  1.0
  O  O154  1  0.51367000  0.88445000  0.79414000  1.0
  O  O155  1  0.46694000  0.89212000  0.28653000  1.0
  O  O156  1  0.43087000  0.52785000  0.26979000  1.0
  O  O157  1  0.20365000  0.80656000  0.23133000  1.0
  O  O158  1  0.68493000  0.32640000  0.49993000  1.0
  O  O159  1  0.97966000  0.00163000  0.00090000  1.0
