# generated using pymatgen
data_CaH10(CO)8
_symmetry_space_group_name_H-M   'P 1'
_cell_length_a   6.57103000
_cell_length_b   9.23973000
_cell_length_c   18.68430000
_cell_angle_alpha   90.00010000
_cell_angle_beta   90.00010000
_cell_angle_gamma   74.30800000
_symmetry_Int_Tables_number   1
_chemical_formula_structural   CaH10(CO)8
_chemical_formula_sum   'Ca4 H40 C32 O32'
_cell_volume   1092.12877806
_cell_formula_units_Z   4
loop_
 _symmetry_equiv_pos_site_id
 _symmetry_equiv_pos_as_xyz
  1  'x, y, z'
loop_
 _atom_site_type_symbol
 _atom_site_label
 _atom_site_symmetry_multiplicity
 _atom_site_fract_x
 _atom_site_fract_y
 _atom_site_fract_z
 _atom_site_occupancy
  Ca  Ca0  1  0.40367000  0.81018000  0.51474000  1.0
  Ca  Ca1  1  0.09633000  0.18982000  0.01474000  1.0
  Ca  Ca2  1  0.59633000  0.18982000  0.48526000  1.0
  Ca  Ca3  1  0.90367000  0.81017000  0.98526000  1.0
  H  H4  1  0.56433000  0.35314000  0.19869000  1.0
  H  H5  1  0.93566000  0.64686000  0.69869000  1.0
  H  H6  1  0.43566000  0.64686000  0.80131000  1.0
  H  H7  1  0.06434000  0.35314000  0.30131000  1.0
  H  H8  1  0.73548000  0.52436000  0.50679000  1.0
  H  H9  1  0.76452000  0.47564000  0.00679000  1.0
  H  H10  1  0.26453000  0.47564000  0.49321000  1.0
  H  H11  1  0.23548000  0.52436000  0.99321000  1.0
  H  H12  1  0.81583000  0.59648000  0.57442000  1.0
  H  H13  1  0.68417000  0.40352000  0.07442000  1.0
  H  H14  1  0.18417000  0.40352000  0.42559000  1.0
  H  H15  1  0.31583000  0.59648000  0.92559000  1.0
  H  H16  1  0.16565000  0.96904000  0.26124000  1.0
  H  H17  1  0.33435000  0.03097000  0.76124000  1.0
  H  H18  1  0.83435000  0.03096000  0.73876000  1.0
  H  H19  1  0.66565000  0.96903000  0.23876000  1.0
  H  H20  1  0.36138000  0.66586000  0.08358000  1.0
  H  H21  1  0.13863000  0.33414000  0.58358000  1.0
  H  H22  1  0.63863000  0.33414000  0.91642000  1.0
  H  H23  1  0.86137000  0.66586000  0.41642000  1.0
  H  H24  1  0.46168000  0.49989000  0.30034000  1.0
  H  H25  1  0.03831000  0.50011000  0.80034000  1.0
  H  H26  1  0.53831000  0.50011000  0.69966000  1.0
  H  H27  1  0.96169000  0.49989000  0.19966000  1.0
  H  H28  1  0.43476000  0.50102000  0.58743000  1.0
  H  H29  1  0.06524000  0.49898000  0.08743000  1.0
  H  H30  1  0.56524000  0.49898000  0.41257000  1.0
  H  H31  1  0.93476000  0.50102000  0.91257000  1.0
  H  H32  1  0.20080000  0.61451000  0.59754000  1.0
  H  H33  1  0.29920000  0.38549000  0.09754000  1.0
  H  H34  1  0.79920000  0.38550000  0.40246000  1.0
  H  H35  1  0.70080000  0.61450000  0.90246000  1.0
  H  H36  1  0.92181000  0.85113000  0.50863000  1.0
  H  H37  1  0.57819000  0.14887000  0.00863000  1.0
  H  H38  1  0.07818000  0.14887000  0.49137000  1.0
  H  H39  1  0.42181000  0.85113000  0.99137000  1.0
  H  H40  1  0.95383000  0.94091000  0.57526000  1.0
  H  H41  1  0.54617000  0.05909000  0.07526000  1.0
  H  H42  1  0.04617000  0.05909000  0.42474000  1.0
  H  H43  1  0.45383000  0.94091000  0.92474000  1.0
  C  C44  1  0.31257000  0.73780000  0.28874000  1.0
  C  C45  1  0.18743000  0.26220000  0.78874000  1.0
  C  C46  1  0.68743000  0.26220000  0.71126000  1.0
  C  C47  1  0.81257000  0.73780000  0.21126000  1.0
  C  C48  1  0.23695000  0.85641000  0.24094000  1.0
  C  C49  1  0.26305000  0.14359000  0.74094000  1.0
  C  C50  1  0.76306000  0.14359000  0.75906000  1.0
  C  C51  1  0.73695000  0.85641000  0.25906000  1.0
  C  C52  1  0.25321000  0.83022000  0.16726000  1.0
  C  C53  1  0.24678000  0.16978000  0.66726000  1.0
  C  C54  1  0.74679000  0.16978000  0.83274000  1.0
  C  C55  1  0.75321000  0.83022000  0.33274000  1.0
  C  C56  1  0.34812000  0.68564000  0.14114000  1.0
  C  C57  1  0.15188000  0.31436000  0.64114000  1.0
  C  C58  1  0.65188000  0.31436000  0.85886000  1.0
  C  C59  1  0.84812000  0.68564000  0.35886000  1.0
  C  C60  1  0.42256000  0.56833000  0.18934000  1.0
  C  C61  1  0.07744000  0.43168000  0.68934000  1.0
  C  C62  1  0.57744000  0.43167000  0.81066000  1.0
  C  C63  1  0.92256000  0.56833000  0.31066000  1.0
  C  C64  1  0.40432000  0.59245000  0.26281000  1.0
  C  C65  1  0.09568000  0.40755000  0.76281000  1.0
  C  C66  1  0.59568000  0.40755000  0.73719000  1.0
  C  C67  1  0.90432000  0.59245000  0.23719000  1.0
  C  C68  1  0.30421000  0.76641000  0.36764000  1.0
  C  C69  1  0.19579000  0.23359000  0.86764000  1.0
  C  C70  1  0.69579000  0.23359000  0.63236000  1.0
  C  C71  1  0.80422000  0.76641000  0.13236000  1.0
  C  C72  1  0.16994000  0.95591000  0.11526000  1.0
  C  C73  1  0.33006000  0.04409000  0.61526000  1.0
  C  C74  1  0.83007000  0.04409000  0.88474000  1.0
  C  C75  1  0.66993000  0.95591000  0.38474000  1.0
  O  O76  1  0.37941000  0.65561000  0.41015000  1.0
  O  O77  1  0.12059000  0.34439000  0.91015000  1.0
  O  O78  1  0.62059000  0.34439000  0.58985000  1.0
  O  O79  1  0.87941000  0.65561000  0.08985000  1.0
  O  O80  1  0.23154000  0.89886000  0.39140000  1.0
  O  O81  1  0.26846000  0.10114000  0.89140000  1.0
  O  O82  1  0.76846000  0.10113000  0.60860000  1.0
  O  O83  1  0.73154000  0.89886000  0.10860000  1.0
  O  O84  1  0.10528000  0.09002000  0.13697000  1.0
  O  O85  1  0.39472000  0.90998000  0.63697000  1.0
  O  O86  1  0.89473000  0.90998000  0.86303000  1.0
  O  O87  1  0.60526000  0.09002000  0.36303000  1.0
  O  O88  1  0.17066000  0.92129000  0.04789000  1.0
  O  O89  1  0.32934000  0.07871000  0.54789000  1.0
  O  O90  1  0.82935000  0.07871000  0.95211000  1.0
  O  O91  1  0.67065000  0.92129000  0.45211000  1.0
  O  O92  1  0.51540000  0.42666000  0.16066000  1.0
  O  O93  1  0.98460000  0.57334000  0.66066000  1.0
  O  O94  1  0.48460000  0.57334000  0.83934000  1.0
  O  O95  1  0.01540000  0.42666000  0.33934000  1.0
  O  O96  1  0.74386000  0.62045000  0.52833000  1.0
  O  O97  1  0.75615000  0.37955000  0.02833000  1.0
  O  O98  1  0.25615000  0.37955000  0.47167000  1.0
  O  O99  1  0.24385000  0.62045000  0.97167000  1.0
  O  O100  1  0.32789000  0.59096000  0.56770000  1.0
  O  O101  1  0.17211000  0.40904000  0.06770000  1.0
  O  O102  1  0.67211000  0.40904000  0.43230000  1.0
  O  O103  1  0.82789000  0.59096000  0.93230000  1.0
  O  O104  1  0.02636000  0.85294000  0.54617000  1.0
  O  O105  1  0.47365000  0.14706000  0.04617000  1.0
  O  O106  1  0.97364000  0.14706000  0.45383000  1.0
  O  O107  1  0.52635000  0.85294000  0.95383000  1.0
