# generated using pymatgen
data_ZnH8C10(N3O2)2
_symmetry_space_group_name_H-M   'P 1'
_cell_length_a   7.91521000
_cell_length_b   7.91523000
_cell_length_c   10.59940000
_cell_angle_alpha   89.11660000
_cell_angle_beta   89.11600000
_cell_angle_gamma   73.94830000
_symmetry_Int_Tables_number   1
_chemical_formula_structural   ZnH8C10(N3O2)2
_chemical_formula_sum   'Zn2 H16 C20 N12 O8'
_cell_volume   638.05100477
_cell_formula_units_Z   2
loop_
 _symmetry_equiv_pos_site_id
 _symmetry_equiv_pos_as_xyz
  1  'x, y, z'
loop_
 _atom_site_type_symbol
 _atom_site_label
 _atom_site_symmetry_multiplicity
 _atom_site_fract_x
 _atom_site_fract_y
 _atom_site_fract_z
 _atom_site_occupancy
  Zn  Zn0  1  0.38431000  0.61569000  0.75000000  1.0
  Zn  Zn1  1  0.61569000  0.38431000  0.25000000  1.0
  H  H2  1  0.18134000  0.73593000  0.37429000  1.0
  H  H3  1  0.26407000  0.81866000  0.12571000  1.0
  H  H4  1  0.81865000  0.26408000  0.62571000  1.0
  H  H5  1  0.73593000  0.18134000  0.87429000  1.0
  H  H6  1  0.26487000  0.60241000  0.50319000  1.0
  H  H7  1  0.39759000  0.73513000  0.99681000  1.0
  H  H8  1  0.73514000  0.39759000  0.49681000  1.0
  H  H9  1  0.60241000  0.26486000  0.00319000  1.0
  H  H10  1  0.22033000  0.27888000  0.45519000  1.0
  H  H11  1  0.72112000  0.77967000  0.04481000  1.0
  H  H12  1  0.77965000  0.72113000  0.54481000  1.0
  H  H13  1  0.27888000  0.22032000  0.95519000  1.0
  H  H14  1  0.42774000  0.96000000  0.78043000  1.0
  H  H15  1  0.04002000  0.57226000  0.71957000  1.0
  H  H16  1  0.57226000  0.04001000  0.21957000  1.0
  H  H17  1  0.95999000  0.42774000  0.28043000  1.0
  C  C18  1  0.37802000  0.28948000  0.69008000  1.0
  C  C19  1  0.71053000  0.62197000  0.80993000  1.0
  C  C20  1  0.62197000  0.71053000  0.30992000  1.0
  C  C21  1  0.28948000  0.37803000  0.19007000  1.0
  C  C22  1  0.33187000  0.14281000  0.62734000  1.0
  C  C23  1  0.85720000  0.66812000  0.87266000  1.0
  C  C24  1  0.66813000  0.85720000  0.37266000  1.0
  C  C25  1  0.14280000  0.33188000  0.12733000  1.0
  C  C26  1  0.25196000  0.15493000  0.50853000  1.0
  C  C27  1  0.84507000  0.74804000  0.99148000  1.0
  C  C28  1  0.74804000  0.84508000  0.49148000  1.0
  C  C29  1  0.15493000  0.25195000  0.00852000  1.0
  C  C30  1  0.25599000  0.86405000  0.51871000  1.0
  C  C31  1  0.13596000  0.74401000  0.98130000  1.0
  C  C32  1  0.74401000  0.13596000  0.48130000  1.0
  C  C33  1  0.86405000  0.25598000  0.01870000  1.0
  C  C34  1  0.36698000  0.97973000  0.68764000  1.0
  C  C35  1  0.02028000  0.63302000  0.81236000  1.0
  C  C36  1  0.63302000  0.02027000  0.31236000  1.0
  C  C37  1  0.97973000  0.36698000  0.18764000  1.0
  N  N38  1  0.33030000  0.84086000  0.63633000  1.0
  N  N39  1  0.15915000  0.66970000  0.86367000  1.0
  N  N40  1  0.66970000  0.15915000  0.36367000  1.0
  N  N41  1  0.84086000  0.33030000  0.13633000  1.0
  N  N42  1  0.21480000  0.01946000  0.45431000  1.0
  N  N43  1  0.98054000  0.78520000  0.04570000  1.0
  N  N44  1  0.78519000  0.98055000  0.54570000  1.0
  N  N45  1  0.01946000  0.21479000  0.95431000  1.0
  N  N46  1  0.22247000  0.72600000  0.46472000  1.0
  N  N47  1  0.27400000  0.77753000  0.03529000  1.0
  N  N48  1  0.77753000  0.27401000  0.53528000  1.0
  N  N49  1  0.72600000  0.22246000  0.96472000  1.0
  O  O50  1  0.33636000  0.44172000  0.63205000  1.0
  O  O51  1  0.55828000  0.66364000  0.86795000  1.0
  O  O52  1  0.66364000  0.55829000  0.36795000  1.0
  O  O53  1  0.44172000  0.33636000  0.13205000  1.0
  O  O54  1  0.45138000  0.26709000  0.79534000  1.0
  O  O55  1  0.73292000  0.54861000  0.70466000  1.0
  O  O56  1  0.54862000  0.73292000  0.20466000  1.0
  O  O57  1  0.26708000  0.45138000  0.29534000  1.0
