# generated using pymatgen
data_MnH8C8(SN3)2
_symmetry_space_group_name_H-M   'P 1'
_cell_length_a   5.45515000
_cell_length_b   6.89425000
_cell_length_c   15.64150000
_cell_angle_alpha   89.99560000
_cell_angle_beta   85.06770000
_cell_angle_gamma   89.99850000
_symmetry_Int_Tables_number   1
_chemical_formula_structural   MnH8C8(SN3)2
_chemical_formula_sum   'Mn2 H16 C16 S4 N12'
_cell_volume   586.08544789
_cell_formula_units_Z   2
loop_
 _symmetry_equiv_pos_site_id
 _symmetry_equiv_pos_as_xyz
  1  'x, y, z'
loop_
 _atom_site_type_symbol
 _atom_site_label
 _atom_site_symmetry_multiplicity
 _atom_site_fract_x
 _atom_site_fract_y
 _atom_site_fract_z
 _atom_site_occupancy
  Mn  Mn0  1  0.50001000  0.50003000  0.50000000  1.0
  Mn  Mn1  1  0.50004000  0.99999000  0.00000000  1.0
  H  H2  1  0.36645000  0.57959000  0.31542000  1.0
  H  H3  1  0.63352000  0.07958000  0.18460000  1.0
  H  H4  1  0.63354000  0.42042000  0.68458000  1.0
  H  H5  1  0.36648000  0.92042000  0.81541000  1.0
  H  H6  1  0.59336000  0.53136000  0.16518000  1.0
  H  H7  1  0.40640000  0.03141000  0.33481000  1.0
  H  H8  1  0.40661000  0.46864000  0.83481000  1.0
  H  H9  1  0.59358000  0.96859000  0.66520000  1.0
  H  H10  1  0.01722000  0.33128000  0.19537000  1.0
  H  H11  1  0.98263000  0.83130000  0.30458000  1.0
  H  H12  1  0.98276000  0.66873000  0.80462000  1.0
  H  H13  1  0.01737000  0.16870000  0.69543000  1.0
  H  H14  1  0.97144000  0.27338000  0.37070000  1.0
  H  H15  1  0.02856000  0.77328000  0.12929000  1.0
  H  H16  1  0.02857000  0.72664000  0.62929000  1.0
  H  H17  1  0.97145000  0.22671000  0.87071000  1.0
  C  C18  1  0.01397000  0.72703000  0.46263000  1.0
  C  C19  1  0.98600000  0.22700000  0.03728000  1.0
  C  C20  1  0.98604000  0.27299000  0.53736000  1.0
  C  C21  1  0.01400000  0.77299000  0.96272000  1.0
  C  C22  1  0.65724000  0.47785000  0.22465000  1.0
  C  C23  1  0.34257000  0.97786000  0.27534000  1.0
  C  C24  1  0.34274000  0.52214000  0.77534000  1.0
  C  C25  1  0.65741000  0.02215000  0.72467000  1.0
  C  C26  1  0.86816000  0.37565000  0.24147000  1.0
  C  C27  1  0.13171000  0.87559000  0.25849000  1.0
  C  C28  1  0.13182000  0.62435000  0.75851000  1.0
  C  C29  1  0.86828000  0.12440000  0.74152000  1.0
  C  C30  1  0.84688000  0.34625000  0.33080000  1.0
  C  C31  1  0.15312000  0.84616000  0.16918000  1.0
  C  C32  1  0.15311000  0.65376000  0.66919000  1.0
  C  C33  1  0.84687000  0.15383000  0.83083000  1.0
  S  S34  1  0.74857000  0.83149000  0.48079000  1.0
  S  S35  1  0.25151000  0.33147000  0.01924000  1.0
  S  S36  1  0.25145000  0.16853000  0.51920000  1.0
  S  S37  1  0.74849000  0.66851000  0.98077000  1.0
  N  N38  1  0.20717000  0.64840000  0.44815000  1.0
  N  N39  1  0.79285000  0.14832000  0.05190000  1.0
  N  N40  1  0.79284000  0.35161000  0.55185000  1.0
  N  N41  1  0.20715000  0.85164000  0.94811000  1.0
  N  N42  1  0.63738000  0.42539000  0.36664000  1.0
  N  N43  1  0.36263000  0.92529000  0.13333000  1.0
  N  N44  1  0.36262000  0.57463000  0.63335000  1.0
  N  N45  1  0.63739000  0.07470000  0.86667000  1.0
  N  N46  1  0.52534000  0.50340000  0.30098000  1.0
  N  N47  1  0.47456000  0.00340000  0.19902000  1.0
  N  N48  1  0.47465000  0.49660000  0.69902000  1.0
  N  N49  1  0.52543000  0.99660000  0.80099000  1.0
