# generated using pymatgen
data_Zr6H13C52S10N7O46
_symmetry_space_group_name_H-M   'P 1'
_cell_length_a   16.42540000
_cell_length_b   16.43333878
_cell_length_c   16.44310000
_cell_angle_alpha   88.80032637
_cell_angle_beta   60.32580000
_cell_angle_gamma   60.31285210
_symmetry_Int_Tables_number   1
_chemical_formula_structural   Zr6H13C52S10N7O46
_chemical_formula_sum   'Zr6 H13 C52 S10 N7 O46'
_cell_volume   3198.87706628
_cell_formula_units_Z   1
loop_
 _symmetry_equiv_pos_site_id
 _symmetry_equiv_pos_as_xyz
  1  'x, y, z'
loop_
 _atom_site_type_symbol
 _atom_site_label
 _atom_site_symmetry_multiplicity
 _atom_site_fract_x
 _atom_site_fract_y
 _atom_site_fract_z
 _atom_site_occupancy
  Zr  Zr0  1  0.48434000  0.40355000  0.90178000  1.0
  Zr  Zr1  1  0.51024000  0.60166000  0.10124000  1.0
  Zr  Zr2  1  0.70879000  0.39222000  0.89377000  1.0
  Zr  Zr3  1  0.28566000  0.61232000  0.11006000  1.0
  Zr  Zr4  1  0.49874000  0.61134000  0.89197000  1.0
  Zr  Zr5  1  0.49524000  0.39374000  0.11164000  1.0
  H  H6  1  0.65530000  0.42319000  0.75190000  1.0
  H  H7  1  0.34176000  0.75256000  0.07992000  1.0
  H  H8  1  0.67191000  0.40935000  0.08220000  1.0
  H  H9  1  0.32015000  0.42461000  0.09320000  1.0
  H  H10  1  0.48168000  0.64278000  0.61324000  1.0
  H  H11  1  0.50114000  0.10598000  0.12959000  1.0
  H  H12  1  0.98727000  0.89119000  0.13309000  1.0
  H  H13  1  0.98186000  0.63343000  0.39069000  1.0
  H  H14  1  0.97116000  0.12617000  0.64094000  1.0
  H  H15  1  0.69290000  0.14599000  0.65612000  1.0
  H  H16  1  0.02564000  0.86921000  0.37142000  1.0
  H  H17  1  0.30288000  0.84016000  0.36625000  1.0
  H  H18  1  0.23234000  0.38759000  0.87769000  1.0
  C  C19  1  0.47896000  0.51669000  0.73794000  1.0
  C  C20  1  0.51872000  0.76452000  0.98775000  1.0
  C  C21  1  0.50063000  0.49694000  0.27255000  1.0
  C  C22  1  0.49039000  0.23327000  0.00744000  1.0
  C  C23  1  0.74543000  0.23381000  0.74184000  1.0
  C  C24  1  0.21655000  0.51609000  0.00470000  1.0
  C  C25  1  0.24991000  0.76250000  0.27030000  1.0
  C  C26  1  0.77832000  0.49551000  0.99092000  1.0
  C  C27  1  0.77098000  0.50346000  0.73177000  1.0
  C  C28  1  0.76438000  0.22195000  0.99907000  1.0
  C  C29  1  0.22464000  0.50889000  0.27997000  1.0
  C  C30  1  0.22752000  0.77526000  0.99890000  1.0
  C  C31  1  0.48816000  0.43958000  0.42244000  1.0
  C  C32  1  0.48092000  0.58041000  0.59387000  1.0
  C  C33  1  0.49310000  0.50207000  0.36512000  1.0
  C  C34  1  0.47791000  0.51620000  0.64921000  1.0
  C  C35  1  0.48372000  0.55242000  0.51143000  1.0
  C  C36  1  0.48284000  0.46702000  0.50635000  1.0
  C  C37  1  0.51609000  0.90946000  0.92401000  1.0
  C  C38  1  0.50266000  0.08495000  0.06633000  1.0
  C  C39  1  0.51958000  0.85331000  0.98776000  1.0
  C  C40  1  0.49822000  0.14040000  0.00243000  1.0
  C  C41  1  0.50856000  0.00090000  0.03747000  1.0
  C  C42  1  0.50894000  0.99451000  0.95157000  1.0
  C  C43  1  0.96930000  0.07898000  0.92699000  1.0
  C  C44  1  0.02259000  0.91201000  0.06735000  1.0
  C  C45  1  0.85393000  0.13161000  0.99727000  1.0
  C  C46  1  0.13753000  0.86156000  0.99686000  1.0
  C  C47  1  0.96166000  0.99167000  0.04162000  1.0
  C  C48  1  0.03231000  0.99946000  0.95129000  1.0
  C  C49  1  0.97923000  0.44490000  0.59870000  1.0
  C  C50  1  0.02013000  0.57328000  0.41644000  1.0
  C  C51  1  0.86209000  0.50657000  0.64718000  1.0
  C  C52  1  0.13600000  0.50914000  0.36970000  1.0
  C  C53  1  0.96278000  0.54817000  0.49909000  1.0
  C  C54  1  0.03707000  0.46623000  0.51304000  1.0
  C  C55  1  0.94130000  0.09789000  0.61063000  1.0
  C  C56  1  0.78363000  0.10956000  0.61931000  1.0
  C  C57  1  0.85759000  0.03050000  0.53675000  1.0
  C  C58  1  0.97725000  0.97951000  0.48680000  1.0
  C  C59  1  0.05489000  0.89599000  0.40377000  1.0
  C  C60  1  0.21228000  0.87953000  0.39990000  1.0
  C  C61  1  0.13800000  0.96151000  0.47961000  1.0
  C  C62  1  0.01859000  0.01508000  0.52676000  1.0
  C  C63  1  0.82629000  0.14437000  0.65540000  1.0
  C  C64  1  0.16973000  0.84767000  0.36088000  1.0
  C  C65  1  0.84854000  0.56697000  0.05621000  1.0
  C  C66  1  0.14785000  0.44730000  0.93596000  1.0
  C  C67  1  0.86597000  0.49873000  0.99075000  1.0
  C  C68  1  0.12873000  0.51579000  0.00217000  1.0
  C  C69  1  0.04505000  0.46641000  0.95598000  1.0
  C  C70  1  0.94978000  0.54996000  0.03746000  1.0
  S  S71  1  0.49111000  0.59639000  0.41370000  1.0
  S  S72  1  0.47781000  0.42188000  0.60286000  1.0
  S  S73  1  0.51546000  0.90380000  0.08249000  1.0
  S  S74  1  0.50152000  0.09179000  0.90688000  1.0
  S  S75  1  0.82091000  0.08288000  0.09477000  1.0
  S  S76  1  0.17303000  0.90993000  0.89909000  1.0
  S  S77  1  0.82352000  0.59358000  0.58885000  1.0
  S  S78  1  0.17634000  0.41829000  0.42448000  1.0
  S  S79  1  0.00823000  0.41184000  0.90455000  1.0
  S  S80  1  0.98666000  0.60436000  0.08902000  1.0
  N  N81  1  0.49005000  0.35251000  0.39871000  1.0
  N  N82  1  0.51885000  0.88473000  0.83683000  1.0
  N  N83  1  0.02295000  0.10125000  0.83520000  1.0
  N  N84  1  0.04392000  0.36881000  0.62927000  1.0
  N  N85  1  0.73760000  0.64895000  0.13813000  1.0
  N  N86  1  0.18819000  0.99396000  0.51391000  1.0
  N  N87  1  0.80661000  0.00067000  0.50127000  1.0
  O  O88  1  0.47562000  0.44858000  0.77565000  1.0
  O  O89  1  0.52152000  0.72718000  0.05597000  1.0
  O  O90  1  0.50811000  0.56273000  0.23286000  1.0
  O  O91  1  0.48374000  0.27290000  0.94121000  1.0
  O  O92  1  0.78610000  0.26457000  0.77199000  1.0
  O  O93  1  0.18592000  0.58264000  0.07222000  1.0
  O  O94  1  0.20864000  0.73371000  0.23898000  1.0
  O  O95  1  0.80861000  0.42698000  0.92599000  1.0
  O  O96  1  0.66956000  0.57343000  0.76324000  1.0
  O  O97  1  0.66245000  0.25733000  0.07018000  1.0
  O  O98  1  0.32700000  0.43859000  0.24550000  1.0
  O  O99  1  0.32980000  0.74119000  0.92929000  1.0
  O  O100  1  0.79731000  0.25845000  0.92966000  1.0
  O  O101  1  0.19254000  0.57808000  0.24283000  1.0
  O  O102  1  0.19520000  0.74195000  0.07158000  1.0
  O  O103  1  0.80042000  0.43015000  0.76439000  1.0
  O  O104  1  0.64075000  0.27353000  0.77741000  1.0
  O  O105  1  0.67683000  0.56322000  0.05924000  1.0
  O  O106  1  0.35460000  0.72672000  0.23037000  1.0
  O  O107  1  0.31810000  0.44686000  0.93835000  1.0
  O  O108  1  0.48999000  0.26708000  0.07705000  1.0
  O  O109  1  0.48554000  0.58262000  0.76876000  1.0
  O  O110  1  0.51211000  0.73394000  0.92175000  1.0
  O  O111  1  0.49996000  0.42771000  0.23948000  1.0
  O  O112  1  0.36992000  0.44736000  0.06783000  1.0
  O  O113  1  0.62246000  0.43507000  0.05911000  1.0
  O  O114  1  0.38639000  0.68149000  0.05735000  1.0
  O  O115  1  0.60963000  0.44619000  0.82293000  1.0
  O  O116  1  0.59116000  0.54304000  0.95241000  1.0
  O  O117  1  0.40483000  0.55242000  0.95982000  1.0
  O  O118  1  0.41424000  0.54394000  0.13350000  1.0
  O  O119  1  0.57871000  0.37070000  0.96128000  1.0
  O  O120  1  0.58374000  0.27417000  0.35033000  1.0
  O  O121  1  0.39780000  0.36455000  0.43170000  1.0
  O  O122  1  0.42852000  0.93365000  0.84309000  1.0
  O  O123  1  0.61107000  0.81972000  0.76411000  1.0
  O  O124  1  0.06784000  0.14398000  0.83274000  1.0
  O  O125  1  0.02196000  0.07192000  0.76728000  1.0
  O  O126  1  0.13627000  0.29673000  0.56158000  1.0
  O  O127  1  0.00695000  0.38289000  0.71735000  1.0
  O  O128  1  0.69620000  0.63250000  0.21744000  1.0
  O  O129  1  0.69746000  0.72864000  0.12187000  1.0
  O  O130  1  0.15213000  0.08216000  0.53067000  1.0
  O  O131  1  0.26505000  0.92960000  0.52053000  1.0
  O  O132  1  0.85170000  0.97523000  0.41137000  1.0
  O  O133  1  0.72045000  0.00492000  0.56414000  1.0
