# generated using pymatgen
data_NaH6C4N11O2
_symmetry_space_group_name_H-M   'P 1'
_cell_length_a   6.96357000
_cell_length_b   9.21386000
_cell_length_c   9.50800238
_cell_angle_alpha   118.97201195
_cell_angle_beta   106.04476790
_cell_angle_gamma   90.01450000
_symmetry_Int_Tables_number   1
_chemical_formula_structural   NaH6C4N11O2
_chemical_formula_sum   'Na2 H12 C8 N22 O4'
_cell_volume   506.34414038
_cell_formula_units_Z   2
loop_
 _symmetry_equiv_pos_site_id
 _symmetry_equiv_pos_as_xyz
  1  'x, y, z'
loop_
 _atom_site_type_symbol
 _atom_site_label
 _atom_site_symmetry_multiplicity
 _atom_site_fract_x
 _atom_site_fract_y
 _atom_site_fract_z
 _atom_site_occupancy
  Na  Na0  1  0.24997000  0.56955000  0.99996000  1.0
  Na  Na1  1  0.75003000  0.43045000  0.00004000  1.0
  H  H2  1  0.88639000  0.87391000  0.57935000  1.0
  H  H3  1  0.61323000  0.29445000  0.42059000  1.0
  H  H4  1  0.11361000  0.12609000  0.42065000  1.0
  H  H5  1  0.38677000  0.70555000  0.57941000  1.0
  H  H6  1  0.07026000  0.74651000  0.27048000  1.0
  H  H7  1  0.42987000  0.47605000  0.72961000  1.0
  H  H8  1  0.92974000  0.25349000  0.72952000  1.0
  H  H9  1  0.57013000  0.52396000  0.27040000  1.0
  H  H10  1  0.94073000  0.78265000  0.13038000  1.0
  H  H11  1  0.55929000  0.65236000  0.86969000  1.0
  H  H12  1  0.05927000  0.21734000  0.86961000  1.0
  H  H13  1  0.44071000  0.34764000  0.13031000  1.0
  C  C14  1  0.88064000  0.76874000  0.60049000  1.0
  C  C15  1  0.61921000  0.16818000  0.39943000  1.0
  C  C16  1  0.11936000  0.23126000  0.39951000  1.0
  C  C17  1  0.38080000  0.83183000  0.60057000  1.0
  C  C18  1  0.14128000  0.88302000  0.88389000  1.0
  C  C19  1  0.35872000  0.99901000  0.11595000  1.0
  C  C20  1  0.85872000  0.11698000  0.11611000  1.0
  C  C21  1  0.64128000  0.00099000  0.88405000  1.0
  N  N22  1  0.75409000  0.62518000  0.49678000  1.0
  N  N23  1  0.74572000  0.12838000  0.50317000  1.0
  N  N24  1  0.24591000  0.37482000  0.50322000  1.0
  N  N25  1  0.25428000  0.87162000  0.49683000  1.0
  N  N26  1  0.79594000  0.52898000  0.57062000  1.0
  N  N27  1  0.70401000  0.95835000  0.42931000  1.0
  N  N28  1  0.20406000  0.47102000  0.42938000  1.0
  N  N29  1  0.29599000  0.04166000  0.57069000  1.0
  N  N30  1  0.94046000  0.60720000  0.71401000  1.0
  N  N31  1  0.55956000  0.89310000  0.28587000  1.0
  N  N32  1  0.05953000  0.39280000  0.28599000  1.0
  N  N33  1  0.44045000  0.10690000  0.71413000  1.0
  N  N34  1  0.99602000  0.75999000  0.73498000  1.0
  N  N35  1  0.50394000  0.02490000  0.26490000  1.0
  N  N36  1  0.00398000  0.24001000  0.26502000  1.0
  N  N37  1  0.49606000  0.97510000  0.73510000  1.0
  N  N38  1  0.17633000  0.04313000  0.92214000  1.0
  N  N39  1  0.32365000  0.12094000  0.07781000  1.0
  N  N40  1  0.82367000  0.95687000  0.07786000  1.0
  N  N41  1  0.67635000  0.87906000  0.92219000  1.0
  N  N42  1  0.25002000  0.84658000  0.99990000  1.0
  N  N43  1  0.74998000  0.15342000  0.00010000  1.0
  O  O44  1  0.99133000  0.69080000  0.14853000  1.0
  O  O45  1  0.50877000  0.54232000  0.85156000  1.0
  O  O46  1  0.00867000  0.30920000  0.85147000  1.0
  O  O47  1  0.49123000  0.45768000  0.14844000  1.0
