# generated using pymatgen
data_Zn4H5C36I7Br6O13
_symmetry_space_group_name_H-M   'P 1'
_cell_length_a   18.15980000
_cell_length_b   18.16110000
_cell_length_c   18.21240328
_cell_angle_alpha   119.83224843
_cell_angle_beta   90.32137626
_cell_angle_gamma   119.33300000
_symmetry_Int_Tables_number   1
_chemical_formula_structural   Zn4H5C36I7Br6O13
_chemical_formula_sum   'Zn8 H10 C72 I14 Br12 O26'
_cell_volume   4288.55948588
_cell_formula_units_Z   2
loop_
 _symmetry_equiv_pos_site_id
 _symmetry_equiv_pos_as_xyz
  1  'x, y, z'
loop_
 _atom_site_type_symbol
 _atom_site_label
 _atom_site_symmetry_multiplicity
 _atom_site_fract_x
 _atom_site_fract_y
 _atom_site_fract_z
 _atom_site_occupancy
  Zn  Zn0  1  0.63409000  0.59182000  0.54378000  1.0
  Zn  Zn1  1  0.04672000  0.59767000  0.13534000  1.0
  Zn  Zn2  1  0.45707000  0.59305000  0.54938000  1.0
  Zn  Zn3  1  0.46277000  0.42341000  0.37249000  1.0
  Zn  Zn4  1  0.04845000  0.41549000  0.96252000  1.0
  Zn  Zn5  1  0.04717000  0.58322000  0.95171000  1.0
  Zn  Zn6  1  0.45653000  0.41413000  0.54385000  1.0
  Zn  Zn7  1  0.87426000  0.41645000  0.96163000  1.0
  H  H8  1  0.79893000  0.65922000  0.39768000  1.0
  H  H9  1  0.25801000  0.49511000  0.14536000  1.0
  H  H10  1  0.35020000  0.48822000  0.23994000  1.0
  H  H11  1  0.70067000  0.77603000  0.96468000  1.0
  H  H12  1  0.76786000  0.75370000  0.06425000  1.0
  H  H13  1  0.72199000  0.81520000  0.52183000  1.0
  H  H14  1  0.06544000  0.81309000  0.05313000  1.0
  H  H15  1  0.17551000  0.58404000  0.78052000  1.0
  H  H16  1  0.88623000  0.19734000  0.70707000  1.0
  H  H17  1  0.24297000  0.19588000  0.26107000  1.0
  C  C18  1  0.37037000  0.22863000  0.35802000  1.0
  C  C19  1  0.30489000  0.45995000  0.75248000  1.0
  C  C20  1  0.23461000  0.47935000  0.19404000  1.0
  C  C21  1  0.70716000  0.66679000  0.84612000  1.0
  C  C22  1  0.78971000  0.64819000  0.95960000  1.0
  C  C23  1  0.71889000  0.72107000  0.93648000  1.0
  C  C24  1  0.75789000  0.70942000  0.99286000  1.0
  C  C25  1  0.77582000  0.58674000  0.86557000  1.0
  C  C26  1  0.71131000  0.42099000  0.15371000  1.0
  C  C27  1  0.72755000  0.59154000  0.80569000  1.0
  C  C28  1  0.70403000  0.52182000  0.71107000  1.0
  C  C29  1  0.80696000  0.52197000  0.82652000  1.0
  C  C30  1  0.73321000  0.45757000  0.67655000  1.0
  C  C31  1  0.78703000  0.45957000  0.73466000  1.0
  C  C32  1  0.33358000  0.48051000  0.37332000  1.0
  C  C33  1  0.11620000  0.48964000  0.15115000  1.0
  C  C34  1  0.37850000  0.51653000  0.65538000  1.0
  C  C35  1  0.86133000  0.50863000  0.13322000  1.0
  C  C36  1  0.64394000  0.50334000  0.36248000  1.0
  C  C37  1  0.67234000  0.40684000  0.21738000  1.0
  C  C38  1  0.12739000  0.48083000  0.85044000  1.0
  C  C39  1  0.60730000  0.30426000  0.19081000  1.0
  C  C40  1  0.19340000  0.33367000  0.77564000  1.0
  C  C41  1  0.56658000  0.22206000  0.10102000  1.0
  C  C42  1  0.25028000  0.30573000  0.78382000  1.0
  C  C43  1  0.22392000  0.42075000  0.77230000  1.0
  C  C44  1  0.58562000  0.24428000  0.03563000  1.0
  C  C45  1  0.34155000  0.36817000  0.79226000  1.0
  C  C46  1  0.70171000  0.49771000  0.30425000  1.0
  C  C47  1  0.18148000  0.47401000  0.78847000  1.0
  C  C48  1  0.86421000  0.22764000  0.85382000  1.0
  C  C49  1  0.77884000  0.59080000  0.33183000  1.0
  C  C50  1  0.20658000  0.54215000  0.76459000  1.0
  C  C51  1  0.83248000  0.59712000  0.27660000  1.0
  C  C52  1  0.27179000  0.55890000  0.72187000  1.0
  C  C53  1  0.80041000  0.51339000  0.18725000  1.0
  C  C54  1  0.32168000  0.51845000  0.71516000  1.0
  C  C55  1  0.75765000  0.89880000  0.56322000  1.0
  C  C56  1  0.10492000  0.89669000  0.09979000  1.0
  C  C57  1  0.80624000  0.95321000  0.52902000  1.0
  C  C58  1  0.07846000  0.95065000  0.08801000  1.0
  C  C59  1  0.85147000  0.06224000  0.58039000  1.0
  C  C60  1  0.12809000  0.05992000  0.14774000  1.0
  C  C61  1  0.63903000  0.77988000  0.62486000  1.0
  C  C62  1  0.15506000  0.77919000  0.12688000  1.0
  C  C63  1  0.85187000  0.11387000  0.66764000  1.0
  C  C64  1  0.65664000  0.34149000  0.06136000  1.0
  C  C65  1  0.20473000  0.11214000  0.21645000  1.0
  C  C66  1  0.80457000  0.05998000  0.70524000  1.0
  C  C67  1  0.23579000  0.05920000  0.22803000  1.0
  C  C68  1  0.75275000  0.94994000  0.65050000  1.0
  C  C69  1  0.18415000  0.94889000  0.16917000  1.0
  C  C70  1  0.36717000  0.44170000  0.77459000  1.0
  C  C71  1  0.69429000  0.89569000  0.68354000  1.0
  C  C72  1  0.21470000  0.89548000  0.18159000  1.0
  C  C73  1  0.68661000  0.94828000  0.76697000  1.0
  C  C74  1  0.29639000  0.94982000  0.24537000  1.0
  C  C75  1  0.74416000  0.05792000  0.82431000  1.0
  C  C76  1  0.34826000  0.05947000  0.30310000  1.0
  C  C77  1  0.80321000  0.11208000  0.79438000  1.0
  C  C78  1  0.31712000  0.11271000  0.29614000  1.0
  C  C79  1  0.13768000  0.41025000  0.37989000  1.0
  C  C80  1  0.03266000  0.41399000  0.26984000  1.0
  C  C81  1  0.06128000  0.40676000  0.39624000  1.0
  C  C82  1  0.00826000  0.40955000  0.34069000  1.0
  C  C83  1  0.12046000  0.44236000  0.26558000  1.0
  C  C84  1  0.17495000  0.43972000  0.32215000  1.0
  C  C85  1  0.64420000  0.51073000  0.64285000  1.0
  C  C86  1  0.86548000  0.51833000  0.88146000  1.0
  C  C87  1  0.26007000  0.46093000  0.31268000  1.0
  C  C88  1  0.15511000  0.46779000  0.20506000  1.0
  C  C89  1  0.28629000  0.47543000  0.24709000  1.0
  I  I90  1  0.91354000  0.14722000  0.52672000  1.0
  I  I91  1  0.93162000  0.34891000  0.15565000  1.0
  I  I92  1  0.18484000  0.34932000  0.42526000  1.0
  I  I93  1  0.01840000  0.38754000  0.49656000  1.0
  I  I94  1  0.89036000  0.39984000  0.36044000  1.0
  I  I95  1  0.47827000  0.07030000  0.06200000  1.0
  I  I96  1  0.20472000  0.17631000  0.78555000  1.0
  I  I97  1  0.09006000  0.14572000  0.13403000  1.0
  I  I98  1  0.95767000  0.74015000  0.34477000  1.0
  I  I99  1  0.28448000  0.64756000  0.67410000  1.0
  I  I100  1  0.58820000  0.86544000  0.80621000  1.0
  I  I101  1  0.34379000  0.86735000  0.25198000  1.0
  I  I102  1  0.73927000  0.13869000  0.95425000  1.0
  I  I103  1  0.47453000  0.14472000  0.39800000  1.0
  Br  Br104  1  0.70204000  0.36755000  0.55044000  1.0
  Br  Br105  1  0.06979000  0.24550000  0.75285000  1.0
  Br  Br106  1  0.58920000  0.28107000  0.28200000  1.0
  Br  Br107  1  0.51279000  0.14126000  0.91428000  1.0
  Br  Br108  1  0.42715000  0.35171000  0.82811000  1.0
  Br  Br109  1  0.66876000  0.37601000  0.97759000  1.0
  Br  Br110  1  0.48926000  0.53505000  0.79781000  1.0
  Br  Br111  1  0.83168000  0.37617000  0.68709000  1.0
  Br  Br112  1  0.80991000  0.87800000  0.41217000  1.0
  Br  Br113  1  0.97625000  0.87549000  0.98901000  1.0
  Br  Br114  1  0.67097000  0.71033000  0.78551000  1.0
  Br  Br115  1  0.85573000  0.65950000  0.05105000  1.0
  O  O116  1  0.50346000  0.50630000  0.50382000  1.0
  O  O117  1  0.10945000  0.44039000  0.06877000  1.0
  O  O118  1  0.36822000  0.43155000  0.33315000  1.0
  O  O119  1  0.37695000  0.26840000  0.44032000  1.0
  O  O120  1  0.82663000  0.27383000  0.86474000  1.0
  O  O121  1  0.55593000  0.73334000  0.58875000  1.0
  O  O122  1  0.12137000  0.74132000  0.17044000  1.0
  O  O123  1  0.00526000  0.50444000  0.00382000  1.0
  O  O124  1  0.40253000  0.27574000  0.32105000  1.0
  O  O125  1  0.94691000  0.26769000  0.88562000  1.0
  O  O126  1  0.68216000  0.73955000  0.61621000  1.0
  O  O127  1  0.14200000  0.73033000  0.04280000  1.0
  O  O128  1  0.56047000  0.45058000  0.62413000  1.0
  O  O129  1  0.82481000  0.44895000  0.89536000  1.0
  O  O130  1  0.36115000  0.55121000  0.45673000  1.0
  O  O131  1  0.10280000  0.56079000  0.19221000  1.0
  O  O132  1  0.37103000  0.43133000  0.60549000  1.0
  O  O133  1  0.83569000  0.42016000  0.06345000  1.0
  O  O134  1  0.56103000  0.45634000  0.32307000  1.0
  O  O135  1  0.13722000  0.46037000  0.90597000  1.0
  O  O136  1  0.42392000  0.59535000  0.65346000  1.0
  O  O137  1  0.93793000  0.59131000  0.16154000  1.0
  O  O138  1  0.68452000  0.56247000  0.44646000  1.0
  O  O139  1  0.68420000  0.55875000  0.60855000  1.0
  O  O140  1  0.08100000  0.51513000  0.84841000  1.0
  O  O141  1  0.94904000  0.58160000  0.90331000  1.0
