# generated using pymatgen
data_CdH20C30S(N2O3)2
_symmetry_space_group_name_H-M   'P 1'
_cell_length_a   10.75800000
_cell_length_b   16.42720000
_cell_length_c   19.52830000
_cell_angle_alpha   90.00010000
_cell_angle_beta   90.00040000
_cell_angle_gamma   92.39610000
_symmetry_Int_Tables_number   1
_chemical_formula_structural   CdH20C30S(N2O3)2
_chemical_formula_sum   'Cd4 H80 C120 S4 N16 O24'
_cell_volume   3448.09834133
_cell_formula_units_Z   4
loop_
 _symmetry_equiv_pos_site_id
 _symmetry_equiv_pos_as_xyz
  1  'x, y, z'
loop_
 _atom_site_type_symbol
 _atom_site_label
 _atom_site_symmetry_multiplicity
 _atom_site_fract_x
 _atom_site_fract_y
 _atom_site_fract_z
 _atom_site_occupancy
  Cd  Cd0  1  0.31175000  0.06777000  0.11702000  1.0
  Cd  Cd1  1  0.18826000  0.43223000  0.61702000  1.0
  Cd  Cd2  1  0.68825000  0.93223000  0.88298000  1.0
  Cd  Cd3  1  0.81175000  0.56777000  0.38298000  1.0
  H  H4  1  0.13528000  0.20682000  0.29117000  1.0
  H  H5  1  0.36473000  0.29319000  0.79117000  1.0
  H  H6  1  0.86473000  0.79319000  0.70883000  1.0
  H  H7  1  0.63527000  0.70682000  0.20883000  1.0
  H  H8  1  0.02922000  0.31228000  0.35974000  1.0
  H  H9  1  0.47077000  0.18772000  0.85974000  1.0
  H  H10  1  0.97078000  0.68773000  0.64025000  1.0
  H  H11  1  0.52922000  0.81228000  0.14026000  1.0
  H  H12  1  0.07745000  0.28509000  0.05651000  1.0
  H  H13  1  0.42255000  0.21491000  0.55651000  1.0
  H  H14  1  0.92255000  0.71491000  0.94349000  1.0
  H  H15  1  0.57745000  0.78509000  0.44349000  1.0
  H  H16  1  0.97591000  0.39916000  0.99916000  1.0
  H  H17  1  0.52409000  0.10084000  0.49916000  1.0
  H  H18  1  0.02409000  0.60084000  0.00084000  1.0
  H  H19  1  0.47590000  0.89916000  0.50084000  1.0
  H  H20  1  0.86625000  0.50197000  0.06817000  1.0
  H  H21  1  0.63375000  0.99802000  0.56816000  1.0
  H  H22  1  0.13375000  0.49803000  0.93183000  1.0
  H  H23  1  0.36624000  0.00198000  0.43183000  1.0
  H  H24  1  0.85938000  0.49025000  0.19458000  1.0
  H  H25  1  0.64061000  0.00975000  0.69458000  1.0
  H  H26  1  0.14062000  0.50975000  0.80542000  1.0
  H  H27  1  0.35938000  0.99024000  0.30542000  1.0
  H  H28  1  0.27162000  0.08624000  0.95007000  1.0
  H  H29  1  0.22838000  0.41376000  0.45007000  1.0
  H  H30  1  0.72838000  0.91376000  0.04993000  1.0
  H  H31  1  0.77162000  0.58624000  0.54993000  1.0
  H  H32  1  0.11683000  0.89365000  0.06931000  1.0
  H  H33  1  0.38317000  0.60635000  0.56931000  1.0
  H  H34  1  0.88317000  0.10635000  0.93069000  1.0
  H  H35  1  0.61683000  0.39365000  0.43069000  1.0
  H  H36  1  0.02727000  0.87695000  0.93562000  1.0
  H  H37  1  0.47273000  0.62305000  0.43562000  1.0
  H  H38  1  0.97273000  0.12305000  0.06438000  1.0
  H  H39  1  0.52727000  0.37695000  0.56438000  1.0
  H  H40  1  0.32244000  0.03661000  0.83304000  1.0
  H  H41  1  0.17756000  0.46339000  0.33304000  1.0
  H  H42  1  0.67756000  0.96338000  0.16697000  1.0
  H  H43  1  0.82244000  0.53661000  0.66697000  1.0
  H  H44  1  0.28264000  0.08280000  0.71315000  1.0
  H  H45  1  0.21736000  0.41720000  0.21315000  1.0
  H  H46  1  0.71736000  0.91720000  0.28685000  1.0
  H  H47  1  0.78265000  0.58280000  0.78685000  1.0
  H  H48  1  0.88982000  0.02296000  0.73883000  1.0
  H  H49  1  0.61019000  0.47704000  0.23883000  1.0
  H  H50  1  0.11019000  0.97704000  0.26117000  1.0
  H  H51  1  0.38982000  0.52296000  0.76117000  1.0
  H  H52  1  0.93051000  0.97644000  0.85733000  1.0
  H  H53  1  0.56949000  0.52356000  0.35733000  1.0
  H  H54  1  0.06949000  0.02356000  0.14267000  1.0
  H  H55  1  0.43051000  0.47644000  0.64267000  1.0
  H  H56  1  0.24297000  0.98594000  0.56833000  1.0
  H  H57  1  0.25702000  0.51406000  0.06834000  1.0
  H  H58  1  0.75703000  0.01406000  0.43166000  1.0
  H  H59  1  0.74298000  0.48594000  0.93166000  1.0
  H  H60  1  0.22552000  0.84826000  0.51334000  1.0
  H  H61  1  0.27448000  0.65174000  0.01334000  1.0
  H  H62  1  0.77448000  0.15174000  0.48666000  1.0
  H  H63  1  0.72552000  0.34826000  0.98666000  1.0
  H  H64  1  0.83261000  0.83383000  0.55806000  1.0
  H  H65  1  0.66738000  0.66617000  0.05805000  1.0
  H  H66  1  0.16739000  0.16617000  0.44194000  1.0
  H  H67  1  0.33261000  0.33383000  0.94195000  1.0
  H  H68  1  0.84894000  0.97411000  0.60810000  1.0
  H  H69  1  0.65106000  0.52589000  0.10809000  1.0
  H  H70  1  0.15106000  0.02589000  0.39190000  1.0
  H  H71  1  0.34894000  0.47411000  0.89191000  1.0
  H  H72  1  0.19793000  0.70586000  0.53204000  1.0
  H  H73  1  0.30207000  0.79414000  0.03204000  1.0
  H  H74  1  0.80206000  0.29414000  0.46796000  1.0
  H  H75  1  0.69793000  0.20586000  0.96796000  1.0
  H  H76  1  0.10043000  0.57194000  0.45962000  1.0
  H  H77  1  0.39957000  0.92806000  0.95962000  1.0
  H  H78  1  0.89957000  0.42806000  0.54038000  1.0
  H  H79  1  0.60043000  0.07194000  0.04038000  1.0
  H  H80  1  0.83809000  0.75513000  0.45700000  1.0
  H  H81  1  0.66191000  0.74487000  0.95700000  1.0
  H  H82  1  0.16191000  0.24487000  0.54300000  1.0
  H  H83  1  0.33809000  0.25513000  0.04300000  1.0
  C  C84  1  0.09010000  0.25742000  0.19446000  1.0
  C  C85  1  0.40990000  0.24258000  0.69447000  1.0
  C  C86  1  0.90991000  0.74258000  0.80553000  1.0
  C  C87  1  0.59009000  0.75742000  0.30554000  1.0
  C  C88  1  0.08712000  0.25523000  0.26552000  1.0
  C  C89  1  0.41287000  0.24476000  0.76553000  1.0
  C  C90  1  0.91288000  0.74477000  0.73447000  1.0
  C  C91  1  0.58712000  0.75523000  0.23448000  1.0
  C  C92  1  0.02725000  0.31421000  0.30392000  1.0
  C  C93  1  0.47275000  0.18579000  0.80392000  1.0
  C  C94  1  0.97275000  0.68579000  0.69607000  1.0
  C  C95  1  0.52725000  0.81421000  0.19608000  1.0
  C  C96  1  0.96682000  0.37630000  0.27172000  1.0
  C  C97  1  0.53318000  0.12370000  0.77172000  1.0
  C  C98  1  0.03318000  0.62370000  0.72828000  1.0
  C  C99  1  0.46682000  0.87630000  0.22828000  1.0
  C  C100  1  0.96507000  0.38087000  0.19861000  1.0
  C  C101  1  0.53493000  0.11913000  0.69861000  1.0
  C  C102  1  0.03493000  0.61913000  0.80139000  1.0
  C  C103  1  0.46507000  0.88087000  0.30139000  1.0
  C  C104  1  0.02825000  0.32090000  0.15899000  1.0
  C  C105  1  0.47176000  0.17910000  0.65899000  1.0
  C  C106  1  0.97176000  0.67910000  0.84101000  1.0
  C  C107  1  0.52823000  0.82090000  0.34101000  1.0
  C  C108  1  0.02964000  0.32991000  0.08646000  1.0
  C  C109  1  0.47036000  0.17008000  0.58646000  1.0
  C  C110  1  0.97036000  0.67008000  0.91354000  1.0
  C  C111  1  0.52963000  0.82992000  0.41354000  1.0
  C  C112  1  0.97255000  0.39350000  0.05485000  1.0
  C  C113  1  0.52745000  0.10650000  0.55485000  1.0
  C  C114  1  0.02745000  0.60650000  0.94515000  1.0
  C  C115  1  0.47255000  0.89350000  0.44515000  1.0
  C  C116  1  0.91087000  0.45191000  0.09388000  1.0
  C  C117  1  0.58912000  0.04808000  0.59387000  1.0
  C  C118  1  0.08912000  0.54808000  0.90612000  1.0
  C  C119  1  0.41087000  0.95192000  0.40612000  1.0
  C  C120  1  0.90731000  0.44565000  0.16417000  1.0
  C  C121  1  0.59269000  0.05435000  0.66417000  1.0
  C  C122  1  0.09270000  0.55435000  0.83583000  1.0
  C  C123  1  0.40730000  0.94565000  0.33583000  1.0
  C  C124  1  0.16195000  0.19241000  0.15981000  1.0
  C  C125  1  0.33805000  0.30759000  0.65981000  1.0
  C  C126  1  0.83805000  0.80759000  0.84019000  1.0
  C  C127  1  0.66195000  0.69241000  0.34019000  1.0
  C  C128  1  0.91057000  0.44072000  0.31487000  1.0
  C  C129  1  0.58943000  0.05928000  0.81487000  1.0
  C  C130  1  0.08944000  0.55928000  0.68513000  1.0
  C  C131  1  0.41056000  0.94072000  0.18513000  1.0
  C  C132  1  0.21999000  0.03116000  0.96539000  1.0
  C  C133  1  0.28002000  0.46884000  0.46538000  1.0
  C  C134  1  0.78001000  0.96884000  0.03462000  1.0
  C  C135  1  0.71997000  0.53116000  0.53461000  1.0
  C  C136  1  0.13626000  0.93100000  0.02447000  1.0
  C  C137  1  0.36374000  0.56901000  0.52447000  1.0
  C  C138  1  0.86374000  0.06900000  0.97554000  1.0
  C  C139  1  0.63626000  0.43099000  0.47554000  1.0
  C  C140  1  0.09243000  0.92142000  0.95873000  1.0
  C  C141  1  0.40757000  0.57858000  0.45873000  1.0
  C  C142  1  0.90757000  0.07858000  0.04127000  1.0
  C  C143  1  0.59243000  0.42142000  0.54127000  1.0
  C  C144  1  0.12728000  0.00553000  0.85169000  1.0
  C  C145  1  0.37272000  0.49447000  0.35169000  1.0
  C  C146  1  0.87272000  0.99447000  0.14831000  1.0
  C  C147  1  0.62728000  0.50553000  0.64831000  1.0
  C  C148  1  0.22798000  0.03483000  0.81225000  1.0
  C  C149  1  0.27202000  0.46517000  0.31224000  1.0
  C  C150  1  0.77202000  0.96516000  0.18775000  1.0
  C  C151  1  0.72798000  0.53483000  0.68776000  1.0
  C  C152  1  0.20634000  0.05951000  0.74520000  1.0
  C  C153  1  0.29366000  0.44049000  0.24520000  1.0
  C  C154  1  0.79367000  0.94049000  0.25480000  1.0
  C  C155  1  0.70634000  0.55951000  0.75480000  1.0
  C  C156  1  0.08529000  0.05460000  0.71930000  1.0
  C  C157  1  0.41471000  0.44540000  0.21930000  1.0
  C  C158  1  0.91472000  0.94540000  0.28070000  1.0
  C  C159  1  0.58529000  0.55460000  0.78070000  1.0
  C  C160  1  0.98462000  0.02455000  0.75847000  1.0
  C  C161  1  0.51538000  0.47545000  0.25847000  1.0
  C  C162  1  0.01538000  0.97545000  0.24153000  1.0
  C  C163  1  0.48462000  0.52455000  0.74153000  1.0
  C  C164  1  0.00659000  0.99938000  0.82515000  1.0
  C  C165  1  0.49341000  0.50062000  0.32515000  1.0
  C  C166  1  0.99341000  0.00062000  0.17485000  1.0
  C  C167  1  0.50659000  0.49938000  0.67485000  1.0
  C  C168  1  0.04698000  0.98636000  0.59177000  1.0
  C  C169  1  0.45302000  0.51364000  0.09176000  1.0
  C  C170  1  0.95302000  0.01364000  0.40823000  1.0
  C  C171  1  0.54698000  0.48636000  0.90824000  1.0
  C  C172  1  0.15398000  0.95176000  0.56614000  1.0
  C  C173  1  0.34603000  0.54824000  0.06614000  1.0
  C  C174  1  0.84603000  0.04824000  0.43386000  1.0
  C  C175  1  0.65398000  0.45176000  0.93386000  1.0
  C  C176  1  0.14459000  0.87467000  0.53672000  1.0
  C  C177  1  0.35540000  0.62533000  0.03671000  1.0
  C  C178  1  0.85541000  0.12533000  0.46328000  1.0
  C  C179  1  0.64459000  0.37467000  0.96329000  1.0
  C  C180  1  0.02896000  0.83242000  0.53460000  1.0
  C  C181  1  0.47105000  0.66757000  0.03460000  1.0
  C  C182  1  0.97105000  0.16758000  0.46540000  1.0
  C  C183  1  0.52895000  0.33243000  0.96540000  1.0
  C  C184  1  0.92199000  0.86744000  0.56021000  1.0
  C  C185  1  0.57801000  0.63256000  0.06020000  1.0
  C  C186  1  0.07801000  0.13256000  0.43980000  1.0
  C  C187  1  0.42199000  0.36744000  0.93980000  1.0
  C  C188  1  0.93093000  0.94518000  0.58841000  1.0
  C  C189  1  0.56907000  0.55482000  0.08840000  1.0
  C  C190  1  0.06907000  0.05482000  0.41159000  1.0
  C  C191  1  0.43093000  0.44518000  0.91160000  1.0
  C  C192  1  0.11024000  0.69586000  0.50562000  1.0
  C  C193  1  0.38975000  0.80415000  0.00562000  1.0
  C  C194  1  0.88976000  0.30415000  0.49437000  1.0
  C  C195  1  0.61024000  0.19586000  0.99438000  1.0
  C  C196  1  0.06108000  0.63017000  0.47017000  1.0
  C  C197  1  0.43891000  0.86983000  0.97016000  1.0
  C  C198  1  0.93892000  0.36983000  0.52983000  1.0
  C  C199  1  0.56108000  0.13017000  0.02984000  1.0
  C  C200  1  0.91986000  0.72171000  0.46936000  1.0
  C  C201  1  0.58013000  0.77829000  0.96935000  1.0
  C  C202  1  0.08014000  0.27829000  0.53065000  1.0
  C  C203  1  0.41986000  0.22171000  0.03065000  1.0
  S  S204  1  0.05920000  0.08307000  0.63292000  1.0
  S  S205  1  0.44081000  0.41693000  0.13292000  1.0
  S  S206  1  0.94080000  0.91693000  0.36708000  1.0
  S  S207  1  0.55920000  0.58307000  0.86708000  1.0
  N  N208  1  0.21491000  0.99962000  0.02786000  1.0
  N  N209  1  0.28509000  0.50038000  0.52786000  1.0
  N  N210  1  0.78509000  0.00038000  0.97214000  1.0
  N  N211  1  0.71490000  0.49962000  0.47214000  1.0
  N  N212  1  0.14734000  0.98531000  0.92159000  1.0
  N  N213  1  0.35267000  0.51469000  0.42159000  1.0
  N  N214  1  0.85266000  0.01469000  0.07841000  1.0
  N  N215  1  0.64733000  0.48531000  0.57841000  1.0
  N  N216  1  0.01951000  0.75367000  0.50515000  1.0
  N  N217  1  0.48049000  0.74633000  0.00515000  1.0
  N  N218  1  0.98049000  0.24634000  0.49485000  1.0
  N  N219  1  0.51951000  0.25367000  0.99485000  1.0
  N  N220  1  0.94325000  0.64736000  0.44778000  1.0
  N  N221  1  0.55675000  0.85264000  0.94778000  1.0
  N  N222  1  0.05675000  0.35264000  0.55222000  1.0
  N  N223  1  0.44325000  0.14737000  0.05222000  1.0
  O  O224  1  0.14574000  0.17534000  0.09671000  1.0
  O  O225  1  0.35426000  0.32466000  0.59671000  1.0
  O  O226  1  0.85426000  0.82466000  0.90329000  1.0
  O  O227  1  0.64574000  0.67535000  0.40329000  1.0
  O  O228  1  0.23850000  0.15404000  0.19726000  1.0
  O  O229  1  0.26151000  0.34596000  0.69726000  1.0
  O  O230  1  0.76151000  0.84596000  0.80274000  1.0
  O  O231  1  0.73849000  0.65403000  0.30274000  1.0
  O  O232  1  0.98141000  0.47880000  0.35764000  1.0
  O  O233  1  0.51859000  0.02120000  0.85764000  1.0
  O  O234  1  0.01859000  0.52120000  0.64237000  1.0
  O  O235  1  0.48141000  0.97880000  0.14236000  1.0
  O  O236  1  0.79619000  0.45594000  0.30686000  1.0
  O  O237  1  0.70381000  0.04405000  0.80686000  1.0
  O  O238  1  0.20382000  0.54406000  0.69313000  1.0
  O  O239  1  0.29618000  0.95595000  0.19313000  1.0
  O  O240  1  0.17124000  0.12544000  0.60756000  1.0
  O  O241  1  0.32877000  0.37455000  0.10756000  1.0
  O  O242  1  0.82877000  0.87456000  0.39244000  1.0
  O  O243  1  0.67124000  0.62544000  0.89244000  1.0
  O  O244  1  0.93943000  0.11990000  0.62815000  1.0
  O  O245  1  0.56058000  0.38009000  0.12816000  1.0
  O  O246  1  0.06057000  0.88009000  0.37184000  1.0
  O  O247  1  0.43943000  0.61991000  0.87184000  1.0
