# generated using pymatgen
data_CuH16C14(N4O5)2
_symmetry_space_group_name_H-M   'P 1'
_cell_length_a   7.02581000
_cell_length_b   7.49225000
_cell_length_c   9.78280000
_cell_angle_alpha   69.87780000
_cell_angle_beta   88.45110000
_cell_angle_gamma   75.80060000
_symmetry_Int_Tables_number   1
_chemical_formula_structural   CuH16C14(N4O5)2
_chemical_formula_sum   'Cu1 H16 C14 N8 O10'
_cell_volume   467.82129956
_cell_formula_units_Z   1
loop_
 _symmetry_equiv_pos_site_id
 _symmetry_equiv_pos_as_xyz
  1  'x, y, z'
loop_
 _atom_site_type_symbol
 _atom_site_label
 _atom_site_symmetry_multiplicity
 _atom_site_fract_x
 _atom_site_fract_y
 _atom_site_fract_z
 _atom_site_occupancy
  Cu  Cu0  1  0.00000000  0.50000000  0.00000000  1.0
  H  H1  1  0.94286000  0.81874000  0.18332000  1.0
  H  H2  1  0.05714000  0.18125000  0.81669000  1.0
  H  H3  1  0.91561000  0.86246000  0.96456000  1.0
  H  H4  1  0.08438000  0.13754000  0.03544000  1.0
  H  H5  1  0.14316000  0.83517000  0.99788000  1.0
  H  H6  1  0.85684000  0.16482000  0.00212000  1.0
  H  H7  1  0.31615000  0.76400000  0.24763000  1.0
  H  H8  1  0.68385000  0.23601000  0.75237000  1.0
  H  H9  1  0.26444000  0.54926000  0.26160000  1.0
  H  H10  1  0.73555000  0.45074000  0.73840000  1.0
  H  H11  1  0.14979000  0.18899000  0.46570000  1.0
  H  H12  1  0.85021000  0.81100000  0.53431000  1.0
  H  H13  1  0.67750000  0.35770000  0.48077000  1.0
  H  H14  1  0.32250000  0.64230000  0.51923000  1.0
  H  H15  1  0.54095000  0.67860000  0.03058000  1.0
  H  H16  1  0.45905000  0.32140000  0.96942000  1.0
  C  C17  1  0.40372000  0.08631000  0.36018000  1.0
  C  C18  1  0.59628000  0.91369000  0.63982000  1.0
  C  C19  1  0.60210000  0.97941000  0.37852000  1.0
  C  C20  1  0.39791000  0.02059000  0.62149000  1.0
  C  C21  1  0.30401000  0.10758000  0.48135000  1.0
  C  C22  1  0.69600000  0.89242000  0.51866000  1.0
  C  C23  1  0.28578000  0.16751000  0.21607000  1.0
  C  C24  1  0.71422000  0.83249000  0.78393000  1.0
  C  C25  1  0.71727000  0.97093000  0.24932000  1.0
  C  C26  1  0.28274000  0.02906000  0.75069000  1.0
  C  C27  1  0.69356000  0.40914000  0.36366000  1.0
  C  C28  1  0.30644000  0.59086000  0.63634000  1.0
  C  C29  1  0.62175000  0.57857000  0.13200000  1.0
  C  C30  1  0.37825000  0.42143000  0.86800000  1.0
  N  N31  1  0.80758000  0.47613000  0.15021000  1.0
  N  N32  1  0.19242000  0.52387000  0.84979000  1.0
  N  N33  1  0.85402000  0.36783000  0.29589000  1.0
  N  N34  1  0.14598000  0.63217000  0.70411000  1.0
  N  N35  1  0.54592000  0.54016000  0.26537000  1.0
  N  N36  1  0.45408000  0.45984000  0.73462000  1.0
  N  N37  1  0.35477000  0.61339000  0.29978000  1.0
  N  N38  1  0.64523000  0.38662000  0.70022000  1.0
  O  O39  1  0.22574000  0.35440000  0.16047000  1.0
  O  O40  1  0.77427000  0.64560000  0.83954000  1.0
  O  O41  1  0.24732000  0.04558000  0.16482000  1.0
  O  O42  1  0.75268000  0.95442000  0.83518000  1.0
  O  O43  1  0.66890000  0.09768000  0.12613000  1.0
  O  O44  1  0.33110000  0.90231000  0.87387000  1.0
  O  O45  1  0.87436000  0.82115000  0.27857000  1.0
  O  O46  1  0.12564000  0.17885000  0.72143000  1.0
  O  O47  1  0.02695000  0.79191000  0.04378000  1.0
  O  O48  1  0.97305000  0.20809000  0.95622000  1.0
