# generated using pymatgen
data_ZnH13C14N2O5
_symmetry_space_group_name_H-M   'P 1'
_cell_length_a   8.82187000
_cell_length_b   11.40870000
_cell_length_c   14.50500000
_cell_angle_alpha   90.00000000
_cell_angle_beta   90.00000000
_cell_angle_gamma   94.49580000
_symmetry_Int_Tables_number   1
_chemical_formula_structural   ZnH13C14N2O5
_chemical_formula_sum   'Zn4 H52 C56 N8 O20'
_cell_volume   1455.37931680
_cell_formula_units_Z   4
loop_
 _symmetry_equiv_pos_site_id
 _symmetry_equiv_pos_as_xyz
  1  'x, y, z'
loop_
 _atom_site_type_symbol
 _atom_site_label
 _atom_site_symmetry_multiplicity
 _atom_site_fract_x
 _atom_site_fract_y
 _atom_site_fract_z
 _atom_site_occupancy
  Zn  Zn0  1  0.38969000  0.92120000  0.90812000  1.0
  Zn  Zn1  1  0.11031000  0.57880000  0.40812000  1.0
  Zn  Zn2  1  0.61031000  0.07881000  0.09188000  1.0
  Zn  Zn3  1  0.88969000  0.42120000  0.59188000  1.0
  H  H4  1  0.03306000  0.14680000  0.68434000  1.0
  H  H5  1  0.46694000  0.35320000  0.18435000  1.0
  H  H6  1  0.96694000  0.85320000  0.31566000  1.0
  H  H7  1  0.53306000  0.64680000  0.81565000  1.0
  H  H8  1  0.80976000  0.05416000  0.75687000  1.0
  H  H9  1  0.69024000  0.44584000  0.25687000  1.0
  H  H10  1  0.19024000  0.94584000  0.24313000  1.0
  H  H11  1  0.30976000  0.55416000  0.74313000  1.0
  H  H12  1  0.69310000  0.69433000  0.67771000  1.0
  H  H13  1  0.80690000  0.80567000  0.17771000  1.0
  H  H14  1  0.30690000  0.30567000  0.32229000  1.0
  H  H15  1  0.19310000  0.19433000  0.82229000  1.0
  H  H16  1  0.22674000  0.77659000  0.73953000  1.0
  H  H17  1  0.27326000  0.72341000  0.23952000  1.0
  H  H18  1  0.77326000  0.22341000  0.26047000  1.0
  H  H19  1  0.72674000  0.27659000  0.76048000  1.0
  H  H20  1  0.98233000  0.61683000  0.77810000  1.0
  H  H21  1  0.51767000  0.88318000  0.27810000  1.0
  H  H22  1  0.01767000  0.38317000  0.22190000  1.0
  H  H23  1  0.48233000  0.11682000  0.72190000  1.0
  H  H24  1  0.08771000  0.88384000  0.56033000  1.0
  H  H25  1  0.41229000  0.61616000  0.06033000  1.0
  H  H26  1  0.91228000  0.11616000  0.43967000  1.0
  H  H27  1  0.58771000  0.38384000  0.93967000  1.0
  H  H28  1  0.17300000  0.91330000  0.04971000  1.0
  H  H29  1  0.32700000  0.58670000  0.54971000  1.0
  H  H30  1  0.82700000  0.08670000  0.95029000  1.0
  H  H31  1  0.67300000  0.41330000  0.45029000  1.0
  H  H32  1  0.10063000  0.77482000  0.09358000  1.0
  H  H33  1  0.39937000  0.72519000  0.59358000  1.0
  H  H34  1  0.89937000  0.22518000  0.90642000  1.0
  H  H35  1  0.60063000  0.27482000  0.40642000  1.0
  H  H36  1  0.97313000  0.87575000  0.05241000  1.0
  H  H37  1  0.52687000  0.62425000  0.55241000  1.0
  H  H38  1  0.02687000  0.12425000  0.94759000  1.0
  H  H39  1  0.47313000  0.37575000  0.44759000  1.0
  H  H40  1  0.77471000  0.63196000  0.92486000  1.0
  H  H41  1  0.72529000  0.86804000  0.42486000  1.0
  H  H42  1  0.22529000  0.36804000  0.07514000  1.0
  H  H43  1  0.27471000  0.13196000  0.57514000  1.0
  H  H44  1  0.87025000  0.67270000  0.02902000  1.0
  H  H45  1  0.62975000  0.82730000  0.52902000  1.0
  H  H46  1  0.12975000  0.32730000  0.97098000  1.0
  H  H47  1  0.37025000  0.17270000  0.47098000  1.0
  H  H48  1  0.83100000  0.45737000  0.01135000  1.0
  H  H49  1  0.66901000  0.04263000  0.51135000  1.0
  H  H50  1  0.16900000  0.54263000  0.98865000  1.0
  H  H51  1  0.33100000  0.95737000  0.48865000  1.0
  H  H52  1  0.93175000  0.46243000  0.90584000  1.0
  H  H53  1  0.56825000  0.03757000  0.40584000  1.0
  H  H54  1  0.06825000  0.53757000  0.09416000  1.0
  H  H55  1  0.43175000  0.96243000  0.59416000  1.0
  C  C56  1  0.89369000  0.77866000  0.61346000  1.0
  C  C57  1  0.60631000  0.72134000  0.11346000  1.0
  C  C58  1  0.10631000  0.22134000  0.38654000  1.0
  C  C59  1  0.39368000  0.27866000  0.88654000  1.0
  C  C60  1  0.73667000  0.87458000  0.72238000  1.0
  C  C61  1  0.76332000  0.62542000  0.22238000  1.0
  C  C62  1  0.26333000  0.12542000  0.27762000  1.0
  C  C63  1  0.23668000  0.37458000  0.77762000  1.0
  C  C64  1  0.96323000  0.98041000  0.65935000  1.0
  C  C65  1  0.53677000  0.51959000  0.15935000  1.0
  C  C66  1  0.03677000  0.01959000  0.34065000  1.0
  C  C67  1  0.46323000  0.48041000  0.84065000  1.0
  C  C68  1  0.59598000  0.86985000  0.78028000  1.0
  C  C69  1  0.90402000  0.63015000  0.28029000  1.0
  C  C70  1  0.40402000  0.13015000  0.21972000  1.0
  C  C71  1  0.09598000  0.36985000  0.71971000  1.0
  C  C72  1  0.83475000  0.97725000  0.71684000  1.0
  C  C73  1  0.66526000  0.52275000  0.21684000  1.0
  C  C74  1  0.16525000  0.02275000  0.28316000  1.0
  C  C75  1  0.33474000  0.47725000  0.78316000  1.0
  C  C76  1  0.76742000  0.77461000  0.67200000  1.0
  C  C77  1  0.73258000  0.72539000  0.17200000  1.0
  C  C78  1  0.23258000  0.22539000  0.32800000  1.0
  C  C79  1  0.26742000  0.27461000  0.82800000  1.0
  C  C80  1  0.16045000  0.76381000  0.80191000  1.0
  C  C81  1  0.33955000  0.73619000  0.30191000  1.0
  C  C82  1  0.83955000  0.23619000  0.19809000  1.0
  C  C83  1  0.66045000  0.26381000  0.69809000  1.0
  C  C84  1  0.04003000  0.68455000  0.82034000  1.0
  C  C85  1  0.45997000  0.81545000  0.32034000  1.0
  C  C86  1  0.95997000  0.31545000  0.17966000  1.0
  C  C87  1  0.54003000  0.18455000  0.67966000  1.0
  C  C88  1  0.99032000  0.88118000  0.60657000  1.0
  C  C89  1  0.50968000  0.61882000  0.10657000  1.0
  C  C90  1  0.00968000  0.11882000  0.39343000  1.0
  C  C91  1  0.49032000  0.38118000  0.89343000  1.0
  C  C92  1  0.92682000  0.67241000  0.55930000  1.0
  C  C93  1  0.57318000  0.82759000  0.05930000  1.0
  C  C94  1  0.07318000  0.32759000  0.44070000  1.0
  C  C95  1  0.42682000  0.17241000  0.94070000  1.0
  C  C96  1  0.08455000  0.84137000  0.04043000  1.0
  C  C97  1  0.41544000  0.65863000  0.54043000  1.0
  C  C98  1  0.91545000  0.15863000  0.95957000  1.0
  C  C99  1  0.58455000  0.34137000  0.45957000  1.0
  C  C100  1  0.09370000  0.79262000  0.94579000  1.0
  C  C101  1  0.40630000  0.70739000  0.44579000  1.0
  C  C102  1  0.90630000  0.20738000  0.05421000  1.0
  C  C103  1  0.59370000  0.29262000  0.55421000  1.0
  C  C104  1  0.88322000  0.63125000  0.96168000  1.0
  C  C105  1  0.61678000  0.86875000  0.46168000  1.0
  C  C106  1  0.11678000  0.36875000  0.03832000  1.0
  C  C107  1  0.38322000  0.13125000  0.53832000  1.0
  C  C108  1  0.92553000  0.50478000  0.97390000  1.0
  C  C109  1  0.57447000  0.99522000  0.47390000  1.0
  C  C110  1  0.07447000  0.49522000  0.02610000  1.0
  C  C111  1  0.42553000  0.00478000  0.52610000  1.0
  N  N112  1  0.99932000  0.70340000  0.91094000  1.0
  N  N113  1  0.50068000  0.79660000  0.41094000  1.0
  N  N114  1  0.00068000  0.29660000  0.08906000  1.0
  N  N115  1  0.49932000  0.20340000  0.58907000  1.0
  N  N116  1  0.19335000  0.83033000  0.88014000  1.0
  N  N117  1  0.30665000  0.66967000  0.38014000  1.0
  N  N118  1  0.80665000  0.16967000  0.11986000  1.0
  N  N119  1  0.69335000  0.33033000  0.61986000  1.0
  O  O120  1  0.04984000  0.67795000  0.51301000  1.0
  O  O121  1  0.45015000  0.82205000  0.01301000  1.0
  O  O122  1  0.95016000  0.32205000  0.48699000  1.0
  O  O123  1  0.54984000  0.17795000  0.98699000  1.0
  O  O124  1  0.83039000  0.58266000  0.56345000  1.0
  O  O125  1  0.66961000  0.91734000  0.06345000  1.0
  O  O126  1  0.16962000  0.41734000  0.43656000  1.0
  O  O127  1  0.33039000  0.08266000  0.93655000  1.0
  O  O128  1  0.50575000  0.77795000  0.78097000  1.0
  O  O129  1  0.99426000  0.72205000  0.28097000  1.0
  O  O130  1  0.49426000  0.22205000  0.21903000  1.0
  O  O131  1  0.00575000  0.27795000  0.71903000  1.0
  O  O132  1  0.56891000  0.96231000  0.82721000  1.0
  O  O133  1  0.93109000  0.53769000  0.32721000  1.0
  O  O134  1  0.43109000  0.03769000  0.17279000  1.0
  O  O135  1  0.06891000  0.46231000  0.67279000  1.0
  O  O136  1  0.06501000  0.07489000  0.65181000  1.0
  O  O137  1  0.43500000  0.42511000  0.15181000  1.0
  O  O138  1  0.93499000  0.92511000  0.34819000  1.0
  O  O139  1  0.56501000  0.57489000  0.84819000  1.0
