# generated using pymatgen
data_Mo2H10C7(NO)6
_symmetry_space_group_name_H-M   'P 1'
_cell_length_a   9.34659000
_cell_length_b   11.71690000
_cell_length_c   11.93940000
_cell_angle_alpha   90.00000000
_cell_angle_beta   90.00000000
_cell_angle_gamma   90.00000000
_symmetry_Int_Tables_number   1
_chemical_formula_structural   Mo2H10C7(NO)6
_chemical_formula_sum   'Mo8 H40 C28 N24 O24'
_cell_volume   1307.52023299
_cell_formula_units_Z   4
loop_
 _symmetry_equiv_pos_site_id
 _symmetry_equiv_pos_as_xyz
  1  'x, y, z'
loop_
 _atom_site_type_symbol
 _atom_site_label
 _atom_site_symmetry_multiplicity
 _atom_site_fract_x
 _atom_site_fract_y
 _atom_site_fract_z
 _atom_site_occupancy
  Mo  Mo0  1  0.37315000  0.07443000  0.86402000  1.0
  Mo  Mo1  1  0.12685000  0.92557000  0.36402000  1.0
  Mo  Mo2  1  0.62685000  0.57443000  0.63598000  1.0
  Mo  Mo3  1  0.87315000  0.42557000  0.13598000  1.0
  Mo  Mo4  1  0.37293000  0.09531000  0.16876000  1.0
  Mo  Mo5  1  0.12707000  0.90470000  0.66876000  1.0
  Mo  Mo6  1  0.62707000  0.59531000  0.33124000  1.0
  Mo  Mo7  1  0.87293000  0.40469000  0.83124000  1.0
  H  H8  1  0.28351000  0.76492000  0.86228000  1.0
  H  H9  1  0.21649000  0.23508000  0.36228000  1.0
  H  H10  1  0.71649000  0.26492000  0.63772000  1.0
  H  H11  1  0.78351000  0.73508000  0.13772000  1.0
  H  H12  1  0.36072000  0.78033000  0.21167000  1.0
  H  H13  1  0.13928000  0.21967000  0.71167000  1.0
  H  H14  1  0.63928000  0.28033000  0.28833000  1.0
  H  H15  1  0.86072000  0.71967000  0.78833000  1.0
  H  H16  1  0.48485000  0.39850000  0.80584000  1.0
  H  H17  1  0.01516000  0.60150000  0.30583000  1.0
  H  H18  1  0.51515000  0.89850000  0.69417000  1.0
  H  H19  1  0.98485000  0.10150000  0.19416000  1.0
  H  H20  1  0.47453000  0.39557000  0.15971000  1.0
  H  H21  1  0.02547000  0.60443000  0.65971000  1.0
  H  H22  1  0.52547000  0.89557000  0.34029000  1.0
  H  H23  1  0.97453000  0.10443000  0.84029000  1.0
  H  H24  1  0.23321000  0.59520000  0.12971000  1.0
  H  H25  1  0.26679000  0.40480000  0.62971000  1.0
  H  H26  1  0.76679000  0.09520000  0.37029000  1.0
  H  H27  1  0.73321000  0.90480000  0.87029000  1.0
  H  H28  1  0.41071000  0.58015000  0.08273000  1.0
  H  H29  1  0.08929000  0.41985000  0.58273000  1.0
  H  H30  1  0.58929000  0.08015000  0.41727000  1.0
  H  H31  1  0.91071000  0.91985000  0.91727000  1.0
  H  H32  1  0.30348000  0.56684000  0.87909000  1.0
  H  H33  1  0.19652000  0.43316000  0.37909000  1.0
  H  H34  1  0.69652000  0.06684000  0.62091000  1.0
  H  H35  1  0.80348000  0.93316000  0.12091000  1.0
  H  H36  1  0.13430000  0.55576000  0.94451000  1.0
  H  H37  1  0.36570000  0.44424000  0.44450000  1.0
  H  H38  1  0.86570000  0.05576000  0.55549000  1.0
  H  H39  1  0.63430000  0.94424000  0.05550000  1.0
  H  H40  1  0.22867000  0.38627000  0.05722000  1.0
  H  H41  1  0.27133000  0.61373000  0.55722000  1.0
  H  H42  1  0.77133000  0.88627000  0.44278000  1.0
  H  H43  1  0.72867000  0.11373000  0.94278000  1.0
  H  H44  1  0.23019000  0.36365000  0.90952000  1.0
  H  H45  1  0.26981000  0.63635000  0.40952000  1.0
  H  H46  1  0.76981000  0.86365000  0.59048000  1.0
  H  H47  1  0.73019000  0.13635000  0.09048000  1.0
  C  C48  1  0.31032000  0.79651000  0.94538000  1.0
  C  C49  1  0.18968000  0.20349000  0.44537000  1.0
  C  C50  1  0.68968000  0.29651000  0.55462000  1.0
  C  C51  1  0.81032000  0.70349000  0.05462000  1.0
  C  C52  1  0.34927000  0.80616000  0.12511000  1.0
  C  C53  1  0.15073000  0.19384000  0.62512000  1.0
  C  C54  1  0.65073000  0.30616000  0.37489000  1.0
  C  C55  1  0.84927000  0.69384000  0.87489000  1.0
  C  C56  1  0.51941000  0.39462000  0.89239000  1.0
  C  C57  1  0.98059000  0.60538000  0.39239000  1.0
  C  C58  1  0.48059000  0.89462000  0.60761000  1.0
  C  C59  1  0.01941000  0.10538000  0.10762000  1.0
  C  C60  1  0.51479000  0.39409000  0.07461000  1.0
  C  C61  1  0.98521000  0.60590000  0.57461000  1.0
  C  C62  1  0.48521000  0.89409000  0.42539000  1.0
  C  C63  1  0.01479000  0.10591000  0.92539000  1.0
  C  C64  1  0.30379000  0.60893000  0.05747000  1.0
  C  C65  1  0.19621000  0.39107000  0.55747000  1.0
  C  C66  1  0.69621000  0.10893000  0.44253000  1.0
  C  C67  1  0.80379000  0.89107000  0.94253000  1.0
  C  C68  1  0.24916000  0.54233000  0.95731000  1.0
  C  C69  1  0.25084000  0.45767000  0.45731000  1.0
  C  C70  1  0.75084000  0.04233000  0.54269000  1.0
  C  C71  1  0.74916000  0.95767000  0.04269000  1.0
  C  C72  1  0.27507000  0.41474000  0.97766000  1.0
  C  C73  1  0.22493000  0.58526000  0.47766000  1.0
  C  C74  1  0.72493000  0.91474000  0.52234000  1.0
  C  C75  1  0.77507000  0.08526000  0.02234000  1.0
  N  N76  1  0.33734000  0.90432000  0.97132000  1.0
  N  N77  1  0.16266000  0.09568000  0.47132000  1.0
  N  N78  1  0.66266000  0.40432000  0.52868000  1.0
  N  N79  1  0.83734000  0.59568000  0.02868000  1.0
  N  N80  1  0.36108000  0.91021000  0.08415000  1.0
  N  N81  1  0.13892000  0.08979000  0.58415000  1.0
  N  N82  1  0.63892000  0.41021000  0.41585000  1.0
  N  N83  1  0.86108000  0.58979000  0.91585000  1.0
  N  N84  1  0.31684000  0.73255000  0.04065000  1.0
  N  N85  1  0.18316000  0.26745000  0.54065000  1.0
  N  N86  1  0.68316000  0.23255000  0.45935000  1.0
  N  N87  1  0.81684000  0.76745000  0.95935000  1.0
  N  N88  1  0.65273000  0.39451000  0.92826000  1.0
  N  N89  1  0.84727000  0.60549000  0.42826000  1.0
  N  N90  1  0.34727000  0.89451000  0.57174000  1.0
  N  N91  1  0.15273000  0.10549000  0.07174000  1.0
  N  N92  1  0.65022000  0.39404000  0.04313000  1.0
  N  N93  1  0.84978000  0.60596000  0.54313000  1.0
  N  N94  1  0.34978000  0.89404000  0.45687000  1.0
  N  N95  1  0.15022000  0.10596000  0.95687000  1.0
  N  N96  1  0.42961000  0.39384000  0.98199000  1.0
  N  N97  1  0.07039000  0.60616000  0.48199000  1.0
  N  N98  1  0.57039000  0.89384000  0.51801000  1.0
  N  N99  1  0.92961000  0.10616000  0.01801000  1.0
  O  O100  1  0.42392000  0.12025000  0.01467000  1.0
  O  O101  1  0.07608000  0.87975000  0.51467000  1.0
  O  O102  1  0.57608000  0.62025000  0.48533000  1.0
  O  O103  1  0.92392000  0.37975000  0.98533000  1.0
  O  O104  1  0.53793000  0.02271000  0.82132000  1.0
  O  O105  1  0.96207000  0.97729000  0.32132000  1.0
  O  O106  1  0.46207000  0.52271000  0.67868000  1.0
  O  O107  1  0.03793000  0.47729000  0.17868000  1.0
  O  O108  1  0.35818000  0.20653000  0.80065000  1.0
  O  O109  1  0.14182000  0.79347000  0.30065000  1.0
  O  O110  1  0.64182000  0.70653000  0.69935000  1.0
  O  O111  1  0.85818000  0.29347000  0.19935000  1.0
  O  O112  1  0.24910000  0.98643000  0.77003000  1.0
  O  O113  1  0.25090000  0.01357000  0.27003000  1.0
  O  O114  1  0.75090000  0.48643000  0.72997000  1.0
  O  O115  1  0.74910000  0.51357000  0.22997000  1.0
  O  O116  1  0.53869000  0.05835000  0.22212000  1.0
  O  O117  1  0.96131000  0.94165000  0.72212000  1.0
  O  O118  1  0.46131000  0.55835000  0.27788000  1.0
  O  O119  1  0.03869000  0.44165000  0.77788000  1.0
  O  O120  1  0.34539000  0.23370000  0.21575000  1.0
  O  O121  1  0.15461000  0.76630000  0.71575000  1.0
  O  O122  1  0.65461000  0.73370000  0.28425000  1.0
  O  O123  1  0.84539000  0.26630000  0.78425000  1.0
