# generated using pymatgen
data_CdH16C20N2(ClO)2
_symmetry_space_group_name_H-M   'P 1'
_cell_length_a   12.21320000
_cell_length_b   13.16270000
_cell_length_c   16.09849263
_cell_angle_alpha   84.94355981
_cell_angle_beta   67.71916324
_cell_angle_gamma   89.95910000
_symmetry_Int_Tables_number   1
_chemical_formula_structural   CdH16C20N2(ClO)2
_chemical_formula_sum   'Cd4 H64 C80 N8 Cl8 O8'
_cell_volume   2383.92429803
_cell_formula_units_Z   4
loop_
 _symmetry_equiv_pos_site_id
 _symmetry_equiv_pos_as_xyz
  1  'x, y, z'
loop_
 _atom_site_type_symbol
 _atom_site_label
 _atom_site_symmetry_multiplicity
 _atom_site_fract_x
 _atom_site_fract_y
 _atom_site_fract_z
 _atom_site_occupancy
  Cd  Cd0  1  0.58378000  0.05895000  0.38020000  1.0
  Cd  Cd1  1  0.96372000  0.44112000  0.61981000  1.0
  Cd  Cd2  1  0.41622000  0.94105000  0.61980000  1.0
  Cd  Cd3  1  0.03629000  0.55888000  0.38018000  1.0
  H  H4  1  0.70799000  0.11058000  0.16994000  1.0
  H  H5  1  0.87751000  0.38978000  0.83034000  1.0
  H  H6  1  0.29201000  0.88942000  0.83006000  1.0
  H  H7  1  0.12250000  0.61022000  0.16965000  1.0
  H  H8  1  0.35471000  0.03354000  0.31461000  1.0
  H  H9  1  0.66911000  0.46634000  0.68529000  1.0
  H  H10  1  0.64530000  0.96646000  0.68538000  1.0
  H  H11  1  0.33090000  0.53366000  0.31470000  1.0
  H  H12  1  0.67605000  0.14516000  0.02583000  1.0
  H  H13  1  0.70138000  0.35494000  0.97425000  1.0
  H  H14  1  0.32395000  0.85484000  0.97417000  1.0
  H  H15  1  0.29863000  0.64506000  0.02575000  1.0
  H  H16  1  0.30510000  0.06289000  0.17759000  1.0
  H  H17  1  0.48239000  0.43700000  0.82212000  1.0
  H  H18  1  0.69490000  0.93711000  0.82241000  1.0
  H  H19  1  0.51761000  0.56300000  0.17788000  1.0
  H  H20  1  0.36551000  0.12588000  0.01994000  1.0
  H  H21  1  0.38509000  0.37425000  0.98009000  1.0
  H  H22  1  0.63449000  0.87412000  0.98006000  1.0
  H  H23  1  0.61491000  0.62575000  0.01991000  1.0
  H  H24  1  0.63522000  0.13659000  0.91187000  1.0
  H  H25  1  0.54704000  0.36352000  0.08803000  1.0
  H  H26  1  0.36478000  0.86342000  0.08813000  1.0
  H  H27  1  0.45296000  0.63648000  0.91198000  1.0
  H  H28  1  0.70541000  0.18763000  0.75664000  1.0
  H  H29  1  0.46208000  0.31239000  0.24341000  1.0
  H  H30  1  0.29459000  0.81237000  0.24336000  1.0
  H  H31  1  0.53792000  0.68760000  0.75659000  1.0
  H  H32  1  0.32481000  0.14906000  0.89896000  1.0
  H  H33  1  0.22383000  0.35071000  0.10093000  1.0
  H  H34  1  0.67519000  0.85094000  0.10104000  1.0
  H  H35  1  0.77617000  0.64929000  0.89907000  1.0
  H  H36  1  0.67102000  0.25268000  0.62098000  1.0
  H  H37  1  0.29219000  0.24724000  0.37902000  1.0
  H  H38  1  0.32898000  0.74732000  0.37902000  1.0
  H  H39  1  0.70781000  0.75275000  0.62098000  1.0
  H  H40  1  0.30423000  0.21328000  0.75595000  1.0
  H  H41  1  0.06040000  0.28639000  0.24388000  1.0
  H  H42  1  0.69577000  0.78672000  0.24405000  1.0
  H  H43  1  0.93961000  0.71360000  0.75611000  1.0
  H  H44  1  0.38619000  0.25719000  0.60468000  1.0
  H  H45  1  0.99108000  0.24272000  0.39501000  1.0
  H  H46  1  0.61381000  0.74281000  0.39531000  1.0
  H  H47  1  0.00892000  0.75727000  0.60499000  1.0
  H  H48  1  0.54187000  0.27042000  0.54684000  1.0
  H  H49  1  0.08870000  0.22978000  0.45314000  1.0
  H  H50  1  0.45812000  0.72958000  0.45316000  1.0
  H  H51  1  0.91131000  0.77023000  0.54686000  1.0
  H  H52  1  0.65097000  0.43243000  0.53766000  1.0
  H  H53  1  0.18914000  0.06757000  0.46248000  1.0
  H  H54  1  0.34902000  0.56758000  0.46234000  1.0
  H  H55  1  0.81086000  0.93242000  0.53753000  1.0
  H  H56  1  0.27188000  0.40390000  0.68641000  1.0
  H  H57  1  0.95849000  0.09589000  0.31383000  1.0
  H  H58  1  0.72813000  0.59610000  0.31359000  1.0
  H  H59  1  0.04150000  0.90411000  0.68618000  1.0
  H  H60  1  0.64280000  0.61783000  0.54875000  1.0
  H  H61  1  0.19230000  0.88214000  0.45149000  1.0
  H  H62  1  0.35719000  0.38217000  0.45125000  1.0
  H  H63  1  0.80770000  0.11785000  0.54851000  1.0
  H  H64  1  0.26598000  0.58973000  0.69785000  1.0
  H  H65  1  0.96422000  0.91006000  0.30259000  1.0
  H  H66  1  0.73402000  0.41027000  0.30215000  1.0
  H  H67  1  0.03577000  0.08994000  0.69742000  1.0
  C  C68  1  0.62033000  0.10174000  0.16765000  1.0
  C  C69  1  0.78758000  0.39848000  0.83252000  1.0
  C  C70  1  0.37967000  0.89826000  0.83235000  1.0
  C  C71  1  0.21242000  0.60152000  0.16748000  1.0
  C  C72  1  0.42294000  0.05824000  0.24888000  1.0
  C  C73  1  0.67155000  0.44174000  0.75107000  1.0
  C  C74  1  0.57706000  0.94176000  0.75111000  1.0
  C  C75  1  0.32845000  0.55826000  0.24893000  1.0
  C  C76  1  0.60160000  0.11974000  0.08787000  1.0
  C  C77  1  0.68902000  0.38045000  0.91219000  1.0
  C  C78  1  0.39840000  0.88026000  0.91213000  1.0
  C  C79  1  0.31099000  0.61955000  0.08781000  1.0
  C  C80  1  0.39617000  0.07458000  0.17208000  1.0
  C  C81  1  0.56789000  0.42539000  0.82779000  1.0
  C  C82  1  0.60382000  0.92542000  0.82793000  1.0
  C  C83  1  0.43211000  0.57462000  0.17221000  1.0
  C  C84  1  0.48673000  0.10604000  0.08867000  1.0
  C  C85  1  0.57497000  0.39406000  0.91127000  1.0
  C  C86  1  0.51327000  0.89396000  0.91133000  1.0
  C  C87  1  0.42503000  0.60594000  0.08873000  1.0
  C  C88  1  0.45977000  0.12440000  0.00809000  1.0
  C  C89  1  0.46754000  0.37570000  0.99190000  1.0
  C  C90  1  0.54024000  0.87560000  0.99191000  1.0
  C  C91  1  0.53246000  0.62430000  0.00810000  1.0
  C  C92  1  0.54133000  0.13993000  0.92303000  1.0
  C  C93  1  0.46427000  0.36020000  0.07691000  1.0
  C  C94  1  0.45866000  0.86008000  0.07698000  1.0
  C  C95  1  0.53573000  0.63980000  0.92309000  1.0
  C  C96  1  0.51803000  0.16667000  0.84204000  1.0
  C  C97  1  0.36011000  0.33328000  0.15793000  1.0
  C  C98  1  0.48196000  0.83333000  0.15797000  1.0
  C  C99  1  0.63990000  0.66666667  0.84206000  1.0
  C  C100  1  0.61470000  0.19246000  0.76036000  1.0
  C  C101  1  0.37515000  0.30745000  0.23962000  1.0
  C  C102  1  0.38530000  0.80755000  0.23964000  1.0
  C  C103  1  0.62485000  0.69255000  0.76038000  1.0
  C  C104  1  0.40400000  0.17261000  0.84001000  1.0
  C  C105  1  0.24410000  0.32718000  0.15990000  1.0
  C  C106  1  0.59600000  0.82739000  0.15999000  1.0
  C  C107  1  0.75590000  0.67281000  0.84010000  1.0
  C  C108  1  0.59680000  0.22851000  0.68361000  1.0
  C  C109  1  0.28059000  0.27137000  0.31637000  1.0
  C  C110  1  0.40319000  0.77149000  0.31640000  1.0
  C  C111  1  0.71941000  0.72863000  0.68363000  1.0
  C  C112  1  0.39007000  0.20851000  0.76151000  1.0
  C  C113  1  0.15175000  0.29123000  0.23838000  1.0
  C  C114  1  0.60993000  0.79149000  0.23849000  1.0
  C  C115  1  0.84825000  0.70876000  0.76162000  1.0
  C  C116  1  0.46748000  0.29053000  0.60639000  1.0
  C  C117  1  0.07406000  0.20944000  0.39357000  1.0
  C  C118  1  0.53251000  0.70947000  0.39361000  1.0
  C  C119  1  0.92593000  0.79056000  0.60644000  1.0
  C  C120  1  0.46236000  0.40428000  0.61354000  1.0
  C  C121  1  0.07627000  0.09564000  0.38662000  1.0
  C  C122  1  0.53763000  0.59572000  0.38646000  1.0
  C  C123  1  0.92373000  0.90436000  0.61339000  1.0
  C  C124  1  0.56633000  0.46550000  0.57502000  1.0
  C  C125  1  0.14184000  0.03446000  0.42518000  1.0
  C  C126  1  0.43367000  0.53451000  0.42498000  1.0
  C  C127  1  0.85817000  0.96554000  0.57482000  1.0
  C  C128  1  0.35459000  0.44961000  0.65896000  1.0
  C  C129  1  0.01388000  0.05023000  0.34130000  1.0
  C  C130  1  0.64540000  0.55039000  0.34105000  1.0
  C  C131  1  0.98612000  0.94977000  0.65871000  1.0
  C  C132  1  0.56212000  0.57049000  0.58101000  1.0
  C  C133  1  0.14368000  0.92943000  0.41929000  1.0
  C  C134  1  0.43787000  0.42952000  0.41899000  1.0
  C  C135  1  0.85631000  0.07057000  0.58072000  1.0
  C  C136  1  0.35062000  0.55462000  0.66552000  1.0
  C  C137  1  0.01655000  0.94522000  0.33486000  1.0
  C  C138  1  0.64938000  0.44539000  0.33448000  1.0
  C  C139  1  0.98345000  0.05478000  0.66515000  1.0
  C  C140  1  0.45459000  0.61604000  0.62630000  1.0
  C  C141  1  0.08140000  0.88383000  0.37410000  1.0
  C  C142  1  0.54540000  0.38396000  0.37371000  1.0
  C  C143  1  0.91860000  0.11617000  0.62590000  1.0
  C  C144  1  0.45061000  0.73045000  0.62751000  1.0
  C  C145  1  0.07874000  0.76940000  0.37290000  1.0
  C  C146  1  0.54939000  0.26955000  0.37248000  1.0
  C  C147  1  0.92125000  0.23060000  0.62710000  1.0
  N  N148  1  0.53251000  0.07174000  0.24694000  1.0
  N  N149  1  0.77913000  0.42832000  0.75314000  1.0
  N  N150  1  0.46749000  0.92826000  0.75306000  1.0
  N  N151  1  0.22086000  0.57168000  0.24686000  1.0
  N  N152  1  0.48541000  0.23865000  0.68592000  1.0
  N  N153  1  0.17154000  0.26120000  0.31402000  1.0
  N  N154  1  0.51458000  0.76136000  0.31408000  1.0
  N  N155  1  0.82846000  0.73879000  0.68598000  1.0
  Cl  Cl156  1  0.75644000  0.95839000  0.28929000  1.0
  Cl  Cl157  1  0.04519000  0.54145000  0.71097000  1.0
  Cl  Cl158  1  0.24356000  0.04161000  0.71071000  1.0
  Cl  Cl159  1  0.95480000  0.45855000  0.28903000  1.0
  Cl  Cl160  1  0.60140000  0.06391000  0.53694000  1.0
  Cl  Cl161  1  0.13855000  0.43604000  0.46315000  1.0
  Cl  Cl162  1  0.39860000  0.93609000  0.46306000  1.0
  Cl  Cl163  1  0.86144000  0.56395000  0.53685000  1.0
  O  O164  1  0.54693000  0.78333000  0.58947000  1.0
  O  O165  1  0.13752000  0.71647000  0.41054000  1.0
  O  O166  1  0.45307000  0.21667000  0.41053000  1.0
  O  O167  1  0.86249000  0.28353000  0.58945000  1.0
  O  O168  1  0.34973000  0.76948000  0.66534000  1.0
  O  O169  1  0.01522000  0.73044000  0.33544000  1.0
  O  O170  1  0.65027000  0.23052000  0.33466000  1.0
  O  O171  1  0.98477000  0.26956000  0.66456000  1.0
