# generated using pymatgen
data_NdAgH12C14N2O13
_symmetry_space_group_name_H-M   'P 1'
_cell_length_a   6.53822000
_cell_length_b   6.53824000
_cell_length_c   20.42800000
_cell_angle_alpha   96.03240000
_cell_angle_beta   96.03160000
_cell_angle_gamma   102.97200000
_symmetry_Int_Tables_number   1
_chemical_formula_structural   NdAgH12C14N2O13
_chemical_formula_sum   'Nd2 Ag2 H24 C28 N4 O26'
_cell_volume   838.77500200
_cell_formula_units_Z   2
loop_
 _symmetry_equiv_pos_site_id
 _symmetry_equiv_pos_as_xyz
  1  'x, y, z'
loop_
 _atom_site_type_symbol
 _atom_site_label
 _atom_site_symmetry_multiplicity
 _atom_site_fract_x
 _atom_site_fract_y
 _atom_site_fract_z
 _atom_site_occupancy
  Nd  Nd0  1  0.96304000  0.03696000  0.25000000  1.0
  Nd  Nd1  1  0.03696000  0.96304000  0.75000000  1.0
  Ag  Ag2  1  0.37844000  0.62156000  0.25000000  1.0
  Ag  Ag3  1  0.62155000  0.37845000  0.75000000  1.0
  H  H4  1  0.37130000  0.42604000  0.50035000  1.0
  H  H5  1  0.57397000  0.62870000  0.99965000  1.0
  H  H6  1  0.62870000  0.57397000  0.49965000  1.0
  H  H7  1  0.42603000  0.37130000  0.00035000  1.0
  H  H8  1  0.71619000  0.12313000  0.50560000  1.0
  H  H9  1  0.87688000  0.28381000  0.99440000  1.0
  H  H10  1  0.28383000  0.87687000  0.49440000  1.0
  H  H11  1  0.12313000  0.71618000  0.00560000  1.0
  H  H12  1  0.22800000  0.43257000  0.59374000  1.0
  H  H13  1  0.56743000  0.77200000  0.90626000  1.0
  H  H14  1  0.77201000  0.56743000  0.40626000  1.0
  H  H15  1  0.43257000  0.22799000  0.09374000  1.0
  H  H16  1  0.02976000  0.72100000  0.34826000  1.0
  H  H17  1  0.27900000  0.97024000  0.15173000  1.0
  H  H18  1  0.97025000  0.27900000  0.65174000  1.0
  H  H19  1  0.72099000  0.02975000  0.84826000  1.0
  H  H20  1  0.25761000  0.85151000  0.34605000  1.0
  H  H21  1  0.14849000  0.74238000  0.15394000  1.0
  H  H22  1  0.74239000  0.14849000  0.65395000  1.0
  H  H23  1  0.85150000  0.25761000  0.84605000  1.0
  H  H24  1  0.73506000  0.41839000  0.23081000  1.0
  H  H25  1  0.58161000  0.26494000  0.26919000  1.0
  H  H26  1  0.26493000  0.58161000  0.76919000  1.0
  H  H27  1  0.41839000  0.73506000  0.73081000  1.0
  C  C28  1  0.36113000  0.33312000  0.36548000  1.0
  C  C29  1  0.66688000  0.63887000  0.13452000  1.0
  C  C30  1  0.63887000  0.66688000  0.63452000  1.0
  C  C31  1  0.33311000  0.36113000  0.86548000  1.0
  C  C32  1  0.18386000  0.28001000  0.40708000  1.0
  C  C33  1  0.72000000  0.81614000  0.09292000  1.0
  C  C34  1  0.81614000  0.71999000  0.59292000  1.0
  C  C35  1  0.28000000  0.18386000  0.90708000  1.0
  C  C36  1  0.21740000  0.33955000  0.47512000  1.0
  C  C37  1  0.66046000  0.78259000  0.02488000  1.0
  C  C38  1  0.78260000  0.66046000  0.52488000  1.0
  C  C39  1  0.33954000  0.21740000  0.97512000  1.0
  C  C40  1  0.04922000  0.28689000  0.51213000  1.0
  C  C41  1  0.71311000  0.95078000  0.98787000  1.0
  C  C42  1  0.95079000  0.71311000  0.48787000  1.0
  C  C43  1  0.28689000  0.04921000  0.01213000  1.0
  C  C44  1  0.85151000  0.17083000  0.47902000  1.0
  C  C45  1  0.82917000  0.14848000  0.02098000  1.0
  C  C46  1  0.14850000  0.82917000  0.52098000  1.0
  C  C47  1  0.17083000  0.85151000  0.97902000  1.0
  C  C48  1  0.83477000  0.11297000  0.41059000  1.0
  C  C49  1  0.88703000  0.16523000  0.08941000  1.0
  C  C50  1  0.16523000  0.88703000  0.58941000  1.0
  C  C51  1  0.11297000  0.83477000  0.91059000  1.0
  C  C52  1  0.63490000  0.97328000  0.37107000  1.0
  C  C53  1  0.02672000  0.36509000  0.12893000  1.0
  C  C54  1  0.36509000  0.02673000  0.62893000  1.0
  C  C55  1  0.97327000  0.63490000  0.87107000  1.0
  N  N56  1  0.99575000  0.16853000  0.37501000  1.0
  N  N57  1  0.83147000  0.00424000  0.12500000  1.0
  N  N58  1  0.00425000  0.83147000  0.62500000  1.0
  N  N59  1  0.16852000  0.99576000  0.87501000  1.0
  O  O60  1  0.32052000  0.25703000  0.30326000  1.0
  O  O61  1  0.74298000  0.67948000  0.19674000  1.0
  O  O62  1  0.67947000  0.74297000  0.69674000  1.0
  O  O63  1  0.25702000  0.32052000  0.80326000  1.0
  O  O64  1  0.53473000  0.44730000  0.39338000  1.0
  O  O65  1  0.55270000  0.46528000  0.10662000  1.0
  O  O66  1  0.46528000  0.55270000  0.60662000  1.0
  O  O67  1  0.44729000  0.53472000  0.89338000  1.0
  O  O68  1  0.07763000  0.34717000  0.57831000  1.0
  O  O69  1  0.65283000  0.92237000  0.92169000  1.0
  O  O70  1  0.92238000  0.65283000  0.42169000  1.0
  O  O71  1  0.34717000  0.07762000  0.07831000  1.0
  O  O72  1  0.46833000  0.93608000  0.39775000  1.0
  O  O73  1  0.06392000  0.53167000  0.10225000  1.0
  O  O74  1  0.53168000  0.06392000  0.60225000  1.0
  O  O75  1  0.93607000  0.46834000  0.89775000  1.0
  O  O76  1  0.65258000  0.89996000  0.31119000  1.0
  O  O77  1  0.10004000  0.34742000  0.18881000  1.0
  O  O78  1  0.34742000  0.10005000  0.68881000  1.0
  O  O79  1  0.89995000  0.65258000  0.81119000  1.0
  O  O80  1  0.11765000  0.78792000  0.31633000  1.0
  O  O81  1  0.21208000  0.88235000  0.18367000  1.0
  O  O82  1  0.88235000  0.21208000  0.68367000  1.0
  O  O83  1  0.78792000  0.11765000  0.81633000  1.0
  O  O84  1  0.71644000  0.28356000  0.25000000  1.0
  O  O85  1  0.28356000  0.71644000  0.75000000  1.0
