# generated using pymatgen
data_NaCuH18C18S6(N3O)2
_symmetry_space_group_name_H-M   'P 1'
_cell_length_a   8.52987000
_cell_length_b   8.67625000
_cell_length_c   8.93075000
_cell_angle_alpha   107.20600000
_cell_angle_beta   94.45110000
_cell_angle_gamma   98.06260000
_symmetry_Int_Tables_number   1
_chemical_formula_structural   NaCuH18C18S6(N3O)2
_chemical_formula_sum   'Na1 Cu1 H18 C18 S6 N6 O2'
_cell_volume   620.14519961
_cell_formula_units_Z   1
loop_
 _symmetry_equiv_pos_site_id
 _symmetry_equiv_pos_as_xyz
  1  'x, y, z'
loop_
 _atom_site_type_symbol
 _atom_site_label
 _atom_site_symmetry_multiplicity
 _atom_site_fract_x
 _atom_site_fract_y
 _atom_site_fract_z
 _atom_site_occupancy
  Na  Na0  1  0.50001000  0.00000000  0.50000000  1.0
  Cu  Cu1  1  0.50000000  0.00000000  0.00000000  1.0
  H  H2  1  0.70694000  0.23102000  0.91337000  1.0
  H  H3  1  0.29307000  0.76902000  0.08665000  1.0
  H  H4  1  0.90185000  0.29238000  0.09896000  1.0
  H  H5  1  0.09816000  0.70764000  0.90104000  1.0
  H  H6  1  0.07598000  0.41435000  0.06779000  1.0
  H  H7  1  0.92402000  0.58566000  0.93221000  1.0
  H  H8  1  0.07366000  0.20386000  0.04322000  1.0
  H  H9  1  0.92635000  0.79616000  0.95678000  1.0
  H  H10  1  0.98861000  0.20328000  0.62948000  1.0
  H  H11  1  0.01138000  0.79669000  0.37051000  1.0
  H  H12  1  0.13156000  0.15576000  0.75943000  1.0
  H  H13  1  0.86844000  0.84422000  0.24057000  1.0
  H  H14  1  0.12677000  0.36416000  0.77327000  1.0
  H  H15  1  0.87322000  0.63582000  0.22671000  1.0
  H  H16  1  0.84737000  0.32281000  0.48919000  1.0
  H  H17  1  0.15263000  0.67719000  0.51080000  1.0
  H  H18  1  0.46288000  0.58601000  0.22654000  1.0
  H  H19  1  0.53712000  0.41398000  0.77346000  1.0
  C  C20  1  0.55468000  0.36389000  0.22085000  1.0
  C  C21  1  0.44531000  0.63608000  0.77914000  1.0
  C  C22  1  0.64696000  0.62214000  0.42193000  1.0
  C  C23  1  0.35304000  0.37785000  0.57806000  1.0
  C  C24  1  0.75902000  0.54708000  0.49575000  1.0
  C  C25  1  0.24098000  0.45293000  0.50425000  1.0
  C  C26  1  0.54467000  0.52846000  0.28328000  1.0
  C  C27  1  0.45534000  0.47152000  0.71673000  1.0
  C  C28  1  0.66315000  0.28911000  0.29701000  1.0
  C  C29  1  0.33685000  0.71089000  0.70298000  1.0
  C  C30  1  0.76562000  0.37932000  0.43176000  1.0
  C  C31  1  0.23437000  0.62068000  0.56822000  1.0
  C  C32  1  0.77935000  0.21610000  0.81391000  1.0
  C  C33  1  0.22065000  0.78392000  0.18612000  1.0
  C  C34  1  0.99983000  0.29304000  0.02674000  1.0
  C  C35  1  0.00018000  0.70698000  0.97326000  1.0
  C  C36  1  0.05272000  0.24303000  0.74913000  1.0
  C  C37  1  0.94727000  0.75695000  0.25086000  1.0
  S  S38  1  0.43569000  0.24393000  0.04530000  1.0
  S  S39  1  0.56430000  0.75605000  0.95469000  1.0
  S  S40  1  0.66349000  0.07873000  0.21893000  1.0
  S  S41  1  0.33654000  0.92128000  0.78106000  1.0
  S  S42  1  0.79918000  0.83023000  0.64595000  1.0
  S  S43  1  0.20082000  0.16977000  0.35407000  1.0
  N  N44  1  0.85162000  0.65388000  0.62470000  1.0
  N  N45  1  0.14838000  0.34612000  0.37531000  1.0
  N  N46  1  0.65857000  0.78453000  0.49762000  1.0
  N  N47  1  0.34143000  0.21548000  0.50238000  1.0
  N  N48  1  0.93718000  0.25101000  0.86108000  1.0
  N  N49  1  0.06281000  0.74900000  0.13892000  1.0
  O  O50  1  0.71584000  0.17035000  0.67371000  1.0
  O  O51  1  0.28414000  0.82967000  0.32630000  1.0
