# generated using pymatgen
data_CuH2C7NO4
_symmetry_space_group_name_H-M   'P 1'
_cell_length_a   8.34002000
_cell_length_b   8.34004000
_cell_length_c   10.51000000
_cell_angle_alpha   89.88020000
_cell_angle_beta   89.88090000
_cell_angle_gamma   60.26740000
_symmetry_Int_Tables_number   1
_chemical_formula_structural   CuH2C7NO4
_chemical_formula_sum   'Cu4 H8 C28 N4 O16'
_cell_volume   634.79167562
_cell_formula_units_Z   4
loop_
 _symmetry_equiv_pos_site_id
 _symmetry_equiv_pos_as_xyz
  1  'x, y, z'
loop_
 _atom_site_type_symbol
 _atom_site_label
 _atom_site_symmetry_multiplicity
 _atom_site_fract_x
 _atom_site_fract_y
 _atom_site_fract_z
 _atom_site_occupancy
  Cu  Cu0  1  0.18707000  0.44089000  0.16669000  1.0
  Cu  Cu1  1  0.55910000  0.81292000  0.33333333  1.0
  Cu  Cu2  1  0.81293000  0.55911000  0.83331000  1.0
  Cu  Cu3  1  0.44090000  0.18708000  0.66666667  1.0
  H  H4  1  0.32910000  0.74737000  0.82084000  1.0
  H  H5  1  0.25261000  0.67091000  0.67916000  1.0
  H  H6  1  0.67090000  0.25262000  0.17916000  1.0
  H  H7  1  0.74739000  0.32910000  0.32085000  1.0
  H  H8  1  0.27326000  0.03321000  0.93795000  1.0
  H  H9  1  0.96677000  0.72675000  0.56205000  1.0
  H  H10  1  0.72674000  0.96679000  0.06205000  1.0
  H  H11  1  0.03323000  0.27325000  0.43796000  1.0
  C  C12  1  0.26898000  0.63294000  0.98564000  1.0
  C  C13  1  0.36705000  0.73102000  0.51435000  1.0
  C  C14  1  0.73102000  0.36707000  0.01436000  1.0
  C  C15  1  0.63295000  0.26898000  0.48565000  1.0
  C  C16  1  0.28602000  0.76865000  0.91991000  1.0
  C  C17  1  0.23133000  0.71399000  0.58009000  1.0
  C  C18  1  0.71398000  0.23135000  0.08009000  1.0
  C  C19  1  0.76867000  0.28601000  0.41991000  1.0
  C  C20  1  0.26119000  0.92327000  0.98563000  1.0
  C  C21  1  0.07671000  0.73882000  0.51437000  1.0
  C  C22  1  0.73881000  0.07673000  0.01437000  1.0
  C  C23  1  0.92329000  0.26118000  0.48563000  1.0
  C  C24  1  0.23535000  0.93051000  0.11760000  1.0
  C  C25  1  0.06947000  0.76465000  0.38240000  1.0
  C  C26  1  0.76465000  0.06949000  0.88240000  1.0
  C  C27  1  0.93053000  0.23535000  0.61760000  1.0
  C  C28  1  0.22201000  0.78823000  0.17935000  1.0
  C  C29  1  0.21175000  0.77798000  0.32065000  1.0
  C  C30  1  0.77799000  0.21177000  0.82065000  1.0
  C  C31  1  0.78825000  0.22202000  0.67935000  1.0
  C  C32  1  0.31032000  0.45210000  0.92518000  1.0
  C  C33  1  0.54790000  0.68968000  0.57482000  1.0
  C  C34  1  0.68968000  0.54790000  0.07482000  1.0
  C  C35  1  0.45211000  0.31032000  0.42518000  1.0
  C  C36  1  0.24751000  0.08265000  0.18422000  1.0
  C  C37  1  0.91734000  0.75248000  0.31577000  1.0
  C  C38  1  0.75249000  0.91735000  0.81577000  1.0
  C  C39  1  0.08266000  0.24752000  0.68423000  1.0
  N  N40  1  0.22951000  0.64733000  0.11110000  1.0
  N  N41  1  0.35265000  0.77048000  0.38889000  1.0
  N  N42  1  0.77049000  0.35267000  0.88890000  1.0
  N  N43  1  0.64735000  0.22952000  0.61111000  1.0
  O  O44  1  0.29358000  0.33706000  0.99827000  1.0
  O  O45  1  0.66293000  0.70642000  0.50172000  1.0
  O  O46  1  0.70642000  0.66294000  0.00173000  1.0
  O  O47  1  0.33707000  0.29358000  0.49828000  1.0
  O  O48  1  0.36574000  0.42189000  0.81251000  1.0
  O  O49  1  0.57811000  0.63426000  0.68748000  1.0
  O  O50  1  0.63426000  0.57810000  0.18749000  1.0
  O  O51  1  0.42190000  0.36574000  0.31252000  1.0
  O  O52  1  0.39683000  0.04216000  0.24077000  1.0
  O  O53  1  0.95783000  0.60316000  0.25924000  1.0
  O  O54  1  0.60317000  0.95784000  0.75923000  1.0
  O  O55  1  0.04217000  0.39684000  0.74077000  1.0
  O  O56  1  0.11493000  0.24641000  0.16973000  1.0
  O  O57  1  0.75358000  0.88506000  0.33025000  1.0
  O  O58  1  0.88507000  0.75359000  0.83026000  1.0
  O  O59  1  0.24642000  0.11494000  0.66975000  1.0
