# generated using pymatgen
data_Ag2H8C8SN6O7
_symmetry_space_group_name_H-M   'P 1'
_cell_length_a   7.59157000
_cell_length_b   8.71751000
_cell_length_c   12.37100000
_cell_angle_alpha   69.38090000
_cell_angle_beta   84.13740000
_cell_angle_gamma   73.10230000
_symmetry_Int_Tables_number   1
_chemical_formula_structural   Ag2H8C8SN6O7
_chemical_formula_sum   'Ag4 H16 C16 S2 N12 O14'
_cell_volume   733.17982362
_cell_formula_units_Z   2
loop_
 _symmetry_equiv_pos_site_id
 _symmetry_equiv_pos_as_xyz
  1  'x, y, z'
loop_
 _atom_site_type_symbol
 _atom_site_label
 _atom_site_symmetry_multiplicity
 _atom_site_fract_x
 _atom_site_fract_y
 _atom_site_fract_z
 _atom_site_occupancy
  Ag  Ag0  1  0.60979000  0.36571000  0.35513000  1.0
  Ag  Ag1  1  0.11007000  0.72096000  0.64470000  1.0
  Ag  Ag2  1  0.28217000  0.01629000  0.98825000  1.0
  Ag  Ag3  1  0.78196000  0.00424000  0.01181000  1.0
  H  H4  1  0.22025000  0.97339000  0.25068000  1.0
  H  H5  1  0.72062000  0.22423000  0.74948000  1.0
  H  H6  1  0.96053000  0.33924000  0.94994000  1.0
  H  H7  1  0.46065000  0.28942000  0.05008000  1.0
  H  H8  1  0.71061000  0.46711000  0.07010000  1.0
  H  H9  1  0.21113000  0.53769000  0.92980000  1.0
  H  H10  1  0.24098000  0.28866000  0.32869000  1.0
  H  H11  1  0.74080000  0.61733000  0.67136000  1.0
  H  H12  1  0.63924000  0.04940000  0.58860000  1.0
  H  H13  1  0.13932000  0.63784000  0.41176000  1.0
  H  H14  1  0.46731000  0.83186000  0.68779000  1.0
  H  H15  1  0.96733000  0.51999000  0.31217000  1.0
  H  H16  1  0.44031000  0.70764000  0.23648000  1.0
  H  H17  1  0.94057000  0.94441000  0.76349000  1.0
  H  H18  1  0.30178000  0.61091000  0.21904000  1.0
  H  H19  1  0.80213000  0.83020000  0.78086000  1.0
  C  C20  1  0.97837000  0.16522000  0.27538000  1.0
  C  C21  1  0.47864000  0.44057000  0.72465000  1.0
  C  C22  1  0.11107000  0.08780000  0.20982000  1.0
  C  C23  1  0.61137000  0.29778000  0.79031000  1.0
  C  C24  1  0.96322000  0.28796000  0.04398000  1.0
  C  C25  1  0.46346000  0.33215000  0.95603000  1.0
  C  C26  1  0.82769000  0.36011000  0.11029000  1.0
  C  C27  1  0.32806000  0.47074000  0.88965000  1.0
  C  C28  1  0.19361000  0.06643000  0.46753000  1.0
  C  C29  1  0.69359000  0.53387000  0.53242000  1.0
  C  C30  1  0.29055000  0.18686000  0.40963000  1.0
  C  C31  1  0.79038000  0.59646000  0.59045000  1.0
  C  C32  1  0.51138000  0.05521000  0.55232000  1.0
  C  C33  1  0.01143000  0.60740000  0.44791000  1.0
  C  C34  1  0.41587000  0.93473000  0.60773000  1.0
  C  C35  1  0.91593000  0.54256000  0.39232000  1.0
  S  S36  1  0.97279000  0.07770000  0.42746000  1.0
  S  S37  1  0.47306000  0.50444000  0.57257000  1.0
  N  N38  1  0.83637000  0.30021000  0.22592000  1.0
  N  N39  1  0.33671000  0.52633000  0.77399000  1.0
  N  N40  1  0.10419000  0.15166000  0.09400000  1.0
  N  N41  1  0.60449000  0.24585000  0.90612000  1.0
  N  N42  1  0.25851000  0.93889000  0.56524000  1.0
  N  N43  1  0.75853000  0.50428000  0.43464000  1.0
  N  N44  1  0.44862000  0.18022000  0.45221000  1.0
  N  N45  1  0.94848000  0.63237000  0.54798000  1.0
  N  N46  1  0.54728000  0.75840000  0.91228000  1.0
  N  N47  1  0.04738000  0.67045000  0.08752000  1.0
  N  N48  1  0.07821000  0.17749000  0.75313000  1.0
  N  N49  1  0.57838000  0.93010000  0.24690000  1.0
  O  O50  1  0.66320000  0.67878000  0.85581000  1.0
  O  O51  1  0.16329000  0.53429000  0.14397000  1.0
  O  O52  1  0.51962000  0.92102000  0.88215000  1.0
  O  O53  1  0.01966000  0.80278000  0.11783000  1.0
  O  O54  1  0.45966000  0.68317000  0.99581000  1.0
  O  O55  1  0.95988000  0.67887000  0.00387000  1.0
  O  O56  1  0.06530000  0.03233000  0.82670000  1.0
  O  O57  1  0.56611000  0.85809000  0.17341000  1.0
  O  O58  1  0.14896000  0.26832000  0.78593000  1.0
  O  O59  1  0.64938000  0.05354000  0.21422000  1.0
  O  O60  1  0.01889000  0.22488000  0.65234000  1.0
  O  O61  1  0.51821000  0.87728000  0.34747000  1.0
  O  O62  1  0.37127000  0.62249000  0.27751000  1.0
  O  O63  1  0.87164000  0.90020000  0.72243000  1.0
