# generated using pymatgen
data_CdH5C7NO5
_symmetry_space_group_name_H-M   'P 1'
_cell_length_a   6.88307000
_cell_length_b   7.91576000
_cell_length_c   14.92540000
_cell_angle_alpha   90.00000000
_cell_angle_beta   89.99980000
_cell_angle_gamma   102.17900000
_symmetry_Int_Tables_number   1
_chemical_formula_structural   CdH5C7NO5
_chemical_formula_sum   'Cd4 H20 C28 N4 O20'
_cell_volume   794.90378592
_cell_formula_units_Z   4
loop_
 _symmetry_equiv_pos_site_id
 _symmetry_equiv_pos_as_xyz
  1  'x, y, z'
loop_
 _atom_site_type_symbol
 _atom_site_label
 _atom_site_symmetry_multiplicity
 _atom_site_fract_x
 _atom_site_fract_y
 _atom_site_fract_z
 _atom_site_occupancy
  Cd  Cd0  1  0.74651000  0.38474000  0.78060000  1.0
  Cd  Cd1  1  0.75349000  0.11526000  0.28060000  1.0
  Cd  Cd2  1  0.25349000  0.61526000  0.21940000  1.0
  Cd  Cd3  1  0.24651000  0.88474000  0.71940000  1.0
  H  H4  1  0.90216000  0.10293000  0.85707000  1.0
  H  H5  1  0.59784000  0.39707000  0.35707000  1.0
  H  H6  1  0.09784000  0.89707000  0.14293000  1.0
  H  H7  1  0.40216000  0.60293000  0.64293000  1.0
  H  H8  1  0.68677000  0.05688000  0.81920000  1.0
  H  H9  1  0.81323000  0.44312000  0.31920000  1.0
  H  H10  1  0.31323000  0.94312000  0.18080000  1.0
  H  H11  1  0.18677000  0.55688000  0.68080000  1.0
  H  H12  1  0.76343000  0.32075000  0.98818000  1.0
  H  H13  1  0.73657000  0.17925000  0.48818000  1.0
  H  H14  1  0.23657000  0.67925000  0.01182000  1.0
  H  H15  1  0.26343000  0.82075000  0.51182000  1.0
  H  H16  1  0.71833000  0.93228000  0.98764000  1.0
  H  H17  1  0.78167000  0.56772000  0.48764000  1.0
  H  H18  1  0.28167000  0.06772000  0.01236000  1.0
  H  H19  1  0.21833000  0.43228000  0.51236000  1.0
  H  H20  1  0.72275000  0.76391000  0.84751000  1.0
  H  H21  1  0.77725000  0.73609000  0.34751000  1.0
  H  H22  1  0.27726000  0.23609000  0.15249000  1.0
  H  H23  1  0.22275000  0.26391000  0.65249000  1.0
  C  C24  1  0.75525000  0.45670000  0.99107000  1.0
  C  C25  1  0.74476000  0.04330000  0.49107000  1.0
  C  C26  1  0.24476000  0.54330000  0.00893000  1.0
  C  C27  1  0.25524000  0.95670000  0.50894000  1.0
  C  C28  1  0.75950000  0.54158000  0.07310000  1.0
  C  C29  1  0.74051000  0.95843000  0.57310000  1.0
  C  C30  1  0.24051000  0.45842000  0.92690000  1.0
  C  C31  1  0.25949000  0.04157000  0.42690000  1.0
  C  C32  1  0.74458000  0.71587000  0.07349000  1.0
  C  C33  1  0.75542000  0.78413000  0.57349000  1.0
  C  C34  1  0.25542000  0.28413000  0.92651000  1.0
  C  C35  1  0.24458000  0.21587000  0.42651000  1.0
  C  C36  1  0.73030000  0.79745000  0.99155000  1.0
  C  C37  1  0.76970000  0.70255000  0.49155000  1.0
  C  C38  1  0.26970000  0.20255000  0.00845000  1.0
  C  C39  1  0.23030000  0.29745000  0.50845000  1.0
  C  C40  1  0.73178000  0.70431000  0.91264000  1.0
  C  C41  1  0.76822000  0.79569000  0.41263000  1.0
  C  C42  1  0.26822000  0.29569000  0.08737000  1.0
  C  C43  1  0.23178000  0.20431000  0.58736000  1.0
  C  C44  1  0.78849000  0.44842000  0.15800000  1.0
  C  C45  1  0.71152000  0.05158000  0.65800000  1.0
  C  C46  1  0.21151000  0.55158000  0.84200000  1.0
  C  C47  1  0.28848000  0.94842000  0.34200000  1.0
  C  C48  1  0.73427000  0.81482000  0.15882000  1.0
  C  C49  1  0.76573000  0.68518000  0.65882000  1.0
  C  C50  1  0.26573000  0.18518000  0.84118000  1.0
  C  C51  1  0.23427000  0.31482000  0.34118000  1.0
  N  N52  1  0.74371000  0.53666000  0.91230000  1.0
  N  N53  1  0.75629000  0.96335000  0.41230000  1.0
  N  N54  1  0.25629000  0.46334000  0.08770000  1.0
  N  N55  1  0.24371000  0.03665000  0.58770000  1.0
  O  O56  1  0.71227000  0.28827000  0.16120000  1.0
  O  O57  1  0.78773000  0.21173000  0.66120000  1.0
  O  O58  1  0.28773000  0.71173000  0.83880000  1.0
  O  O59  1  0.21227000  0.78827000  0.33880000  1.0
  O  O60  1  0.88850000  0.53972000  0.21991000  1.0
  O  O61  1  0.61150000  0.96028000  0.71991000  1.0
  O  O62  1  0.11150000  0.46028000  0.78009000  1.0
  O  O63  1  0.38850000  0.03972000  0.28009000  1.0
  O  O64  1  0.87311000  0.94819000  0.17171000  1.0
  O  O65  1  0.62689000  0.55181000  0.67171000  1.0
  O  O66  1  0.12690000  0.05181000  0.82829000  1.0
  O  O67  1  0.37311000  0.44819000  0.32829000  1.0
  O  O68  1  0.58856000  0.77045000  0.21087000  1.0
  O  O69  1  0.91143000  0.72955000  0.71087000  1.0
  O  O70  1  0.41144000  0.22955000  0.78913000  1.0
  O  O71  1  0.08857000  0.27045000  0.28913000  1.0
  O  O72  1  0.76897000  0.13131000  0.86550000  1.0
  O  O73  1  0.73103000  0.36869000  0.36550000  1.0
  O  O74  1  0.23103000  0.86869000  0.13450000  1.0
  O  O75  1  0.26897000  0.63131000  0.63450000  1.0
