# generated using pymatgen
data_SnH22C18O
_symmetry_space_group_name_H-M   'P 1'
_cell_length_a   8.22388000
_cell_length_b   10.11910000
_cell_length_c   10.45129965
_cell_angle_alpha   61.04600342
_cell_angle_beta   89.99980318
_cell_angle_gamma   89.99990000
_symmetry_Int_Tables_number   1
_chemical_formula_structural   SnH22C18O
_chemical_formula_sum   'Sn2 H44 C36 O2'
_cell_volume   761.02919109
_cell_formula_units_Z   2
loop_
 _symmetry_equiv_pos_site_id
 _symmetry_equiv_pos_as_xyz
  1  'x, y, z'
loop_
 _atom_site_type_symbol
 _atom_site_label
 _atom_site_symmetry_multiplicity
 _atom_site_fract_x
 _atom_site_fract_y
 _atom_site_fract_z
 _atom_site_occupancy
  Sn  Sn0  1  0.50104000  0.99634000  1.00000000  1.0
  Sn  Sn1  1  0.00104000  0.00366000  0.00000000  1.0
  H  H2  1  0.74570000  0.18607000  0.00000000  1.0
  H  H3  1  0.24570000  0.81393000  0.00000000  1.0
  H  H4  1  0.73303000  0.81279000  0.00000000  1.0
  H  H5  1  0.23303000  0.18721000  0.00000000  1.0
  H  H6  1  0.59348000  0.89346000  0.76287000  1.0
  H  H7  1  0.09348000  0.10655000  0.23712000  1.0
  H  H8  1  0.59348000  0.65634000  0.23712000  1.0
  H  H9  1  0.09348000  0.34367000  0.76287000  1.0
  H  H10  1  0.42251000  0.78173000  0.85389000  1.0
  H  H11  1  0.92251000  0.21827000  0.14611000  1.0
  H  H12  1  0.42250000  0.63562000  0.14611000  1.0
  H  H13  1  0.92251000  0.36438000  0.85389000  1.0
  H  H14  1  0.59510000  0.64595000  0.76334000  1.0
  H  H15  1  0.09510000  0.35404000  0.23666000  1.0
  H  H16  1  0.59510000  0.40930000  0.23665000  1.0
  H  H17  1  0.09510000  0.59071000  0.76334000  1.0
  H  H18  1  0.76700000  0.66937000  0.85169000  1.0
  H  H19  1  0.26700000  0.33062000  0.14831000  1.0
  H  H20  1  0.76700000  0.52108000  0.14830000  1.0
  H  H21  1  0.26700000  0.47893000  0.85169000  1.0
  H  H22  1  0.46373000  0.47953000  1.00000000  1.0
  H  H23  1  0.96373000  0.52047000  0.00000000  1.0
  H  H24  1  0.66060000  0.41066000  0.00000000  1.0
  H  H25  1  0.16060000  0.58933000  0.00000000  1.0
  H  H26  1  0.57513000  0.18253000  0.17512000  1.0
  H  H27  1  0.07513000  0.81746000  0.82488000  1.0
  H  H28  1  0.57513000  0.35766000  0.82488000  1.0
  H  H29  1  0.07514000  0.64234000  0.17512000  1.0
  H  H30  1  0.50790000  0.15161000  0.41859000  1.0
  H  H31  1  0.00790000  0.84839000  0.58141000  1.0
  H  H32  1  0.50790000  0.57020000  0.58142000  1.0
  H  H33  1  0.00790000  0.42980000  0.41859000  1.0
  H  H34  1  0.34214000  0.93422000  0.59321000  1.0
  H  H35  1  0.84214000  0.06579000  0.40679000  1.0
  H  H36  1  0.34215000  0.52742000  0.40680000  1.0
  H  H37  1  0.84214000  0.47257000  0.59321000  1.0
  H  H38  1  0.24045000  0.74597000  0.52180000  1.0
  H  H39  1  0.74044000  0.25403000  0.47821000  1.0
  H  H40  1  0.24045000  0.26776000  0.47821000  1.0
  H  H41  1  0.74045000  0.73224000  0.52179000  1.0
  H  H42  1  0.29776000  0.78206000  0.27540000  1.0
  H  H43  1  0.79776000  0.21794000  0.72460000  1.0
  H  H44  1  0.29777000  0.05747000  0.72460000  1.0
  H  H45  1  0.79777000  0.94253000  0.27540000  1.0
  C  C46  1  0.60062000  0.79710000  0.00000000  1.0
  C  C47  1  0.10062000  0.20289000  1.00000000  1.0
  C  C48  1  0.55592000  0.78969000  0.86127000  1.0
  C  C49  1  0.05592000  0.21031000  0.13872000  1.0
  C  C50  1  0.55592000  0.65097000  0.13872000  1.0
  C  C51  1  0.05592000  0.34904000  0.86127000  1.0
  C  C52  1  0.63437000  0.65239000  0.86097000  1.0
  C  C53  1  0.13437000  0.34762000  0.13902000  1.0
  C  C54  1  0.63437000  0.51336000  0.13902000  1.0
  C  C55  1  0.13437000  0.48664000  0.86097000  1.0
  C  C56  1  0.59397000  0.50536000  0.00000000  1.0
  C  C57  1  0.09396000  0.49464000  0.00000000  1.0
  C  C58  1  0.44281000  0.98307000  0.20748000  1.0
  C  C59  1  0.94281000  0.01693000  0.79252000  1.0
  C  C60  1  0.44281000  0.19055000  0.79253000  1.0
  C  C61  1  0.94281000  0.80945000  0.20747000  1.0
  C  C62  1  0.50079000  0.08653000  0.24971000  1.0
  C  C63  1  0.00079000  0.91347000  0.75029000  1.0
  C  C64  1  0.50079000  0.33624000  0.75029000  1.0
  C  C65  1  0.00079000  0.66376000  0.24971000  1.0
  C  C66  1  0.46401000  0.06954000  0.38742000  1.0
  C  C67  1  0.96402000  0.93046000  0.61258000  1.0
  C  C68  1  0.46402000  0.45696000  0.61258000  1.0
  C  C69  1  0.96402000  0.54304000  0.38742000  1.0
  C  C70  1  0.37068000  0.94708000  0.48600000  1.0
  C  C71  1  0.87068000  0.05292000  0.51400000  1.0
  C  C72  1  0.37068000  0.43308000  0.51400000  1.0
  C  C73  1  0.87068000  0.56692000  0.48600000  1.0
  C  C74  1  0.31321000  0.84250000  0.44590000  1.0
  C  C75  1  0.81321000  0.15750000  0.55411000  1.0
  C  C76  1  0.31322000  0.28840000  0.55411000  1.0
  C  C77  1  0.81322000  0.71160000  0.44590000  1.0
  C  C78  1  0.34793000  0.86150000  0.30714000  1.0
  C  C79  1  0.84792000  0.13849000  0.69287000  1.0
  C  C80  1  0.34793000  0.16864000  0.69287000  1.0
  C  C81  1  0.84793000  0.83137000  0.30713000  1.0
  O  O82  1  0.74618000  0.09009000  0.00000000  1.0
  O  O83  1  0.24618000  0.90991000  0.00000000  1.0
