# generated using pymatgen
data_CdH18C20S2(N2O3)2
_symmetry_space_group_name_H-M   'P 1'
_cell_length_a   8.60010000
_cell_length_b   9.48896000
_cell_length_c   13.42910000
_cell_angle_alpha   89.99980000
_cell_angle_beta   101.66200000
_cell_angle_gamma   89.99940000
_symmetry_Int_Tables_number   1
_chemical_formula_structural   CdH18C20S2(N2O3)2
_chemical_formula_sum   'Cd2 H36 C40 S4 N8 O12'
_cell_volume   1073.27273305
_cell_formula_units_Z   2
loop_
 _symmetry_equiv_pos_site_id
 _symmetry_equiv_pos_as_xyz
  1  'x, y, z'
loop_
 _atom_site_type_symbol
 _atom_site_label
 _atom_site_symmetry_multiplicity
 _atom_site_fract_x
 _atom_site_fract_y
 _atom_site_fract_z
 _atom_site_occupancy
  Cd  Cd0  1  0.50001000  0.00000000  1.00000000  1.0
  Cd  Cd1  1  0.99999000  0.50000000  0.50000000  1.0
  H  H2  1  0.67536000  0.83349000  0.13542000  1.0
  H  H3  1  0.82465000  0.33348000  0.36458000  1.0
  H  H4  1  0.32466000  0.16651000  0.86459000  1.0
  H  H5  1  0.17535000  0.66651000  0.63541000  1.0
  H  H6  1  0.76581000  0.79642000  0.04578000  1.0
  H  H7  1  0.73419000  0.29642000  0.45422000  1.0
  H  H8  1  0.23421000  0.20359000  0.95423000  1.0
  H  H9  1  0.26580000  0.70358000  0.54577000  1.0
  H  H10  1  0.49847000  0.21080000  0.19312000  1.0
  H  H11  1  0.00155000  0.71079000  0.30688000  1.0
  H  H12  1  0.50152000  0.78922000  0.80688000  1.0
  H  H13  1  0.99846000  0.28922000  0.69312000  1.0
  H  H14  1  0.57540000  0.46018000  0.24771000  1.0
  H  H15  1  0.92463000  0.96017000  0.25229000  1.0
  H  H16  1  0.42459000  0.53983000  0.75229000  1.0
  H  H17  1  0.07539000  0.03983000  0.74771000  1.0
  H  H18  1  0.70899000  0.60845000  0.13778000  1.0
  H  H19  1  0.79103000  0.10845000  0.36221000  1.0
  H  H20  1  0.29102000  0.39155000  0.86222000  1.0
  H  H21  1  0.20898000  0.89155000  0.63778000  1.0
  H  H22  1  0.69117000  0.24991000  0.93702000  1.0
  H  H23  1  0.80881000  0.74991000  0.56296000  1.0
  H  H24  1  0.30883000  0.75009000  0.06298000  1.0
  H  H25  1  0.19118000  0.25010000  0.43703000  1.0
  H  H26  1  0.95466000  0.90039000  0.97301000  1.0
  H  H27  1  0.54534000  0.40038000  0.52698000  1.0
  H  H28  1  0.04535000  0.09961000  0.02698000  1.0
  H  H29  1  0.45465000  0.59962000  0.47302000  1.0
  H  H30  1  0.08524000  0.85681000  0.88916000  1.0
  H  H31  1  0.41476000  0.35681000  0.61084000  1.0
  H  H32  1  0.91477000  0.14318000  0.11084000  1.0
  H  H33  1  0.58523000  0.64319000  0.38916000  1.0
  H  H34  1  0.89177000  0.91934000  0.83950000  1.0
  H  H35  1  0.60822000  0.41934000  0.66049000  1.0
  H  H36  1  0.10823000  0.08065000  0.16049000  1.0
  H  H37  1  0.39177000  0.58066000  0.33951000  1.0
  C  C38  1  0.55958000  0.27973000  0.14858000  1.0
  C  C39  1  0.94044000  0.77973000  0.35143000  1.0
  C  C40  1  0.44042000  0.72027000  0.85143000  1.0
  C  C41  1  0.05956000  0.22028000  0.64857000  1.0
  C  C42  1  0.60065000  0.41803000  0.17734000  1.0
  C  C43  1  0.89937000  0.91802000  0.32266000  1.0
  C  C44  1  0.39935000  0.58198000  0.82267000  1.0
  C  C45  1  0.10064000  0.08198000  0.67734000  1.0
  C  C46  1  0.67691000  0.50036000  0.11622000  1.0
  C  C47  1  0.82311000  0.00036000  0.38378000  1.0
  C  C48  1  0.32310000  0.49964000  0.88379000  1.0
  C  C49  1  0.17689000  0.99964000  0.61622000  1.0
  C  C50  1  0.71031000  0.44250000  0.02663000  1.0
  C  C51  1  0.78970000  0.94250000  0.47336000  1.0
  C  C52  1  0.28970000  0.55750000  0.97337000  1.0
  C  C53  1  0.21029000  0.05750000  0.52663000  1.0
  C  C54  1  0.66676000  0.30183000  0.00467000  1.0
  C  C55  1  0.83323000  0.80182000  0.49532000  1.0
  C  C56  1  0.33324000  0.69818000  0.99533000  1.0
  C  C57  1  0.16676000  0.19818000  0.50468000  1.0
  C  C58  1  0.78490000  0.52366000  0.95686000  1.0
  C  C59  1  0.71511000  0.02365000  0.54313000  1.0
  C  C60  1  0.21511000  0.47634000  0.04314000  1.0
  C  C61  1  0.28488000  0.97635000  0.45686000  1.0
  C  C62  1  0.90002000  0.70673000  0.89434000  1.0
  C  C63  1  0.59998000  0.20672000  0.60566000  1.0
  C  C64  1  0.09998000  0.29327000  0.10566000  1.0
  C  C65  1  0.40001000  0.79328000  0.39434000  1.0
  C  C66  1  0.90178000  0.60949000  0.81718000  1.0
  C  C67  1  0.59822000  0.10949000  0.68282000  1.0
  C  C68  1  0.09821000  0.39050000  0.18282000  1.0
  C  C69  1  0.40178000  0.89051000  0.31718000  1.0
  C  C70  1  0.96341000  0.62126000  0.72182000  1.0
  C  C71  1  0.53659000  0.12125000  0.77818000  1.0
  C  C72  1  0.03658000  0.37874000  0.27818000  1.0
  C  C73  1  0.46342000  0.87875000  0.22182000  1.0
  C  C74  1  0.96218000  0.85382000  0.89960000  1.0
  C  C75  1  0.53782000  0.35382000  0.60039000  1.0
  C  C76  1  0.03783000  0.14617000  0.10039000  1.0
  C  C77  1  0.46217000  0.64618000  0.39961000  1.0
  S  S78  1  0.81755000  0.45343000  0.84424000  1.0
  S  S79  1  0.68245000  0.95342000  0.65575000  1.0
  S  S80  1  0.18245000  0.54657000  0.15576000  1.0
  S  S81  1  0.31755000  0.04658000  0.34425000  1.0
  N  N82  1  0.59289000  0.22293000  0.06335000  1.0
  N  N83  1  0.90712000  0.72292000  0.43665000  1.0
  N  N84  1  0.40712000  0.77707000  0.93666000  1.0
  N  N85  1  0.09288000  0.27708000  0.56335000  1.0
  N  N86  1  0.83180000  0.65677000  0.97143000  1.0
  N  N87  1  0.66821000  0.15677000  0.52857000  1.0
  N  N88  1  0.16821000  0.34322000  0.02858000  1.0
  N  N89  1  0.33178000  0.84323000  0.47142000  1.0
  O  O90  1  0.91280000  0.52701000  0.65427000  1.0
  O  O91  1  0.58719000  0.02700000  0.84572000  1.0
  O  O92  1  0.08718000  0.47299000  0.34573000  1.0
  O  O93  1  0.41281000  0.97300000  0.15427000  1.0
  O  O94  1  0.05925000  0.72005000  0.71466000  1.0
  O  O95  1  0.44074000  0.22004000  0.78533000  1.0
  O  O96  1  0.94074000  0.27995000  0.28534000  1.0
  O  O97  1  0.55926000  0.77996000  0.21467000  1.0
  O  O98  1  0.73123000  0.87702000  0.08407000  1.0
  O  O99  1  0.76878000  0.37702000  0.41594000  1.0
  O  O100  1  0.26879000  0.12298000  0.91594000  1.0
  O  O101  1  0.23121000  0.62298000  0.58406000  1.0
