# generated using pymatgen
data_CaH8(CO2)4
_symmetry_space_group_name_H-M   'P 1'
_cell_length_a   8.79432000
_cell_length_b   9.74729000
_cell_length_c   10.19130000
_cell_angle_alpha   90.00060000
_cell_angle_beta   90.00120000
_cell_angle_gamma   89.99990000
_symmetry_Int_Tables_number   1
_chemical_formula_structural   CaH8(CO2)4
_chemical_formula_sum   'Ca4 H32 C16 O32'
_cell_volume   873.60626032
_cell_formula_units_Z   4
loop_
 _symmetry_equiv_pos_site_id
 _symmetry_equiv_pos_as_xyz
  1  'x, y, z'
loop_
 _atom_site_type_symbol
 _atom_site_label
 _atom_site_symmetry_multiplicity
 _atom_site_fract_x
 _atom_site_fract_y
 _atom_site_fract_z
 _atom_site_occupancy
  Ca  Ca0  1  0.69218000  0.78068000  0.32295000  1.0
  Ca  Ca1  1  0.19217000  0.21932000  0.17705000  1.0
  Ca  Ca2  1  0.30783000  0.71932000  0.82295000  1.0
  Ca  Ca3  1  0.80782000  0.28068000  0.67705000  1.0
  H  H4  1  0.23690000  0.64102000  0.35569000  1.0
  H  H5  1  0.73689000  0.35898000  0.14430000  1.0
  H  H6  1  0.76311000  0.85898000  0.85569000  1.0
  H  H7  1  0.26310000  0.14102000  0.64430000  1.0
  H  H8  1  0.13339000  0.72169000  0.15540000  1.0
  H  H9  1  0.63339000  0.27832000  0.34459000  1.0
  H  H10  1  0.86661000  0.77830000  0.65540000  1.0
  H  H11  1  0.36662000  0.22169000  0.84459000  1.0
  H  H12  1  0.44972000  0.54140000  0.27358000  1.0
  H  H13  1  0.94972000  0.45859000  0.22643000  1.0
  H  H14  1  0.55028000  0.95859000  0.77357000  1.0
  H  H15  1  0.05029000  0.04141000  0.72642000  1.0
  H  H16  1  0.29059000  0.88037000  0.06350000  1.0
  H  H17  1  0.79060000  0.11964000  0.43651000  1.0
  H  H18  1  0.70939000  0.61964000  0.56350000  1.0
  H  H19  1  0.20941000  0.38036000  0.93650000  1.0
  H  H20  1  0.66525000  0.92882000  0.09415000  1.0
  H  H21  1  0.16524000  0.07118000  0.40585000  1.0
  H  H22  1  0.33474000  0.57118000  0.59415000  1.0
  H  H23  1  0.83476000  0.42883000  0.90585000  1.0
  H  H24  1  0.53698000  0.81399000  0.07792000  1.0
  H  H25  1  0.03698000  0.18601000  0.42208000  1.0
  H  H26  1  0.46301000  0.68601000  0.57792000  1.0
  H  H27  1  0.96302000  0.31399000  0.92208000  1.0
  H  H28  1  0.02840000  0.85528000  0.30115000  1.0
  H  H29  1  0.52840000  0.14472000  0.19885000  1.0
  H  H30  1  0.97161000  0.64473000  0.80115000  1.0
  H  H31  1  0.47159000  0.35527000  0.69885000  1.0
  H  H32  1  0.93922000  0.92561000  0.18815000  1.0
  H  H33  1  0.43923000  0.07439000  0.31184000  1.0
  H  H34  1  0.06077000  0.57439000  0.68816000  1.0
  H  H35  1  0.56077000  0.42561000  0.81184000  1.0
  C  C36  1  0.32408000  0.84511000  0.34467000  1.0
  C  C37  1  0.82407000  0.15487000  0.15534000  1.0
  C  C38  1  0.67593000  0.65489000  0.84467000  1.0
  C  C39  1  0.17592000  0.34513000  0.65534000  1.0
  C  C40  1  0.31685000  0.69798000  0.29290000  1.0
  C  C41  1  0.81684000  0.30202000  0.20711000  1.0
  C  C42  1  0.68316000  0.80202000  0.79290000  1.0
  C  C43  1  0.18316000  0.19798000  0.70710000  1.0
  C  C44  1  0.25531000  0.69369000  0.15165000  1.0
  C  C45  1  0.75530000  0.30630000  0.34836000  1.0
  C  C46  1  0.74469000  0.80630000  0.65164000  1.0
  C  C47  1  0.24470000  0.19370000  0.84835000  1.0
  C  C48  1  0.26278000  0.54752000  0.09521000  1.0
  C  C49  1  0.76278000  0.45248000  0.40479000  1.0
  C  C50  1  0.73722000  0.95248000  0.59521000  1.0
  C  C51  1  0.23722000  0.04752000  0.90478000  1.0
  O  O52  1  0.45382000  0.89976000  0.36021000  1.0
  O  O53  1  0.95382000  0.10024000  0.13979000  1.0
  O  O54  1  0.54619000  0.60024000  0.86020000  1.0
  O  O55  1  0.04616000  0.39976000  0.63980000  1.0
  O  O56  1  0.19768000  0.90426000  0.36435000  1.0
  O  O57  1  0.69765000  0.09573000  0.13564000  1.0
  O  O58  1  0.80234000  0.59574000  0.86435000  1.0
  O  O59  1  0.30233000  0.40428000  0.63565000  1.0
  O  O60  1  0.46499000  0.63700000  0.30117000  1.0
  O  O61  1  0.96500000  0.36300000  0.19883000  1.0
  O  O62  1  0.53501000  0.86300000  0.80117000  1.0
  O  O63  1  0.03499000  0.13700000  0.69883000  1.0
  O  O64  1  0.33306000  0.78305000  0.06222000  1.0
  O  O65  1  0.83305000  0.21695000  0.43779000  1.0
  O  O66  1  0.66694000  0.71696000  0.56222000  1.0
  O  O67  1  0.16696000  0.28305000  0.93778000  1.0
  O  O68  1  0.28334000  0.44850000  0.17385000  1.0
  O  O69  1  0.78336000  0.55150000  0.32617000  1.0
  O  O70  1  0.71665000  0.05149000  0.67384000  1.0
  O  O71  1  0.21666000  0.94850000  0.82615000  1.0
  O  O72  1  0.24379000  0.53603000  0.97169000  1.0
  O  O73  1  0.74378000  0.46398000  0.52830000  1.0
  O  O74  1  0.75622000  0.96396000  0.47170000  1.0
  O  O75  1  0.25621000  0.03603000  0.02830000  1.0
  O  O76  1  0.64518000  0.82818000  0.09985000  1.0
  O  O77  1  0.14517000  0.17182000  0.40015000  1.0
  O  O78  1  0.35481000  0.67182000  0.59985000  1.0
  O  O79  1  0.85482000  0.32818000  0.90015000  1.0
  O  O80  1  0.93791000  0.84136000  0.24331000  1.0
  O  O81  1  0.43790000  0.15864000  0.25668000  1.0
  O  O82  1  0.06210000  0.65864000  0.74332000  1.0
  O  O83  1  0.56209000  0.34135000  0.75668000  1.0
