# generated using pymatgen
data_ZnH32C25(NO)4
_symmetry_space_group_name_H-M   'P 1'
_cell_length_a   6.92676000
_cell_length_b   10.87480000
_cell_length_c   16.17950000
_cell_angle_alpha   77.81850000
_cell_angle_beta   86.74760000
_cell_angle_gamma   87.34800000
_symmetry_Int_Tables_number   1
_chemical_formula_structural   ZnH32C25(NO)4
_chemical_formula_sum   'Zn2 H64 C50 N8 O8'
_cell_volume   1188.66026974
_cell_formula_units_Z   2
loop_
 _symmetry_equiv_pos_site_id
 _symmetry_equiv_pos_as_xyz
  1  'x, y, z'
loop_
 _atom_site_type_symbol
 _atom_site_label
 _atom_site_symmetry_multiplicity
 _atom_site_fract_x
 _atom_site_fract_y
 _atom_site_fract_z
 _atom_site_occupancy
  Zn  Zn0  1  0.31320000  0.09870000  0.25446000  1.0
  Zn  Zn1  1  0.68679000  0.90130000  0.74554000  1.0
  H  H2  1  0.42268000  0.01285000  0.08144000  1.0
  H  H3  1  0.57732000  0.98714000  0.91856000  1.0
  H  H4  1  0.77801000  0.07859000  0.99126000  1.0
  H  H5  1  0.22200000  0.92141000  0.00874000  1.0
  H  H6  1  0.59412000  0.29465000  0.25472000  1.0
  H  H7  1  0.40587000  0.70534000  0.74528000  1.0
  H  H8  1  0.78153000  0.36694000  0.18378000  1.0
  H  H9  1  0.21847000  0.63306000  0.81622000  1.0
  H  H10  1  0.83743000  0.23060000  0.26128000  1.0
  H  H11  1  0.16256000  0.76940000  0.73872000  1.0
  H  H12  1  0.05857000  0.17803000  0.02370000  1.0
  H  H13  1  0.94143000  0.82197000  0.97631000  1.0
  H  H14  1  0.07441000  0.20646000  0.12634000  1.0
  H  H15  1  0.92558000  0.79354000  0.87367000  1.0
  H  H16  1  0.23902000  0.39442000  0.10323000  1.0
  H  H17  1  0.76098000  0.60557000  0.89678000  1.0
  H  H18  1  0.25695000  0.62389000  0.04200000  1.0
  H  H19  1  0.74306000  0.37611000  0.95800000  1.0
  H  H20  1  0.74289000  0.04304000  0.33283000  1.0
  H  H21  1  0.25711000  0.95695000  0.66717000  1.0
  H  H22  1  0.79059000  0.86566000  0.48269000  1.0
  H  H23  1  0.20941000  0.13434000  0.51731000  1.0
  H  H24  1  0.06306000  0.97848000  0.40358000  1.0
  H  H25  1  0.93694000  0.02153000  0.59642000  1.0
  H  H26  1  0.09848000  0.86110000  0.49817000  1.0
  H  H27  1  0.90152000  0.13891000  0.50183000  1.0
  H  H28  1  0.09972000  0.81784000  0.39818000  1.0
  H  H29  1  0.90027000  0.18217000  0.60182000  1.0
  H  H30  1  0.30195000  0.75742000  0.57208000  1.0
  H  H31  1  0.69805000  0.24258000  0.42792000  1.0
  H  H32  1  0.54999000  0.75490000  0.59398000  1.0
  H  H33  1  0.45000000  0.24510000  0.40602000  1.0
  H  H34  1  0.75393000  0.65722000  0.45378000  1.0
  H  H35  1  0.24607000  0.34279000  0.54622000  1.0
  H  H36  1  0.20492000  0.55356000  0.58145000  1.0
  H  H37  1  0.79508000  0.44644000  0.41855000  1.0
  H  H38  1  0.14195000  0.46810000  0.38422000  1.0
  H  H39  1  0.85805000  0.53191000  0.61578000  1.0
  H  H40  1  0.00339000  0.49331000  0.29384000  1.0
  H  H41  1  0.99661000  0.50669000  0.70616000  1.0
  H  H42  1  0.44649000  0.47022000  0.28315000  1.0
  H  H43  1  0.55352000  0.52978000  0.71685000  1.0
  H  H44  1  0.29430000  0.51894000  0.19842000  1.0
  H  H45  1  0.70570000  0.48106000  0.80158000  1.0
  H  H46  1  0.36349000  0.65917000  0.33912000  1.0
  H  H47  1  0.63650000  0.34083000  0.66088000  1.0
  H  H48  1  0.18304000  0.70735000  0.26514000  1.0
  H  H49  1  0.81696000  0.29265000  0.73486000  1.0
  H  H50  1  0.42178000  0.74626000  0.14644000  1.0
  H  H51  1  0.57822000  0.25373000  0.85356000  1.0
  H  H52  1  0.47880000  0.82698000  0.22417000  1.0
  H  H53  1  0.52120000  0.17301000  0.77582000  1.0
  H  H54  1  0.68003000  0.58877000  0.18283000  1.0
  H  H55  1  0.31997000  0.41123000  0.81717000  1.0
  H  H56  1  0.71344000  0.63327000  0.27956000  1.0
  H  H57  1  0.28656000  0.36672000  0.72044000  1.0
  H  H58  1  0.97155000  0.70745000  0.16308000  1.0
  H  H59  1  0.02846000  0.29255000  0.83693000  1.0
  H  H60  1  0.79492000  0.80632000  0.10588000  1.0
  H  H61  1  0.20508000  0.19368000  0.89413000  1.0
  H  H62  1  0.87891000  0.81683000  0.28852000  1.0
  H  H63  1  0.12109000  0.18317000  0.71148000  1.0
  H  H64  1  0.73874000  0.92498000  0.21971000  1.0
  H  H65  1  0.26126000  0.07501000  0.78029000  1.0
  C  C66  1  0.53654000  0.07230000  0.09155000  1.0
  C  C67  1  0.46346000  0.92769000  0.90845000  1.0
  C  C68  1  0.70901000  0.10264000  0.04798000  1.0
  C  C69  1  0.29099000  0.89736000  0.95202000  1.0
  C  C70  1  0.67976000  0.19725000  0.15807000  1.0
  C  C71  1  0.32024000  0.80275000  0.84193000  1.0
  C  C72  1  0.72605000  0.27626000  0.21804000  1.0
  C  C73  1  0.27395000  0.72374000  0.78196000  1.0
  C  C74  1  0.99026000  0.23036000  0.06934000  1.0
  C  C75  1  0.00974000  0.76963000  0.93066000  1.0
  C  C76  1  0.99126000  0.37023000  0.03404000  1.0
  C  C77  1  0.00874000  0.62976000  0.96596000  1.0
  C  C78  1  0.13552000  0.44086000  0.05717000  1.0
  C  C79  1  0.86448000  0.55913000  0.94283000  1.0
  C  C80  1  0.14440000  0.56958000  0.02328000  1.0
  C  C81  1  0.85560000  0.43041000  0.97672000  1.0
  C  C82  1  0.63652000  0.98676000  0.37389000  1.0
  C  C83  1  0.36349000  0.01324000  0.62610000  1.0
  C  C84  1  0.66466000  0.89820000  0.44645000  1.0
  C  C85  1  0.33535000  0.10180000  0.55355000  1.0
  C  C86  1  0.35157000  0.91150000  0.41952000  1.0
  C  C87  1  0.64843000  0.08850000  0.58047000  1.0
  C  C88  1  0.14156000  0.89089000  0.43084000  1.0
  C  C89  1  0.85844000  0.10912000  0.56916000  1.0
  C  C90  1  0.44953000  0.74646000  0.54549000  1.0
  C  C91  1  0.55046000  0.25355000  0.45451000  1.0
  C  C92  1  0.47647000  0.61970000  0.52080000  1.0
  C  C93  1  0.52352000  0.38030000  0.47920000  1.0
  C  C94  1  0.64168000  0.58867000  0.47436000  1.0
  C  C95  1  0.35831000  0.41134000  0.52563000  1.0
  C  C96  1  0.33507000  0.52973000  0.54604000  1.0
  C  C97  1  0.66492000  0.47027000  0.45396000  1.0
  C  C98  1  0.14484000  0.31218000  0.32310000  1.0
  C  C99  1  0.85517000  0.68782000  0.67691000  1.0
  C  C100  1  0.14332000  0.45390000  0.31881000  1.0
  C  C101  1  0.85668000  0.54610000  0.68119000  1.0
  C  C102  1  0.31004000  0.52215000  0.26520000  1.0
  C  C103  1  0.68996000  0.47784000  0.73480000  1.0
  C  C104  1  0.32536000  0.65832000  0.27395000  1.0
  C  C105  1  0.67464000  0.34168000  0.72605000  1.0
  C  C106  1  0.47360000  0.73198000  0.21108000  1.0
  C  C107  1  0.52641000  0.26802000  0.78891000  1.0
  C  C108  1  0.67751000  0.67064000  0.21307000  1.0
  C  C109  1  0.32249000  0.32936000  0.78693000  1.0
  C  C110  1  0.83485000  0.76063000  0.17033000  1.0
  C  C111  1  0.16516000  0.23937000  0.82967000  1.0
  C  C112  1  0.86630000  0.86069000  0.22101000  1.0
  C  C113  1  0.13369000  0.13931000  0.77900000  1.0
  C  C114  1  0.04057000  0.94227000  0.19384000  1.0
  C  C115  1  0.95942000  0.05773000  0.80617000  1.0
  N  N116  1  0.51967000  0.13120000  0.15993000  1.0
  N  N117  1  0.48033000  0.86879000  0.84007000  1.0
  N  N118  1  0.79739000  0.18052000  0.09073000  1.0
  N  N119  1  0.20261000  0.81947000  0.90927000  1.0
  N  N120  1  0.44142000  0.99451000  0.35763000  1.0
  N  N121  1  0.55859000  0.00549000  0.64237000  1.0
  N  N122  1  0.48476000  0.85140000  0.47409000  1.0
  N  N123  1  0.51524000  0.14861000  0.52591000  1.0
  O  O124  1  0.25289000  0.27452000  0.26443000  1.0
  O  O125  1  0.74710000  0.72549000  0.73557000  1.0
  O  O126  1  0.04706000  0.24189000  0.38008000  1.0
  O  O127  1  0.95296000  0.75811000  0.61992000  1.0
  O  O128  1  0.07291000  0.01490000  0.24610000  1.0
  O  O129  1  0.92708000  0.98510000  0.75391000  1.0
  O  O130  1  0.13886000  0.93831000  0.12751000  1.0
  O  O131  1  0.86113000  0.06170000  0.87249000  1.0
