# generated using pymatgen
data_HgH6C10(Br3N)2
_symmetry_space_group_name_H-M   'P 1'
_cell_length_a   3.98688000
_cell_length_b   14.45150000
_cell_length_c   14.53210000
_cell_angle_alpha   87.02670000
_cell_angle_beta   83.05420000
_cell_angle_gamma   82.67170000
_symmetry_Int_Tables_number   1
_chemical_formula_structural   HgH6C10(Br3N)2
_chemical_formula_sum   'Hg2 H12 C20 Br12 N4'
_cell_volume   823.78825141
_cell_formula_units_Z   2
loop_
 _symmetry_equiv_pos_site_id
 _symmetry_equiv_pos_as_xyz
  1  'x, y, z'
loop_
 _atom_site_type_symbol
 _atom_site_label
 _atom_site_symmetry_multiplicity
 _atom_site_fract_x
 _atom_site_fract_y
 _atom_site_fract_z
 _atom_site_occupancy
  Hg  Hg0  1  0.99999000  0.00000000  0.00000000  1.0
  Hg  Hg1  1  0.50013000  0.50000000  0.50001000  1.0
  H  H2  1  0.66688000  0.22062000  0.02877000  1.0
  H  H3  1  0.33305000  0.77939000  0.97122000  1.0
  H  H4  1  0.72569000  0.31602000  0.30375000  1.0
  H  H5  1  0.27428000  0.68398000  0.69625000  1.0
  H  H6  1  0.11615000  0.03538000  0.21908000  1.0
  H  H7  1  0.88383000  0.96462000  0.78091000  1.0
  H  H8  1  0.64235000  0.53795000  0.27029000  1.0
  H  H9  1  0.35770000  0.46204000  0.72974000  1.0
  H  H10  1  0.99557000  0.80748000  0.20231000  1.0
  H  H11  1  0.00435000  0.19252000  0.79767000  1.0
  H  H12  1  0.46829000  0.73903000  0.47093000  1.0
  H  H13  1  0.53176000  0.26097000  0.52908000  1.0
  C  C14  1  0.74241000  0.20978000  0.09859000  1.0
  C  C15  1  0.25753000  0.79023000  0.90141000  1.0
  C  C16  1  0.68239000  0.28013000  0.16291000  1.0
  C  C17  1  0.31755000  0.71987000  0.83709000  1.0
  C  C18  1  0.77548000  0.26243000  0.25222000  1.0
  C  C19  1  0.22449000  0.73757000  0.74778000  1.0
  C  C20  1  0.93004000  0.17297000  0.27308000  1.0
  C  C21  1  0.06993000  0.82703000  0.72692000  1.0
  C  C22  1  0.98990000  0.10549000  0.20577000  1.0
  C  C23  1  0.01008000  0.89452000  0.79423000  1.0
  C  C24  1  0.67104000  0.60874000  0.28805000  1.0
  C  C25  1  0.32901000  0.39126000  0.71196000  1.0
  C  C26  1  0.83066000  0.66978000  0.22472000  1.0
  C  C27  1  0.16932000  0.33021000  0.77529000  1.0
  C  C28  1  0.86355000  0.75968000  0.24993000  1.0
  C  C29  1  0.13640000  0.24031000  0.75007000  1.0
  C  C30  1  0.72500000  0.78541000  0.33898000  1.0
  C  C31  1  0.27499000  0.21459000  0.66102000  1.0
  C  C32  1  0.57145000  0.72142000  0.40017000  1.0
  C  C33  1  0.42860000  0.27858000  0.59984000  1.0
  Br  Br34  1  0.54876000  0.09864000  0.89981000  1.0
  Br  Br35  1  0.45122000  0.90136000  0.10018000  1.0
  Br  Br36  1  0.47206000  0.40026000  0.12829000  1.0
  Br  Br37  1  0.52784000  0.59975000  0.87172000  1.0
  Br  Br38  1  0.05561000  0.14154000  0.39396000  1.0
  Br  Br39  1  0.94438000  0.85846000  0.60604000  1.0
  Br  Br40  1  0.15292000  0.41241000  0.39795000  1.0
  Br  Br41  1  0.84736000  0.58760000  0.60206000  1.0
  Br  Br42  1  0.74969000  0.90802000  0.37704000  1.0
  Br  Br43  1  0.25029000  0.09198000  0.62295000  1.0
  Br  Br44  1  0.00898000  0.63018000  0.10398000  1.0
  Br  Br45  1  0.99098000  0.36981000  0.89603000  1.0
  N  N46  1  0.89478000  0.12493000  0.12087000  1.0
  N  N47  1  0.10518000  0.87507000  0.87912000  1.0
  N  N48  1  0.54991000  0.63499000  0.37407000  1.0
  N  N49  1  0.45015000  0.36501000  0.62594000  1.0
