# generated using pymatgen
data_DyH6(CO)8
_symmetry_space_group_name_H-M   'P 1'
_cell_length_a   8.83608000
_cell_length_b   8.83609000
_cell_length_c   12.59540000
_cell_angle_alpha   83.49000000
_cell_angle_beta   83.48990000
_cell_angle_gamma   86.90680000
_symmetry_Int_Tables_number   1
_chemical_formula_structural   DyH6(CO)8
_chemical_formula_sum   'Dy4 H24 C32 O32'
_cell_volume   969.92034122
_cell_formula_units_Z   4
loop_
 _symmetry_equiv_pos_site_id
 _symmetry_equiv_pos_as_xyz
  1  'x, y, z'
loop_
 _atom_site_type_symbol
 _atom_site_label
 _atom_site_symmetry_multiplicity
 _atom_site_fract_x
 _atom_site_fract_y
 _atom_site_fract_z
 _atom_site_occupancy
  Dy  Dy0  1  0.19273000  0.26384000  0.22271000  1.0
  Dy  Dy1  1  0.73616000  0.80727000  0.27728000  1.0
  Dy  Dy2  1  0.80727000  0.73615000  0.77729000  1.0
  Dy  Dy3  1  0.26384000  0.19273000  0.72272000  1.0
  H  H4  1  0.18077000  0.55103000  0.97606000  1.0
  H  H5  1  0.44897000  0.81923000  0.52394000  1.0
  H  H6  1  0.81923000  0.44898000  0.02394000  1.0
  H  H7  1  0.55103000  0.18077000  0.47606000  1.0
  H  H8  1  0.37942000  0.59383000  0.96549000  1.0
  H  H9  1  0.40617000  0.62058000  0.53452000  1.0
  H  H10  1  0.62058000  0.40618000  0.03451000  1.0
  H  H11  1  0.59383000  0.37943000  0.46549000  1.0
  H  H12  1  0.21071000  0.73593000  0.10328000  1.0
  H  H13  1  0.26406000  0.78929000  0.39672000  1.0
  H  H14  1  0.78929000  0.26406000  0.89672000  1.0
  H  H15  1  0.73594000  0.21072000  0.60328000  1.0
  H  H16  1  0.36064000  0.61883000  0.15904000  1.0
  H  H17  1  0.38117000  0.63935000  0.34096000  1.0
  H  H18  1  0.63935000  0.38117000  0.84096000  1.0
  H  H19  1  0.61883000  0.36065000  0.65904000  1.0
  H  H20  1  0.07207000  0.58967000  0.23726000  1.0
  H  H21  1  0.41033000  0.92793000  0.26274000  1.0
  H  H22  1  0.92793000  0.41033000  0.76274000  1.0
  H  H23  1  0.58967000  0.07207000  0.73726000  1.0
  H  H24  1  0.31566000  0.32163000  0.98863000  1.0
  H  H25  1  0.67837000  0.68434000  0.51137000  1.0
  H  H26  1  0.68434000  0.67837000  0.01137000  1.0
  H  H27  1  0.32163000  0.31566000  0.48863000  1.0
  C  C28  1  0.07980000  0.43369000  0.45570000  1.0
  C  C29  1  0.56631000  0.92019000  0.04431000  1.0
  C  C30  1  0.92019000  0.56630000  0.54431000  1.0
  C  C31  1  0.43369000  0.07981000  0.95570000  1.0
  C  C32  1  0.97312000  0.56331000  0.42892000  1.0
  C  C33  1  0.43668000  0.02688000  0.07107000  1.0
  C  C34  1  0.02687000  0.43669000  0.57107000  1.0
  C  C35  1  0.56332000  0.97312000  0.92892000  1.0
  C  C36  1  0.03029000  0.08841000  0.04082000  1.0
  C  C37  1  0.91159000  0.96971000  0.45919000  1.0
  C  C38  1  0.96972000  0.91159000  0.95918000  1.0
  C  C39  1  0.08841000  0.03029000  0.54082000  1.0
  C  C40  1  0.97777000  0.93226000  0.07304000  1.0
  C  C41  1  0.06775000  0.02223000  0.42696000  1.0
  C  C42  1  0.02223000  0.06774000  0.92696000  1.0
  C  C43  1  0.93226000  0.97777000  0.57303000  1.0
  C  C44  1  0.80382000  0.30800000  0.25900000  1.0
  C  C45  1  0.69198000  0.19617000  0.24100000  1.0
  C  C46  1  0.19617000  0.69199000  0.74100000  1.0
  C  C47  1  0.30802000  0.80383000  0.75900000  1.0
  C  C48  1  0.68378000  0.43024000  0.25107000  1.0
  C  C49  1  0.56976000  0.31622000  0.24893000  1.0
  C  C50  1  0.31623000  0.56975000  0.74893000  1.0
  C  C51  1  0.43024000  0.68378000  0.75107000  1.0
  C  C52  1  0.28404000  0.54139000  0.01824000  1.0
  C  C53  1  0.45861000  0.71596000  0.48176000  1.0
  C  C54  1  0.71596000  0.45861000  0.98176000  1.0
  C  C55  1  0.54139000  0.28404000  0.51824000  1.0
  C  C56  1  0.25498000  0.61824000  0.12021000  1.0
  C  C57  1  0.38176000  0.74502000  0.37980000  1.0
  C  C58  1  0.74502000  0.38176000  0.87980000  1.0
  C  C59  1  0.61824000  0.25498000  0.62020000  1.0
  O  O60  1  0.17796000  0.35305000  0.40400000  1.0
  O  O61  1  0.64694000  0.82204000  0.09600000  1.0
  O  O62  1  0.82204000  0.64695000  0.59600000  1.0
  O  O63  1  0.35305000  0.17796000  0.90400000  1.0
  O  O64  1  0.94371000  0.64165000  0.34272000  1.0
  O  O65  1  0.35835000  0.05629000  0.15729000  1.0
  O  O66  1  0.05629000  0.35834000  0.65728000  1.0
  O  O67  1  0.64165000  0.94371000  0.84272000  1.0
  O  O68  1  0.06684000  0.19663000  0.08779000  1.0
  O  O69  1  0.80339000  0.93316000  0.41221000  1.0
  O  O70  1  0.93316000  0.80337000  0.91221000  1.0
  O  O71  1  0.19662000  0.06684000  0.58779000  1.0
  O  O72  1  0.95125000  0.84877000  0.16054000  1.0
  O  O73  1  0.15124000  0.04875000  0.33946000  1.0
  O  O74  1  0.04875000  0.15122000  0.83946000  1.0
  O  O75  1  0.84878000  0.95125000  0.66053000  1.0
  O  O76  1  0.94001000  0.30334000  0.27880000  1.0
  O  O77  1  0.69665000  0.06000000  0.22120000  1.0
  O  O78  1  0.05999000  0.69665000  0.72120000  1.0
  O  O79  1  0.30335000  0.94000000  0.77880000  1.0
  O  O80  1  0.67713000  0.57329000  0.24353000  1.0
  O  O81  1  0.42671000  0.32287000  0.25647000  1.0
  O  O82  1  0.32287000  0.42671000  0.75647000  1.0
  O  O83  1  0.57330000  0.67713000  0.74353000  1.0
  O  O84  1  0.32205000  0.38302000  0.04963000  1.0
  O  O85  1  0.61697000  0.67795000  0.45037000  1.0
  O  O86  1  0.67794000  0.61697000  0.95037000  1.0
  O  O87  1  0.38302000  0.32206000  0.54963000  1.0
  O  O88  1  0.14433000  0.52959000  0.18954000  1.0
  O  O89  1  0.47041000  0.85567000  0.31046000  1.0
  O  O90  1  0.85567000  0.47041000  0.81046000  1.0
  O  O91  1  0.52959000  0.14434000  0.68954000  1.0
