# generated using pymatgen
data_Zn3H42C46(NO2)8
_symmetry_space_group_name_H-M   'P 1'
_cell_length_a   10.27600000
_cell_length_b   10.80240000
_cell_length_c   12.54660000
_cell_angle_alpha   109.32100000
_cell_angle_beta   106.13400000
_cell_angle_gamma   95.74340000
_symmetry_Int_Tables_number   1
_chemical_formula_structural   Zn3H42C46(NO2)8
_chemical_formula_sum   'Zn3 H42 C46 N8 O16'
_cell_volume   1233.88936252
_cell_formula_units_Z   1
loop_
 _symmetry_equiv_pos_site_id
 _symmetry_equiv_pos_as_xyz
  1  'x, y, z'
loop_
 _atom_site_type_symbol
 _atom_site_label
 _atom_site_symmetry_multiplicity
 _atom_site_fract_x
 _atom_site_fract_y
 _atom_site_fract_z
 _atom_site_occupancy
  Zn  Zn0  1  0.00000000  0.50000000  0.50000000  1.0
  Zn  Zn1  1  0.53118000  0.25249000  0.67744000  1.0
  Zn  Zn2  1  0.46882000  0.74751000  0.32256000  1.0
  H  H3  1  0.17999000  0.92120000  0.61603000  1.0
  H  H4  1  0.82000000  0.07880000  0.38397000  1.0
  H  H5  1  0.03730000  0.29190000  0.67969000  1.0
  H  H6  1  0.96271000  0.70810000  0.32031000  1.0
  H  H7  1  0.79106000  0.94490000  0.67748000  1.0
  H  H8  1  0.20894000  0.05510000  0.32253000  1.0
  H  H9  1  0.39215000  0.97619000  0.21435000  1.0
  H  H10  1  0.60784000  0.02382000  0.78566000  1.0
  H  H11  1  0.17885000  0.84344000  0.04883000  1.0
  H  H12  1  0.82115000  0.15656000  0.95117000  1.0
  H  H13  1  0.10656000  0.89792000  0.86479000  1.0
  H  H14  1  0.89344000  0.10207000  0.13521000  1.0
  H  H15  1  0.25407000  0.08460000  0.85081000  1.0
  H  H16  1  0.74593000  0.91540000  0.14918000  1.0
  H  H17  1  0.64208000  0.12085000  0.25423000  1.0
  H  H18  1  0.35792000  0.87915000  0.74576000  1.0
  H  H19  1  0.63031000  0.27133000  0.22967000  1.0
  H  H20  1  0.36968000  0.72867000  0.77033000  1.0
  H  H21  1  0.47004000  0.23202000  0.91616000  1.0
  H  H22  1  0.52996000  0.76798000  0.08384000  1.0
  H  H23  1  0.59467000  0.27846000  0.05944000  1.0
  H  H24  1  0.40533000  0.72153000  0.94056000  1.0
  H  H25  1  0.63056000  0.13111000  0.44910000  1.0
  H  H26  1  0.36944000  0.86889000  0.55090000  1.0
  H  H27  1  0.36194000  0.39834000  0.51230000  1.0
  H  H28  1  0.63806000  0.60166000  0.48770000  1.0
  H  H29  1  0.39321000  0.36364000  0.29277000  1.0
  H  H30  1  0.60679000  0.63636000  0.70723000  1.0
  H  H31  1  0.60294000  0.49336000  0.21710000  1.0
  H  H32  1  0.39706000  0.50664000  0.78290000  1.0
  H  H33  1  0.21777000  0.58265000  0.07346000  1.0
  H  H34  1  0.78223000  0.41736000  0.92654000  1.0
  H  H35  1  0.23219000  0.33390000  0.91954000  1.0
  H  H36  1  0.76781000  0.66610000  0.08046000  1.0
  H  H37  1  0.81463000  0.57609000  0.34076000  1.0
  H  H38  1  0.18537000  0.42391000  0.65924000  1.0
  H  H39  1  0.89989000  0.48123000  0.27553000  1.0
  H  H40  1  0.10011000  0.51877000  0.72447000  1.0
  H  H41  1  0.83603000  0.42000000  0.61901000  1.0
  H  H42  1  0.16397000  0.58000000  0.38099000  1.0
  H  H43  1  0.85548000  0.57625000  0.63122000  1.0
  H  H44  1  0.14453000  0.42375000  0.36879000  1.0
  C  C45  1  0.98411000  0.91920000  0.64565000  1.0
  C  C46  1  0.01589000  0.08080000  0.35435000  1.0
  C  C47  1  0.10417000  0.98050000  0.63591000  1.0
  C  C48  1  0.89583000  0.01950000  0.36409000  1.0
  C  C49  1  0.12740000  0.11637000  0.65262000  1.0
  C  C50  1  0.87260000  0.88363000  0.34738000  1.0
  C  C51  1  0.02476000  0.18792000  0.67178000  1.0
  C  C52  1  0.97524000  0.81208000  0.32822000  1.0
  C  C53  1  0.90296000  0.12724000  0.67950000  1.0
  C  C54  1  0.09705000  0.87276000  0.32050000  1.0
  C  C55  1  0.88401000  0.99298000  0.66912000  1.0
  C  C56  1  0.11600000  0.00702000  0.33088000  1.0
  C  C57  1  0.96450000  0.77418000  0.63113000  1.0
  C  C58  1  0.03550000  0.22582000  0.36887000  1.0
  C  C59  1  0.26126000  0.18653000  0.65475000  1.0
  C  C60  1  0.73875000  0.81347000  0.34525000  1.0
  C  C61  1  0.79541000  0.20899000  0.69642000  1.0
  C  C62  1  0.20458000  0.79101000  0.30358000  1.0
  C  C63  1  0.44492000  0.10819000  0.12857000  1.0
  C  C64  1  0.55508000  0.89181000  0.87143000  1.0
  C  C65  1  0.36291000  0.00022000  0.13419000  1.0
  C  C66  1  0.63709000  0.99978000  0.86581000  1.0
  C  C67  1  0.24209000  0.92496000  0.04071000  1.0
  C  C68  1  0.75790000  0.07504000  0.95929000  1.0
  C  C69  1  0.20165000  0.95553000  0.93808000  1.0
  C  C70  1  0.79835000  0.04446000  0.06191000  1.0
  C  C71  1  0.28391000  0.06134000  0.93128000  1.0
  C  C72  1  0.71609000  0.93865000  0.06872000  1.0
  C  C73  1  0.40502000  0.13916000  0.02544000  1.0
  C  C74  1  0.59497000  0.86084000  0.97455000  1.0
  C  C75  1  0.57078000  0.18671000  0.23757000  1.0
  C  C76  1  0.42922000  0.81329000  0.76243000  1.0
  C  C77  1  0.48320000  0.25564000  0.01109000  1.0
  C  C78  1  0.51680000  0.74435000  0.98890000  1.0
  C  C79  1  0.56510000  0.20239000  0.44022000  1.0
  C  C80  1  0.43490000  0.79761000  0.55978000  1.0
  C  C81  1  0.42436000  0.33969000  0.46796000  1.0
  C  C82  1  0.57564000  0.66031000  0.53204000  1.0
  C  C83  1  0.43972000  0.32402000  0.35960000  1.0
  C  C84  1  0.56028000  0.67598000  0.64040000  1.0
  C  C85  1  0.50012000  0.48537000  0.15837000  1.0
  C  C86  1  0.49988000  0.51463000  0.84163000  1.0
  C  C87  1  0.30031000  0.52768000  0.07948000  1.0
  C  C88  1  0.69969000  0.47232000  0.92052000  1.0
  C  C89  1  0.30587000  0.40472000  0.00337000  1.0
  C  C90  1  0.69413000  0.59528000  0.99663000  1.0
  N  N91  1  0.50319000  0.26368000  0.51746000  1.0
  N  N92  1  0.49681000  0.73632000  0.48254000  1.0
  N  N93  1  0.52963000  0.23784000  0.34397000  1.0
  N  N94  1  0.47037000  0.76216000  0.65603000  1.0
  N  N95  1  0.42227000  0.57722000  0.17590000  1.0
  N  N96  1  0.57773000  0.42278000  0.82410000  1.0
  N  N97  1  0.43301000  0.37963000  0.05484000  1.0
  N  N98  1  0.56699000  0.62037000  0.94515000  1.0
  O  O99  1  0.02027000  0.70207000  0.55996000  1.0
  O  O100  1  0.97973000  0.29793000  0.44004000  1.0
  O  O101  1  0.89764000  0.73603000  0.68938000  1.0
  O  O102  1  0.10236000  0.26397000  0.31062000  1.0
  O  O103  1  0.67874000  0.14613000  0.69204000  1.0
  O  O104  1  0.32126000  0.85387000  0.30796000  1.0
  O  O105  1  0.82073000  0.33143000  0.71207000  1.0
  O  O106  1  0.17926000  0.66857000  0.28792000  1.0
  O  O107  1  0.27198000  0.30058000  0.64688000  1.0
  O  O108  1  0.72802000  0.69942000  0.35312000  1.0
  O  O109  1  0.36475000  0.12781000  0.66933000  1.0
  O  O110  1  0.63526000  0.87219000  0.33067000  1.0
  O  O111  1  0.84000000  0.48559000  0.32416000  1.0
  O  O112  1  0.16001000  0.51441000  0.67585000  1.0
  O  O113  1  0.84123000  0.47995000  0.57465000  1.0
  O  O114  1  0.15878000  0.52006000  0.42535000  1.0
