# generated using pymatgen
data_ZnH6C2(N5F)2
_symmetry_space_group_name_H-M   'P 1'
_cell_length_a   3.35299000
_cell_length_b   10.23140000
_cell_length_c   12.15180000
_cell_angle_alpha   90.00000000
_cell_angle_beta   90.00000000
_cell_angle_gamma   98.15140000
_symmetry_Int_Tables_number   1
_chemical_formula_structural   ZnH6C2(N5F)2
_chemical_formula_sum   'Zn2 H12 C4 N20 F4'
_cell_volume   412.66523236
_cell_formula_units_Z   2
loop_
 _symmetry_equiv_pos_site_id
 _symmetry_equiv_pos_as_xyz
  1  'x, y, z'
loop_
 _atom_site_type_symbol
 _atom_site_label
 _atom_site_symmetry_multiplicity
 _atom_site_fract_x
 _atom_site_fract_y
 _atom_site_fract_z
 _atom_site_occupancy
  Zn  Zn0  1  0.50000000  0.00000000  0.00000000  1.0
  Zn  Zn1  1  0.00000000  0.50000000  0.50000000  1.0
  H  H2  1  0.51881000  0.70065000  0.65601000  1.0
  H  H3  1  0.98119000  0.79935000  0.15601000  1.0
  H  H4  1  0.48120000  0.29935000  0.34399000  1.0
  H  H5  1  0.01880000  0.20065000  0.84399000  1.0
  H  H6  1  0.72664000  0.72316000  0.96609000  1.0
  H  H7  1  0.77337000  0.77684000  0.46609000  1.0
  H  H8  1  0.27337000  0.27684000  0.03391000  1.0
  H  H9  1  0.22663000  0.22316000  0.53391000  1.0
  H  H10  1  0.69644000  0.60916000  0.85801000  1.0
  H  H11  1  0.80356000  0.89084000  0.35801000  1.0
  H  H12  1  0.30357000  0.39084000  0.14199000  1.0
  H  H13  1  0.19644000  0.10916000  0.64199000  1.0
  C  C14  1  0.53111000  0.78679000  0.82286000  1.0
  C  C15  1  0.96890000  0.71321000  0.32286000  1.0
  C  C16  1  0.46889000  0.21321000  0.17714000  1.0
  C  C17  1  0.03110000  0.28679000  0.67714000  1.0
  N  N18  1  0.47213000  0.91066000  0.85010000  1.0
  N  N19  1  0.02787000  0.58934000  0.35010000  1.0
  N  N20  1  0.52787000  0.08934000  0.14990000  1.0
  N  N21  1  0.97213000  0.41066000  0.64990000  1.0
  N  N22  1  0.39476000  0.97272000  0.75474000  1.0
  N  N23  1  0.10524000  0.52728000  0.25474000  1.0
  N  N24  1  0.60524000  0.02728000  0.24527000  1.0
  N  N25  1  0.89476000  0.47272000  0.74527000  1.0
  N  N26  1  0.40144000  0.89373000  0.67235000  1.0
  N  N27  1  0.09856000  0.60627000  0.17235000  1.0
  N  N28  1  0.59856000  0.10627000  0.32765000  1.0
  N  N29  1  0.90144000  0.39373000  0.82765000  1.0
  N  N30  1  0.48352000  0.77676000  0.71260000  1.0
  N  N31  1  0.01648000  0.72324000  0.21260000  1.0
  N  N32  1  0.51648000  0.22324000  0.28740000  1.0
  N  N33  1  0.98352000  0.27676000  0.78740000  1.0
  N  N34  1  0.60700000  0.69136000  0.89183000  1.0
  N  N35  1  0.89301000  0.80864000  0.39183000  1.0
  N  N36  1  0.39301000  0.30864000  0.10816000  1.0
  N  N37  1  0.10699000  0.19136000  0.60817000  1.0
  F  F38  1  0.06183000  0.12332000  0.95035000  1.0
  F  F39  1  0.43818000  0.37668000  0.45035000  1.0
  F  F40  1  0.93817000  0.87668000  0.04965000  1.0
  F  F41  1  0.56183000  0.62332000  0.54965000  1.0
