# generated using pymatgen
data_ZnH9C22NO10
_symmetry_space_group_name_H-M   'P 1'
_cell_length_a   13.87450000
_cell_length_b   16.73040000
_cell_length_c   17.62890000
_cell_angle_alpha   87.35530000
_cell_angle_beta   84.63270000
_cell_angle_gamma   71.34700000
_symmetry_Int_Tables_number   1
_chemical_formula_structural   ZnH9C22NO10
_chemical_formula_sum   'Zn2 H18 C44 N2 O20'
_cell_volume   3859.60721996
_cell_formula_units_Z   2
loop_
 _symmetry_equiv_pos_site_id
 _symmetry_equiv_pos_as_xyz
  1  'x, y, z'
loop_
 _atom_site_type_symbol
 _atom_site_label
 _atom_site_symmetry_multiplicity
 _atom_site_fract_x
 _atom_site_fract_y
 _atom_site_fract_z
 _atom_site_occupancy
  Zn  Zn0  1  0.51167000  0.40683000  0.49453000  1.0
  Zn  Zn1  1  0.48080000  0.59031000  0.50260000  1.0
  H  H2  1  0.44083000  0.39697000  0.28149000  1.0
  H  H3  1  0.40142000  0.66653000  0.93487000  1.0
  H  H4  1  0.46706000  0.70089000  0.21474000  1.0
  H  H5  1  0.51787000  0.29822000  0.78654000  1.0
  H  H6  1  0.74707000  0.07964000  0.59378000  1.0
  H  H7  1  0.27383000  0.92948000  0.43035000  1.0
  H  H8  1  0.65262000  0.31160000  0.58785000  1.0
  H  H9  1  0.31384000  0.70607000  0.46019000  1.0
  H  H10  1  0.38576000  0.28489000  0.36754000  1.0
  H  H11  1  0.70245000  0.66343000  0.56354000  1.0
  H  H12  1  0.45633000  0.62235000  0.72459000  1.0
  H  H13  1  0.44548000  0.63933000  0.11060000  1.0
  H  H14  1  0.47264000  0.37313000  0.89236000  1.0
  H  H15  1  0.43544000  0.14474000  0.40646000  1.0
  H  H16  1  0.65581000  0.81191000  0.54055000  1.0
  H  H17  1  0.01094000  0.34665000  0.47515000  1.0
  H  H18  1  0.96250000  0.67878000  0.55724000  1.0
  H  H19  1  0.39276000  0.37367000  0.07835000  1.0
  C  C20  1  0.49766000  0.48499000  0.64274000  1.0
  C  C21  1  0.43265000  0.85897000  0.45413000  1.0
  C  C22  1  0.58863000  0.21886000  0.54226000  1.0
  C  C23  1  0.42215000  0.77854000  0.46386000  1.0
  C  C24  1  0.47777000  0.24893000  0.44642000  1.0
  C  C25  1  0.57189000  0.72551000  0.52534000  1.0
  C  C26  1  0.48035000  0.16454000  0.44495000  1.0
  C  C27  1  0.58971000  0.80375000  0.51707000  1.0
  C  C28  1  0.54171000  0.10514000  0.49322000  1.0
  C  C29  1  0.51946000  0.87169000  0.48282000  1.0
  C  C30  1  0.54330000  0.02046000  0.49067000  1.0
  C  C31  1  0.47547000  0.51519000  0.35726000  1.0
  C  C32  1  0.53225000  0.95215000  0.48234000  1.0
  C  C33  1  0.68926000  0.46830000  0.48368000  1.0
  C  C34  1  0.29976000  0.53350000  0.52152000  1.0
  C  C35  1  0.19128000  0.54436000  0.53029000  1.0
  C  C36  1  0.79170000  0.46735000  0.49520000  1.0
  C  C37  1  0.00184000  0.54508000  0.53196000  1.0
  C  C38  1  0.97185000  0.47734000  0.51262000  1.0
  C  C39  1  0.87104000  0.48043000  0.50681000  1.0
  C  C40  1  0.10450000  0.54093000  0.53196000  1.0
  C  C41  1  0.42378000  0.44693000  0.16751000  1.0
  C  C42  1  0.44232000  0.58659000  0.14858000  1.0
  C  C43  1  0.44033000  0.57904000  0.83996000  1.0
  C  C44  1  0.44037000  0.45067000  0.24402000  1.0
  C  C45  1  0.45923000  0.56758000  0.76136000  1.0
  C  C46  1  0.45715000  0.51976000  0.27459000  1.0
  C  C47  1  0.48162000  0.48912000  0.72783000  1.0
  C  C48  1  0.45550000  0.58997000  0.22602000  1.0
  C  C49  1  0.48631000  0.41809000  0.77640000  1.0
  C  C50  1  0.04777000  0.39196000  0.49354000  1.0
  C  C51  1  0.92694000  0.62905000  0.55002000  1.0
  C  C52  1  0.40250000  0.37301000  0.14051000  1.0
  C  C53  1  0.46806000  0.42820000  0.85537000  1.0
  C  C54  1  0.41646000  0.66373000  0.87155000  1.0
  C  C55  1  0.67217000  0.06978000  0.59050000  1.0
  C  C56  1  0.35332000  0.93100000  0.42066000  1.0
  C  C57  1  0.64170000  0.24958000  0.59928000  1.0
  C  C58  1  0.33519000  0.75959000  0.43246000  1.0
  C  C59  1  0.42832000  0.51548000  0.11795000  1.0
  C  C60  1  0.44523000  0.50755000  0.88826000  1.0
  C  C61  1  0.42501000  0.51276000  0.03817000  1.0
  C  C62  1  0.43120000  0.51332000  0.96859000  1.0
  C  C63  1  0.59942000  0.13276000  0.54280000  1.0
  N  N64  1  0.53033000  0.27624000  0.49432000  1.0
  N  N65  1  0.48856000  0.71359000  0.49978000  1.0
  O  O66  1  0.49129000  0.42061000  0.61050000  1.0
  O  O67  1  0.83363000  0.64555000  0.55670000  1.0
  O  O68  1  0.39417000  0.31374000  0.18177000  1.0
  O  O69  1  0.41251000  0.72778000  0.83335000  1.0
  O  O70  1  0.47072000  0.65828000  0.25499000  1.0
  O  O71  1  0.51042000  0.34069000  0.74579000  1.0
  O  O72  1  0.65437000  0.00750000  0.61933000  1.0
  O  O73  1  0.37263000  0.99079000  0.38749000  1.0
  O  O74  1  0.67300000  0.20583000  0.65515000  1.0
  O  O75  1  0.28987000  0.80127000  0.38025000  1.0
  O  O76  1  0.42230000  0.30850000  0.40045000  1.0
  O  O77  1  0.44352000  0.58322000  0.39464000  1.0
  O  O78  1  0.63309000  0.65968000  0.56042000  1.0
  O  O79  1  0.51522000  0.54843000  0.60859000  1.0
  O  O80  1  0.51986000  0.44170000  0.38342000  1.0
  O  O81  1  0.66558000  0.40204000  0.50184000  1.0
  O  O82  1  0.32856000  0.59544000  0.53747000  1.0
  O  O83  1  0.63273000  0.53720000  0.45730000  1.0
  O  O84  1  0.35441000  0.46154000  0.49744000  1.0
  O  O85  1  0.13953000  0.37243000  0.49814000  1.0
