# generated using pymatgen
data_Zn4H26C30S2O17
_symmetry_space_group_name_H-M   'P 1'
_cell_length_a   17.88120000
_cell_length_b   18.57670000
_cell_length_c   19.36811001
_cell_angle_alpha   118.02218971
_cell_angle_beta   116.73654366
_cell_angle_gamma   90.06920000
_symmetry_Int_Tables_number   1
_chemical_formula_structural   Zn4H26C30S2O17
_chemical_formula_sum   'Zn8 H52 C60 S4 O34'
_cell_volume   4884.28144331
_cell_formula_units_Z   2
loop_
 _symmetry_equiv_pos_site_id
 _symmetry_equiv_pos_as_xyz
  1  'x, y, z'
loop_
 _atom_site_type_symbol
 _atom_site_label
 _atom_site_symmetry_multiplicity
 _atom_site_fract_x
 _atom_site_fract_y
 _atom_site_fract_z
 _atom_site_occupancy
  Zn  Zn0  1  0.12971000  0.53192000  0.07752000  1.0
  Zn  Zn1  1  0.96041000  0.37962000  0.92979000  1.0
  Zn  Zn2  1  0.97454000  0.55730000  0.93846000  1.0
  Zn  Zn3  1  0.95066000  0.54615000  0.08706000  1.0
  Zn  Zn4  1  0.37804000  0.96593000  0.94157000  1.0
  Zn  Zn5  1  0.54676000  0.95282000  0.08081000  1.0
  Zn  Zn6  1  0.53712000  0.12812000  0.08608000  1.0
  Zn  Zn7  1  0.55465000  0.96856000  0.92776000  1.0
  H  H8  1  0.20799000  0.80164000  0.11618000  1.0
  H  H9  1  0.13472000  0.77802000  0.00461000  1.0
  H  H10  1  0.23608000  0.88308000  0.03309000  1.0
  H  H11  1  0.31651000  0.88972000  0.13402000  1.0
  H  H12  1  0.20532000  0.75977000  0.88138000  1.0
  H  H13  1  0.28073000  0.69943000  0.87449000  1.0
  H  H14  1  0.12592000  0.64881000  0.86780000  1.0
  H  H15  1  0.21310000  0.60119000  0.88547000  1.0
  H  H16  1  0.32909000  0.72673000  0.13890000  1.0
  H  H17  1  0.32237000  0.63530000  0.04552000  1.0
  H  H18  1  0.40074000  0.71413000  0.02251000  1.0
  H  H19  1  0.42515000  0.80117000  0.12845000  1.0
  H  H20  1  0.90538000  0.29918000  0.10681000  1.0
  H  H21  1  0.86655000  0.21904000  0.99208000  1.0
  H  H22  1  0.78961000  0.13551000  0.01168000  1.0
  H  H23  1  0.81461000  0.22232000  0.11931000  1.0
  H  H24  1  0.66917000  0.12292000  0.86967000  1.0
  H  H25  1  0.59332000  0.18310000  0.87419000  1.0
  H  H26  1  0.74072000  0.22347000  0.86357000  1.0
  H  H27  1  0.67573000  0.29172000  0.88873000  1.0
  H  H28  1  0.81406000  0.40141000  0.14130000  1.0
  H  H29  1  0.72841000  0.40736000  0.05335000  1.0
  H  H30  1  0.62763000  0.30659000  0.03085000  1.0
  H  H31  1  0.70976000  0.31461000  0.13058000  1.0
  H  H32  1  0.17731000  0.27395000  0.09431000  1.0
  H  H33  1  0.26266000  0.36387000  0.14759000  1.0
  H  H34  1  0.36333000  0.28360000  0.15192000  1.0
  H  H35  1  0.28073000  0.19853000  0.11364000  1.0
  H  H36  1  0.39519000  0.29213000  0.04097000  1.0
  H  H37  1  0.32143000  0.22500000  0.92279000  1.0
  H  H38  1  0.30893000  0.38693000  0.05241000  1.0
  H  H39  1  0.24474000  0.32700000  0.93239000  1.0
  H  H40  1  0.08414000  0.18465000  0.92081000  1.0
  H  H41  1  0.11927000  0.19994000  0.85610000  1.0
  H  H42  1  0.19974000  0.10255000  0.86509000  1.0
  H  H43  1  0.17736000  0.09973000  0.94336000  1.0
  H  H44  1  0.91654000  0.81320000  0.10137000  1.0
  H  H45  1  0.86463000  0.78622000  0.14854000  1.0
  H  H46  1  0.79321000  0.89057000  0.14381000  1.0
  H  H47  1  0.82882000  0.90074000  0.07608000  1.0
  H  H48  1  0.66774000  0.76466000  0.06790000  1.0
  H  H49  1  0.59882000  0.70550000  0.94849000  1.0
  H  H50  1  0.73797000  0.65630000  0.04973000  1.0
  H  H51  1  0.68225000  0.60934000  0.93028000  1.0
  H  H52  1  0.83778000  0.74180000  0.92831000  1.0
  H  H53  1  0.75182000  0.64934000  0.85779000  1.0
  H  H54  1  0.64797000  0.72624000  0.85245000  1.0
  H  H55  1  0.73204000  0.81499000  0.90283000  1.0
  H  H56  1  0.27242000  0.63513000  0.27222000  1.0
  H  H57  1  0.23117000  0.87169000  0.74569000  1.0
  H  H58  1  0.86904000  0.50710000  0.73929000  1.0
  H  H59  1  0.63663000  0.00486000  0.27914000  1.0
  C  C60  1  0.13700000  0.35569000  0.00066000  1.0
  C  C61  1  0.88245000  0.39007000  0.76266000  1.0
  C  C62  1  0.15517000  0.63425000  0.00759000  1.0
  C  C63  1  0.86425000  0.64563000  0.00781000  1.0
  C  C64  1  0.12908000  0.62648000  0.25371000  1.0
  C  C65  1  0.85451000  0.37117000  0.00780000  1.0
  C  C66  1  0.37257000  0.85863000  0.01265000  1.0
  C  C67  1  0.62462000  0.12142000  0.25490000  1.0
  C  C68  1  0.35627000  0.13812000  0.01177000  1.0
  C  C69  1  0.63810000  0.14637000  0.00550000  1.0
  C  C70  1  0.37398000  0.88325000  0.76333000  1.0
  C  C71  1  0.64969000  0.86816000  0.00102000  1.0
  C  C72  1  0.27094000  0.70786000  0.41401000  1.0
  C  C73  1  0.23161000  0.80293000  0.60317000  1.0
  C  C74  1  0.18045000  0.67739000  0.35378000  1.0
  C  C75  1  0.32208000  0.83349000  0.66324000  1.0
  C  C76  1  0.21396000  0.75745000  0.51232000  1.0
  C  C77  1  0.28842000  0.75383000  0.50475000  1.0
  C  C78  1  0.79851000  0.36714000  0.59995000  1.0
  C  C79  1  0.70843000  0.14498000  0.41776000  1.0
  C  C80  1  0.83180000  0.34110000  0.66279000  1.0
  C  C81  1  0.67511000  0.17084000  0.35475000  1.0
  C  C82  1  0.75350000  0.21751000  0.50699000  1.0
  C  C83  1  0.75357000  0.29469000  0.51059000  1.0
  C  C84  1  0.20162000  0.78172000  0.05012000  1.0
  C  C85  1  0.26858000  0.84545000  0.06161000  1.0
  C  C86  1  0.31695000  0.79689000  0.01258000  1.0
  C  C87  1  0.24819000  0.72892000  0.91328000  1.0
  C  C88  1  0.19601000  0.66144000  0.91203000  1.0
  C  C89  1  0.21667000  0.69248000  0.00963000  1.0
  C  C90  1  0.31258000  0.69902000  0.06804000  1.0
  C  C91  1  0.37109000  0.75335000  0.06084000  1.0
  C  C92  1  0.84608000  0.25798000  0.04042000  1.0
  C  C93  1  0.78927000  0.20199000  0.04778000  1.0
  C  C94  1  0.69455000  0.20865000  0.00626000  1.0
  C  C95  1  0.66283000  0.18624000  0.90823000  1.0
  C  C96  1  0.71640000  0.25364000  0.91040000  1.0
  C  C97  1  0.79404000  0.31331000  0.00778000  1.0
  C  C98  1  0.75934000  0.36277000  0.07104000  1.0
  C  C99  1  0.69396000  0.30050000  0.06308000  1.0
  C  C100  1  0.23120000  0.29774000  0.09093000  1.0
  C  C101  1  0.29701000  0.24363000  0.09756000  1.0
  C  C102  1  0.29497000  0.19441000  0.00608000  1.0
  C  C103  1  0.32627000  0.25934000  0.98959000  1.0
  C  C104  1  0.27030000  0.32300000  0.99349000  1.0
  C  C105  1  0.19352000  0.29462000  0.99988000  1.0
  C  C106  1  0.14247000  0.20312000  0.92082000  1.0
  C  C107  1  0.20101000  0.14293000  0.92923000  1.0
  C  C108  1  0.85278000  0.79149000  0.09049000  1.0
  C  C109  1  0.79819000  0.85481000  0.08274000  1.0
  C  C110  1  0.70571000  0.80647000  0.99813000  1.0
  C  C111  1  0.66724000  0.73576000  0.00350000  1.0
  C  C112  1  0.72049000  0.66961000  0.99566000  1.0
  C  C113  1  0.80390000  0.70293000  0.00216000  1.0
  C  C114  1  0.77878000  0.71230000  0.92017000  1.0
  C  C115  1  0.71253000  0.76576000  0.91225000  1.0
  C  C116  1  0.34821000  0.70222000  0.40175000  1.0
  C  C117  1  0.15472000  0.80959000  0.61601000  1.0
  C  C118  1  0.80075000  0.45186000  0.60900000  1.0
  C  C119  1  0.70562000  0.06044000  0.40925000  1.0
  S  S120  1  0.12015000  0.70514000  0.40818000  1.0
  S  S121  1  0.38230000  0.80683000  0.60877000  1.0
  S  S122  1  0.80829000  0.23138000  0.61291000  1.0
  S  S123  1  0.69864000  0.28060000  0.40452000  1.0
  O  O124  1  0.00298000  0.50374000  0.00957000  1.0
  O  O125  1  0.17649000  0.43434000  0.05872000  1.0
  O  O126  1  0.90081000  0.34773000  0.80119000  1.0
  O  O127  1  0.07400000  0.61984000  0.95430000  1.0
  O  O128  1  0.05528000  0.32503000  0.94518000  1.0
  O  O129  1  0.18779000  0.60524000  0.05957000  1.0
  O  O130  1  0.90514000  0.47163000  0.80482000  1.0
  O  O131  1  0.89806000  0.62840000  0.95814000  1.0
  O  O132  1  0.04672000  0.60993000  0.21643000  1.0
  O  O133  1  0.87858000  0.62072000  0.06286000  1.0
  O  O134  1  0.17045000  0.60174000  0.21019000  1.0
  O  O135  1  0.87837000  0.33473000  0.94938000  1.0
  O  O136  1  0.87817000  0.45039000  0.06613000  1.0
  O  O137  1  0.50470000  0.00405000  0.00747000  1.0
  O  O138  1  0.33201000  0.89101000  0.96574000  1.0
  O  O139  1  0.60284000  0.03984000  0.21335000  1.0
  O  O140  1  0.43702000  0.17508000  0.07019000  1.0
  O  O141  1  0.45498000  0.87402000  0.05903000  1.0
  O  O142  1  0.32299000  0.05827000  0.95812000  1.0
  O  O143  1  0.60543000  0.16310000  0.21560000  1.0
  O  O144  1  0.60981000  0.17762000  0.06032000  1.0
  O  O145  1  0.45603000  0.90558000  0.79957000  1.0
  O  O146  1  0.62400000  0.06741000  0.95059000  1.0
  O  O147  1  0.33356000  0.90059000  0.80779000  1.0
  O  O148  1  0.63544000  0.89775000  0.06709000  1.0
  O  O149  1  0.62142000  0.88662000  0.93966000  1.0
  O  O150  1  0.33658000  0.65974000  0.31829000  1.0
  O  O151  1  0.42116000  0.73752000  0.46991000  1.0
  O  O152  1  0.16697000  0.85048000  0.69977000  1.0
  O  O153  1  0.08155000  0.77684000  0.54813000  1.0
  O  O154  1  0.84258000  0.52228000  0.69140000  1.0
  O  O155  1  0.76347000  0.45421000  0.53943000  1.0
  O  O156  1  0.66240000  0.98982000  0.32718000  1.0
  O  O157  1  0.74333000  0.05851000  0.47906000  1.0
