# generated using pymatgen
data_ZnPH7C4(NO2)2
_symmetry_space_group_name_H-M   'P 1'
_cell_length_a   4.84112000
_cell_length_b   11.14250000
_cell_length_c   14.38860000
_cell_angle_alpha   99.08680000
_cell_angle_beta   89.99890000
_cell_angle_gamma   89.99930000
_symmetry_Int_Tables_number   1
_chemical_formula_structural   ZnPH7C4(NO2)2
_chemical_formula_sum   'Zn4 P4 H28 C16 N8 O16'
_cell_volume   766.41190082
_cell_formula_units_Z   4
loop_
 _symmetry_equiv_pos_site_id
 _symmetry_equiv_pos_as_xyz
  1  'x, y, z'
loop_
 _atom_site_type_symbol
 _atom_site_label
 _atom_site_symmetry_multiplicity
 _atom_site_fract_x
 _atom_site_fract_y
 _atom_site_fract_z
 _atom_site_occupancy
  Zn  Zn0  1  0.78786000  0.49373000  0.87904000  1.0
  Zn  Zn1  1  0.28786000  0.00627000  0.62096000  1.0
  Zn  Zn2  1  0.21213000  0.50626000  0.12096000  1.0
  Zn  Zn3  1  0.71215000  0.99374000  0.37905000  1.0
  P  P4  1  0.30810000  0.35055000  0.92178000  1.0
  P  P5  1  0.80809000  0.14945000  0.57822000  1.0
  P  P6  1  0.69190000  0.64944000  0.07822000  1.0
  P  P7  1  0.19191000  0.85055000  0.42178000  1.0
  H  H8  1  0.95485000  0.24421000  0.86903000  1.0
  H  H9  1  0.45484000  0.25578000  0.63097000  1.0
  H  H10  1  0.04513000  0.75578000  0.13097000  1.0
  H  H11  1  0.54516000  0.74421000  0.36903000  1.0
  H  H12  1  0.00654000  0.48958000  0.66133000  1.0
  H  H13  1  0.50653000  0.01043000  0.83867000  1.0
  H  H14  1  0.99348000  0.51043000  0.33867000  1.0
  H  H15  1  0.49344000  0.98957000  0.16133000  1.0
  H  H16  1  0.31077000  0.64529000  0.80859000  1.0
  H  H17  1  0.81080000  0.85470000  0.69141000  1.0
  H  H18  1  0.68922000  0.35471000  0.19140000  1.0
  H  H19  1  0.18921000  0.14529000  0.30858000  1.0
  H  H20  1  0.33514000  0.72372000  0.63166000  1.0
  H  H21  1  0.83516000  0.77629000  0.86834000  1.0
  H  H22  1  0.66488000  0.27628000  0.36833000  1.0
  H  H23  1  0.16484000  0.22371000  0.13165000  1.0
  H  H24  1  0.01232000  0.62041000  0.52227000  1.0
  H  H25  1  0.51229000  0.87959000  0.97774000  1.0
  H  H26  1  0.98772000  0.37959000  0.47774000  1.0
  H  H27  1  0.48767000  0.12040000  0.02227000  1.0
  H  H28  1  0.72971000  0.71972000  0.51572000  1.0
  H  H29  1  0.22969000  0.78029000  0.98429000  1.0
  H  H30  1  0.27033000  0.28028000  0.48428000  1.0
  H  H31  1  0.77027000  0.21972000  0.01571000  1.0
  H  H32  1  0.69054000  0.56167000  0.47217000  1.0
  H  H33  1  0.19051000  0.93834000  0.02783000  1.0
  H  H34  1  0.30950000  0.43833000  0.52783000  1.0
  H  H35  1  0.80945000  0.06166000  0.97217000  1.0
  C  C36  1  0.82113000  0.54255000  0.67843000  1.0
  C  C37  1  0.32113000  0.95746000  0.82157000  1.0
  C  C38  1  0.17888000  0.45746000  0.32158000  1.0
  C  C39  1  0.67887000  0.04255000  0.17843000  1.0
  C  C40  1  0.45770000  0.62594000  0.75169000  1.0
  C  C41  1  0.95772000  0.87406000  0.74831000  1.0
  C  C42  1  0.54230000  0.37407000  0.24831000  1.0
  C  C43  1  0.04228000  0.12593000  0.25168000  1.0
  C  C44  1  0.46398000  0.66325000  0.66523000  1.0
  C  C45  1  0.96399000  0.83675000  0.83478000  1.0
  C  C46  1  0.53604000  0.33676000  0.33477000  1.0
  C  C47  1  0.03600000  0.16324000  0.16522000  1.0
  C  C48  1  0.78742000  0.62819000  0.52695000  1.0
  C  C49  1  0.28740000  0.87181000  0.97305000  1.0
  C  C50  1  0.21262000  0.37182000  0.47305000  1.0
  C  C51  1  0.71257000  0.12819000  0.02695000  1.0
  N  N52  1  0.69616000  0.60978000  0.62002000  1.0
  N  N53  1  0.19617000  0.89022000  0.87999000  1.0
  N  N54  1  0.30386000  0.39022000  0.37998000  1.0
  N  N55  1  0.80381000  0.10977000  0.12002000  1.0
  N  N56  1  0.68171000  0.55134000  0.75903000  1.0
  N  N57  1  0.18172000  0.94866000  0.74097000  1.0
  N  N58  1  0.31829000  0.44865000  0.24097000  1.0
  N  N59  1  0.81828000  0.05134000  0.25903000  1.0
  O  O60  1  0.18444000  0.46013000  0.88341000  1.0
  O  O61  1  0.68444000  0.03987000  0.61658000  1.0
  O  O62  1  0.81555000  0.53987000  0.11659000  1.0
  O  O63  1  0.31557000  0.96013000  0.38341000  1.0
  O  O64  1  0.26950000  0.35784000  0.02882000  1.0
  O  O65  1  0.76951000  0.14216000  0.47117000  1.0
  O  O66  1  0.73049000  0.64215000  0.97118000  1.0
  O  O67  1  0.23050000  0.85784000  0.52883000  1.0
  O  O68  1  0.15556000  0.22840000  0.87239000  1.0
  O  O69  1  0.65555000  0.27159000  0.62761000  1.0
  O  O70  1  0.84443000  0.77159000  0.12761000  1.0
  O  O71  1  0.34445000  0.72840000  0.37240000  1.0
  O  O72  1  0.61517000  0.33472000  0.89301000  1.0
  O  O73  1  0.11516000  0.16527000  0.60698000  1.0
  O  O74  1  0.38482000  0.66527000  0.10698000  1.0
  O  O75  1  0.88484000  0.83473000  0.39302000  1.0
