# generated using pymatgen
data_CuH9C7BrN
_symmetry_space_group_name_H-M   'P 1'
_cell_length_a   3.93395000
_cell_length_b   14.08720000
_cell_length_c   14.48930000
_cell_angle_alpha   89.99930000
_cell_angle_beta   89.99810000
_cell_angle_gamma   89.99900000
_symmetry_Int_Tables_number   1
_chemical_formula_structural   CuH9C7BrN
_chemical_formula_sum   'Cu4 H36 C28 Br4 N4'
_cell_volume   802.97295951
_cell_formula_units_Z   4
loop_
 _symmetry_equiv_pos_site_id
 _symmetry_equiv_pos_as_xyz
  1  'x, y, z'
loop_
 _atom_site_type_symbol
 _atom_site_label
 _atom_site_symmetry_multiplicity
 _atom_site_fract_x
 _atom_site_fract_y
 _atom_site_fract_z
 _atom_site_occupancy
  Cu  Cu0  1  0.61350000  0.16155000  0.07309000  1.0
  Cu  Cu1  1  0.61348000  0.33847000  0.57311000  1.0
  Cu  Cu2  1  0.38655000  0.66153000  0.07309000  1.0
  Cu  Cu3  1  0.38650000  0.83846000  0.57310000  1.0
  H  H4  1  0.76442000  0.21013000  0.27209000  1.0
  H  H5  1  0.76442000  0.28988000  0.77208000  1.0
  H  H6  1  0.23557000  0.71014000  0.27209000  1.0
  H  H7  1  0.23561000  0.78985000  0.77207000  1.0
  H  H8  1  0.39934000  0.23088000  0.34165000  1.0
  H  H9  1  0.39934000  0.26910000  0.84164000  1.0
  H  H10  1  0.60065000  0.73089000  0.34165000  1.0
  H  H11  1  0.60068000  0.76909000  0.84164000  1.0
  H  H12  1  0.39293000  0.25751000  0.22100000  1.0
  H  H13  1  0.39294000  0.24250000  0.72098000  1.0
  H  H14  1  0.60708000  0.75751000  0.22099000  1.0
  H  H15  1  0.60713000  0.74247000  0.72098000  1.0
  H  H16  1  0.14444000  0.08168000  0.38436000  1.0
  H  H17  1  0.14439000  0.41830000  0.88438000  1.0
  H  H18  1  0.85552000  0.58170000  0.38437000  1.0
  H  H19  1  0.85557000  0.91828000  0.88436000  1.0
  H  H20  1  0.95216000  0.91719000  0.34070000  1.0
  H  H21  1  0.95211000  0.58280000  0.84073000  1.0
  H  H22  1  0.04783000  0.41721000  0.34073000  1.0
  H  H23  1  0.04779000  0.08278000  0.84073000  1.0
  H  H24  1  0.07305000  0.85966000  0.17922000  1.0
  H  H25  1  0.07302000  0.64035000  0.67926000  1.0
  H  H26  1  0.92698000  0.35965000  0.17926000  1.0
  H  H27  1  0.92691000  0.14034000  0.67925000  1.0
  H  H28  1  0.61850000  0.90341000  0.04621000  1.0
  H  H29  1  0.61849000  0.59663000  0.54626000  1.0
  H  H30  1  0.38148000  0.40341000  0.04626000  1.0
  H  H31  1  0.38146000  0.09661000  0.54625000  1.0
  H  H32  1  0.19417000  0.91977000  0.01248000  1.0
  H  H33  1  0.19418000  0.58028000  0.51251000  1.0
  H  H34  1  0.80581000  0.41974000  0.01251000  1.0
  H  H35  1  0.80580000  0.08027000  0.51250000  1.0
  H  H36  1  0.48924000  0.01602000  0.00136000  1.0
  H  H37  1  0.48929000  0.48403000  0.50138000  1.0
  H  H38  1  0.51077000  0.51600000  0.00139000  1.0
  H  H39  1  0.51073000  0.98401000  0.50138000  1.0
  C  C40  1  0.36600000  0.10891000  0.25191000  1.0
  C  C41  1  0.36599000  0.39109000  0.75192000  1.0
  C  C42  1  0.63400000  0.60891000  0.25191000  1.0
  C  C43  1  0.63405000  0.89107000  0.75191000  1.0
  C  C44  1  0.48519000  0.20717000  0.27349000  1.0
  C  C45  1  0.48518000  0.29283000  0.77348000  1.0
  C  C46  1  0.51480000  0.70718000  0.27349000  1.0
  C  C47  1  0.51484000  0.79281000  0.77347000  1.0
  C  C48  1  0.19544000  0.05269000  0.31607000  1.0
  C  C49  1  0.19540000  0.44729000  0.81609000  1.0
  C  C50  1  0.80457000  0.55271000  0.31609000  1.0
  C  C51  1  0.80460000  0.94727000  0.81608000  1.0
  C  C52  1  0.08748000  0.96185000  0.29134000  1.0
  C  C53  1  0.08745000  0.53815000  0.79136000  1.0
  C  C54  1  0.91252000  0.46185000  0.29136000  1.0
  C  C55  1  0.91253000  0.03813000  0.79136000  1.0
  C  C56  1  0.15453000  0.92965000  0.20240000  1.0
  C  C57  1  0.15448000  0.57035000  0.70243000  1.0
  C  C58  1  0.84549000  0.42965000  0.20243000  1.0
  C  C59  1  0.84546000  0.07034000  0.70242000  1.0
  C  C60  1  0.32772000  0.98821000  0.14035000  1.0
  C  C61  1  0.32770000  0.51180000  0.64038000  1.0
  C  C62  1  0.67230000  0.48821000  0.14037000  1.0
  C  C63  1  0.67231000  0.01179000  0.64037000  1.0
  C  C64  1  0.41085000  0.95579000  0.04475000  1.0
  C  C65  1  0.41084000  0.54425000  0.54479000  1.0
  C  C66  1  0.58917000  0.45578000  0.04478000  1.0
  C  C67  1  0.58914000  0.04423000  0.54478000  1.0
  Br  Br68  1  0.07711000  0.22764000  0.00071000  1.0
  Br  Br69  1  0.07709000  0.27237000  0.50072000  1.0
  Br  Br70  1  0.92298000  0.72760000  0.00067000  1.0
  Br  Br71  1  0.92292000  0.77238000  0.50070000  1.0
  N  N72  1  0.43066000  0.07642000  0.16533000  1.0
  N  N73  1  0.43062000  0.42359000  0.66534000  1.0
  N  N74  1  0.56938000  0.57642000  0.16533000  1.0
  N  N75  1  0.56936000  0.92358000  0.66533000  1.0
