# generated using pymatgen
data_CuH5C7BrN
_symmetry_space_group_name_H-M   'P 1'
_cell_length_a   3.90785000
_cell_length_b   10.88980000
_cell_length_c   17.24340000
_cell_angle_alpha   90.00070000
_cell_angle_beta   90.00050000
_cell_angle_gamma   80.93190000
_symmetry_Int_Tables_number   1
_chemical_formula_structural   CuH5C7BrN
_chemical_formula_sum   'Cu4 H20 C28 Br4 N4'
_cell_volume   724.63373395
_cell_formula_units_Z   4
loop_
 _symmetry_equiv_pos_site_id
 _symmetry_equiv_pos_as_xyz
  1  'x, y, z'
loop_
 _atom_site_type_symbol
 _atom_site_label
 _atom_site_symmetry_multiplicity
 _atom_site_fract_x
 _atom_site_fract_y
 _atom_site_fract_z
 _atom_site_occupancy
  Cu  Cu0  1  0.32954000  0.91089000  0.04348000  1.0
  Cu  Cu1  1  0.17046000  0.58910000  0.54348000  1.0
  Cu  Cu2  1  0.67049000  0.08911000  0.95652000  1.0
  Cu  Cu3  1  0.82952000  0.41089000  0.45652000  1.0
  H  H4  1  0.32355000  0.43299000  0.02743000  1.0
  H  H5  1  0.17644000  0.06700000  0.52741000  1.0
  H  H6  1  0.67647000  0.56701000  0.97258000  1.0
  H  H7  1  0.82354000  0.93299000  0.47258000  1.0
  H  H8  1  0.14505000  0.24033000  0.07928000  1.0
  H  H9  1  0.35490000  0.25967000  0.57927000  1.0
  H  H10  1  0.85490000  0.75968000  0.92073000  1.0
  H  H11  1  0.64512000  0.74031000  0.42073000  1.0
  H  H12  1  0.84854000  0.24305000  0.20634000  1.0
  H  H13  1  0.65142000  0.25696000  0.70632000  1.0
  H  H14  1  0.15141000  0.75698000  0.79367000  1.0
  H  H15  1  0.34861000  0.74302000  0.29367000  1.0
  H  H16  1  0.73351000  0.43924000  0.28385000  1.0
  H  H17  1  0.76649000  0.06078000  0.78384000  1.0
  H  H18  1  0.26649000  0.56079000  0.71616000  1.0
  H  H19  1  0.23350000  0.93921000  0.21616000  1.0
  H  H20  1  0.90728000  0.63303000  0.23214000  1.0
  H  H21  1  0.59272000  0.86698000  0.73213000  1.0
  H  H22  1  0.09274000  0.36699000  0.76786000  1.0
  H  H23  1  0.40725000  0.13301000  0.26787000  1.0
  C  C24  1  0.12454000  0.54536000  0.12634000  1.0
  C  C25  1  0.37545000  0.95464000  0.62633000  1.0
  C  C26  1  0.87547000  0.45465000  0.87366000  1.0
  C  C27  1  0.62454000  0.04534000  0.37367000  1.0
  C  C28  1  0.19268000  0.43425000  0.08316000  1.0
  C  C29  1  0.30730000  0.06575000  0.58315000  1.0
  C  C30  1  0.80732000  0.56576000  0.91684000  1.0
  C  C31  1  0.69270000  0.93423000  0.41685000  1.0
  C  C32  1  0.09394000  0.32631000  0.11256000  1.0
  C  C33  1  0.40603000  0.17369000  0.61254000  1.0
  C  C34  1  0.90603000  0.67370000  0.88745000  1.0
  C  C35  1  0.59400000  0.82629000  0.38745000  1.0
  C  C36  1  0.92932000  0.32803000  0.18464000  1.0
  C  C37  1  0.57065000  0.17198000  0.68462000  1.0
  C  C38  1  0.07065000  0.67199000  0.81537000  1.0
  C  C39  1  0.42938000  0.82800000  0.31537000  1.0
  C  C40  1  0.86302000  0.43775000  0.22782000  1.0
  C  C41  1  0.63697000  0.06226000  0.72780000  1.0
  C  C42  1  0.13696000  0.56227000  0.77219000  1.0
  C  C43  1  0.36304000  0.93773000  0.27219000  1.0
  C  C44  1  0.95920000  0.54677000  0.19908000  1.0
  C  C45  1  0.54080000  0.95324000  0.69907000  1.0
  C  C46  1  0.04080000  0.45325000  0.80092000  1.0
  C  C47  1  0.45920000  0.04675000  0.30093000  1.0
  C  C48  1  0.22484000  0.65601000  0.09727000  1.0
  C  C49  1  0.27517000  0.84399000  0.59726000  1.0
  C  C50  1  0.77520000  0.34400000  0.90273000  1.0
  C  C51  1  0.72481000  0.15599000  0.40274000  1.0
  Br  Br52  1  0.75158000  0.03284000  0.09622000  1.0
  Br  Br53  1  0.74840000  0.46717000  0.59622000  1.0
  Br  Br54  1  0.24843000  0.96718000  0.90377000  1.0
  Br  Br55  1  0.25158000  0.53282000  0.40377000  1.0
  N  N56  1  0.30697000  0.74816000  0.07403000  1.0
  N  N57  1  0.19305000  0.75183000  0.57402000  1.0
  N  N58  1  0.69308000  0.25185000  0.92597000  1.0
  N  N59  1  0.80693000  0.24815000  0.42598000  1.0
