# generated using pymatgen
data_Zn3H24C24(N2O7)2
_symmetry_space_group_name_H-M   'P 1'
_cell_length_a   18.68770000
_cell_length_b   19.25640000
_cell_length_c   19.47270000
_cell_angle_alpha   111.46400000
_cell_angle_beta   110.72600000
_cell_angle_gamma   104.64700000
_symmetry_Int_Tables_number   1
_chemical_formula_structural   Zn3H24C24(N2O7)2
_chemical_formula_sum   'Zn6 H48 C48 N8 O28'
_cell_volume   5479.36963561
_cell_formula_units_Z   2
loop_
 _symmetry_equiv_pos_site_id
 _symmetry_equiv_pos_as_xyz
  1  'x, y, z'
loop_
 _atom_site_type_symbol
 _atom_site_label
 _atom_site_symmetry_multiplicity
 _atom_site_fract_x
 _atom_site_fract_y
 _atom_site_fract_z
 _atom_site_occupancy
  Zn  Zn0  1  0.07727000  0.00867000  0.56420000  1.0
  Zn  Zn1  1  0.03503000  0.53929000  0.98825000  1.0
  Zn  Zn2  1  0.93722000  0.41085000  0.98582000  1.0
  Zn  Zn3  1  0.94188000  0.99545000  0.43902000  1.0
  Zn  Zn4  1  0.50272000  0.55324000  0.55850000  1.0
  Zn  Zn5  1  0.52217000  0.44298000  0.44164000  1.0
  H  H6  1  0.98186000  0.72797000  0.13752000  1.0
  H  H7  1  0.94772000  0.55653000  0.25351000  1.0
  H  H8  1  0.90614000  0.51129000  0.14138000  1.0
  H  H9  1  0.83615000  0.49071000  0.18243000  1.0
  H  H10  1  0.11367000  0.39162000  0.69914000  1.0
  H  H11  1  0.07858000  0.51198000  0.79008000  1.0
  H  H12  1  0.17163000  0.53190000  0.77903000  1.0
  H  H13  1  0.17393000  0.52558000  0.86909000  1.0
  H  H14  1  0.35843000  0.58845000  0.21839000  1.0
  H  H15  1  0.23730000  0.61072000  0.10877000  1.0
  H  H16  1  0.21823000  0.50739000  0.04575000  1.0
  H  H17  1  0.03412000  0.28770000  0.82161000  1.0
  H  H18  1  0.32144000  0.59028000  0.09592000  1.0
  H  H19  1  0.64405000  0.50139000  0.88714000  1.0
  H  H20  1  0.72883000  0.41187000  0.95179000  1.0
  H  H21  1  0.70369000  0.49094000  0.00621000  1.0
  H  H22  1  0.79828000  0.51750000  0.99877000  1.0
  H  H23  1  0.85813000  0.63178000  0.23808000  1.0
  H  H24  1  0.14883000  0.41360000  0.18049000  1.0
  H  H25  1  0.77221000  0.43861000  0.76328000  1.0
  H  H26  1  0.84847000  0.81679000  0.21872000  1.0
  H  H27  1  0.71625000  0.68515000  0.09819000  1.0
  H  H28  1  0.78587000  0.64915000  0.06895000  1.0
  H  H29  1  0.77174000  0.73285000  0.05730000  1.0
  H  H30  1  0.14736000  0.20617000  0.70529000  1.0
  H  H31  1  0.27843000  0.30425000  0.83101000  1.0
  H  H32  1  0.23104000  0.37025000  0.86351000  1.0
  H  H33  1  0.26227000  0.36894000  0.78661000  1.0
  H  H34  1  0.37926000  0.42375000  0.26648000  1.0
  H  H35  1  0.35604000  0.38346000  0.11746000  1.0
  H  H36  1  0.25733000  0.38997000  0.09404000  1.0
  H  H37  1  0.27224000  0.31071000  0.11456000  1.0
  H  H38  1  0.55879000  0.51996000  0.74150000  1.0
  H  H39  1  0.45752000  0.42089000  0.74904000  1.0
  H  H40  1  0.52712000  0.37272000  0.76378000  1.0
  H  H41  1  0.47544000  0.36794000  0.66437000  1.0
  H  H42  1  0.14040000  0.88181000  0.39926000  1.0
  H  H43  1  0.10862000  0.80318000  0.29389000  1.0
  H  H44  1  0.15454000  0.78938000  0.38308000  1.0
  H  H45  1  0.88615000  0.20615000  0.69004000  1.0
  H  H46  1  0.84107000  0.12119000  0.58376000  1.0
  H  H47  1  0.81700000  0.20852000  0.60018000  1.0
  H  H48  1  0.27196000  0.56290000  0.44122000  1.0
  H  H49  1  0.19103000  0.52402000  0.33385000  1.0
  H  H50  1  0.23871000  0.63221000  0.41173000  1.0
  H  H51  1  0.80441000  0.61699000  0.74172000  1.0
  H  H52  1  0.75177000  0.55061000  0.62792000  1.0
  H  H53  1  0.84371000  0.54732000  0.69594000  1.0
  C  C54  1  0.97573000  0.87310000  0.36883000  1.0
  C  C55  1  0.14046000  0.09410000  0.50282000  1.0
  C  C56  1  0.64098000  0.59168000  0.50150000  1.0
  C  C57  1  0.40424000  0.35339000  0.45702000  1.0
  C  C58  1  0.94233000  0.90486000  0.54867000  1.0
  C  C59  1  0.88807000  0.83865000  0.55079000  1.0
  C  C60  1  0.20005000  0.14359000  0.48950000  1.0
  C  C61  1  0.71299000  0.65591000  0.51577000  1.0
  C  C62  1  0.99399000  0.13146000  0.58322000  1.0
  C  C63  1  0.34646000  0.28604000  0.45443000  1.0
  C  C64  1  0.83430000  0.77915000  0.54189000  1.0
  C  C65  1  0.24734000  0.18696000  0.47600000  1.0
  C  C66  1  0.77192000  0.71439000  0.52929000  1.0
  C  C67  1  0.29932000  0.23733000  0.46349000  1.0
  C  C68  1  0.40185000  0.52871000  0.40676000  1.0
  C  C69  1  0.91551000  0.66718000  0.18035000  1.0
  C  C70  1  0.08154000  0.35117000  0.76994000  1.0
  C  C71  1  0.25144000  0.50391000  0.19452000  1.0
  C  C72  1  0.70128000  0.45964000  0.82331000  1.0
  C  C73  1  0.60880000  0.50617000  0.63901000  1.0
  C  C74  1  0.95734000  0.66892000  0.13508000  1.0
  C  C75  1  0.05563000  0.34851000  0.82701000  1.0
  C  C76  1  0.16592000  0.45900000  0.16138000  1.0
  C  C77  1  0.76313000  0.43734000  0.81482000  1.0
  C  C78  1  0.91062000  0.74671000  0.22553000  1.0
  C  C79  1  0.07879000  0.27047000  0.71492000  1.0
  C  C80  1  0.31154000  0.48819000  0.25586000  1.0
  C  C81  1  0.64944000  0.47991000  0.76173000  1.0
  C  C82  1  0.97200000  0.79792000  0.31063000  1.0
  C  C83  1  0.00320000  0.21102000  0.64069000  1.0
  C  C84  1  0.34092000  0.53584000  0.34216000  1.0
  C  C85  1  0.66793000  0.49548000  0.70480000  1.0
  C  C86  1  0.83424000  0.43262000  0.87355000  1.0
  C  C87  1  0.09401000  0.46425000  0.10544000  1.0
  C  C88  1  0.04049000  0.40626000  0.88700000  1.0
  C  C89  1  0.97626000  0.60700000  0.08457000  1.0
  C  C90  1  0.89286000  0.53751000  0.19291000  1.0
  C  C91  1  0.13494000  0.50012000  0.80071000  1.0
  C  C92  1  0.26595000  0.56717000  0.10308000  1.0
  C  C93  1  0.73067000  0.47296000  0.96459000  1.0
  C  C94  1  0.77666000  0.70443000  0.09750000  1.0
  C  C95  1  0.23501000  0.33011000  0.80923000  1.0
  C  C96  1  0.30410000  0.37608000  0.13256000  1.0
  C  C97  1  0.50548000  0.40742000  0.73391000  1.0
  C  C98  1  0.11349000  0.81465000  0.35551000  1.0
  C  C99  1  0.86630000  0.18891000  0.62337000  1.0
  C  C100  1  0.25021000  0.57712000  0.38979000  1.0
  C  C101  1  0.78638000  0.55578000  0.68982000  1.0
  N  N102  1  0.87694000  0.60846000  0.19532000  1.0
  N  N103  1  0.15198000  0.26217000  0.74339000  1.0
  N  N104  1  0.33683000  0.43073000  0.22213000  1.0
  N  N105  1  0.57794000  0.48632000  0.76785000  1.0
  N  N106  1  0.84789000  0.76219000  0.18280000  1.0
  N  N107  1  0.11304000  0.41224000  0.75472000  1.0
  N  N108  1  0.29494000  0.55719000  0.17717000  1.0
  N  N109  1  0.68174000  0.47141000  0.88713000  1.0
  O  O110  1  0.03395000  0.91171000  0.44662000  1.0
  O  O111  1  0.05188000  0.10808000  0.61102000  1.0
  O  O112  1  0.43373000  0.47755000  0.38381000  1.0
  O  O113  1  0.57099000  0.55220000  0.65931000  1.0
  O  O114  1  0.91882000  0.89913000  0.34049000  1.0
  O  O115  1  0.02327000  0.93741000  0.59896000  1.0
  O  O116  1  0.06242000  0.07199000  0.45575000  1.0
  O  O117  1  0.60682000  0.61410000  0.54617000  1.0
  O  O118  1  0.92937000  0.08765000  0.50652000  1.0
  O  O119  1  0.44019000  0.33626000  0.41151000  1.0
  O  O120  1  0.90472000  0.92436000  0.49563000  1.0
  O  O121  1  0.17274000  0.07756000  0.56205000  1.0
  O  O122  1  0.61747000  0.51684000  0.44433000  1.0
  O  O123  1  0.41592000  0.42528000  0.50607000  1.0
  O  O124  1  0.42265000  0.57398000  0.48555000  1.0
  O  O125  1  0.90770000  0.47788000  0.88945000  1.0
  O  O126  1  0.01888000  0.40753000  0.07727000  1.0
  O  O127  1  0.99337000  0.37344000  0.91140000  1.0
  O  O128  1  0.02697000  0.63446000  0.05882000  1.0
  O  O129  1  0.59980000  0.47057000  0.56530000  1.0
  O  O130  1  0.82340000  0.38323000  0.90381000  1.0
  O  O131  1  0.10520000  0.52211000  0.08747000  1.0
  O  O132  1  0.07420000  0.48546000  0.91388000  1.0
  O  O133  1  0.94341000  0.53096000  0.06451000  1.0
  O  O134  1  0.03135000  0.77149000  0.34400000  1.0
  O  O135  1  0.93667000  0.23228000  0.61706000  1.0
  O  O136  1  0.31499000  0.59758000  0.36741000  1.0
  O  O137  1  0.73644000  0.49033000  0.69612000  1.0
