# generated using pymatgen
data_ZnH25C24NO6
_symmetry_space_group_name_H-M   'P 1'
_cell_length_a   13.86610000
_cell_length_b   14.05280000
_cell_length_c   15.23900000
_cell_angle_alpha   89.13320000
_cell_angle_beta   89.13210000
_cell_angle_gamma   82.84580000
_symmetry_Int_Tables_number   1
_chemical_formula_structural   ZnH25C24NO6
_chemical_formula_sum   'Zn2 H50 C48 N2 O12'
_cell_volume   2945.71515804
_cell_formula_units_Z   2
loop_
 _symmetry_equiv_pos_site_id
 _symmetry_equiv_pos_as_xyz
  1  'x, y, z'
loop_
 _atom_site_type_symbol
 _atom_site_label
 _atom_site_symmetry_multiplicity
 _atom_site_fract_x
 _atom_site_fract_y
 _atom_site_fract_z
 _atom_site_occupancy
  Zn  Zn0  1  0.50659000  0.59843000  0.49287000  1.0
  Zn  Zn1  1  0.49369000  0.39684000  0.50514000  1.0
  H  H2  1  0.96814000  0.60975000  0.49635000  1.0
  H  H3  1  0.39486000  0.75597000  0.58249000  1.0
  H  H4  1  0.64213000  0.05909000  0.44029000  1.0
  H  H5  1  0.39075000  0.93254000  0.59943000  1.0
  H  H6  1  0.53592000  0.75891000  0.73131000  1.0
  H  H7  1  0.53577000  0.74520000  0.84789000  1.0
  H  H8  1  0.36702000  0.85083000  0.74316000  1.0
  H  H9  1  0.37196000  0.83897000  0.85827000  1.0
  H  H10  1  0.51910000  0.93089000  0.85892000  1.0
  H  H11  1  0.41672000  0.00028000  0.81204000  1.0
  H  H12  1  0.51167000  0.94508000  0.74328000  1.0
  H  H13  1  0.03426000  0.39156000  0.49401000  1.0
  H  H14  1  0.49802000  0.25867000  0.25244000  1.0
  H  H15  1  0.42681000  0.24038000  0.15832000  1.0
  H  H16  1  0.35545000  0.25105000  0.34993000  1.0
  H  H17  1  0.27982000  0.24052000  0.25938000  1.0
  H  H18  1  0.37437000  0.08165000  0.22027000  1.0
  H  H19  1  0.33272000  0.07787000  0.33079000  1.0
  H  H20  1  0.45582000  0.09218000  0.30735000  1.0
  H  H21  1  0.74794000  0.34091000  0.93269000  1.0
  H  H22  1  0.69071000  0.36531000  0.03641000  1.0
  H  H23  1  0.72296000  0.24473000  0.00336000  1.0
  H  H24  1  0.45577000  0.64174000  0.94917000  1.0
  H  H25  1  0.54464000  0.29314000  0.98761000  1.0
  H  H26  1  0.60064000  0.26433000  0.88530000  1.0
  H  H27  1  0.77478000  0.52244000  0.06747000  1.0
  H  H28  1  0.71908000  0.52461000  0.96322000  1.0
  H  H29  1  0.78034000  0.62207000  0.99489000  1.0
  H  H30  1  0.60035000  0.66471000  0.00799000  1.0
  H  H31  1  0.65623000  0.66813000  0.11055000  1.0
  H  H32  1  0.31183000  0.35034000  0.68768000  1.0
  H  H33  1  0.43018000  0.28723000  0.69240000  1.0
  H  H34  1  0.23797000  0.20242000  0.72560000  1.0
  H  H35  1  0.41863000  0.38794000  0.05255000  1.0
  H  H36  1  0.35344000  0.13262000  0.72252000  1.0
  H  H37  1  0.40828000  0.22100000  0.85070000  1.0
  H  H38  1  0.29944000  0.17201000  0.87811000  1.0
  H  H39  1  0.29572000  0.29629000  0.85354000  1.0
  H  H40  1  0.76846000  0.67172000  0.40814000  1.0
  H  H41  1  0.74721000  0.79649000  0.43281000  1.0
  H  H42  1  0.74277000  0.71186000  0.24842000  1.0
  H  H43  1  0.72524000  0.83556000  0.27221000  1.0
  H  H44  1  0.89682000  0.82237000  0.33254000  1.0
  H  H45  1  0.89762000  0.78524000  0.22183000  1.0
  H  H46  1  0.56811000  0.36145000  0.76708000  1.0
  H  H47  1  0.91360000  0.69829000  0.30759000  1.0
  H  H48  1  0.59981000  0.59482000  0.23077000  1.0
  H  H49  1  0.35956000  0.07406000  0.56914000  1.0
  H  H50  1  0.62022000  0.92202000  0.40206000  1.0
  H  H51  1  0.62559000  0.23692000  0.44843000  1.0
  C  C52  1  0.50568000  0.51175000  0.66804000  1.0
  C  C53  1  0.57013000  0.78923000  0.44276000  1.0
  C  C54  1  0.56946000  0.19647000  0.47514000  1.0
  C  C55  1  0.44368000  0.79671000  0.54494000  1.0
  C  C56  1  0.57722000  0.09741000  0.47037000  1.0
  C  C57  1  0.44160000  0.89489000  0.55296000  1.0
  C  C58  1  0.50198000  0.04901000  0.50490000  1.0
  C  C59  1  0.50551000  0.94347000  0.50139000  1.0
  C  C60  1  0.31229000  0.53546000  0.50116000  1.0
  C  C61  1  0.69031000  0.45862000  0.49640000  1.0
  C  C62  1  0.79547000  0.44795000  0.49548000  1.0
  C  C63  1  0.50053000  0.48496000  0.33127000  1.0
  C  C64  1  0.20715000  0.54875000  0.49974000  1.0
  C  C65  1  0.98313000  0.45745000  0.49453000  1.0
  C  C66  1  0.01900000  0.54366000  0.49591000  1.0
  C  C67  1  0.11906000  0.54970000  0.49810000  1.0
  C  C68  1  0.88318000  0.45047000  0.49476000  1.0
  C  C69  1  0.48496000  0.58060000  0.90941000  1.0
  C  C70  1  0.46281000  0.43036000  0.09122000  1.0
  C  C71  1  0.47907000  0.58946000  0.81819000  1.0
  C  C72  1  0.45494000  0.42610000  0.18253000  1.0
  C  C73  1  0.50973000  0.50958000  0.76614000  1.0
  C  C74  1  0.55336000  0.41328000  0.89934000  1.0
  C  C75  1  0.50614000  0.48488000  0.23313000  1.0
  C  C76  1  0.54518000  0.42317000  0.80839000  1.0
  C  C77  1  0.56299000  0.54738000  0.19029000  1.0
  C  C78  1  0.48855000  0.75524000  0.78997000  1.0
  C  C79  1  0.41705000  0.84574000  0.79896000  1.0
  C  C80  1  0.46882000  0.93540000  0.80342000  1.0
  C  C81  1  0.42392000  0.26974000  0.22550000  1.0
  C  C82  1  0.35420000  0.22131000  0.28364000  1.0
  C  C83  1  0.38062000  0.11239000  0.28562000  1.0
  C  C84  1  0.59510000  0.31739000  0.93811000  1.0
  C  C85  1  0.57329000  0.55156000  0.09901000  1.0
  C  C86  1  0.69500000  0.31720000  0.98003000  1.0
  C  C87  1  0.63905000  0.61928000  0.05887000  1.0
  C  C88  1  0.73376000  0.56913000  0.01886000  1.0
  C  C89  1  0.35378000  0.27943000  0.67947000  1.0
  C  C90  1  0.31563000  0.20404000  0.73869000  1.0
  C  C91  1  0.33058000  0.22446000  0.83558000  1.0
  C  C92  1  0.73168000  0.74169000  0.38580000  1.0
  C  C93  1  0.76397000  0.76595000  0.29340000  1.0
  C  C94  1  0.87400000  0.76811000  0.28864000  1.0
  C  C95  1  0.52226000  0.49467000  0.95097000  1.0
  C  C96  1  0.52172000  0.49126000  0.04859000  1.0
  C  C97  1  0.42238000  0.10499000  0.54326000  1.0
  C  C98  1  0.57101000  0.88877000  0.44578000  1.0
  C  C99  1  0.42106000  0.20431000  0.54869000  1.0
  N  N100  1  0.49319000  0.24950000  0.51396000  1.0
  N  N101  1  0.50669000  0.74476000  0.49085000  1.0
  O  O102  1  0.52477000  0.58657000  0.62704000  1.0
  O  O103  1  0.39082000  0.37092000  0.22244000  1.0
  O  O104  1  0.34430000  0.25787000  0.58642000  1.0
  O  O105  1  0.62876000  0.73120000  0.39011000  1.0
  O  O106  1  0.51516000  0.40458000  0.37169000  1.0
  O  O107  1  0.48482000  0.43492000  0.63321000  1.0
  O  O108  1  0.48410000  0.56724000  0.36598000  1.0
  O  O109  1  0.35585000  0.60797000  0.51596000  1.0
  O  O110  1  0.64767000  0.38592000  0.51580000  1.0
  O  O111  1  0.35055000  0.44975000  0.48729000  1.0
  O  O112  1  0.65104000  0.54311000  0.47728000  1.0
  O  O113  1  0.43579000  0.67397000  0.78138000  1.0
