# generated using pymatgen
data_ZnH10C11N4O7
_symmetry_space_group_name_H-M   'P 1'
_cell_length_a   7.46630000
_cell_length_b   10.00610000
_cell_length_c   11.10385633
_cell_angle_alpha   83.51759721
_cell_angle_beta   70.38968684
_cell_angle_gamma   71.72180000
_symmetry_Int_Tables_number   1
_chemical_formula_structural   ZnH10C11N4O7
_chemical_formula_sum   'Zn2 H20 C22 N8 O14'
_cell_volume   741.98191613
_cell_formula_units_Z   2
loop_
 _symmetry_equiv_pos_site_id
 _symmetry_equiv_pos_as_xyz
  1  'x, y, z'
loop_
 _atom_site_type_symbol
 _atom_site_label
 _atom_site_symmetry_multiplicity
 _atom_site_fract_x
 _atom_site_fract_y
 _atom_site_fract_z
 _atom_site_occupancy
  Zn  Zn0  1  0.41026000  0.00897000  0.84596000  1.0
  Zn  Zn1  1  0.58974000  0.99103000  0.15404000  1.0
  H  H2  1  0.33176000  0.49868000  0.42115000  1.0
  H  H3  1  0.66824000  0.50132000  0.57885000  1.0
  H  H4  1  0.39055000  0.85043000  0.68617000  1.0
  H  H5  1  0.60944000  0.14957000  0.31383000  1.0
  H  H6  1  0.21427000  0.99377000  0.68741000  1.0
  H  H7  1  0.78573000  0.00623000  0.31259000  1.0
  H  H8  1  0.40773000  0.21890000  0.64103000  1.0
  H  H9  1  0.59226000  0.78110000  0.35897000  1.0
  H  H10  1  0.58964000  0.25479000  0.50083000  1.0
  H  H11  1  0.41035000  0.74521000  0.49917000  1.0
  H  H12  1  0.96768000  0.16401000  0.51738000  1.0
  H  H13  1  0.03232000  0.83599000  0.48262000  1.0
  H  H14  1  0.91895000  0.50840000  0.78383000  1.0
  H  H15  1  0.08105000  0.49160000  0.21617000  1.0
  H  H16  1  0.87976000  0.25723000  0.12690000  1.0
  H  H17  1  0.12024000  0.74277000  0.87311000  1.0
  H  H18  1  0.46547000  0.67255000  0.13423000  1.0
  H  H19  1  0.53453000  0.32744000  0.86577000  1.0
  H  H20  1  0.85261000  0.96043000  0.86335000  1.0
  H  H21  1  0.14738000  0.03957000  0.13665000  1.0
  C  C22  1  0.61518000  0.73718000  0.88146000  1.0
  C  C23  1  0.38482000  0.26282000  0.11854000  1.0
  C  C24  1  0.68629000  0.60488000  0.95274000  1.0
  C  C25  1  0.31370000  0.39512000  0.04727000  1.0
  C  C26  1  0.84753000  0.49537000  0.88561000  1.0
  C  C27  1  0.15248000  0.50462000  0.11439000  1.0
  C  C28  1  0.91866000  0.37013000  0.94733000  1.0
  C  C29  1  0.08135000  0.62987000  0.05267000  1.0
  C  C30  1  0.09721000  0.25729000  0.87333000  1.0
  C  C31  1  0.90279000  0.74271000  0.12668000  1.0
  C  C32  1  0.82548000  0.35388000  0.07761000  1.0
  C  C33  1  0.17453000  0.64612000  0.92239000  1.0
  C  C34  1  0.66099000  0.46156000  0.14495000  1.0
  C  C35  1  0.33900000  0.53844000  0.85506000  1.0
  C  C36  1  0.56343000  0.43584000  0.28067000  1.0
  C  C37  1  0.43658000  0.56416000  0.71933000  1.0
  C  C38  1  0.59191000  0.58771000  0.08277000  1.0
  C  C39  1  0.40810000  0.41228000  0.91723000  1.0
  C  C40  1  0.69016000  0.13843000  0.64255000  1.0
  C  C41  1  0.30983000  0.86157000  0.35745000  1.0
  C  C42  1  0.83221000  0.02019000  0.77842000  1.0
  C  C43  1  0.16778000  0.97981000  0.22158000  1.0
  N  N44  1  0.65300000  0.07127000  0.75741000  1.0
  N  N45  1  0.34699000  0.92873000  0.24259000  1.0
  N  N46  1  0.55517000  0.20129000  0.58517000  1.0
  N  N47  1  0.44482000  0.79872000  0.41483000  1.0
  N  N48  1  0.88769000  0.12644000  0.59950000  1.0
  N  N49  1  0.11230000  0.87356000  0.40050000  1.0
  N  N50  1  0.97904000  0.05017000  0.68539000  1.0
  N  N51  1  0.02095000  0.94983000  0.31461000  1.0
  O  O52  1  0.68189000  0.74003000  0.76196000  1.0
  O  O53  1  0.31811000  0.25997000  0.23804000  1.0
  O  O54  1  0.48303000  0.84192000  0.95169000  1.0
  O  O55  1  0.51698000  0.15808000  0.04831000  1.0
  O  O56  1  0.17385000  0.27546000  0.75580000  1.0
  O  O57  1  0.82615000  0.72454000  0.24420000  1.0
  O  O58  1  0.16115000  0.14774000  0.93892000  1.0
  O  O59  1  0.83885000  0.85226000  0.06108000  1.0
  O  O60  1  0.63536000  0.33535000  0.34332000  1.0
  O  O61  1  0.36464000  0.66466000  0.65669000  1.0
  O  O62  1  0.38589000  0.53065000  0.33350000  1.0
  O  O63  1  0.61411000  0.46935000  0.66650000  1.0
  O  O64  1  0.35063000  0.95229000  0.69730000  1.0
  O  O65  1  0.64937000  0.04771000  0.30270000  1.0
