# generated using pymatgen
data_AgH20C21N3O4
_symmetry_space_group_name_H-M   'P 1'
_cell_length_a   6.55261000
_cell_length_b   11.31620000
_cell_length_c   13.57130000
_cell_angle_alpha   74.77200000
_cell_angle_beta   89.99880000
_cell_angle_gamma   89.99900000
_symmetry_Int_Tables_number   1
_chemical_formula_structural   AgH20C21N3O4
_chemical_formula_sum   'Ag2 H40 C42 N6 O8'
_cell_volume   970.98697230
_cell_formula_units_Z   2
loop_
 _symmetry_equiv_pos_site_id
 _symmetry_equiv_pos_as_xyz
  1  'x, y, z'
loop_
 _atom_site_type_symbol
 _atom_site_label
 _atom_site_symmetry_multiplicity
 _atom_site_fract_x
 _atom_site_fract_y
 _atom_site_fract_z
 _atom_site_occupancy
  Ag  Ag0  1  0.37920000  0.53037000  0.53909000  1.0
  Ag  Ag1  1  0.87921000  0.46963000  0.46092000  1.0
  H  H2  1  0.39930000  0.25024000  0.90405000  1.0
  H  H3  1  0.89934000  0.74975000  0.09595000  1.0
  H  H4  1  0.92392000  0.96202000  0.82678000  1.0
  H  H5  1  0.42391000  0.03798000  0.17322000  1.0
  H  H6  1  0.97457000  0.30771000  0.83234000  1.0
  H  H7  1  0.47458000  0.69231000  0.16766000  1.0
  H  H8  1  0.05869000  0.35824000  0.99493000  1.0
  H  H9  1  0.55871000  0.64175000  0.00508000  1.0
  H  H10  1  0.29355000  0.42109000  0.94575000  1.0
  H  H11  1  0.79356000  0.57891000  0.05425000  1.0
  H  H12  1  0.75854000  0.49998000  0.82711000  1.0
  H  H13  1  0.25856000  0.50003000  0.17289000  1.0
  H  H14  1  0.63448000  0.71164000  0.78223000  1.0
  H  H15  1  0.13449000  0.28837000  0.21777000  1.0
  H  H16  1  0.18190000  0.83000000  0.90329000  1.0
  H  H17  1  0.68190000  0.16998000  0.09671000  1.0
  H  H18  1  0.30841000  0.61648000  0.94802000  1.0
  H  H19  1  0.80843000  0.38350000  0.05198000  1.0
  H  H20  1  0.35437000  0.96510000  0.98459000  1.0
  H  H21  1  0.85439000  0.03489000  0.01540000  1.0
  H  H22  1  0.53634000  0.07372000  0.91963000  1.0
  H  H23  1  0.03635000  0.92626000  0.08035000  1.0
  H  H24  1  0.41924000  0.97329000  0.85578000  1.0
  H  H25  1  0.91929000  0.02671000  0.14421000  1.0
  H  H26  1  0.38956000  0.38796000  0.37584000  1.0
  H  H27  1  0.88958000  0.61204000  0.62417000  1.0
  H  H28  1  0.36627000  0.17065000  0.37129000  1.0
  H  H29  1  0.86626000  0.82935000  0.62871000  1.0
  H  H30  1  0.53041000  0.06912000  0.69147000  1.0
  H  H31  1  0.03040000  0.93088000  0.30853000  1.0
  H  H32  1  0.52867000  0.29200000  0.68393000  1.0
  H  H33  1  0.02869000  0.70800000  0.31608000  1.0
  H  H34  1  0.48284000  0.77639000  0.37780000  1.0
  H  H35  1  0.98283000  0.22362000  0.62220000  1.0
  H  H36  1  0.48927000  0.99790000  0.36953000  1.0
  H  H37  1  0.98929000  0.00212000  0.63046000  1.0
  H  H38  1  0.37012000  0.89936000  0.69476000  1.0
  H  H39  1  0.87013000  0.10065000  0.30525000  1.0
  H  H40  1  0.36018000  0.68164000  0.68805000  1.0
  H  H41  1  0.86018000  0.31837000  0.31195000  1.0
  C  C42  1  0.21659000  0.41723000  0.74282000  1.0
  C  C43  1  0.71660000  0.58276000  0.25718000  1.0
  C  C44  1  0.12793000  0.33948000  0.84504000  1.0
  C  C45  1  0.62796000  0.66052000  0.15497000  1.0
  C  C46  1  0.13286000  0.41314000  0.92502000  1.0
  C  C47  1  0.63288000  0.58686000  0.07497000  1.0
  C  C48  1  0.04588000  0.54106000  0.89226000  1.0
  C  C49  1  0.54588000  0.45894000  0.10773000  1.0
  C  C50  1  0.85525000  0.57041000  0.84475000  1.0
  C  C51  1  0.35526000  0.42959000  0.15526000  1.0
  C  C52  1  0.78295000  0.69078000  0.81865000  1.0
  C  C53  1  0.28297000  0.30922000  0.18136000  1.0
  C  C54  1  0.89920000  0.78589000  0.83886000  1.0
  C  C55  1  0.39919000  0.21411000  0.16113000  1.0
  C  C56  1  0.08913000  0.75760000  0.88680000  1.0
  C  C57  1  0.58915000  0.24239000  0.11320000  1.0
  C  C58  1  0.15958000  0.63716000  0.91198000  1.0
  C  C59  1  0.65959000  0.36283000  0.08802000  1.0
  C  C60  1  0.22016000  0.11749000  0.87425000  1.0
  C  C61  1  0.72016000  0.88251000  0.12573000  1.0
  C  C62  1  0.39284000  0.02793000  0.91034000  1.0
  C  C63  1  0.89284000  0.97206000  0.08965000  1.0
  C  C64  1  0.41332000  0.31380000  0.44456000  1.0
  C  C65  1  0.91332000  0.68621000  0.55544000  1.0
  C  C66  1  0.40513000  0.19200000  0.44262000  1.0
  C  C67  1  0.90510000  0.80801000  0.55738000  1.0
  C  C68  1  0.44339000  0.09935000  0.53199000  1.0
  C  C69  1  0.94336000  0.90066000  0.46801000  1.0
  C  C70  1  0.48909000  0.13599000  0.62074000  1.0
  C  C71  1  0.98906000  0.86399000  0.37926000  1.0
  C  C72  1  0.49290000  0.25951000  0.61703000  1.0
  C  C73  1  0.99289000  0.74048000  0.38297000  1.0
  C  C74  1  0.45644000  0.80822000  0.44598000  1.0
  C  C75  1  0.95646000  0.19179000  0.55402000  1.0
  C  C76  1  0.46136000  0.93185000  0.44251000  1.0
  C  C77  1  0.96137000  0.06815000  0.55749000  1.0
  C  C78  1  0.43470000  0.96940000  0.53232000  1.0
  C  C79  1  0.93471000  0.03061000  0.46768000  1.0
  C  C80  1  0.39769000  0.87724000  0.62249000  1.0
  C  C81  1  0.89770000  0.12276000  0.37751000  1.0
  C  C82  1  0.39111000  0.75564000  0.61977000  1.0
  C  C83  1  0.89112000  0.24437000  0.38022000  1.0
  N  N84  1  0.25747000  0.23194000  0.88132000  1.0
  N  N85  1  0.75750000  0.76806000  0.11869000  1.0
  N  N86  1  0.42329000  0.72066000  0.53330000  1.0
  N  N87  1  0.92330000  0.27936000  0.46669000  1.0
  N  N88  1  0.45674000  0.34776000  0.53025000  1.0
  N  N89  1  0.95673000  0.65226000  0.46975000  1.0
  O  O90  1  0.10327000  0.43331000  0.66461000  1.0
  O  O91  1  0.60328000  0.56669000  0.33539000  1.0
  O  O92  1  0.39709000  0.45628000  0.74610000  1.0
  O  O93  1  0.89709000  0.54371000  0.25390000  1.0
  O  O94  1  0.82450000  0.90269000  0.81025000  1.0
  O  O95  1  0.32452000  0.09730000  0.18977000  1.0
  O  O96  1  0.05393000  0.08676000  0.84198000  1.0
  O  O97  1  0.55391000  0.91324000  0.15802000  1.0
