# generated using pymatgen
data_NdH8C8NO9
_symmetry_space_group_name_H-M   'P 1'
_cell_length_a   6.69158000
_cell_length_b   8.15147000
_cell_length_c   10.45470000
_cell_angle_alpha   78.47440000
_cell_angle_beta   71.36440000
_cell_angle_gamma   85.76520000
_symmetry_Int_Tables_number   1
_chemical_formula_structural   NdH8C8NO9
_chemical_formula_sum   'Nd2 H16 C16 N2 O18'
_cell_volume   529.43849755
_cell_formula_units_Z   2
loop_
 _symmetry_equiv_pos_site_id
 _symmetry_equiv_pos_as_xyz
  1  'x, y, z'
loop_
 _atom_site_type_symbol
 _atom_site_label
 _atom_site_symmetry_multiplicity
 _atom_site_fract_x
 _atom_site_fract_y
 _atom_site_fract_z
 _atom_site_occupancy
  Nd  Nd0  1  0.23031000  0.34345000  0.31813000  1.0
  Nd  Nd1  1  0.76970000  0.65655000  0.68186000  1.0
  H  H2  1  0.36856000  0.88520000  0.93173000  1.0
  H  H3  1  0.63143000  0.11480000  0.06828000  1.0
  H  H4  1  0.62718000  0.27998000  0.40762000  1.0
  H  H5  1  0.37282000  0.72003000  0.59239000  1.0
  H  H6  1  0.75158000  0.29248000  0.25208000  1.0
  H  H7  1  0.24843000  0.70752000  0.74792000  1.0
  H  H8  1  0.26369000  0.66153000  0.43564000  1.0
  H  H9  1  0.73632000  0.33848000  0.56436000  1.0
  H  H10  1  0.42900000  0.65916000  0.29213000  1.0
  H  H11  1  0.57099000  0.34084000  0.70786000  1.0
  H  H12  1  0.35226000  0.02013000  0.71816000  1.0
  H  H13  1  0.64774000  0.97987000  0.28184000  1.0
  H  H14  1  0.23003000  0.98790000  0.13855000  1.0
  H  H15  1  0.76996000  0.01209000  0.86145000  1.0
  H  H16  1  0.02365000  0.43240000  0.90463000  1.0
  H  H17  1  0.97634000  0.56759000  0.09537000  1.0
  C  C18  1  0.16009000  0.32455000  0.65852000  1.0
  C  C19  1  0.83992000  0.67546000  0.34147000  1.0
  C  C20  1  0.17953000  0.23804000  0.79625000  1.0
  C  C21  1  0.82048000  0.76196000  0.20376000  1.0
  C  C22  1  0.28064000  0.08239000  0.80492000  1.0
  C  C23  1  0.71934000  0.91760000  0.19509000  1.0
  C  C24  1  0.21123000  0.06441000  0.04496000  1.0
  C  C25  1  0.78878000  0.93558000  0.95504000  1.0
  C  C26  1  0.11055000  0.22387000  0.04424000  1.0
  C  C27  1  0.88944000  0.77612000  0.95577000  1.0
  C  C28  1  0.09707000  0.30838000  0.91403000  1.0
  C  C29  1  0.90293000  0.69163000  0.08597000  1.0
  C  C30  1  0.89967000  0.04924000  0.53387000  1.0
  C  C31  1  0.10036000  0.95075000  0.46613000  1.0
  C  C32  1  0.54449000  0.41175000  0.98893000  1.0
  C  C33  1  0.45550000  0.58826000  0.01107000  1.0
  N  N34  1  0.29149000  0.00291000  0.92843000  1.0
  N  N35  1  0.70850000  0.99708000  0.07158000  1.0
  O  O36  1  0.24747000  0.25279000  0.55718000  1.0
  O  O37  1  0.75254000  0.74721000  0.44282000  1.0
  O  O38  1  0.05592000  0.46064000  0.65290000  1.0
  O  O39  1  0.94407000  0.53934000  0.34711000  1.0
  O  O40  1  0.03875000  0.28759000  0.15614000  1.0
  O  O41  1  0.96121000  0.71239000  0.84388000  1.0
  O  O42  1  0.76070000  0.97286000  0.63659000  1.0
  O  O43  1  0.23932000  0.02715000  0.36339000  1.0
  O  O44  1  0.89351000  0.20287000  0.47834000  1.0
  O  O45  1  0.10651000  0.79712000  0.52164000  1.0
  O  O46  1  0.49663000  0.29467000  0.09385000  1.0
  O  O47  1  0.50338000  0.70535000  0.90613000  1.0
  O  O48  1  0.65693000  0.39622000  0.87004000  1.0
  O  O49  1  0.34308000  0.60379000  0.12995000  1.0
  O  O50  1  0.60746000  0.28112000  0.31889000  1.0
  O  O51  1  0.39253000  0.71889000  0.68111000  1.0
  O  O52  1  0.36774000  0.58714000  0.38112000  1.0
  O  O53  1  0.63227000  0.41286000  0.61888000  1.0
