# generated using pymatgen
data_CuH34C34N6(O3F)2
_symmetry_space_group_name_H-M   'P 1'
_cell_length_a   5.27537000
_cell_length_b   13.45162839
_cell_length_c   22.47530000
_cell_angle_alpha   90.00080955
_cell_angle_beta   90.00050000
_cell_angle_gamma   100.46780141
_symmetry_Int_Tables_number   1
_chemical_formula_structural   CuH34C34N6(O3F)2
_chemical_formula_sum   'Cu2 H68 C68 N12 O12 F4'
_cell_volume   1568.35570990
_cell_formula_units_Z   2
loop_
 _symmetry_equiv_pos_site_id
 _symmetry_equiv_pos_as_xyz
  1  'x, y, z'
loop_
 _atom_site_type_symbol
 _atom_site_label
 _atom_site_symmetry_multiplicity
 _atom_site_fract_x
 _atom_site_fract_y
 _atom_site_fract_z
 _atom_site_occupancy
  Cu  Cu0  1  0.00001000  0.00000000  0.50000000  1.0
  Cu  Cu1  1  0.49997000  0.50001000  0.00000000  1.0
  H  H2  1  0.61200000  0.13312000  0.33907000  1.0
  H  H3  1  0.88800000  0.36687000  0.83907000  1.0
  H  H4  1  0.38800000  0.86687000  0.66093000  1.0
  H  H5  1  0.11199000  0.63314000  0.16092000  1.0
  H  H6  1  0.21182000  0.41900000  0.24874000  1.0
  H  H7  1  0.28819000  0.08100000  0.74874000  1.0
  H  H8  1  0.78818000  0.58100000  0.75126000  1.0
  H  H9  1  0.71183000  0.91900000  0.25126000  1.0
  H  H10  1  0.58621000  0.35729000  0.42971000  1.0
  H  H11  1  0.91377000  0.14270000  0.92971000  1.0
  H  H12  1  0.41377000  0.64270000  0.57029000  1.0
  H  H13  1  0.08623000  0.85729000  0.07030000  1.0
  H  H14  1  0.63667000  0.43016000  0.29498000  1.0
  H  H15  1  0.86331000  0.06983000  0.79499000  1.0
  H  H16  1  0.36329000  0.56983000  0.70501000  1.0
  H  H17  1  0.13668000  0.93017000  0.20502000  1.0
  H  H18  1  0.61181000  0.52710000  0.42080000  1.0
  H  H19  1  0.88824000  0.97289000  0.92081000  1.0
  H  H20  1  0.38825000  0.47290000  0.57919000  1.0
  H  H21  1  0.11180000  0.02710000  0.07919000  1.0
  H  H22  1  0.86014000  0.56224000  0.36379000  1.0
  H  H23  1  0.63987000  0.93774000  0.86380000  1.0
  H  H24  1  0.13986000  0.43773000  0.63620000  1.0
  H  H25  1  0.36020000  0.06225000  0.13620000  1.0
  H  H26  1  0.50896000  0.60133000  0.29293000  1.0
  H  H27  1  0.99102000  0.89865000  0.79294000  1.0
  H  H28  1  0.49103000  0.39866000  0.70707000  1.0
  H  H29  1  0.00905000  0.10136000  0.20707000  1.0
  H  H30  1  0.27097000  0.56087000  0.35197000  1.0
  H  H31  1  0.22904000  0.93911000  0.85198000  1.0
  H  H32  1  0.72904000  0.43913000  0.64804000  1.0
  H  H33  1  0.77103000  0.06091000  0.14803000  1.0
  H  H34  1  0.97251000  0.49816000  0.19955000  1.0
  H  H35  1  0.52743000  0.00185000  0.69955000  1.0
  H  H36  1  0.02743000  0.50184000  0.80045000  1.0
  H  H37  1  0.47264000  0.99814000  0.30046000  1.0
  H  H38  1  0.12269000  0.43912000  0.14165000  1.0
  H  H39  1  0.37728000  0.06090000  0.64165000  1.0
  H  H40  1  0.87727000  0.56089000  0.85834000  1.0
  H  H41  1  0.62275000  0.93908000  0.35836000  1.0
  H  H42  1  0.89393000  0.56349000  0.09825000  1.0
  H  H43  1  0.60601000  0.93652000  0.59825000  1.0
  H  H44  1  0.10601000  0.43652000  0.90175000  1.0
  H  H45  1  0.39405000  0.06347000  0.40176000  1.0
  H  H46  1  0.60410000  0.51201000  0.13707000  1.0
  H  H47  1  0.89582000  0.98798000  0.63707000  1.0
  H  H48  1  0.39583000  0.48799000  0.86293000  1.0
  H  H49  1  0.10424000  0.01202000  0.36293000  1.0
  H  H50  1  0.37034000  0.33792000  0.10374000  1.0
  H  H51  1  0.12964000  0.16208000  0.60375000  1.0
  H  H52  1  0.62963000  0.66207000  0.89626000  1.0
  H  H53  1  0.87037000  0.83793000  0.39625000  1.0
  H  H54  1  0.52466000  0.27682000  0.04759000  1.0
  H  H55  1  0.97535000  0.22318000  0.54760000  1.0
  H  H56  1  0.47534000  0.72319000  0.95240000  1.0
  H  H57  1  0.02464000  0.77682000  0.45240000  1.0
  H  H58  1  0.88332000  0.26229000  0.10992000  1.0
  H  H59  1  0.61669000  0.23773000  0.60993000  1.0
  H  H60  1  0.11669000  0.73773000  0.89007000  1.0
  H  H61  1  0.38330000  0.76227000  0.39008000  1.0
  H  H62  1  0.59239000  0.21197000  0.14814000  1.0
  H  H63  1  0.90761000  0.28803000  0.64815000  1.0
  H  H64  1  0.40763000  0.78803000  0.85185000  1.0
  H  H65  1  0.09238000  0.71196000  0.35185000  1.0
  H  H66  1  0.85687000  0.41679000  0.04120000  1.0
  H  H67  1  0.64311000  0.08322000  0.54120000  1.0
  H  H68  1  0.14308000  0.58323000  0.95880000  1.0
  H  H69  1  0.35690000  0.91676000  0.45881000  1.0
  C  C70  1  0.37996000  0.20193000  0.48965000  1.0
  C  C71  1  0.12001000  0.29806000  0.98966000  1.0
  C  C72  1  0.62002000  0.79806000  0.51034000  1.0
  C  C73  1  0.87996000  0.70195000  0.01034000  1.0
  C  C74  1  0.26195000  0.23791000  0.43451000  1.0
  C  C75  1  0.23803000  0.26209000  0.93452000  1.0
  C  C76  1  0.73804000  0.76208000  0.56549000  1.0
  C  C77  1  0.76194000  0.73793000  0.06548000  1.0
  C  C78  1  0.02128000  0.19141000  0.40733000  1.0
  C  C79  1  0.47871000  0.30857000  0.90734000  1.0
  C  C80  1  0.97871000  0.80858000  0.59267000  1.0
  C  C81  1  0.52126000  0.69144000  0.09266000  1.0
  C  C82  1  0.96720000  0.23678000  0.35036000  1.0
  C  C83  1  0.53282000  0.26322000  0.85036000  1.0
  C  C84  1  0.03280000  0.76322000  0.64964000  1.0
  C  C85  1  0.46719000  0.73680000  0.14964000  1.0
  C  C86  1  0.74555000  0.19401000  0.31839000  1.0
  C  C87  1  0.75445000  0.30598000  0.81839000  1.0
  C  C88  1  0.25443000  0.80598000  0.68161000  1.0
  C  C89  1  0.24556000  0.69403000  0.18161000  1.0
  C  C90  1  0.69360000  0.23030000  0.26384000  1.0
  C  C91  1  0.80640000  0.26970000  0.76384000  1.0
  C  C92  1  0.30640000  0.76970000  0.73616000  1.0
  C  C93  1  0.19361000  0.73030000  0.23616000  1.0
  C  C94  1  0.85692000  0.31289000  0.23567000  1.0
  C  C95  1  0.64308000  0.18711000  0.73567000  1.0
  C  C96  1  0.14307000  0.68711000  0.76433000  1.0
  C  C97  1  0.35695000  0.81289000  0.26433000  1.0
  C  C98  1  0.07700000  0.35696000  0.26827000  1.0
  C  C99  1  0.42300000  0.14304000  0.76828000  1.0
  C  C100  1  0.92298000  0.64304000  0.73173000  1.0
  C  C101  1  0.57701000  0.85696000  0.23173000  1.0
  C  C102  1  0.13027000  0.32095000  0.32479000  1.0
  C  C103  1  0.36972000  0.17904000  0.82480000  1.0
  C  C104  1  0.86971000  0.67905000  0.67521000  1.0
  C  C105  1  0.63028000  0.82096000  0.17520000  1.0
  C  C106  1  0.40739000  0.32201000  0.40831000  1.0
  C  C107  1  0.09260000  0.17798000  0.90832000  1.0
  C  C108  1  0.59259000  0.67798000  0.59169000  1.0
  C  C109  1  0.90740000  0.82203000  0.09169000  1.0
  C  C110  1  0.52605000  0.45052000  0.33262000  1.0
  C  C111  1  0.97395000  0.04946000  0.83262000  1.0
  C  C112  1  0.47393000  0.54947000  0.66738000  1.0
  C  C113  1  0.02606000  0.95054000  0.16738000  1.0
  C  C114  1  0.65935000  0.53147000  0.37362000  1.0
  C  C115  1  0.84065000  0.96852000  0.87363000  1.0
  C  C116  1  0.34066000  0.46851000  0.62637000  1.0
  C  C117  1  0.15938000  0.03147000  0.12638000  1.0
  C  C118  1  0.45402000  0.55377000  0.33168000  1.0
  C  C119  1  0.04599000  0.94622000  0.83169000  1.0
  C  C120  1  0.54599000  0.44622000  0.66832000  1.0
  C  C121  1  0.95406000  0.05379000  0.16831000  1.0
  C  C122  1  0.93474000  0.44700000  0.16123000  1.0
  C  C123  1  0.56522000  0.05300000  0.66123000  1.0
  C  C124  1  0.06522000  0.55300000  0.83877000  1.0
  C  C125  1  0.43483000  0.94699000  0.33878000  1.0
  C  C126  1  0.77713000  0.49387000  0.11554000  1.0
  C  C127  1  0.72283000  0.00614000  0.61554000  1.0
  C  C128  1  0.22282000  0.50614000  0.88446000  1.0
  C  C129  1  0.27723000  0.99386000  0.38447000  1.0
  C  C130  1  0.55773000  0.32840000  0.08559000  1.0
  C  C131  1  0.94227000  0.17161000  0.58560000  1.0
  C  C132  1  0.44225000  0.67160000  0.91441000  1.0
  C  C133  1  0.05775000  0.82840000  0.41441000  1.0
  C  C134  1  0.71143000  0.28147000  0.13177000  1.0
  C  C135  1  0.78856000  0.21854000  0.63178000  1.0
  C  C136  1  0.28856000  0.71854000  0.86822000  1.0
  C  C137  1  0.21144000  0.78145000  0.36823000  1.0
  N  N138  1  0.34867000  0.36515000  0.35682000  1.0
  N  N139  1  0.15134000  0.13484000  0.85683000  1.0
  N  N140  1  0.65131000  0.63484000  0.64317000  1.0
  N  N141  1  0.84867000  0.86517000  0.14317000  1.0
  N  N142  1  0.79053000  0.35062000  0.18187000  1.0
  N  N143  1  0.70945000  0.14938000  0.68187000  1.0
  N  N144  1  0.20945000  0.64938000  0.81813000  1.0
  N  N145  1  0.29058000  0.85062000  0.31813000  1.0
  N  N146  1  0.69384000  0.42766000  0.06435000  1.0
  N  N147  1  0.80615000  0.07235000  0.56435000  1.0
  N  N148  1  0.30611000  0.57235000  0.93565000  1.0
  N  N149  1  0.19388000  0.92765000  0.43566000  1.0
  O  O150  1  0.31802000  0.10807000  0.50641000  1.0
  O  O151  1  0.18195000  0.39193000  0.00640000  1.0
  O  O152  1  0.68198000  0.89193000  0.49360000  1.0
  O  O153  1  0.81801000  0.60808000  0.99360000  1.0
  O  O154  1  0.54632000  0.26453000  0.51617000  1.0
  O  O155  1  0.95364000  0.23546000  0.01617000  1.0
  O  O156  1  0.45366000  0.73547000  0.48383000  1.0
  O  O157  1  0.04631000  0.76454000  0.98382000  1.0
  O  O158  1  0.86624000  0.11707000  0.42815000  1.0
  O  O159  1  0.63374000  0.38292000  0.92816000  1.0
  O  O160  1  0.13376000  0.88291000  0.57184000  1.0
  O  O161  1  0.36623000  0.61710000  0.07183000  1.0
  F  F162  1  0.46569000  0.18736000  0.23693000  1.0
  F  F163  1  0.03432000  0.31264000  0.73694000  1.0
  F  F164  1  0.53433000  0.81263000  0.76306000  1.0
  F  F165  1  0.96571000  0.68736000  0.26306000  1.0
