# generated using pymatgen
data_CaH2C2O5
_symmetry_space_group_name_H-M   'P 1'
_cell_length_a   5.87842000
_cell_length_b   5.87833000
_cell_length_c   7.38556000
_cell_angle_alpha   75.05910000
_cell_angle_beta   75.05910000
_cell_angle_gamma   76.05300000
_symmetry_Int_Tables_number   1
_chemical_formula_structural   CaH2C2O5
_chemical_formula_sum   'Ca2 H4 C4 O10'
_cell_volume   234.04392743
_cell_formula_units_Z   2
loop_
 _symmetry_equiv_pos_site_id
 _symmetry_equiv_pos_as_xyz
  1  'x, y, z'
loop_
 _atom_site_type_symbol
 _atom_site_label
 _atom_site_symmetry_multiplicity
 _atom_site_fract_x
 _atom_site_fract_y
 _atom_site_fract_z
 _atom_site_occupancy
  Ca  Ca0  1  0.78577000  0.78577000  0.60697000  1.0
  Ca  Ca1  1  0.21422000  0.21423000  0.39303000  1.0
  H  H2  1  0.85140000  0.07183000  0.21483000  1.0
  H  H3  1  0.92818000  0.14858000  0.78516000  1.0
  H  H4  1  0.14860000  0.92817000  0.78516000  1.0
  H  H5  1  0.07182000  0.85142000  0.21484000  1.0
  C  C6  1  0.60719000  0.39280000  0.50000000  1.0
  C  C7  1  0.39280000  0.60719000  0.50000000  1.0
  C  C8  1  0.60742000  0.39259000  1.00000000  1.0
  C  C9  1  0.39260000  0.60741000  0.00000000  1.0
  O  O10  1  0.78331000  0.41123000  0.85905000  1.0
  O  O11  1  0.58876000  0.21669000  0.14096000  1.0
  O  O12  1  0.21670000  0.58879000  0.14094000  1.0
  O  O13  1  0.41123000  0.78331000  0.85905000  1.0
  O  O14  1  0.55555000  0.18632000  0.54365000  1.0
  O  O15  1  0.81369000  0.44444000  0.45636000  1.0
  O  O16  1  0.44444000  0.81370000  0.45636000  1.0
  O  O17  1  0.18630000  0.55555000  0.54365000  1.0
  O  O18  1  0.98842000  0.98837000  0.27944000  1.0
  O  O19  1  0.01159000  0.01161000  0.72056000  1.0
