# generated using pymatgen
data_SnH24C16SCl2O5
_symmetry_space_group_name_H-M   'P 1'
_cell_length_a   8.93638000
_cell_length_b   9.68626000
_cell_length_c   12.51760000
_cell_angle_alpha   86.13140000
_cell_angle_beta   87.07780000
_cell_angle_gamma   73.58830000
_symmetry_Int_Tables_number   1
_chemical_formula_structural   SnH24C16SCl2O5
_chemical_formula_sum   'Sn2 H48 C32 S2 Cl4 O10'
_cell_volume   1036.43275536
_cell_formula_units_Z   2
loop_
 _symmetry_equiv_pos_site_id
 _symmetry_equiv_pos_as_xyz
  1  'x, y, z'
loop_
 _atom_site_type_symbol
 _atom_site_label
 _atom_site_symmetry_multiplicity
 _atom_site_fract_x
 _atom_site_fract_y
 _atom_site_fract_z
 _atom_site_occupancy
  Sn  Sn0  1  0.65006000  0.67535000  0.76425000  1.0
  Sn  Sn1  1  0.34993000  0.32465000  0.23574000  1.0
  H  H2  1  0.70156000  0.51030000  0.94468000  1.0
  H  H3  1  0.29845000  0.48971000  0.05531000  1.0
  H  H4  1  0.49976000  0.56713000  0.91833000  1.0
  H  H5  1  0.50024000  0.43288000  0.08167000  1.0
  H  H6  1  0.57519000  0.30636000  0.90899000  1.0
  H  H7  1  0.42480000  0.69365000  0.09101000  1.0
  H  H8  1  0.55491000  0.37517000  0.77556000  1.0
  H  H9  1  0.44509000  0.62484000  0.22443000  1.0
  H  H10  1  0.86035000  0.25694000  0.89390000  1.0
  H  H11  1  0.13965000  0.74306000  0.10610000  1.0
  H  H12  1  0.85005000  0.33864000  0.76301000  1.0
  H  H13  1  0.14995000  0.66136000  0.23699000  1.0
  H  H14  1  0.74070000  0.07003000  0.82895000  1.0
  H  H15  1  0.25928000  0.92998000  0.17106000  1.0
  H  H16  1  0.91778000  0.06843000  0.75725000  1.0
  H  H17  1  0.08221000  0.93157000  0.24275000  1.0
  H  H18  1  0.73666000  0.15248000  0.69767000  1.0
  H  H19  1  0.26332000  0.84752000  0.30234000  1.0
  H  H20  1  0.56009000  0.93858000  0.66940000  1.0
  H  H21  1  0.43991000  0.06142000  0.33060000  1.0
  H  H22  1  0.76243000  0.88986000  0.69737000  1.0
  H  H23  1  0.23757000  0.11014000  0.30264000  1.0
  H  H24  1  0.62064000  0.79113000  0.50637000  1.0
  H  H25  1  0.37936000  0.20886000  0.49363000  1.0
  H  H26  1  0.81947000  0.73144000  0.53728000  1.0
  H  H27  1  0.18053000  0.26856000  0.46273000  1.0
  H  H28  1  0.83468000  0.98769000  0.51492000  1.0
  H  H29  1  0.16532000  0.01231000  0.48508000  1.0
  H  H30  1  0.63614000  0.04638000  0.48407000  1.0
  H  H31  1  0.36386000  0.95362000  0.51593000  1.0
  H  H32  1  0.89494000  0.83740000  0.35383000  1.0
  H  H33  1  0.10506000  0.16259000  0.64616000  1.0
  H  H34  1  0.79861000  0.02030000  0.31484000  1.0
  H  H35  1  0.20138000  0.97970000  0.68516000  1.0
  H  H36  1  0.69431000  0.88949000  0.32308000  1.0
  H  H37  1  0.30568000  0.11051000  0.67693000  1.0
  H  H38  1  0.15357000  0.32967000  0.81338000  1.0
  H  H39  1  0.84642000  0.67033000  0.18662000  1.0
  H  H40  1  0.28133000  0.41265000  0.87404000  1.0
  H  H41  1  0.71866000  0.58736000  0.12597000  1.0
  H  H42  1  0.23164000  0.45888000  0.73504000  1.0
  H  H43  1  0.76835000  0.54113000  0.26497000  1.0
  H  H44  1  0.16701000  0.72342000  0.76942000  1.0
  H  H45  1  0.83299000  0.27658000  0.23059000  1.0
  H  H46  1  0.19889000  0.69441000  0.91116000  1.0
  H  H47  1  0.80111000  0.30559000  0.08884000  1.0
  H  H48  1  0.01771000  0.81185000  0.86626000  1.0
  H  H49  1  0.98229000  0.18815000  0.13374000  1.0
  C  C50  1  0.62412000  0.50213000  0.56730000  1.0
  C  C51  1  0.37589000  0.49787000  0.43269000  1.0
  C  C52  1  0.54422000  0.40892000  0.41003000  1.0
  C  C53  1  0.45579000  0.59108000  0.58996000  1.0
  C  C54  1  0.66051000  0.41341000  0.47966000  1.0
  C  C55  1  0.33950000  0.58659000  0.52033000  1.0
  C  C56  1  0.45653000  0.91844000  0.91992000  1.0
  C  C57  1  0.54348000  0.08156000  0.08009000  1.0
  C  C58  1  0.37490000  0.11207000  0.04514000  1.0
  C  C59  1  0.62511000  0.88792000  0.95486000  1.0
  C  C60  1  0.34015000  0.02992000  0.96678000  1.0
  C  C61  1  0.65985000  0.97008000  0.03323000  1.0
  C  C62  1  0.61564000  0.51510000  0.88366000  1.0
  C  C63  1  0.38436000  0.48490000  0.11634000  1.0
  C  C64  1  0.62688000  0.36626000  0.84600000  1.0
  C  C65  1  0.37312000  0.63375000  0.15400000  1.0
  C  C66  1  0.79337000  0.27642000  0.82014000  1.0
  C  C67  1  0.20663000  0.72358000  0.17986000  1.0
  C  C68  1  0.79778000  0.13392000  0.77368000  1.0
  C  C69  1  0.20221000  0.86608000  0.22632000  1.0
  C  C70  1  0.67162000  0.85501000  0.66016000  1.0
  C  C71  1  0.32838000  0.14499000  0.33984000  1.0
  C  C72  1  0.71425000  0.82339000  0.54335000  1.0
  C  C73  1  0.28575000  0.17660000  0.45665000  1.0
  C  C74  1  0.74167000  0.95433000  0.47834000  1.0
  C  C75  1  0.25833000  0.04567000  0.52166000  1.0
  C  C76  1  0.78520000  0.92399000  0.36114000  1.0
  C  C77  1  0.21480000  0.07601000  0.63887000  1.0
  C  C78  1  0.19087000  0.42802000  0.81477000  1.0
  C  C79  1  0.80913000  0.57198000  0.18523000  1.0
  C  C80  1  0.11182000  0.71487000  0.84896000  1.0
  C  C81  1  0.88818000  0.28514000  0.15104000  1.0
  S  S82  1  0.02403000  0.56903000  0.85642000  1.0
  S  S83  1  0.97597000  0.43097000  0.14359000  1.0
  Cl  Cl84  1  0.85065000  0.31339000  0.45676000  1.0
  Cl  Cl85  1  0.14935000  0.68662000  0.54323000  1.0
  Cl  Cl86  1  0.14939000  0.06327000  0.93005000  1.0
  Cl  Cl87  1  0.85062000  0.93673000  0.06996000  1.0
  O  O88  1  0.72493000  0.51378000  0.63101000  1.0
  O  O89  1  0.27508000  0.48621000  0.36898000  1.0
  O  O90  1  0.56822000  0.33554000  0.32713000  1.0
  O  O91  1  0.43179000  0.66446000  0.67286000  1.0
  O  O92  1  0.43148000  0.83944000  0.85031000  1.0
  O  O93  1  0.56853000  0.16056000  0.14969000  1.0
  O  O94  1  0.27412000  0.21244000  0.09078000  1.0
  O  O95  1  0.72588000  0.78757000  0.90922000  1.0
  O  O96  1  0.91806000  0.59606000  0.76003000  1.0
  O  O97  1  0.08194000  0.40394000  0.23997000  1.0
