# generated using pymatgen
data_AgH6C3SN2Cl
_symmetry_space_group_name_H-M   'P 1'
_cell_length_a   7.93364000
_cell_length_b   7.99303000
_cell_length_c   10.45720000
_cell_angle_alpha   90.00000000
_cell_angle_beta   89.99990000
_cell_angle_gamma   89.99990000
_symmetry_Int_Tables_number   1
_chemical_formula_structural   AgH6C3SN2Cl
_chemical_formula_sum   'Ag4 H24 C12 S4 N8 Cl4'
_cell_volume   663.13102495
_cell_formula_units_Z   4
loop_
 _symmetry_equiv_pos_site_id
 _symmetry_equiv_pos_as_xyz
  1  'x, y, z'
loop_
 _atom_site_type_symbol
 _atom_site_label
 _atom_site_symmetry_multiplicity
 _atom_site_fract_x
 _atom_site_fract_y
 _atom_site_fract_z
 _atom_site_occupancy
  Ag  Ag0  1  0.24811000  0.93894000  0.35546000  1.0
  Ag  Ag1  1  0.75189000  0.56106000  0.85545000  1.0
  Ag  Ag2  1  0.25189000  0.43894000  0.64455000  1.0
  Ag  Ag3  1  0.74811000  0.06106000  0.14455000  1.0
  H  H4  1  0.04209000  0.66717000  0.46173000  1.0
  H  H5  1  0.95791000  0.83283000  0.96173000  1.0
  H  H6  1  0.45791000  0.16717000  0.53827000  1.0
  H  H7  1  0.54209000  0.33283000  0.03827000  1.0
  H  H8  1  0.68478000  0.69197000  0.18346000  1.0
  H  H9  1  0.31522000  0.80803000  0.68346000  1.0
  H  H10  1  0.81522000  0.19197000  0.81654000  1.0
  H  H11  1  0.18478000  0.30803000  0.31654000  1.0
  H  H12  1  0.74482000  0.55723000  0.53804000  1.0
  H  H13  1  0.25518000  0.94277000  0.03804000  1.0
  H  H14  1  0.75518000  0.05723000  0.46196000  1.0
  H  H15  1  0.24482000  0.44276000  0.96196000  1.0
  H  H16  1  0.87283000  0.39077000  0.47669000  1.0
  H  H17  1  0.12717000  0.10923000  0.97669000  1.0
  H  H18  1  0.62717000  0.89077000  0.52331000  1.0
  H  H19  1  0.37283000  0.60922000  0.02331000  1.0
  H  H20  1  0.72857000  0.39600000  0.27223000  1.0
  H  H21  1  0.27143000  0.10400000  0.77223000  1.0
  H  H22  1  0.77143000  0.89600000  0.72777000  1.0
  H  H23  1  0.22857000  0.60400000  0.22777000  1.0
  H  H24  1  0.56241000  0.49210000  0.36325000  1.0
  H  H25  1  0.43759000  0.00790000  0.86325000  1.0
  H  H26  1  0.93760000  0.99210000  0.63675000  1.0
  H  H27  1  0.06241000  0.50790000  0.13675000  1.0
  C  C28  1  0.81230000  0.51024000  0.45325000  1.0
  C  C29  1  0.18769000  0.98976000  0.95325000  1.0
  C  C30  1  0.68770000  0.01024000  0.54675000  1.0
  C  C31  1  0.31230000  0.48976000  0.04675000  1.0
  C  C32  1  0.69548000  0.50070000  0.33599000  1.0
  C  C33  1  0.30452000  0.99930000  0.83599000  1.0
  C  C34  1  0.80452000  0.00070000  0.66401000  1.0
  C  C35  1  0.19548000  0.49930000  0.16401000  1.0
  C  C36  1  0.87890000  0.72319000  0.31195000  1.0
  C  C37  1  0.12110000  0.77681000  0.81195000  1.0
  C  C38  1  0.62110000  0.22319000  0.68805000  1.0
  C  C39  1  0.37890000  0.27681000  0.18805000  1.0
  S  S40  1  0.97815000  0.89077000  0.24357000  1.0
  S  S41  1  0.02185000  0.60923000  0.74358000  1.0
  S  S42  1  0.52185000  0.39077000  0.75642000  1.0
  S  S43  1  0.47815000  0.10923000  0.25643000  1.0
  N  N44  1  0.93780000  0.63349000  0.41059000  1.0
  N  N45  1  0.06220000  0.86651000  0.91059000  1.0
  N  N46  1  0.56220000  0.13349000  0.58941000  1.0
  N  N47  1  0.43780000  0.36651000  0.08942000  1.0
  N  N48  1  0.73098000  0.66052000  0.27211000  1.0
  N  N49  1  0.26901000  0.83948000  0.77211000  1.0
  N  N50  1  0.76901000  0.16052000  0.72789000  1.0
  N  N51  1  0.23098000  0.33948000  0.22789000  1.0
  Cl  Cl52  1  0.35321000  0.69923000  0.48910000  1.0
  Cl  Cl53  1  0.64679000  0.80077000  0.98910000  1.0
  Cl  Cl54  1  0.14679000  0.19923000  0.51090000  1.0
  Cl  Cl55  1  0.85321000  0.30077000  0.01090000  1.0
