# generated using pymatgen
data_ZnH8C11N4
_symmetry_space_group_name_H-M   'P 1'
_cell_length_a   15.40090000
_cell_length_b   16.13620000
_cell_length_c   17.68180000
_cell_angle_alpha   89.99720000
_cell_angle_beta   89.99920000
_cell_angle_gamma   72.66030000
_symmetry_Int_Tables_number   1
_chemical_formula_structural   ZnH8C11N4
_chemical_formula_sum   'Zn8 H64 C88 N32'
_cell_volume   4194.44574463
_cell_formula_units_Z   8
loop_
 _symmetry_equiv_pos_site_id
 _symmetry_equiv_pos_as_xyz
  1  'x, y, z'
loop_
 _atom_site_type_symbol
 _atom_site_label
 _atom_site_symmetry_multiplicity
 _atom_site_fract_x
 _atom_site_fract_y
 _atom_site_fract_z
 _atom_site_occupancy
  Zn  Zn0  1  0.44253000  0.51149000  0.08357000  1.0
  Zn  Zn1  1  0.55747000  0.48849000  0.91643000  1.0
  Zn  Zn2  1  0.05747000  0.98850000  0.58357000  1.0
  Zn  Zn3  1  0.94254000  0.01149000  0.41643000  1.0
  Zn  Zn4  1  0.51635000  0.68199000  0.97697000  1.0
  Zn  Zn5  1  0.48365000  0.31800000  0.02303000  1.0
  Zn  Zn6  1  0.01636000  0.18200000  0.52303000  1.0
  Zn  Zn7  1  0.98365000  0.81801000  0.47697000  1.0
  H  H8  1  0.25955000  0.63644000  0.13305000  1.0
  H  H9  1  0.74041000  0.36353000  0.86691000  1.0
  H  H10  1  0.49911000  0.46443000  0.27557000  1.0
  H  H11  1  0.50092000  0.53554000  0.72442000  1.0
  H  H12  1  0.00087000  0.03554000  0.77557000  1.0
  H  H13  1  0.99911000  0.96444000  0.22443000  1.0
  H  H14  1  0.24040000  0.86354000  0.63311000  1.0
  H  H15  1  0.75959000  0.13645000  0.36692000  1.0
  H  H16  1  0.38247000  0.51152000  0.82012000  1.0
  H  H17  1  0.61751000  0.48856000  0.17991000  1.0
  H  H18  1  0.74319000  0.68031000  0.80272000  1.0
  H  H19  1  0.25684000  0.31974000  0.19735000  1.0
  H  H20  1  0.75683000  0.81976000  0.30267000  1.0
  H  H21  1  0.24318000  0.18026000  0.69731000  1.0
  H  H22  1  0.11756000  0.98849000  0.32013000  1.0
  H  H23  1  0.88245000  0.01150000  0.67987000  1.0
  H  H24  1  0.35954000  0.76209000  0.85605000  1.0
  H  H25  1  0.64054000  0.23791000  0.14392000  1.0
  H  H26  1  0.63032000  0.16074000  0.94296000  1.0
  H  H27  1  0.36966000  0.83924000  0.05702000  1.0
  H  H28  1  0.86968000  0.33924000  0.44296000  1.0
  H  H29  1  0.13034000  0.66074000  0.55702000  1.0
  H  H30  1  0.14050000  0.73789000  0.35606000  1.0
  H  H31  1  0.85949000  0.26209000  0.64394000  1.0
  H  H32  1  0.47398000  0.11875000  0.09149000  1.0
  H  H33  1  0.52595000  0.88126000  0.90851000  1.0
  H  H34  1  0.72001000  0.58989000  0.98321000  1.0
  H  H35  1  0.28001000  0.41006000  0.01677000  1.0
  H  H36  1  0.77999000  0.91009000  0.48321000  1.0
  H  H37  1  0.22001000  0.08990000  0.51680000  1.0
  H  H38  1  0.02600000  0.38125000  0.59149000  1.0
  H  H39  1  0.97402000  0.61876000  0.40849000  1.0
  H  H40  1  0.55731000  0.00104000  0.75256000  1.0
  H  H41  1  0.44269000  0.99900000  0.24746000  1.0
  H  H42  1  0.34567000  0.29299000  0.82715000  1.0
  H  H43  1  0.65437000  0.70707000  0.17280000  1.0
  H  H44  1  0.15442000  0.20706000  0.32724000  1.0
  H  H45  1  0.84554000  0.79293000  0.67276000  1.0
  H  H46  1  0.94270000  0.49905000  0.25252000  1.0
  H  H47  1  0.05727000  0.50093000  0.74751000  1.0
  H  H48  1  0.19545000  0.13935000  0.17731000  1.0
  H  H49  1  0.80455000  0.86062000  0.82270000  1.0
  H  H50  1  0.90310000  0.56904000  0.10541000  1.0
  H  H51  1  0.09694000  0.43091000  0.89460000  1.0
  H  H52  1  0.59684000  0.93108000  0.60544000  1.0
  H  H53  1  0.40315000  0.06895000  0.39458000  1.0
  H  H54  1  0.30451000  0.36076000  0.67724000  1.0
  H  H55  1  0.69547000  0.63934000  0.32273000  1.0
  H  H56  1  0.27093000  0.97053000  0.24057000  1.0
  H  H57  1  0.72910000  0.02946000  0.75944000  1.0
  H  H58  1  0.82774000  0.73667000  0.16797000  1.0
  H  H59  1  0.17234000  0.26331000  0.83200000  1.0
  H  H60  1  0.67214000  0.76343000  0.66797000  1.0
  H  H61  1  0.32781000  0.23660000  0.33204000  1.0
  H  H62  1  0.22897000  0.52953000  0.74057000  1.0
  H  H63  1  0.77096000  0.47054000  0.25944000  1.0
  H  H64  1  0.32240000  0.60619000  0.62968000  1.0
  H  H65  1  0.67758000  0.39379000  0.37035000  1.0
  H  H66  1  0.79579000  0.26996000  0.77380000  1.0
  H  H67  1  0.20415000  0.72999000  0.22615000  1.0
  H  H68  1  0.70425000  0.23003000  0.27379000  1.0
  H  H69  1  0.29586000  0.76999000  0.72617000  1.0
  H  H70  1  0.17758000  0.89379000  0.12965000  1.0
  H  H71  1  0.82240000  0.10618000  0.87035000  1.0
  C  C72  1  0.29965000  0.67587000  0.11045000  1.0
  C  C73  1  0.70032000  0.32411000  0.88951000  1.0
  C  C74  1  0.52430000  0.41419000  0.23329000  1.0
  C  C75  1  0.47573000  0.58578000  0.76670000  1.0
  C  C76  1  0.97570000  0.08578000  0.73329000  1.0
  C  C77  1  0.02430000  0.91420000  0.26672000  1.0
  C  C78  1  0.20032000  0.82412000  0.61050000  1.0
  C  C79  1  0.79969000  0.17587000  0.38952000  1.0
  C  C80  1  0.28284000  0.03052000  0.26065000  1.0
  C  C81  1  0.71716000  0.96947000  0.73937000  1.0
  C  C82  1  0.81402000  0.67754000  0.18782000  1.0
  C  C83  1  0.18603000  0.32246000  0.81217000  1.0
  C  C84  1  0.68590000  0.82254000  0.68780000  1.0
  C  C85  1  0.31406000  0.17748000  0.31220000  1.0
  C  C86  1  0.21710000  0.46951000  0.76064000  1.0
  C  C87  1  0.78286000  0.53055000  0.23936000  1.0
  C  C88  1  0.29668000  0.67353000  0.64870000  1.0
  C  C89  1  0.70334000  0.32646000  0.35131000  1.0
  C  C90  1  0.83161000  0.20313000  0.79038000  1.0
  C  C91  1  0.16834000  0.79683000  0.20959000  1.0
  C  C92  1  0.66840000  0.29684000  0.29037000  1.0
  C  C93  1  0.33166000  0.70316000  0.70960000  1.0
  C  C94  1  0.20330000  0.82645000  0.14868000  1.0
  C  C95  1  0.79666000  0.17352000  0.85130000  1.0
  C  C96  1  0.36990000  0.48857000  0.87551000  1.0
  C  C97  1  0.63009000  0.51147000  0.12450000  1.0
  C  C98  1  0.68836000  0.71886000  0.83837000  1.0
  C  C99  1  0.31166000  0.28118000  0.16167000  1.0
  C  C100  1  0.81166000  0.78119000  0.33834000  1.0
  C  C101  1  0.18836000  0.21882000  0.66165000  1.0
  C  C102  1  0.13011000  0.01144000  0.37552000  1.0
  C  C103  1  0.86990000  0.98854000  0.62449000  1.0
  C  C104  1  0.40411000  0.70119000  0.83438000  1.0
  C  C105  1  0.59596000  0.29881000  0.16560000  1.0
  C  C106  1  0.64499000  0.22079000  0.92899000  1.0
  C  C107  1  0.35498000  0.77919000  0.07100000  1.0
  C  C108  1  0.85501000  0.27919000  0.42899000  1.0
  C  C109  1  0.14501000  0.72078000  0.57101000  1.0
  C  C110  1  0.09593000  0.79880000  0.33439000  1.0
  C  C111  1  0.90406000  0.20119000  0.66561000  1.0
  C  C112  1  0.42209000  0.17767000  0.10858000  1.0
  C  C113  1  0.57786000  0.82234000  0.89143000  1.0
  C  C114  1  0.68577000  0.56164000  0.02531000  1.0
  C  C115  1  0.31425000  0.43834000  0.97467000  1.0
  C  C116  1  0.81424000  0.93835000  0.52531000  1.0
  C  C117  1  0.18577000  0.06164000  0.47470000  1.0
  C  C118  1  0.07790000  0.32232000  0.60858000  1.0
  C  C119  1  0.92210000  0.67769000  0.39141000  1.0
  C  C120  1  0.27997000  0.76667000  0.10949000  1.0
  C  C121  1  0.72000000  0.23330000  0.89047000  1.0
  C  C122  1  0.59752000  0.33705000  0.23705000  1.0
  C  C123  1  0.40254000  0.66294000  0.76293000  1.0
  C  C124  1  0.90249000  0.16293000  0.73705000  1.0
  C  C125  1  0.09748000  0.83705000  0.26294000  1.0
  C  C126  1  0.22001000  0.73330000  0.60953000  1.0
  C  C127  1  0.78000000  0.26668000  0.39048000  1.0
  C  C128  1  0.29696000  0.45858000  0.89844000  1.0
  C  C129  1  0.70305000  0.54144000  0.10156000  1.0
  C  C130  1  0.63800000  0.80749000  0.83007000  1.0
  C  C131  1  0.36198000  0.19253000  0.16995000  1.0
  C  C132  1  0.86198000  0.69255000  0.33004000  1.0
  C  C133  1  0.13803000  0.30745000  0.66994000  1.0
  C  C134  1  0.20306000  0.04141000  0.39847000  1.0
  C  C135  1  0.79696000  0.95857000  0.60155000  1.0
  C  C136  1  0.24029000  0.12323000  0.22666000  1.0
  C  C137  1  0.75971000  0.87676000  0.77335000  1.0
  C  C138  1  0.85631000  0.58474000  0.15355000  1.0
  C  C139  1  0.14371000  0.41524000  0.84645000  1.0
  C  C140  1  0.64363000  0.91534000  0.65358000  1.0
  C  C141  1  0.35635000  0.08469000  0.34645000  1.0
  C  C142  1  0.25969000  0.37682000  0.72662000  1.0
  C  C143  1  0.74029000  0.62325000  0.27336000  1.0
  C  C144  1  0.62145000  0.95354000  0.73573000  1.0
  C  C145  1  0.37855000  0.04648000  0.26429000  1.0
  C  C146  1  0.28115000  0.33766000  0.80757000  1.0
  C  C147  1  0.71887000  0.66239000  0.19240000  1.0
  C  C148  1  0.21890000  0.16236000  0.30762000  1.0
  C  C149  1  0.78107000  0.83763000  0.69240000  1.0
  C  C150  1  0.87856000  0.54654000  0.23571000  1.0
  C  C151  1  0.12143000  0.45348000  0.76432000  1.0
  C  C152  1  0.66359000  0.85974000  0.77055000  1.0
  C  C153  1  0.33638000  0.14027000  0.22947000  1.0
  C  C154  1  0.23957000  0.43148000  0.84289000  1.0
  C  C155  1  0.76042000  0.56856000  0.15711000  1.0
  C  C156  1  0.26044000  0.06852000  0.34291000  1.0
  C  C157  1  0.73956000  0.93148000  0.65710000  1.0
  C  C158  1  0.83637000  0.64030000  0.27053000  1.0
  C  C159  1  0.16363000  0.35971000  0.72945000  1.0
  N  N160  1  0.37982000  0.63781000  0.07710000  1.0
  N  N161  1  0.62015000  0.36217000  0.92287000  1.0
  N  N162  1  0.48393000  0.42052000  0.16445000  1.0
  N  N163  1  0.51610000  0.57945000  0.83555000  1.0
  N  N164  1  0.01607000  0.07946000  0.66445000  1.0
  N  N165  1  0.98393000  0.92054000  0.33556000  1.0
  N  N166  1  0.12015000  0.86217000  0.57713000  1.0
  N  N167  1  0.87986000  0.13781000  0.42288000  1.0
  N  N168  1  0.42858000  0.48352000  0.93208000  1.0
  N  N169  1  0.57142000  0.51649000  0.06793000  1.0
  N  N170  1  0.66215000  0.68335000  0.89888000  1.0
  N  N171  1  0.33787000  0.31670000  0.10118000  1.0
  N  N172  1  0.83788000  0.81669000  0.39883000  1.0
  N  N173  1  0.16214000  0.18333000  0.60116000  1.0
  N  N174  1  0.07144000  0.01648000  0.43210000  1.0
  N  N175  1  0.92857000  0.98351000  0.56791000  1.0
  N  N176  1  0.47031000  0.65073000  0.87686000  1.0
  N  N177  1  0.52974000  0.34926000  0.12313000  1.0
  N  N178  1  0.58467000  0.29834000  0.94748000  1.0
  N  N179  1  0.41530000  0.70165000  0.05251000  1.0
  N  N180  1  0.91534000  0.20164000  0.44749000  1.0
  N  N181  1  0.08468000  0.79833000  0.55252000  1.0
  N  N182  1  0.02973000  0.84926000  0.37687000  1.0
  N  N183  1  0.97028000  0.15073000  0.62313000  1.0
  N  N184  1  0.40619000  0.25269000  0.06725000  1.0
  N  N185  1  0.59380000  0.74733000  0.93278000  1.0
  N  N186  1  0.60381000  0.54901000  0.00505000  1.0
  N  N187  1  0.39619000  0.45096000  0.99494000  1.0
  N  N188  1  0.89619000  0.95097000  0.50505000  1.0
  N  N189  1  0.10382000  0.04901000  0.49496000  1.0
  N  N190  1  0.09382000  0.24731000  0.56724000  1.0
  N  N191  1  0.90621000  0.75271000  0.43276000  1.0
