# generated using pymatgen
data_CuH9C7NO7
_symmetry_space_group_name_H-M   'P 1'
_cell_length_a   7.25957000
_cell_length_b   8.65801000
_cell_length_c   9.50445902
_cell_angle_alpha   62.89956371
_cell_angle_beta   80.93889361
_cell_angle_gamma   69.72640000
_symmetry_Int_Tables_number   1
_chemical_formula_structural   CuH9C7NO7
_chemical_formula_sum   'Cu2 H18 C14 N2 O14'
_cell_volume   498.85447031
_cell_formula_units_Z   2
loop_
 _symmetry_equiv_pos_site_id
 _symmetry_equiv_pos_as_xyz
  1  'x, y, z'
loop_
 _atom_site_type_symbol
 _atom_site_label
 _atom_site_symmetry_multiplicity
 _atom_site_fract_x
 _atom_site_fract_y
 _atom_site_fract_z
 _atom_site_occupancy
  Cu  Cu0  1  0.78496000  0.11585000  0.74516000  1.0
  Cu  Cu1  1  0.28547000  0.86069000  0.25494000  1.0
  H  H2  1  0.80679000  0.86338000  0.39622000  1.0
  H  H3  1  0.30708000  0.25937000  0.60385000  1.0
  H  H4  1  0.83529000  0.71672000  0.69216000  1.0
  H  H5  1  0.33662000  0.40824000  0.30798000  1.0
  H  H6  1  0.81529000  0.39871000  0.84527000  1.0
  H  H7  1  0.31686000  0.24328000  0.15488000  1.0
  H  H8  1  0.42773000  0.26111000  0.87150000  1.0
  H  H9  1  0.92812000  0.13268000  0.12811000  1.0
  H  H10  1  0.62712000  0.00704000  0.01662000  1.0
  H  H11  1  0.12735000  0.02351000  0.98338000  1.0
  H  H12  1  0.70358000  0.15538000  0.02583000  1.0
  H  H13  1  0.20364000  0.18116000  0.97401000  1.0
  H  H14  1  0.64149000  0.84911000  0.84468000  1.0
  H  H15  1  0.14179000  0.69365000  0.15563000  1.0
  H  H16  1  0.83821000  0.79199000  0.93976000  1.0
  H  H17  1  0.33839000  0.73139000  0.06039000  1.0
  H  H18  1  0.24964000  0.44731000  0.79593000  1.0
  H  H19  1  0.75023000  0.24340000  0.20373000  1.0
  C  C20  1  0.76597000  0.71520000  0.21408000  1.0
  C  C21  1  0.26590000  0.92903000  0.78591000  1.0
  C  C22  1  0.76004000  0.32159000  0.42143000  1.0
  C  C23  1  0.25977000  0.74297000  0.57857000  1.0
  C  C24  1  0.77904000  0.44515000  0.48512000  1.0
  C  C25  1  0.27928000  0.93005000  0.51493000  1.0
  C  C26  1  0.78468000  0.62298000  0.39142000  1.0
  C  C27  1  0.28478000  0.01422000  0.60858000  1.0
  C  C28  1  0.80403000  0.72317000  0.46663000  1.0
  C  C29  1  0.30448000  0.18953000  0.53344000  1.0
  C  C30  1  0.81789000  0.64303000  0.63052000  1.0
  C  C31  1  0.31887000  0.27302000  0.36959000  1.0
  C  C32  1  0.80849000  0.46565000  0.71664000  1.0
  C  C33  1  0.30965000  0.18172000  0.28347000  1.0
  N  N34  1  0.78991000  0.37022000  0.64436000  1.0
  N  N35  1  0.29064000  0.01414000  0.35572000  1.0
  O  O36  1  0.59703000  0.82493000  0.15823000  1.0
  O  O37  1  0.09706000  0.98333000  0.84160000  1.0
  O  O38  1  0.91778000  0.69434000  0.12974000  1.0
  O  O39  1  0.41768000  0.82333000  0.87031000  1.0
  O  O40  1  0.77645000  0.15542000  0.52397000  1.0
  O  O41  1  0.27627000  0.67927000  0.47611000  1.0
  O  O42  1  0.73007000  0.38402000  0.27677000  1.0
  O  O43  1  0.22929000  0.66089000  0.72317000  1.0
  O  O44  1  0.28649000  0.31012000  0.84168000  1.0
  O  O45  1  0.78686000  0.15211000  0.15786000  1.0
  O  O46  1  0.65127000  0.12799000  0.94559000  1.0
  O  O47  1  0.15159000  0.07344000  0.05436000  1.0
  O  O48  1  0.77644000  0.86146000  0.83136000  1.0
  O  O49  1  0.27687000  0.69250000  0.16885000  1.0
