# generated using pymatgen
data_Zn6H53C60NO24
_symmetry_space_group_name_H-M   'P 1'
_cell_length_a   18.50600000
_cell_length_b   18.55190000
_cell_length_c   18.59770000
_cell_angle_alpha   109.12000000
_cell_angle_beta   109.45800000
_cell_angle_gamma   109.20000000
_symmetry_Int_Tables_number   1
_chemical_formula_structural   Zn6H53C60NO24
_chemical_formula_sum   'Zn6 H53 C60 N1 O24'
_cell_volume   4953.31566251
_cell_formula_units_Z   1
loop_
 _symmetry_equiv_pos_site_id
 _symmetry_equiv_pos_as_xyz
  1  'x, y, z'
loop_
 _atom_site_type_symbol
 _atom_site_label
 _atom_site_symmetry_multiplicity
 _atom_site_fract_x
 _atom_site_fract_y
 _atom_site_fract_z
 _atom_site_occupancy
  Zn  Zn0  1  0.00261000  0.07414000  0.57092000  1.0
  Zn  Zn1  1  0.00251000  0.94776000  0.44709000  1.0
  Zn  Zn2  1  0.44210000  0.93539000  0.00246000  1.0
  Zn  Zn3  1  0.56527000  0.05929000  0.99854000  1.0
  Zn  Zn4  1  0.56171000  0.49927000  0.55726000  1.0
  Zn  Zn5  1  0.43952000  0.50571000  0.43391000  1.0
  H  H6  1  0.69942000  0.92757000  0.32731000  1.0
  H  H7  1  0.76950000  0.02660000  0.15050000  1.0
  H  H8  1  0.72411000  0.10189000  0.25431000  1.0
  H  H9  1  0.87994000  0.78909000  0.54950000  1.0
  H  H10  1  0.75561000  0.66023000  0.52704000  1.0
  H  H11  1  0.58682000  0.76891000  0.46354000  1.0
  H  H12  1  0.17313000  0.86583000  0.58534000  1.0
  H  H13  1  0.29050000  0.07438000  0.89692000  1.0
  H  H14  1  0.18426000  0.08150000  0.77774000  1.0
  H  H15  1  0.10138000  0.13735000  0.36736000  1.0
  H  H16  1  0.20494000  0.24755000  0.34912000  1.0
  H  H17  1  0.36070000  0.41081000  0.62923000  1.0
  H  H18  1  0.24815000  0.30840000  0.64625000  1.0
  H  H19  1  0.55124000  0.29728000  0.14702000  1.0
  H  H20  1  0.53959000  0.40212000  0.26256000  1.0
  H  H21  1  0.52824000  0.24074000  0.38467000  1.0
  H  H22  1  0.52357000  0.12843000  0.26031000  1.0
  H  H23  1  0.65750000  0.92457000  0.83350000  1.0
  H  H24  1  0.43145000  0.61591000  0.70660000  1.0
  H  H25  1  0.42953000  0.73851000  0.81362000  1.0
  H  H26  1  0.57864000  0.87291000  0.19649000  1.0
  H  H27  1  0.80064000  0.07114000  0.39302000  1.0
  H  H28  1  0.66597000  0.04013000  0.29088000  1.0
  H  H29  1  0.87382000  0.99458000  0.22671000  1.0
  H  H30  1  0.79647000  0.88442000  0.18008000  1.0
  H  H31  1  0.70667000  0.91244000  0.08037000  1.0
  H  H32  1  0.83504000  0.23248000  0.38421000  1.0
  H  H33  1  0.90255000  0.22869000  0.47520000  1.0
  H  H34  1  0.95039000  0.28106000  0.42545000  1.0
  H  H35  1  0.94044000  0.13395000  0.38188000  1.0
  H  H36  1  0.87543000  0.13674000  0.28965000  1.0
  H  H37  1  0.68209000  0.96153000  0.60688000  1.0
  H  H38  1  0.79410000  0.02202000  0.63606000  1.0
  H  H39  1  0.71424000  0.04509000  0.57866000  1.0
  H  H40  1  0.75110000  0.95856000  0.47684000  1.0
  H  H41  1  0.63990000  0.89731000  0.44722000  1.0
  H  H42  1  0.33865000  0.87923000  0.61782000  1.0
  H  H43  1  0.41876000  0.92882000  0.72944000  1.0
  H  H44  1  0.38057000  0.81762000  0.65638000  1.0
  H  H45  1  0.30909000  0.82344000  0.74929000  1.0
  H  H46  1  0.22981000  0.77595000  0.63870000  1.0
  H  H47  1  0.61364000  0.78449000  0.31495000  1.0
  H  H48  1  0.56871000  0.72220000  0.20046000  1.0
  H  H49  1  0.63345000  0.69722000  0.27228000  1.0
  H  H50  1  0.72244000  0.78080000  0.22017000  1.0
  H  H51  1  0.76700000  0.83356000  0.33378000  1.0
  H  H52  1  0.55542000  0.74828000  0.09698000  1.0
  H  H53  1  0.65214000  0.78825000  0.10383000  1.0
  H  H54  1  0.73050000  0.94452000  0.75684000  1.0
  H  H55  1  0.79266000  0.92628000  0.83817000  1.0
  H  H56  1  0.80262000  0.90519000  0.74262000  1.0
  H  H57  1  0.71128000  0.76377000  0.72713000  1.0
  H  H58  1  0.64891000  0.78285000  0.64901000  1.0
  C  C59  1  0.88151000  0.92500000  0.53615000  1.0
  C  C60  1  0.66854000  0.96178000  0.17659000  1.0
  C  C61  1  0.71220000  0.04541000  0.26537000  1.0
  C  C62  1  0.73865000  0.96386000  0.14855000  1.0
  C  C63  1  0.81611000  0.78527000  0.53370000  1.0
  C  C64  1  0.74716000  0.71324000  0.51973000  1.0
  C  C65  1  0.66408000  0.70722000  0.49327000  1.0
  C  C66  1  0.65224000  0.77529000  0.48490000  1.0
  C  C67  1  0.72265000  0.85129000  0.50389000  1.0
  C  C68  1  0.80471000  0.85433000  0.52682000  1.0
  C  C69  1  0.19928000  0.91102000  0.65412000  1.0
  C  C70  1  0.87734000  0.97601000  0.36490000  1.0
  C  C71  1  0.25754000  0.90477000  0.71965000  1.0
  C  C72  1  0.29059000  0.96555000  0.80732000  1.0
  C  C73  1  0.26398000  0.02843000  0.82836000  1.0
  C  C74  1  0.20545000  0.03294000  0.76246000  1.0
  C  C75  1  0.17390000  0.97489000  0.67457000  1.0
  C  C76  1  0.15656000  0.19904000  0.42409000  1.0
  C  C77  1  0.21477000  0.25975000  0.41400000  1.0
  C  C78  1  0.28923000  0.33524000  0.48823000  1.0
  C  C79  1  0.30189000  0.35241000  0.57202000  1.0
  C  C80  1  0.24011000  0.29497000  0.58165000  1.0
  C  C81  1  0.10877000  0.14921000  0.51828000  1.0
  C  C82  1  0.16881000  0.21664000  0.50786000  1.0
  C  C83  1  0.53175000  0.13775000  0.12205000  1.0
  C  C84  1  0.59530000  0.96427000  0.11105000  1.0
  C  C85  1  0.53648000  0.90891000  0.88808000  1.0
  C  C86  1  0.36066000  0.96972000  0.88106000  1.0
  C  C87  1  0.54017000  0.62632000  0.64315000  1.0
  C  C88  1  0.59153000  0.62834000  0.47799000  1.0
  C  C89  1  0.52543000  0.38938000  0.39818000  1.0
  C  C90  1  0.35917000  0.39535000  0.48029000  1.0
  C  C91  1  0.54437000  0.28466000  0.19830000  1.0
  C  C92  1  0.11460000  0.98323000  0.60466000  1.0
  C  C93  1  0.53903000  0.34337000  0.26311000  1.0
  C  C94  1  0.53319000  0.32733000  0.33014000  1.0
  C  C95  1  0.53149000  0.25172000  0.33146000  1.0
  C  C96  1  0.53014000  0.19000000  0.26312000  1.0
  C  C97  1  0.53720000  0.20651000  0.19666000  1.0
  C  C98  1  0.60918000  0.85633000  0.80554000  1.0
  C  C99  1  0.61332000  0.78892000  0.74792000  1.0
  C  C100  1  0.54750000  0.70216000  0.71271000  1.0
  C  C101  1  0.48170000  0.68371000  0.73577000  1.0
  C  C102  1  0.47978000  0.75136000  0.79429000  1.0
  C  C103  1  0.71125000  0.89779000  0.27349000  1.0
  C  C104  1  0.54291000  0.83816000  0.82832000  1.0
  C  C105  1  0.63578000  0.88006000  0.18739000  1.0
  C  C106  1  0.79978000  0.05858000  0.33063000  1.0
  C  C107  1  0.80697000  0.95135000  0.21061000  1.0
  C  C108  1  0.80096000  0.97093000  0.29497000  1.0
  C  C109  1  0.88086000  0.13793000  0.35088000  1.0
  C  C110  1  0.89281000  0.22482000  0.41207000  1.0
  C  C111  1  0.70828000  0.92513000  0.49789000  1.0
  C  C112  1  0.72570000  0.99250000  0.58518000  1.0
  C  C113  1  0.28684000  0.83773000  0.69557000  1.0
  C  C114  1  0.36058000  0.86758000  0.67351000  1.0
  C  C115  1  0.71097000  0.81475000  0.27253000  1.0
  C  C116  1  0.62702000  0.75127000  0.26419000  1.0
  C  C117  1  0.68247000  0.80604000  0.71995000  1.0
  C  C118  1  0.75585000  0.90078000  0.76721000  1.0
  N  N119  1  0.60363000  0.80207000  0.10546000  1.0
  O  O120  1  0.90977000  0.00602000  0.58814000  1.0
  O  O121  1  0.57985000  0.16250000  0.08896000  1.0
  O  O122  1  0.51458000  0.91414000  0.08676000  1.0
  O  O123  1  0.61919000  0.01976000  0.08625000  1.0
  O  O124  1  0.47823000  0.88541000  0.90997000  1.0
  O  O125  1  0.58881000  0.98967000  0.91420000  1.0
  O  O126  1  0.33706000  0.91832000  0.91126000  1.0
  O  O127  1  0.43897000  0.02587000  0.90901000  1.0
  O  O128  1  0.59221000  0.59592000  0.66556000  1.0
  O  O129  1  0.48062000  0.59595000  0.56584000  1.0
  O  O130  1  0.61396000  0.58807000  0.51704000  1.0
  O  O131  1  0.91456000  0.89818000  0.49052000  1.0
  O  O132  1  0.51100000  0.60504000  0.42735000  1.0
  O  O133  1  0.57079000  0.40854000  0.47807000  1.0
  O  O134  1  0.47443000  0.41840000  0.37238000  1.0
  O  O135  1  0.43786000  0.41904000  0.53232000  1.0
  O  O136  1  0.33576000  0.41877000  0.42222000  1.0
  O  O137  1  0.90543000  0.02863000  0.44427000  1.0
  O  O138  1  0.90924000  0.92615000  0.34082000  1.0
  O  O139  1  0.08617000  0.17567000  0.57619000  1.0
  O  O140  1  0.08460000  0.06999000  0.46913000  1.0
  O  O141  1  0.09327000  0.04191000  0.62855000  1.0
  O  O142  1  0.08849000  0.93126000  0.52411000  1.0
  O  O143  1  0.47879000  0.05894000  0.09613000  1.0
