# generated using pymatgen
data_CuH11C19NO4
_symmetry_space_group_name_H-M   'P 1'
_cell_length_a   18.22570000
_cell_length_b   23.72020000
_cell_length_c   23.72020000
_cell_angle_alpha   61.18690000
_cell_angle_beta   67.41410000
_cell_angle_gamma   67.41410000
_symmetry_Int_Tables_number   1
_chemical_formula_structural   CuH11C19NO4
_chemical_formula_sum   'Cu8 H88 C152 N8 O32'
_cell_volume   8041.16491181
_cell_formula_units_Z   8
loop_
 _symmetry_equiv_pos_site_id
 _symmetry_equiv_pos_as_xyz
  1  'x, y, z'
loop_
 _atom_site_type_symbol
 _atom_site_label
 _atom_site_symmetry_multiplicity
 _atom_site_fract_x
 _atom_site_fract_y
 _atom_site_fract_z
 _atom_site_occupancy
  Cu  Cu0  1  0.97146000  0.35559000  0.71421000  1.0
  Cu  Cu1  1  0.54127000  0.14441000  0.78580000  1.0
  Cu  Cu2  1  0.45873000  0.21420000  0.85558000  1.0
  Cu  Cu3  1  0.02854000  0.28579000  0.64441000  1.0
  Cu  Cu4  1  0.02854000  0.64441000  0.28579000  1.0
  Cu  Cu5  1  0.45873000  0.85558000  0.21420000  1.0
  Cu  Cu6  1  0.54127000  0.78580000  0.14442000  1.0
  Cu  Cu7  1  0.97146000  0.71421000  0.35559000  1.0
  H  H8  1  0.55931000  0.98995000  0.98995000  1.0
  H  H9  1  0.03914000  0.51009000  0.51009000  1.0
  H  H10  1  0.96087000  0.48990000  0.48990000  1.0
  H  H11  1  0.44069000  0.01005000  0.01005000  1.0
  H  H12  1  0.78835000  0.02337000  0.02337000  1.0
  H  H13  1  0.33504000  0.47663000  0.47663000  1.0
  H  H14  1  0.66496000  0.52337000  0.52337000  1.0
  H  H15  1  0.21165000  0.97663000  0.97663000  1.0
  H  H16  1  0.83575000  0.17506000  0.74475000  1.0
  H  H17  1  0.25561000  0.32494000  0.75518000  1.0
  H  H18  1  0.74439000  0.24482000  0.67506000  1.0
  H  H19  1  0.16426000  0.25524000  0.82493000  1.0
  H  H20  1  0.16426000  0.82493000  0.25524000  1.0
  H  H21  1  0.74439000  0.67506000  0.24482000  1.0
  H  H22  1  0.25561000  0.75518000  0.32494000  1.0
  H  H23  1  0.83575000  0.74476000  0.17506000  1.0
  H  H24  1  0.74928000  0.09734000  0.83009000  1.0
  H  H25  1  0.17673000  0.40264000  0.66989000  1.0
  H  H26  1  0.82327000  0.33011000  0.59736000  1.0
  H  H27  1  0.25073000  0.16991000  0.90266000  1.0
  H  H28  1  0.25072000  0.90266000  0.16991000  1.0
  H  H29  1  0.82327000  0.59736000  0.33011000  1.0
  H  H30  1  0.17673000  0.66989000  0.40264000  1.0
  H  H31  1  0.74927000  0.83009000  0.09734000  1.0
  H  H32  1  0.75273000  0.14931000  0.97979000  1.0
  H  H33  1  0.38181000  0.35067000  0.52018000  1.0
  H  H34  1  0.61819000  0.47981000  0.64933000  1.0
  H  H35  1  0.24726000  0.02021000  0.85069000  1.0
  H  H36  1  0.24726000  0.85069000  0.02021000  1.0
  H  H37  1  0.61819000  0.64933000  0.47981000  1.0
  H  H38  1  0.38181000  0.52019000  0.35067000  1.0
  H  H39  1  0.75273000  0.97979000  0.14931000  1.0
  H  H40  1  0.83588000  0.22951000  0.89295000  1.0
  H  H41  1  0.45832000  0.27047000  0.60703000  1.0
  H  H42  1  0.54168000  0.39296000  0.72953000  1.0
  H  H43  1  0.16412000  0.10705000  0.77049000  1.0
  H  H44  1  0.16412000  0.77049000  0.10705000  1.0
  H  H45  1  0.54168000  0.72953000  0.39296000  1.0
  H  H46  1  0.45832000  0.60703000  0.27047000  1.0
  H  H47  1  0.83588000  0.89295000  0.22951000  1.0
  H  H48  1  0.87226000  0.34080000  0.85486000  1.0
  H  H49  1  0.56792000  0.15917000  0.64515000  1.0
  H  H50  1  0.43208000  0.35486000  0.84083000  1.0
  H  H51  1  0.12773000  0.14514000  0.65920000  1.0
  H  H52  1  0.12774000  0.65920000  0.14514000  1.0
  H  H53  1  0.43208000  0.84083000  0.35485000  1.0
  H  H54  1  0.56792000  0.64515000  0.15917000  1.0
  H  H55  1  0.87227000  0.85486000  0.34080000  1.0
  H  H56  1  0.80963000  0.40577000  0.92655000  1.0
  H  H57  1  0.64195000  0.09418000  0.57345000  1.0
  H  H58  1  0.35805000  0.42655000  0.90582000  1.0
  H  H59  1  0.19037000  0.07345000  0.59423000  1.0
  H  H60  1  0.19037000  0.59423000  0.07345000  1.0
  H  H61  1  0.35805000  0.90582000  0.42655000  1.0
  H  H62  1  0.64195000  0.57345000  0.09418000  1.0
  H  H63  1  0.80963000  0.92655000  0.40577000  1.0
  H  H64  1  0.91281000  0.56484000  0.76100000  1.0
  H  H65  1  0.73867000  0.93515000  0.73905000  1.0
  H  H66  1  0.26134000  0.26095000  0.06484000  1.0
  H  H67  1  0.08718000  0.23900000  0.43516000  1.0
  H  H68  1  0.08719000  0.43516000  0.23901000  1.0
  H  H69  1  0.26134000  0.06485000  0.26095000  1.0
  H  H70  1  0.73866000  0.73905000  0.93516000  1.0
  H  H71  1  0.91281000  0.76100000  0.56484000  1.0
  H  H72  1  0.83358000  0.44942000  0.98325000  1.0
  H  H73  1  0.76621000  0.05057000  0.51683000  1.0
  H  H74  1  0.23379000  0.48317000  0.94943000  1.0
  H  H75  1  0.16642000  0.01676000  0.55058000  1.0
  H  H76  1  0.16642000  0.55058000  0.01676000  1.0
  H  H77  1  0.23379000  0.94943000  0.48317000  1.0
  H  H78  1  0.76621000  0.51683000  0.05057000  1.0
  H  H79  1  0.83358000  0.98324000  0.44942000  1.0
  H  H80  1  0.79470000  0.62544000  0.80716000  1.0
  H  H81  1  0.72730000  0.87454000  0.69285000  1.0
  H  H82  1  0.27270000  0.30715000  0.12546000  1.0
  H  H83  1  0.20529000  0.19284000  0.37456000  1.0
  H  H84  1  0.20529000  0.37456000  0.19284000  1.0
  H  H85  1  0.27270000  0.12546000  0.30715000  1.0
  H  H86  1  0.72730000  0.69285000  0.87454000  1.0
  H  H87  1  0.79470000  0.80716000  0.62544000  1.0
  H  H88  1  0.96936000  0.49313000  0.69640000  1.0
  H  H89  1  0.65893000  0.00690000  0.80361000  1.0
  H  H90  1  0.34107000  0.19639000  0.99310000  1.0
  H  H91  1  0.03064000  0.30360000  0.50687000  1.0
  H  H92  1  0.03064000  0.50687000  0.30360000  1.0
  H  H93  1  0.34107000  0.99310000  0.19639000  1.0
  H  H94  1  0.65893000  0.80361000  0.00690000  1.0
  H  H95  1  0.96936000  0.69640000  0.49313000  1.0
  C  C96  1  0.59406000  0.10334000  0.90005000  1.0
  C  C97  1  0.09739000  0.39669000  0.59997000  1.0
  C  C98  1  0.90260000  0.40003000  0.60331000  1.0
  C  C99  1  0.40594000  0.09995000  0.89666000  1.0
  C  C100  1  0.40594000  0.89666000  0.09995000  1.0
  C  C101  1  0.90261000  0.60331000  0.40003000  1.0
  C  C102  1  0.09739000  0.59997000  0.39669000  1.0
  C  C103  1  0.59406000  0.90005000  0.10334000  1.0
  C  C104  1  0.63829000  0.05436000  0.95352000  1.0
  C  C105  1  0.14611000  0.44568000  0.54650000  1.0
  C  C106  1  0.85388000  0.45350000  0.55433000  1.0
  C  C107  1  0.36171000  0.04648000  0.94564000  1.0
  C  C108  1  0.36171000  0.94564000  0.04648000  1.0
  C  C109  1  0.85388000  0.55432000  0.45350000  1.0
  C  C110  1  0.14611000  0.54650000  0.44568000  1.0
  C  C111  1  0.63829000  0.95352000  0.05436000  1.0
  C  C112  1  0.60816000  0.99840000  0.99840000  1.0
  C  C113  1  0.10488000  0.50164000  0.50164000  1.0
  C  C114  1  0.89512000  0.49836000  0.49836000  1.0
  C  C115  1  0.39184000  0.00160000  0.00160000  1.0
  C  C116  1  0.70367000  0.06446000  0.96246000  1.0
  C  C117  1  0.23056000  0.43554000  0.53755000  1.0
  C  C118  1  0.76944000  0.46245000  0.56446000  1.0
  C  C119  1  0.29633000  0.03754000  0.93554000  1.0
  C  C120  1  0.29633000  0.93554000  0.03754000  1.0
  C  C121  1  0.76944000  0.56446000  0.46245000  1.0
  C  C122  1  0.23056000  0.53755000  0.43554000  1.0
  C  C123  1  0.70367000  0.96246000  0.06446000  1.0
  C  C124  1  0.73458000  0.01819000  0.01819000  1.0
  C  C125  1  0.27092000  0.48182000  0.48182000  1.0
  C  C126  1  0.72908000  0.51818000  0.51818000  1.0
  C  C127  1  0.26542000  0.98181000  0.98181000  1.0
  C  C128  1  0.89627000  0.25145000  0.76244000  1.0
  C  C129  1  0.41013000  0.24854000  0.73757000  1.0
  C  C130  1  0.58987000  0.26242000  0.75146000  1.0
  C  C131  1  0.10373000  0.23757000  0.74855000  1.0
  C  C132  1  0.10373000  0.74855000  0.23756000  1.0
  C  C133  1  0.58987000  0.75146000  0.26242000  1.0
  C  C134  1  0.41013000  0.73758000  0.24854000  1.0
  C  C135  1  0.89627000  0.76244000  0.25145000  1.0
  C  C136  1  0.81609000  0.16986000  0.79618000  1.0
  C  C137  1  0.28214000  0.33011000  0.70377000  1.0
  C  C138  1  0.71786000  0.29622000  0.66989000  1.0
  C  C139  1  0.18391000  0.20382000  0.83014000  1.0
  C  C140  1  0.18391000  0.83014000  0.20382000  1.0
  C  C141  1  0.71786000  0.66990000  0.29622000  1.0
  C  C142  1  0.28214000  0.70378000  0.33011000  1.0
  C  C143  1  0.81609000  0.79618000  0.16986000  1.0
  C  C144  1  0.74601000  0.11702000  0.91127000  1.0
  C  C145  1  0.27429000  0.38298000  0.58871000  1.0
  C  C146  1  0.72571000  0.41129000  0.61702000  1.0
  C  C147  1  0.25399000  0.08873000  0.88298000  1.0
  C  C148  1  0.25399000  0.88298000  0.08873000  1.0
  C  C149  1  0.72571000  0.61702000  0.41129000  1.0
  C  C150  1  0.27429000  0.58871000  0.38298000  1.0
  C  C151  1  0.74601000  0.91127000  0.11702000  1.0
  C  C152  1  0.84133000  0.20697000  0.81351000  1.0
  C  C153  1  0.36181000  0.29298000  0.68648000  1.0
  C  C154  1  0.63819000  0.31352000  0.70702000  1.0
  C  C155  1  0.15867000  0.18649000  0.79303000  1.0
  C  C156  1  0.15867000  0.79303000  0.18649000  1.0
  C  C157  1  0.63820000  0.70702000  0.31352000  1.0
  C  C158  1  0.36180000  0.68648000  0.29298000  1.0
  C  C159  1  0.84134000  0.81351000  0.20697000  1.0
  C  C160  1  0.76801000  0.12621000  0.84425000  1.0
  C  C161  1  0.23848000  0.37376000  0.65572000  1.0
  C  C162  1  0.76152000  0.34428000  0.62624000  1.0
  C  C163  1  0.23199000  0.15575000  0.87379000  1.0
  C  C164  1  0.23199000  0.87379000  0.15575000  1.0
  C  C165  1  0.76152000  0.62624000  0.34428000  1.0
  C  C166  1  0.23848000  0.65572000  0.37376000  1.0
  C  C167  1  0.76801000  0.84425000  0.12621000  1.0
  C  C168  1  0.77058000  0.15504000  0.92819000  1.0
  C  C169  1  0.35380000  0.34495000  0.57178000  1.0
  C  C170  1  0.64620000  0.42822000  0.65505000  1.0
  C  C171  1  0.22942000  0.07181000  0.84496000  1.0
  C  C172  1  0.22942000  0.84496000  0.07181000  1.0
  C  C173  1  0.64620000  0.65505000  0.42822000  1.0
  C  C174  1  0.35380000  0.57178000  0.34495000  1.0
  C  C175  1  0.77058000  0.92819000  0.15504000  1.0
  C  C176  1  0.81685000  0.20004000  0.87979000  1.0
  C  C177  1  0.39666000  0.29993000  0.62018000  1.0
  C  C178  1  0.60334000  0.37982000  0.70007000  1.0
  C  C179  1  0.18316000  0.12021000  0.79996000  1.0
  C  C180  1  0.18315000  0.79996000  0.12021000  1.0
  C  C181  1  0.60334000  0.70007000  0.37982000  1.0
  C  C182  1  0.39666000  0.62018000  0.29993000  1.0
  C  C183  1  0.81685000  0.87979000  0.20004000  1.0
  C  C184  1  0.85573000  0.49157000  0.85003000  1.0
  C  C185  1  0.69734000  0.00841000  0.65001000  1.0
  C  C186  1  0.30266000  0.34999000  0.99159000  1.0
  C  C187  1  0.14427000  0.14998000  0.50843000  1.0
  C  C188  1  0.14427000  0.50843000  0.14998000  1.0
  C  C189  1  0.30266000  0.99159000  0.34999000  1.0
  C  C190  1  0.69734000  0.65001000  0.00841000  1.0
  C  C191  1  0.85573000  0.85002000  0.49157000  1.0
  C  C192  1  0.81869000  0.53220000  0.89008000  1.0
  C  C193  1  0.74097000  0.96777000  0.60996000  1.0
  C  C194  1  0.25903000  0.39004000  0.03223000  1.0
  C  C195  1  0.18131000  0.10992000  0.46780000  1.0
  C  C196  1  0.18131000  0.46780000  0.10992000  1.0
  C  C197  1  0.25903000  0.03223000  0.39005000  1.0
  C  C198  1  0.74097000  0.60996000  0.96777000  1.0
  C  C199  1  0.81869000  0.89008000  0.53220000  1.0
  C  C200  1  0.87985000  0.39067000  0.83653000  1.0
  C  C201  1  0.60705000  0.10931000  0.66347000  1.0
  C  C202  1  0.39295000  0.33653000  0.89069000  1.0
  C  C203  1  0.12015000  0.16348000  0.60933000  1.0
  C  C204  1  0.12015000  0.60933000  0.16348000  1.0
  C  C205  1  0.39295000  0.89069000  0.33653000  1.0
  C  C206  1  0.60705000  0.66347000  0.10931000  1.0
  C  C207  1  0.87985000  0.83652000  0.39067000  1.0
  C  C208  1  0.84570000  0.42705000  0.87610000  1.0
  C  C209  1  0.64886000  0.07291000  0.62391000  1.0
  C  C210  1  0.35114000  0.37609000  0.92709000  1.0
  C  C211  1  0.15430000  0.12390000  0.57294000  1.0
  C  C212  1  0.15430000  0.57294000  0.12390000  1.0
  C  C213  1  0.35114000  0.92709000  0.37609000  1.0
  C  C214  1  0.64886000  0.62391000  0.07291000  1.0
  C  C215  1  0.84570000  0.87610000  0.42706000  1.0
  C  C216  1  0.90127000  0.51569000  0.78397000  1.0
  C  C217  1  0.70095000  0.98430000  0.71606000  1.0
  C  C218  1  0.29905000  0.28394000  0.01570000  1.0
  C  C219  1  0.09873000  0.21603000  0.48431000  1.0
  C  C220  1  0.09873000  0.48431000  0.21603000  1.0
  C  C221  1  0.29905000  0.01570000  0.28394000  1.0
  C  C222  1  0.70095000  0.71606000  0.98430000  1.0
  C  C223  1  0.90127000  0.78397000  0.51569000  1.0
  C  C224  1  0.80941000  0.50277000  0.95919000  1.0
  C  C225  1  0.77135000  0.99722000  0.54085000  1.0
  C  C226  1  0.22865000  0.45915000  0.00278000  1.0
  C  C227  1  0.19059000  0.04082000  0.49723000  1.0
  C  C228  1  0.19059000  0.49723000  0.04081000  1.0
  C  C229  1  0.22865000  0.00278000  0.45915000  1.0
  C  C230  1  0.77135000  0.54085000  0.99722000  1.0
  C  C231  1  0.80941000  0.95919000  0.50277000  1.0
  C  C232  1  0.78983000  0.60145000  0.86048000  1.0
  C  C233  1  0.75177000  0.89853000  0.63954000  1.0
  C  C234  1  0.24823000  0.36046000  0.10147000  1.0
  C  C235  1  0.21017000  0.13952000  0.39855000  1.0
  C  C236  1  0.21017000  0.39855000  0.13952000  1.0
  C  C237  1  0.24823000  0.10147000  0.36046000  1.0
  C  C238  1  0.75177000  0.63954000  0.89853000  1.0
  C  C239  1  0.78983000  0.86048000  0.60145000  1.0
  C  C240  1  0.93341000  0.47605000  0.74774000  1.0
  C  C241  1  0.65725000  0.02395000  0.75227000  1.0
  C  C242  1  0.34275000  0.24773000  0.97604000  1.0
  C  C243  1  0.06659000  0.25226000  0.52395000  1.0
  C  C244  1  0.06659000  0.52395000  0.25226000  1.0
  C  C245  1  0.34275000  0.97605000  0.24773000  1.0
  C  C246  1  0.65725000  0.75227000  0.02395000  1.0
  C  C247  1  0.93341000  0.74774000  0.47605000  1.0
  N  N248  1  0.92294000  0.41453000  0.77328000  1.0
  N  N249  1  0.61078000  0.08547000  0.72671000  1.0
  N  N250  1  0.38922000  0.27329000  0.91453000  1.0
  N  N251  1  0.07706000  0.22672000  0.58547000  1.0
  N  N252  1  0.07706000  0.58547000  0.22672000  1.0
  N  N253  1  0.38922000  0.91453000  0.27329000  1.0
  N  N254  1  0.61078000  0.72671000  0.08547000  1.0
  N  N255  1  0.92294000  0.77328000  0.41453000  1.0
  O  O256  1  0.59818000  0.08288000  0.85762000  1.0
  O  O257  1  0.03859000  0.41716000  0.64239000  1.0
  O  O258  1  0.96141000  0.35761000  0.58284000  1.0
  O  O259  1  0.40183000  0.14238000  0.91712000  1.0
  O  O260  1  0.40182000  0.91712000  0.14238000  1.0
  O  O261  1  0.96141000  0.58284000  0.35761000  1.0
  O  O262  1  0.03859000  0.64238000  0.41716000  1.0
  O  O263  1  0.59817000  0.85762000  0.08288000  1.0
  O  O264  1  0.55280000  0.15881000  0.90361000  1.0
  O  O265  1  0.11520000  0.34120000  0.59645000  1.0
  O  O266  1  0.88479000  0.40355000  0.65880000  1.0
  O  O267  1  0.44720000  0.09639000  0.84119000  1.0
  O  O268  1  0.44720000  0.84119000  0.09639000  1.0
  O  O269  1  0.88479000  0.65880000  0.40355000  1.0
  O  O270  1  0.11521000  0.59645000  0.34120000  1.0
  O  O271  1  0.55280000  0.90361000  0.15881000  1.0
  O  O272  1  0.90749000  0.29046000  0.77982000  1.0
  O  O273  1  0.47781000  0.20960000  0.72019000  1.0
  O  O274  1  0.52220000  0.27981000  0.79040000  1.0
  O  O275  1  0.09251000  0.22018000  0.70954000  1.0
  O  O276  1  0.09251000  0.70954000  0.22018000  1.0
  O  O277  1  0.52220000  0.79040000  0.27981000  1.0
  O  O278  1  0.47780000  0.72019000  0.20960000  1.0
  O  O279  1  0.90749000  0.77982000  0.29046000  1.0
  O  O280  1  0.92915000  0.24691000  0.70631000  1.0
  O  O281  1  0.38231000  0.25305000  0.79371000  1.0
  O  O282  1  0.61769000  0.20629000  0.74695000  1.0
  O  O283  1  0.07086000  0.29369000  0.75309000  1.0
  O  O284  1  0.07086000  0.75309000  0.29369000  1.0
  O  O285  1  0.61769000  0.74695000  0.20629000  1.0
  O  O286  1  0.38231000  0.79371000  0.25305000  1.0
  O  O287  1  0.92915000  0.70631000  0.24691000  1.0
