# generated using pymatgen
data_Cd2CuH6C10N4(ClO)4
_symmetry_space_group_name_H-M   'P 1'
_cell_length_a   8.83687000
_cell_length_b   8.83686000
_cell_length_c   13.53230000
_cell_angle_alpha   80.31940000
_cell_angle_beta   80.31940000
_cell_angle_gamma   61.83580000
_symmetry_Int_Tables_number   1
_chemical_formula_structural   Cd2CuH6C10N4(ClO)4
_chemical_formula_sum   'Cd4 Cu2 H12 C20 N8 Cl8 O8'
_cell_volume   913.54907176
_cell_formula_units_Z   2
loop_
 _symmetry_equiv_pos_site_id
 _symmetry_equiv_pos_as_xyz
  1  'x, y, z'
loop_
 _atom_site_type_symbol
 _atom_site_label
 _atom_site_symmetry_multiplicity
 _atom_site_fract_x
 _atom_site_fract_y
 _atom_site_fract_z
 _atom_site_occupancy
  Cd  Cd0  1  0.03433000  0.86170000  0.63387000  1.0
  Cd  Cd1  1  0.86170000  0.03432000  0.13387000  1.0
  Cd  Cd2  1  0.96567000  0.13830000  0.36613000  1.0
  Cd  Cd3  1  0.13830000  0.96567000  0.86613000  1.0
  Cu  Cu4  1  0.50000000  0.00000000  0.50000000  1.0
  Cu  Cu5  1  0.00000000  0.50000000  0.00000000  1.0
  H  H6  1  0.14818000  0.47481000  0.71110000  1.0
  H  H7  1  0.47481000  0.14818000  0.21110000  1.0
  H  H8  1  0.85182000  0.52519000  0.28890000  1.0
  H  H9  1  0.52519000  0.85183000  0.78890000  1.0
  H  H10  1  0.21154000  0.66609000  0.41131000  1.0
  H  H11  1  0.66610000  0.21154000  0.91131000  1.0
  H  H12  1  0.78846000  0.33391000  0.58870000  1.0
  H  H13  1  0.33391000  0.78846000  0.08869000  1.0
  H  H14  1  0.39227000  0.35757000  0.36420000  1.0
  H  H15  1  0.35757000  0.39227000  0.86420000  1.0
  H  H16  1  0.60773000  0.64243000  0.63580000  1.0
  H  H17  1  0.64243000  0.60773000  0.13580000  1.0
  C  C18  1  0.29683000  0.28295000  0.60711000  1.0
  C  C19  1  0.28295000  0.29683000  0.10711000  1.0
  C  C20  1  0.70317000  0.71705000  0.39289000  1.0
  C  C21  1  0.71705000  0.70317000  0.89289000  1.0
  C  C22  1  0.20031000  0.45062000  0.63311000  1.0
  C  C23  1  0.45062000  0.20031000  0.13311000  1.0
  C  C24  1  0.79969000  0.54939000  0.36690000  1.0
  C  C25  1  0.54938000  0.79970000  0.86689000  1.0
  C  C26  1  0.23686000  0.55497000  0.46764000  1.0
  C  C27  1  0.55497000  0.23687000  0.96764000  1.0
  C  C28  1  0.76313000  0.44503000  0.53236000  1.0
  C  C29  1  0.44502000  0.76314000  0.03236000  1.0
  C  C30  1  0.33486000  0.38606000  0.44089000  1.0
  C  C31  1  0.38606000  0.33486000  0.94089000  1.0
  C  C32  1  0.66514000  0.61394000  0.55911000  1.0
  C  C33  1  0.61394000  0.66514000  0.05911000  1.0
  C  C34  1  0.33534000  0.12632000  0.68183000  1.0
  C  C35  1  0.12632000  0.33533000  0.18183000  1.0
  C  C36  1  0.66466000  0.87368000  0.31817000  1.0
  C  C37  1  0.87368000  0.66467000  0.81817000  1.0
  N  N38  1  0.36442000  0.25224000  0.51143000  1.0
  N  N39  1  0.25224000  0.36442000  0.01143000  1.0
  N  N40  1  0.63557000  0.74776000  0.48857000  1.0
  N  N41  1  0.74775000  0.63558000  0.98857000  1.0
  N  N42  1  0.17158000  0.58591000  0.56330000  1.0
  N  N43  1  0.58591000  0.17159000  0.06330000  1.0
  N  N44  1  0.82841000  0.41409000  0.43670000  1.0
  N  N45  1  0.41409000  0.82842000  0.93670000  1.0
  Cl  Cl46  1  0.20375000  0.98221000  0.48956000  1.0
  Cl  Cl47  1  0.98221000  0.20375000  0.98957000  1.0
  Cl  Cl48  1  0.79625000  0.01779000  0.51044000  1.0
  Cl  Cl49  1  0.01778000  0.79625000  0.01043000  1.0
  Cl  Cl50  1  0.28810000  0.71190000  0.75000000  1.0
  Cl  Cl51  1  0.71190000  0.28810000  0.25000000  1.0
  Cl  Cl52  1  0.88787000  0.11213000  0.75000000  1.0
  Cl  Cl53  1  0.11213000  0.88787000  0.25000000  1.0
  O  O54  1  0.44321000  0.98223000  0.64773000  1.0
  O  O55  1  0.98223000  0.44321000  0.14773000  1.0
  O  O56  1  0.55679000  0.01777000  0.35227000  1.0
  O  O57  1  0.01777000  0.55679000  0.85227000  1.0
  O  O58  1  0.26338000  0.14494000  0.77031000  1.0
  O  O59  1  0.14494000  0.26338000  0.27031000  1.0
  O  O60  1  0.73662000  0.85506000  0.22969000  1.0
  O  O61  1  0.85506000  0.73662000  0.72969000  1.0
