# generated using pymatgen
data_Sm2Cu3H30C24(NO4)6
_symmetry_space_group_name_H-M   'P 1'
_cell_length_a   13.39290000
_cell_length_b   13.39290000
_cell_length_c   14.59970000
_cell_angle_alpha   90.00000000
_cell_angle_beta   90.00000000
_cell_angle_gamma   120.00000000
_symmetry_Int_Tables_number   1
_chemical_formula_structural   Sm2Cu3H30C24(NO4)6
_chemical_formula_sum   'Sm4 Cu6 H60 C48 N12 O48'
_cell_volume   2267.89955492
_cell_formula_units_Z   2
loop_
 _symmetry_equiv_pos_site_id
 _symmetry_equiv_pos_as_xyz
  1  'x, y, z'
loop_
 _atom_site_type_symbol
 _atom_site_label
 _atom_site_symmetry_multiplicity
 _atom_site_fract_x
 _atom_site_fract_y
 _atom_site_fract_z
 _atom_site_occupancy
  Sm  Sm0  1  0.33333333  0.66666667  0.66830000  1.0
  Sm  Sm1  1  0.66666667  0.33333333  0.83170000  1.0
  Sm  Sm2  1  0.66666667  0.33333333  0.33170000  1.0
  Sm  Sm3  1  0.33333333  0.66666667  0.16830000  1.0
  Cu  Cu4  1  0.50000000  0.00000000  0.50000000  1.0
  Cu  Cu5  1  0.50000000  0.50000000  0.50000000  1.0
  Cu  Cu6  1  0.00000000  0.50000000  0.50000000  1.0
  Cu  Cu7  1  0.00000000  0.50000000  0.00000000  1.0
  Cu  Cu8  1  0.50000000  0.50000000  1.00000000  1.0
  Cu  Cu9  1  0.50000000  0.00000000  0.00000000  1.0
  H  H10  1  0.36093000  0.03838000  0.41763000  1.0
  H  H11  1  0.67745000  0.63907000  0.41763000  1.0
  H  H12  1  0.96162000  0.32255000  0.41763000  1.0
  H  H13  1  0.03838000  0.36093000  0.08237000  1.0
  H  H14  1  0.63907000  0.67745000  0.08237000  1.0
  H  H15  1  0.32255000  0.96162000  0.08237000  1.0
  H  H16  1  0.63907000  0.96162000  0.58237000  1.0
  H  H17  1  0.32255000  0.36093000  0.58237000  1.0
  H  H18  1  0.03838000  0.67745000  0.58237000  1.0
  H  H19  1  0.96162000  0.63907000  0.91763000  1.0
  H  H20  1  0.36093000  0.32255000  0.91763000  1.0
  H  H21  1  0.67745000  0.03838000  0.91763000  1.0
  H  H22  1  0.16885000  0.86313000  0.47354000  1.0
  H  H23  1  0.69428000  0.83114000  0.47354000  1.0
  H  H24  1  0.13686000  0.30571000  0.47353000  1.0
  H  H25  1  0.86313000  0.16885000  0.02646000  1.0
  H  H26  1  0.83115000  0.69429000  0.02646000  1.0
  H  H27  1  0.30572000  0.13687000  0.02646000  1.0
  H  H28  1  0.83115000  0.13687000  0.52646000  1.0
  H  H29  1  0.30572000  0.16886000  0.52647000  1.0
  H  H30  1  0.86314000  0.69429000  0.52647000  1.0
  H  H31  1  0.13687000  0.83115000  0.97354000  1.0
  H  H32  1  0.16885000  0.30571000  0.97354000  1.0
  H  H33  1  0.69428000  0.86313000  0.97354000  1.0
  H  H34  1  0.25962000  0.97284000  0.55248000  1.0
  H  H35  1  0.71322000  0.74037000  0.55248000  1.0
  H  H36  1  0.02716000  0.28678000  0.55248000  1.0
  H  H37  1  0.97284000  0.25962000  0.94752000  1.0
  H  H38  1  0.74038000  0.71322000  0.94752000  1.0
  H  H39  1  0.28678000  0.02716000  0.94752000  1.0
  H  H40  1  0.74038000  0.02716000  0.44752000  1.0
  H  H41  1  0.28677000  0.25961000  0.44752000  1.0
  H  H42  1  0.97284000  0.71322000  0.44752000  1.0
  H  H43  1  0.02715000  0.74037000  0.05248000  1.0
  H  H44  1  0.25962000  0.28677000  0.05248000  1.0
  H  H45  1  0.71322000  0.97284000  0.05248000  1.0
  H  H46  1  0.31285000  0.91839000  0.29669000  1.0
  H  H47  1  0.60554000  0.68715000  0.29669000  1.0
  H  H48  1  0.08161000  0.39446000  0.29669000  1.0
  H  H49  1  0.91839000  0.31286000  0.20331000  1.0
  H  H50  1  0.68715000  0.60554000  0.20330000  1.0
  H  H51  1  0.39446000  0.08161000  0.20331000  1.0
  H  H52  1  0.68715000  0.08161000  0.70330000  1.0
  H  H53  1  0.39446000  0.31285000  0.70331000  1.0
  H  H54  1  0.91839000  0.60554000  0.70331000  1.0
  H  H55  1  0.08161000  0.68715000  0.79669000  1.0
  H  H56  1  0.31285000  0.39446000  0.79669000  1.0
  H  H57  1  0.60554000  0.91839000  0.79669000  1.0
  H  H58  1  0.25996000  0.79796000  0.36884000  1.0
  H  H59  1  0.53800000  0.74003000  0.36884000  1.0
  H  H60  1  0.20203000  0.46200000  0.36884000  1.0
  H  H61  1  0.79797000  0.25997000  0.13116000  1.0
  H  H62  1  0.74004000  0.53801000  0.13116000  1.0
  H  H63  1  0.46200000  0.20203000  0.13116000  1.0
  H  H64  1  0.74004000  0.20203000  0.63116000  1.0
  H  H65  1  0.46200000  0.25997000  0.63116000  1.0
  H  H66  1  0.79797000  0.53800000  0.63116000  1.0
  H  H67  1  0.20203000  0.74003000  0.86884000  1.0
  H  H68  1  0.25996000  0.46199000  0.86884000  1.0
  H  H69  1  0.53800000  0.79797000  0.86884000  1.0
  C  C70  1  0.26417000  0.81735000  0.56689000  1.0
  C  C71  1  0.55319000  0.73584000  0.56689000  1.0
  C  C72  1  0.18266000  0.44681000  0.56689000  1.0
  C  C73  1  0.81735000  0.26416000  0.93311000  1.0
  C  C74  1  0.73585000  0.55319000  0.93311000  1.0
  C  C75  1  0.44681000  0.18266000  0.93311000  1.0
  C  C76  1  0.73584000  0.18265000  0.43311000  1.0
  C  C77  1  0.44681000  0.26416000  0.43311000  1.0
  C  C78  1  0.81734000  0.55319000  0.43311000  1.0
  C  C79  1  0.18265000  0.73584000  0.06689000  1.0
  C  C80  1  0.26415000  0.44680000  0.06689000  1.0
  C  C81  1  0.55320000  0.81735000  0.06689000  1.0
  C  C82  1  0.25441000  0.90545000  0.50649000  1.0
  C  C83  1  0.65104000  0.74559000  0.50649000  1.0
  C  C84  1  0.09455000  0.34896000  0.50649000  1.0
  C  C85  1  0.90545000  0.25441000  0.99351000  1.0
  C  C86  1  0.74559000  0.65104000  0.99351000  1.0
  C  C87  1  0.34896000  0.09455000  0.99351000  1.0
  C  C88  1  0.74559000  0.09455000  0.49351000  1.0
  C  C89  1  0.34896000  0.25441000  0.49351000  1.0
  C  C90  1  0.90545000  0.65104000  0.49351000  1.0
  C  C91  1  0.09455000  0.74559000  0.00649000  1.0
  C  C92  1  0.25441000  0.34896000  0.00649000  1.0
  C  C93  1  0.65104000  0.90545000  0.00649000  1.0
  C  C94  1  0.33322000  0.88556000  0.35880000  1.0
  C  C95  1  0.55234000  0.66678000  0.35880000  1.0
  C  C96  1  0.11444000  0.44766000  0.35880000  1.0
  C  C97  1  0.88556000  0.33322000  0.14120000  1.0
  C  C98  1  0.66678000  0.55234000  0.14119000  1.0
  C  C99  1  0.44766000  0.11444000  0.14120000  1.0
  C  C100  1  0.66678000  0.11443000  0.64119000  1.0
  C  C101  1  0.44766000  0.33322000  0.64120000  1.0
  C  C102  1  0.88556000  0.55234000  0.64120000  1.0
  C  C103  1  0.11444000  0.66678000  0.85880000  1.0
  C  C104  1  0.33321000  0.44765000  0.85880000  1.0
  C  C105  1  0.55234000  0.88556000  0.85880000  1.0
  C  C106  1  0.43919000  0.87461000  0.34008000  1.0
  C  C107  1  0.43542000  0.56081000  0.34008000  1.0
  C  C108  1  0.12539000  0.56458000  0.34008000  1.0
  C  C109  1  0.87461000  0.43919000  0.15993000  1.0
  C  C110  1  0.56081000  0.43542000  0.15993000  1.0
  C  C111  1  0.56458000  0.12539000  0.15993000  1.0
  C  C112  1  0.56081000  0.12539000  0.65992000  1.0
  C  C113  1  0.56458000  0.43919000  0.65992000  1.0
  C  C114  1  0.87461000  0.43541000  0.65993000  1.0
  C  C115  1  0.12539000  0.56081000  0.84007000  1.0
  C  C116  1  0.43919000  0.56458000  0.84007000  1.0
  C  C117  1  0.43542000  0.87461000  0.84007000  1.0
  N  N118  1  0.34795000  0.95881000  0.43900000  1.0
  N  N119  1  0.61086000  0.65206000  0.43900000  1.0
  N  N120  1  0.04120000  0.38915000  0.43900000  1.0
  N  N121  1  0.95880000  0.34794000  0.06100000  1.0
  N  N122  1  0.65205000  0.61085000  0.06100000  1.0
  N  N123  1  0.38914000  0.04119000  0.06101000  1.0
  N  N124  1  0.65205000  0.04119000  0.56100000  1.0
  N  N125  1  0.38914000  0.34794000  0.56100000  1.0
  N  N126  1  0.95881000  0.61086000  0.56100000  1.0
  N  N127  1  0.04120000  0.65206000  0.93900000  1.0
  N  N128  1  0.34795000  0.38915000  0.93900000  1.0
  N  N129  1  0.61086000  0.95881000  0.93900000  1.0
  O  O130  1  0.35608000  0.81105000  0.55924000  1.0
  O  O131  1  0.45497000  0.64392000  0.55925000  1.0
  O  O132  1  0.18896000  0.54504000  0.55924000  1.0
  O  O133  1  0.81105000  0.35608000  0.94076000  1.0
  O  O134  1  0.64392000  0.45497000  0.94076000  1.0
  O  O135  1  0.54504000  0.18895000  0.94076000  1.0
  O  O136  1  0.64392000  0.18895000  0.44075000  1.0
  O  O137  1  0.54503000  0.35608000  0.44076000  1.0
  O  O138  1  0.81105000  0.45497000  0.44076000  1.0
  O  O139  1  0.18895000  0.64392000  0.05924000  1.0
  O  O140  1  0.35609000  0.54504000  0.05924000  1.0
  O  O141  1  0.45496000  0.81105000  0.05924000  1.0
  O  O142  1  0.18416000  0.75655000  0.62240000  1.0
  O  O143  1  0.57239000  0.81584000  0.62239000  1.0
  O  O144  1  0.24345000  0.42760000  0.62239000  1.0
  O  O145  1  0.75655000  0.18416000  0.87760000  1.0
  O  O146  1  0.81584000  0.57239000  0.87760000  1.0
  O  O147  1  0.42761000  0.24345000  0.87761000  1.0
  O  O148  1  0.81585000  0.24346000  0.37760000  1.0
  O  O149  1  0.42761000  0.18416000  0.37761000  1.0
  O  O150  1  0.75655000  0.57239000  0.37761000  1.0
  O  O151  1  0.24345000  0.81584000  0.12240000  1.0
  O  O152  1  0.18416000  0.42761000  0.12240000  1.0
  O  O153  1  0.57239000  0.75655000  0.12239000  1.0
  O  O154  1  0.52470000  0.92223000  0.39499000  1.0
  O  O155  1  0.39753000  0.47529000  0.39500000  1.0
  O  O156  1  0.07776000  0.60247000  0.39499000  1.0
  O  O157  1  0.92224000  0.52471000  0.10501000  1.0
  O  O158  1  0.47529000  0.39753000  0.10501000  1.0
  O  O159  1  0.60247000  0.07776000  0.10501000  1.0
  O  O160  1  0.47530000  0.07777000  0.60501000  1.0
  O  O161  1  0.60247000  0.52471000  0.60501000  1.0
  O  O162  1  0.92224000  0.39753000  0.60501000  1.0
  O  O163  1  0.07776000  0.47529000  0.89499000  1.0
  O  O164  1  0.52471000  0.60247000  0.89499000  1.0
  O  O165  1  0.39753000  0.92224000  0.89500000  1.0
  O  O166  1  0.43831000  0.81724000  0.27117000  1.0
  O  O167  1  0.37894000  0.56168000  0.27116000  1.0
  O  O168  1  0.18275000  0.62106000  0.27117000  1.0
  O  O169  1  0.81725000  0.43831000  0.22883000  1.0
  O  O170  1  0.56169000  0.37895000  0.22883000  1.0
  O  O171  1  0.62107000  0.18276000  0.22883000  1.0
  O  O172  1  0.56169000  0.18275000  0.72884000  1.0
  O  O173  1  0.62106000  0.43831000  0.72883000  1.0
  O  O174  1  0.81726000  0.37894000  0.72884000  1.0
  O  O175  1  0.18275000  0.56169000  0.77116000  1.0
  O  O176  1  0.43831000  0.62106000  0.77117000  1.0
  O  O177  1  0.37893000  0.81725000  0.77117000  1.0
