# generated using pymatgen
data_AgH14C16NO2F
_symmetry_space_group_name_H-M   'P 1'
_cell_length_a   5.40285000
_cell_length_b   10.08030000
_cell_length_c   13.12100000
_cell_angle_alpha   87.77570000
_cell_angle_beta   84.57030000
_cell_angle_gamma   78.46370000
_symmetry_Int_Tables_number   1
_chemical_formula_structural   AgH14C16NO2F
_chemical_formula_sum   'Ag2 H28 C32 N2 O4 F2'
_cell_volume   696.87775856
_cell_formula_units_Z   2
loop_
 _symmetry_equiv_pos_site_id
 _symmetry_equiv_pos_as_xyz
  1  'x, y, z'
loop_
 _atom_site_type_symbol
 _atom_site_label
 _atom_site_symmetry_multiplicity
 _atom_site_fract_x
 _atom_site_fract_y
 _atom_site_fract_z
 _atom_site_occupancy
  Ag  Ag0  1  0.73831000  0.91336000  0.51228000  1.0
  Ag  Ag1  1  0.26170000  0.08667000  0.48772000  1.0
  H  H2  1  0.99434000  0.61899000  0.75218000  1.0
  H  H3  1  0.00568000  0.38101000  0.24781000  1.0
  H  H4  1  0.41676000  0.84475000  0.01567000  1.0
  H  H5  1  0.58322000  0.15524000  0.98431000  1.0
  H  H6  1  0.03766000  0.96170000  0.92645000  1.0
  H  H7  1  0.96232000  0.03831000  0.07353000  1.0
  H  H8  1  0.04760000  0.95242000  0.73625000  1.0
  H  H9  1  0.95241000  0.04760000  0.26372000  1.0
  H  H10  1  0.43022000  0.83138000  0.63633000  1.0
  H  H11  1  0.56979000  0.16863000  0.36366000  1.0
  H  H12  1  0.25754000  0.56593000  0.61975000  1.0
  H  H13  1  0.74245000  0.43406000  0.38023000  1.0
  H  H14  1  0.27564000  0.70047000  0.52895000  1.0
  H  H15  1  0.72438000  0.29952000  0.47104000  1.0
  H  H16  1  0.98091000  0.62048000  0.42334000  1.0
  H  H17  1  0.01914000  0.37951000  0.57663000  1.0
  H  H18  1  0.25914000  0.49735000  0.43902000  1.0
  H  H19  1  0.74089000  0.50265000  0.56096000  1.0
  H  H20  1  0.03907000  0.15744000  0.74539000  1.0
  H  H21  1  0.96092000  0.84255000  0.25463000  1.0
  H  H22  1  0.07807000  0.29224000  0.89558000  1.0
  H  H23  1  0.92191000  0.70774000  0.10446000  1.0
  H  H24  1  0.72738000  0.47961000  0.95429000  1.0
  H  H25  1  0.27260000  0.52037000  0.04574000  1.0
  H  H26  1  0.33184000  0.52982000  0.86403000  1.0
  H  H27  1  0.66815000  0.47017000  0.13601000  1.0
  H  H28  1  0.28478000  0.38309000  0.72065000  1.0
  H  H29  1  0.71522000  0.61692000  0.27938000  1.0
  C  C30  1  0.86976000  0.69671000  0.70918000  1.0
  C  C31  1  0.13025000  0.30329000  0.29080000  1.0
  C  C32  1  0.64236000  0.77089000  0.76693000  1.0
  C  C33  1  0.35767000  0.22911000  0.23306000  1.0
  C  C34  1  0.62751000  0.77650000  0.87396000  1.0
  C  C35  1  0.37247000  0.22351000  0.12603000  1.0
  C  C36  1  0.41669000  0.84468000  0.93266000  1.0
  C  C37  1  0.58329000  0.15532000  0.06731000  1.0
  C  C38  1  0.20742000  0.90911000  0.88237000  1.0
  C  C39  1  0.79260000  0.09090000  0.11760000  1.0
  C  C40  1  0.21170000  0.90431000  0.77589000  1.0
  C  C41  1  0.78830000  0.09570000  0.22410000  1.0
  C  C42  1  0.42701000  0.83636000  0.71944000  1.0
  C  C43  1  0.57301000  0.16365000  0.28053000  1.0
  C  C44  1  0.15144000  0.63361000  0.56364000  1.0
  C  C45  1  0.84855000  0.36639000  0.43634000  1.0
  C  C46  1  0.08122000  0.55062000  0.47934000  1.0
  C  C47  1  0.91881000  0.44937000  0.52063000  1.0
  C  C48  1  0.61761000  0.17038000  0.64141000  1.0
  C  C49  1  0.38237000  0.82964000  0.35860000  1.0
  C  C50  1  0.65580000  0.25949000  0.72552000  1.0
  C  C51  1  0.34418000  0.74051000  0.27451000  1.0
  C  C52  1  0.88146000  0.23564000  0.77385000  1.0
  C  C53  1  0.11852000  0.76435000  0.22617000  1.0
  C  C54  1  0.90464000  0.31326000  0.85682000  1.0
  C  C55  1  0.09535000  0.68673000  0.14320000  1.0
  C  C56  1  0.70727000  0.41875000  0.88991000  1.0
  C  C57  1  0.29273000  0.58123000  0.11013000  1.0
  C  C58  1  0.48542000  0.44638000  0.83953000  1.0
  C  C59  1  0.51455000  0.55361000  0.16052000  1.0
  C  C60  1  0.45919000  0.36614000  0.75863000  1.0
  C  C61  1  0.54079000  0.63385000  0.24140000  1.0
  N  N62  1  0.92632000  0.71866000  0.61367000  1.0
  N  N63  1  0.07369000  0.28133000  0.38631000  1.0
  O  O64  1  0.80640000  0.07949000  0.60849000  1.0
  O  O65  1  0.19359000  0.92054000  0.39152000  1.0
  O  O66  1  0.39666000  0.19157000  0.61056000  1.0
  O  O67  1  0.60334000  0.80846000  0.38945000  1.0
  F  F68  1  0.83178000  0.71222000  0.92357000  1.0
  F  F69  1  0.16820000  0.28778000  0.07642000  1.0
