# generated using pymatgen
data_DyPH15C7NO7
_symmetry_space_group_name_H-M   'P 1'
_cell_length_a   5.34800000
_cell_length_b   12.68810000
_cell_length_c   19.84460000
_cell_angle_alpha   89.99990000
_cell_angle_beta   90.79230000
_cell_angle_gamma   89.99940000
_symmetry_Int_Tables_number   1
_chemical_formula_structural   DyPH15C7NO7
_chemical_formula_sum   'Dy4 P4 H60 C28 N4 O28'
_cell_volume   1346.44561579
_cell_formula_units_Z   4
loop_
 _symmetry_equiv_pos_site_id
 _symmetry_equiv_pos_as_xyz
  1  'x, y, z'
loop_
 _atom_site_type_symbol
 _atom_site_label
 _atom_site_symmetry_multiplicity
 _atom_site_fract_x
 _atom_site_fract_y
 _atom_site_fract_z
 _atom_site_occupancy
  Dy  Dy0  1  0.87457000  0.35961000  0.47517000  1.0
  Dy  Dy1  1  0.12545000  0.85960000  0.02483000  1.0
  Dy  Dy2  1  0.12544000  0.64040000  0.52482000  1.0
  Dy  Dy3  1  0.87457000  0.14039000  0.97518000  1.0
  P  P4  1  0.61765000  0.47732000  0.59114000  1.0
  P  P5  1  0.38237000  0.97731000  0.90886000  1.0
  P  P6  1  0.38236000  0.52268000  0.40886000  1.0
  P  P7  1  0.61764000  0.02268000  0.09114000  1.0
  H  H8  1  0.91723000  0.42314000  0.67836000  1.0
  H  H9  1  0.77894000  0.54533000  0.69368000  1.0
  H  H10  1  0.73825000  0.27087000  0.73859000  1.0
  H  H11  1  0.53388000  0.27815000  0.66707000  1.0
  H  H12  1  0.16304000  0.27821000  0.74151000  1.0
  H  H13  1  0.35907000  0.16940000  0.75990000  1.0
  H  H14  1  0.55679000  0.26402000  0.85432000  1.0
  H  H15  1  0.41456000  0.44069000  0.88949000  1.0
  H  H16  1  0.20037000  0.44564000  0.81993000  1.0
  H  H17  1  0.58884000  0.54055000  0.79263000  1.0
  H  H18  1  0.77228000  0.42770000  0.81370000  1.0
  H  H19  1  0.28204000  0.32279000  0.56960000  1.0
  H  H20  1  0.04588000  0.32687000  0.61704000  1.0
  H  H21  1  0.69414000  0.15559000  0.51991000  1.0
  H  H22  1  0.48576000  0.20299000  0.46887000  1.0
  H  H23  1  0.08276000  0.92314000  0.82164000  1.0
  H  H24  1  0.22106000  0.04534000  0.80633000  1.0
  H  H25  1  0.26174000  0.77087000  0.76140000  1.0
  H  H26  1  0.46611000  0.77815000  0.83292000  1.0
  H  H27  1  0.83695000  0.77821000  0.75849000  1.0
  H  H28  1  0.64091000  0.66940000  0.74009000  1.0
  H  H29  1  0.44322000  0.76401000  0.64567000  1.0
  H  H30  1  0.58537000  0.94069000  0.61051000  1.0
  H  H31  1  0.79958000  0.94565000  0.68006000  1.0
  H  H32  1  0.41109000  0.04054000  0.70736000  1.0
  H  H33  1  0.22767000  0.92769000  0.68630000  1.0
  H  H34  1  0.71798000  0.82278000  0.93040000  1.0
  H  H35  1  0.95413000  0.82686000  0.88297000  1.0
  H  H36  1  0.30588000  0.65560000  0.98009000  1.0
  H  H37  1  0.51426000  0.70299000  0.03113000  1.0
  H  H38  1  0.08278000  0.57686000  0.32164000  1.0
  H  H39  1  0.22107000  0.45467000  0.30633000  1.0
  H  H40  1  0.26179000  0.72913000  0.26141000  1.0
  H  H41  1  0.46615000  0.72184000  0.33293000  1.0
  H  H42  1  0.83700000  0.72178000  0.25849000  1.0
  H  H43  1  0.64099000  0.83059000  0.24011000  1.0
  H  H44  1  0.44326000  0.73598000  0.14569000  1.0
  H  H45  1  0.58543000  0.55931000  0.11051000  1.0
  H  H46  1  0.79963000  0.55435000  0.18007000  1.0
  H  H47  1  0.41114000  0.45946000  0.20736000  1.0
  H  H48  1  0.22772000  0.57232000  0.18630000  1.0
  H  H49  1  0.71796000  0.67721000  0.43040000  1.0
  H  H50  1  0.95411000  0.67313000  0.38296000  1.0
  H  H51  1  0.30586000  0.84441000  0.48008000  1.0
  H  H52  1  0.51425000  0.79702000  0.53112000  1.0
  H  H53  1  0.91722000  0.07686000  0.17837000  1.0
  H  H54  1  0.77893000  0.95467000  0.19367000  1.0
  H  H55  1  0.73824000  0.22913000  0.23860000  1.0
  H  H56  1  0.53388000  0.22185000  0.16708000  1.0
  H  H57  1  0.16303000  0.22180000  0.24151000  1.0
  H  H58  1  0.35908000  0.33060000  0.25991000  1.0
  H  H59  1  0.55677000  0.23597000  0.35432000  1.0
  H  H60  1  0.41453000  0.05930000  0.38949000  1.0
  H  H61  1  0.20034000  0.05436000  0.31993000  1.0
  H  H62  1  0.58879000  0.95945000  0.29263000  1.0
  H  H63  1  0.77225000  0.07229000  0.31370000  1.0
  H  H64  1  0.28204000  0.17721000  0.06960000  1.0
  H  H65  1  0.04588000  0.17313000  0.11704000  1.0
  H  H66  1  0.69415000  0.34440000  0.01992000  1.0
  H  H67  1  0.48577000  0.29701000  0.96887000  1.0
  C  C68  1  0.73326000  0.46457000  0.67778000  1.0
  C  C69  1  0.55525000  0.30232000  0.71993000  1.0
  C  C70  1  0.34724000  0.25557000  0.76223000  1.0
  C  C71  1  0.37419000  0.29235000  0.83514000  1.0
  C  C72  1  0.38109000  0.41347000  0.83759000  1.0
  C  C73  1  0.58856000  0.45401000  0.79262000  1.0
  C  C74  1  0.18075000  0.24836000  0.88241000  1.0
  C  C75  1  0.26674000  0.96457000  0.82223000  1.0
  C  C76  1  0.44474000  0.80232000  0.78007000  1.0
  C  C77  1  0.65275000  0.75557000  0.73776000  1.0
  C  C78  1  0.62580000  0.79235000  0.66486000  1.0
  C  C79  1  0.61888000  0.91348000  0.66241000  1.0
  C  C80  1  0.41139000  0.95401000  0.70738000  1.0
  C  C81  1  0.81927000  0.74838000  0.61758000  1.0
  C  C82  1  0.26675000  0.53543000  0.32223000  1.0
  C  C83  1  0.44477000  0.69768000  0.28007000  1.0
  C  C84  1  0.65280000  0.74442000  0.23777000  1.0
  C  C85  1  0.62585000  0.70765000  0.16487000  1.0
  C  C86  1  0.61892000  0.58652000  0.16241000  1.0
  C  C87  1  0.41143000  0.54599000  0.20739000  1.0
  C  C88  1  0.81928000  0.75163000  0.11758000  1.0
  C  C89  1  0.73324000  0.03543000  0.17778000  1.0
  C  C90  1  0.55525000  0.19768000  0.21993000  1.0
  C  C91  1  0.34724000  0.24443000  0.26223000  1.0
  C  C92  1  0.37418000  0.20765000  0.33514000  1.0
  C  C93  1  0.38106000  0.08652000  0.33758000  1.0
  C  C94  1  0.58854000  0.04598000  0.29261000  1.0
  C  C95  1  0.18073000  0.25164000  0.38242000  1.0
  N  N96  1  0.55322000  0.41771000  0.72307000  1.0
  N  N97  1  0.44676000  0.91771000  0.77693000  1.0
  N  N98  1  0.44679000  0.58228000  0.27693000  1.0
  N  N99  1  0.55320000  0.08229000  0.22307000  1.0
  O  O100  1  0.55670000  0.36688000  0.56145000  1.0
  O  O101  1  0.84301000  0.51448000  0.54861000  1.0
  O  O102  1  0.40158000  0.55520000  0.59024000  1.0
  O  O103  1  0.98827000  0.19906000  0.86174000  1.0
  O  O104  1  0.21784000  0.26006000  0.94662000  1.0
  O  O105  1  0.09963000  0.30020000  0.57359000  1.0
  O  O106  1  0.67354000  0.19058000  0.47662000  1.0
  O  O107  1  0.44329000  0.86687000  0.93855000  1.0
  O  O108  1  0.15701000  0.01447000  0.95138000  1.0
  O  O109  1  0.59843000  0.05519000  0.90976000  1.0
  O  O110  1  0.01176000  0.69908000  0.63826000  1.0
  O  O111  1  0.78219000  0.76008000  0.55338000  1.0
  O  O112  1  0.90039000  0.80019000  0.92642000  1.0
  O  O113  1  0.32648000  0.69058000  0.02338000  1.0
  O  O114  1  0.44330000  0.63313000  0.43855000  1.0
  O  O115  1  0.15700000  0.48552000  0.45139000  1.0
  O  O116  1  0.59843000  0.44481000  0.40976000  1.0
  O  O117  1  0.01180000  0.80093000  0.13826000  1.0
  O  O118  1  0.78220000  0.73994000  0.05339000  1.0
  O  O119  1  0.90038000  0.69980000  0.42641000  1.0
  O  O120  1  0.32647000  0.80942000  0.52337000  1.0
  O  O121  1  0.55670000  0.13313000  0.06145000  1.0
  O  O122  1  0.84301000  0.98553000  0.04862000  1.0
  O  O123  1  0.40158000  0.94481000  0.09024000  1.0
  O  O124  1  0.98824000  0.30093000  0.36174000  1.0
  O  O125  1  0.21781000  0.23994000  0.44662000  1.0
  O  O126  1  0.09962000  0.19980000  0.07358000  1.0
  O  O127  1  0.67355000  0.30942000  0.97662000  1.0
