# generated using pymatgen
data_CuPH19C23IN
_symmetry_space_group_name_H-M   'P 1'
_cell_length_a   9.10461000
_cell_length_b   9.28194000
_cell_length_c   12.99370000
_cell_angle_alpha   107.87800000
_cell_angle_beta   106.96800000
_cell_angle_gamma   92.65220000
_symmetry_Int_Tables_number   1
_chemical_formula_structural   CuPH19C23IN
_chemical_formula_sum   'Cu2 P2 H38 C46 I2 N2'
_cell_volume   988.36398621
_cell_formula_units_Z   2
loop_
 _symmetry_equiv_pos_site_id
 _symmetry_equiv_pos_as_xyz
  1  'x, y, z'
loop_
 _atom_site_type_symbol
 _atom_site_label
 _atom_site_symmetry_multiplicity
 _atom_site_fract_x
 _atom_site_fract_y
 _atom_site_fract_z
 _atom_site_occupancy
  Cu  Cu0  1  0.05910000  0.99474000  0.90555000  1.0
  Cu  Cu1  1  0.94090000  0.00526000  0.09446000  1.0
  P  P2  1  0.01091000  0.79746000  0.74625000  1.0
  P  P3  1  0.98909000  0.20254000  0.25375000  1.0
  H  H4  1  0.05438000  0.29300000  0.86127000  1.0
  H  H5  1  0.94562000  0.70700000  0.13874000  1.0
  H  H6  1  0.24036000  0.51782000  0.89714000  1.0
  H  H7  1  0.75963000  0.48217000  0.10285000  1.0
  H  H8  1  0.60151000  0.29942000  0.06533000  1.0
  H  H9  1  0.39849000  0.70057000  0.93465000  1.0
  H  H10  1  0.39993000  0.08500000  0.02106000  1.0
  H  H11  1  0.60007000  0.91500000  0.97894000  1.0
  H  H12  1  0.30048000  0.96721000  0.78137000  1.0
  H  H13  1  0.69952000  0.03279000  0.21863000  1.0
  H  H14  1  0.54787000  0.89747000  0.75058000  1.0
  H  H15  1  0.45213000  0.10253000  0.24942000  1.0
  H  H16  1  0.58215000  0.62304000  0.68458000  1.0
  H  H17  1  0.41785000  0.37696000  0.31541000  1.0
  H  H18  1  0.36846000  0.41983000  0.65177000  1.0
  H  H19  1  0.63154000  0.58017000  0.34823000  1.0
  H  H20  1  0.11865000  0.48950000  0.67651000  1.0
  H  H21  1  0.88134000  0.51050000  0.32349000  1.0
  H  H22  1  0.94335000  0.66657000  0.90677000  1.0
  H  H23  1  0.05665000  0.33344000  0.09323000  1.0
  H  H24  1  0.79180000  0.42159000  0.88308000  1.0
  H  H25  1  0.20820000  0.57841000  0.11692000  1.0
  H  H26  1  0.65239000  0.23822000  0.68988000  1.0
  H  H27  1  0.34761000  0.76178000  0.31012000  1.0
  H  H28  1  0.66248000  0.30058000  0.51729000  1.0
  H  H29  1  0.33753000  0.69943000  0.48271000  1.0
  H  H30  1  0.81598000  0.54138000  0.54047000  1.0
  H  H31  1  0.18402000  0.45863000  0.45953000  1.0
  H  H32  1  0.74103000  0.93660000  0.67263000  1.0
  H  H33  1  0.25897000  0.06340000  0.32738000  1.0
  H  H34  1  0.60279000  0.97566000  0.48943000  1.0
  H  H35  1  0.39721000  0.02434000  0.51057000  1.0
  H  H36  1  0.70556000  0.89692000  0.32641000  1.0
  H  H37  1  0.29444000  0.10309000  0.67360000  1.0
  H  H38  1  0.95273000  0.78635000  0.34868000  1.0
  H  H39  1  0.04727000  0.21364000  0.65132000  1.0
  H  H40  1  0.08677000  0.74153000  0.52836000  1.0
  H  H41  1  0.91323000  0.25847000  0.47164000  1.0
  C  C42  1  0.17780000  0.29848000  0.90487000  1.0
  C  C43  1  0.82219000  0.70152000  0.09512000  1.0
  C  C44  1  0.28371000  0.42515000  0.92642000  1.0
  C  C45  1  0.71629000  0.57485000  0.07358000  1.0
  C  C46  1  0.44191000  0.43289000  0.98626000  1.0
  C  C47  1  0.55809000  0.56711000  0.01373000  1.0
  C  C48  1  0.48257000  0.30568000  0.01933000  1.0
  C  C49  1  0.51743000  0.69432000  0.98066000  1.0
  C  C50  1  0.36984000  0.18299000  0.99403000  1.0
  C  C51  1  0.63016000  0.81701000  0.00597000  1.0
  C  C52  1  0.19169000  0.73326000  0.72879000  1.0
  C  C53  1  0.80831000  0.26674000  0.27121000  1.0
  C  C54  1  0.31459000  0.84714000  0.75024000  1.0
  C  C55  1  0.68541000  0.15286000  0.24976000  1.0
  C  C56  1  0.45316000  0.80761000  0.73255000  1.0
  C  C57  1  0.54684000  0.19239000  0.26744000  1.0
  C  C58  1  0.47311000  0.65375000  0.69702000  1.0
  C  C59  1  0.52689000  0.34625000  0.30298000  1.0
  C  C60  1  0.35348000  0.54006000  0.67886000  1.0
  C  C61  1  0.64652000  0.45994000  0.32114000  1.0
  C  C62  1  0.21273000  0.57928000  0.69363000  1.0
  C  C63  1  0.78727000  0.42072000  0.30637000  1.0
  C  C64  1  0.89169000  0.61985000  0.72545000  1.0
  C  C65  1  0.10831000  0.38016000  0.27455000  1.0
  C  C66  1  0.88262000  0.58555000  0.82155000  1.0
  C  C67  1  0.11738000  0.41445000  0.17845000  1.0
  C  C68  1  0.79726000  0.44845000  0.80819000  1.0
  C  C69  1  0.20274000  0.55155000  0.19181000  1.0
  C  C70  1  0.71883000  0.34489000  0.69911000  1.0
  C  C71  1  0.28118000  0.65511000  0.30089000  1.0
  C  C72  1  0.72539000  0.37918000  0.60298000  1.0
  C  C73  1  0.27461000  0.62082000  0.39702000  1.0
  C  C74  1  0.81192000  0.51571000  0.61604000  1.0
  C  C75  1  0.18808000  0.48429000  0.38396000  1.0
  C  C76  1  0.92088000  0.83233000  0.61183000  1.0
  C  C77  1  0.07913000  0.16767000  0.38818000  1.0
  C  C78  1  0.78489000  0.90029000  0.60034000  1.0
  C  C79  1  0.21511000  0.09971000  0.39966000  1.0
  C  C80  1  0.70807000  0.92263000  0.49789000  1.0
  C  C81  1  0.29193000  0.07737000  0.50212000  1.0
  C  C82  1  0.76637000  0.87951000  0.40630000  1.0
  C  C83  1  0.23363000  0.12049000  0.59370000  1.0
  C  C84  1  0.90389000  0.81643000  0.41846000  1.0
  C  C85  1  0.09612000  0.18357000  0.58154000  1.0
  C  C86  1  0.98037000  0.79224000  0.52039000  1.0
  C  C87  1  0.01963000  0.20776000  0.47962000  1.0
  I  I88  1  0.80588000  0.11585000  0.92490000  1.0
  I  I89  1  0.19411000  0.88415000  0.07510000  1.0
  N  N90  1  0.21812000  0.17747000  0.93827000  1.0
  N  N91  1  0.78187000  0.82253000  0.06173000  1.0
