# generated using pymatgen
data_LiH14C14S2NO10
_symmetry_space_group_name_H-M   'P 1'
_cell_length_a   6.65445000
_cell_length_b   7.43007000
_cell_length_c   17.78260000
_cell_angle_alpha   83.80430000
_cell_angle_beta   81.92880000
_cell_angle_gamma   76.42190000
_symmetry_Int_Tables_number   1
_chemical_formula_structural   LiH14C14S2NO10
_chemical_formula_sum   'Li2 H28 C28 S4 N2 O20'
_cell_volume   843.61540622
_cell_formula_units_Z   2
loop_
 _symmetry_equiv_pos_site_id
 _symmetry_equiv_pos_as_xyz
  1  'x, y, z'
loop_
 _atom_site_type_symbol
 _atom_site_label
 _atom_site_symmetry_multiplicity
 _atom_site_fract_x
 _atom_site_fract_y
 _atom_site_fract_z
 _atom_site_occupancy
  Li  Li0  1  0.65851000  0.20051000  0.03637000  1.0
  Li  Li1  1  0.34148000  0.79950000  0.96363000  1.0
  H  H2  1  0.71251000  0.98214000  0.93971000  1.0
  H  H3  1  0.28749000  0.01786000  0.06029000  1.0
  H  H4  1  0.83626000  0.13083000  0.89547000  1.0
  H  H5  1  0.16374000  0.86918000  0.10453000  1.0
  H  H6  1  0.24658000  0.31224000  0.07316000  1.0
  H  H7  1  0.75342000  0.68777000  0.92684000  1.0
  H  H8  1  0.31827000  0.26332000  0.98754000  1.0
  H  H9  1  0.68173000  0.73668000  0.01246000  1.0
  H  H10  1  0.83204000  0.66455000  0.31476000  1.0
  H  H11  1  0.16796000  0.33546000  0.68524000  1.0
  H  H12  1  0.57017000  0.63522000  0.42755000  1.0
  H  H13  1  0.42983000  0.36479000  0.57245000  1.0
  H  H14  1  0.08427000  0.96679000  0.30324000  1.0
  H  H15  1  0.91573000  0.03320000  0.69676000  1.0
  H  H16  1  0.34606000  0.00047000  0.18997000  1.0
  H  H17  1  0.65394000  0.99953000  0.81003000  1.0
  H  H18  1  0.91696000  0.23729000  0.26245000  1.0
  H  H19  1  0.08304000  0.76270000  0.73755000  1.0
  H  H20  1  0.67670000  0.15549000  0.37591000  1.0
  H  H21  1  0.32330000  0.84450000  0.62409000  1.0
  H  H22  1  0.15371000  0.48473000  0.26800000  1.0
  H  H23  1  0.84629000  0.51526000  0.73200000  1.0
  H  H24  1  0.39035000  0.55972000  0.15510000  1.0
  H  H25  1  0.60965000  0.44029000  0.84490000  1.0
  H  H26  1  0.10196000  0.66057000  0.53870000  1.0
  H  H27  1  0.89805000  0.33943000  0.46131000  1.0
  H  H28  1  0.20785000  0.16399000  0.49694000  1.0
  H  H29  1  0.79215000  0.83600000  0.50306000  1.0
  C  C30  1  0.60201000  0.83176000  0.24588000  1.0
  C  C31  1  0.39799000  0.16823000  0.75412000  1.0
  C  C32  1  0.66851000  0.73066000  0.31237000  1.0
  C  C33  1  0.33150000  0.26934000  0.68763000  1.0
  C  C34  1  0.52221000  0.71476000  0.37547000  1.0
  C  C35  1  0.47780000  0.28524000  0.62453000  1.0
  C  C36  1  0.31166000  0.80019000  0.37177000  1.0
  C  C37  1  0.68835000  0.19981000  0.62823000  1.0
  C  C38  1  0.24860000  0.90405000  0.30525000  1.0
  C  C39  1  0.75140000  0.09594000  0.69475000  1.0
  C  C40  1  0.39342000  0.92075000  0.24201000  1.0
  C  C41  1  0.60658000  0.07925000  0.75799000  1.0
  C  C42  1  0.15150000  0.77981000  0.43722000  1.0
  C  C43  1  0.84851000  0.22019000  0.56278000  1.0
  C  C44  1  0.66666667  0.40057000  0.20312000  1.0
  C  C45  1  0.33339000  0.59943000  0.79688000  1.0
  C  C46  1  0.74911000  0.28707000  0.26436000  1.0
  C  C47  1  0.25089000  0.71293000  0.73564000  1.0
  C  C48  1  0.61488000  0.24366000  0.32765000  1.0
  C  C49  1  0.38512000  0.75634000  0.67235000  1.0
  C  C50  1  0.40008000  0.31725000  0.32914000  1.0
  C  C51  1  0.59992000  0.68274000  0.67086000  1.0
  C  C52  1  0.32017000  0.42872000  0.26654000  1.0
  C  C53  1  0.67983000  0.57128000  0.73346000  1.0
  C  C54  1  0.45248000  0.47021000  0.20300000  1.0
  C  C55  1  0.54751000  0.52979000  0.79700000  1.0
  C  C56  1  0.24861000  0.28576000  0.39593000  1.0
  C  C57  1  0.75140000  0.71424000  0.60408000  1.0
  S  S58  1  0.78254000  0.83994000  0.16244000  1.0
  S  S59  1  0.21745000  0.16007000  0.83756000  1.0
  S  S60  1  0.83253000  0.46876000  0.12346000  1.0
  S  S61  1  0.16746000  0.53124000  0.87654000  1.0
  N  N62  1  0.75518000  0.68883000  0.10890000  1.0
  N  N63  1  0.24481000  0.31117000  0.89110000  1.0
  O  O64  1  0.73534000  0.10976000  0.93936000  1.0
  O  O65  1  0.26466000  0.89025000  0.06064000  1.0
  O  O66  1  0.35595000  0.23221000  0.04035000  1.0
  O  O67  1  0.64404000  0.76779000  0.95965000  1.0
  O  O68  1  0.71399000  0.01850000  0.12135000  1.0
  O  O69  1  0.28599000  0.98151000  0.87865000  1.0
  O  O70  1  0.98922000  0.80301000  0.18729000  1.0
  O  O71  1  0.01077000  0.19701000  0.81270000  1.0
  O  O72  1  0.78797000  0.39581000  0.05614000  1.0
  O  O73  1  0.21203000  0.60419000  0.94386000  1.0
  O  O74  1  0.04522000  0.40677000  0.14257000  1.0
  O  O75  1  0.95478000  0.59323000  0.85743000  1.0
  O  O76  1  0.96513000  0.86322000  0.43634000  1.0
  O  O77  1  0.03488000  0.13677000  0.56366000  1.0
  O  O78  1  0.22211000  0.66678000  0.49489000  1.0
  O  O79  1  0.77790000  0.33321000  0.50512000  1.0
  O  O80  1  0.05921000  0.36025000  0.39547000  1.0
  O  O81  1  0.94079000  0.63975000  0.60453000  1.0
  O  O82  1  0.32569000  0.17840000  0.45382000  1.0
  O  O83  1  0.67432000  0.82160000  0.54618000  1.0
