# generated using pymatgen
data_CdH10C14(N3O)4
_symmetry_space_group_name_H-M   'P 1'
_cell_length_a   8.58746000
_cell_length_b   8.87849000
_cell_length_c   13.72000000
_cell_angle_alpha   95.29130000
_cell_angle_beta   89.99530000
_cell_angle_gamma   118.92800000
_symmetry_Int_Tables_number   1
_chemical_formula_structural   CdH10C14(N3O)4
_chemical_formula_sum   'Cd2 H20 C28 N24 O8'
_cell_volume   910.45212766
_cell_formula_units_Z   2
loop_
 _symmetry_equiv_pos_site_id
 _symmetry_equiv_pos_as_xyz
  1  'x, y, z'
loop_
 _atom_site_type_symbol
 _atom_site_label
 _atom_site_symmetry_multiplicity
 _atom_site_fract_x
 _atom_site_fract_y
 _atom_site_fract_z
 _atom_site_occupancy
  Cd  Cd0  1  0.19579000  0.99993000  0.25006000  1.0
  Cd  Cd1  1  0.80421000  0.00007000  0.74994000  1.0
  H  H2  1  0.36342000  0.69776000  0.72398000  1.0
  H  H3  1  0.66583000  0.30234000  0.77604000  1.0
  H  H4  1  0.63658000  0.30224000  0.27602000  1.0
  H  H5  1  0.33417000  0.69767000  0.22396000  1.0
  H  H6  1  0.16110000  0.37704000  0.65893000  1.0
  H  H7  1  0.78432000  0.62305000  0.84109000  1.0
  H  H8  1  0.83889000  0.62296000  0.34107000  1.0
  H  H9  1  0.21569000  0.37696000  0.15892000  1.0
  H  H10  1  0.31194000  0.21510000  0.58689000  1.0
  H  H11  1  0.09715000  0.78496000  0.91310000  1.0
  H  H12  1  0.68806000  0.78490000  0.41311000  1.0
  H  H13  1  0.90285000  0.21504000  0.08691000  1.0
  H  H14  1  0.24878000  0.67134000  0.49670000  1.0
  H  H15  1  0.57735000  0.32874000  0.00350000  1.0
  H  H16  1  0.75122000  0.32866000  0.50331000  1.0
  H  H17  1  0.42265000  0.67126000  0.99650000  1.0
  H  H18  1  0.37722000  0.88808000  0.55677000  1.0
  H  H19  1  0.48916000  0.11206000  0.94341000  1.0
  H  H20  1  0.62277000  0.11192000  0.44323000  1.0
  H  H21  1  0.51084000  0.88794000  0.05659000  1.0
  C  C22  1  0.41410000  0.61696000  0.68728000  1.0
  C  C23  1  0.79735000  0.38315000  0.81269000  1.0
  C  C24  1  0.58589000  0.38304000  0.31272000  1.0
  C  C25  1  0.20265000  0.61685000  0.18732000  1.0
  C  C26  1  0.30519000  0.44305000  0.65385000  1.0
  C  C27  1  0.86240000  0.55707000  0.84615000  1.0
  C  C28  1  0.69480000  0.55695000  0.34615000  1.0
  C  C29  1  0.13760000  0.44293000  0.15385000  1.0
  C  C30  1  0.38836000  0.35339000  0.61109000  1.0
  C  C31  1  0.03527000  0.64669000  0.88887000  1.0
  C  C32  1  0.61164000  0.64661000  0.38891000  1.0
  C  C33  1  0.96473000  0.35331000  0.11113000  1.0
  C  C34  1  0.65709000  0.59853000  0.63210000  1.0
  C  C35  1  0.05881000  0.40153000  0.86777000  1.0
  C  C36  1  0.34290000  0.40147000  0.36790000  1.0
  C  C37  1  0.94119000  0.59847000  0.13223000  1.0
  C  C38  1  0.84960000  0.69109000  0.61959000  1.0
  C  C39  1  0.15874000  0.30898000  0.88026000  1.0
  C  C40  1  0.15040000  0.30890000  0.38041000  1.0
  C  C41  1  0.84126000  0.69102000  0.11974000  1.0
  C  C42  1  0.25326000  0.79644000  0.51423000  1.0
  C  C43  1  0.45674000  0.20363000  0.98594000  1.0
  C  C44  1  0.74674000  0.20356000  0.48577000  1.0
  C  C45  1  0.54326000  0.79636000  0.01405000  1.0
  C  C46  1  0.24170000  0.86720000  0.41814000  1.0
  C  C47  1  0.37423000  0.13275000  0.08196000  1.0
  C  C48  1  0.75830000  0.13280000  0.58186000  1.0
  C  C49  1  0.62577000  0.86725000  0.91803000  1.0
  N  N50  1  0.59064000  0.69520000  0.67696000  1.0
  N  N51  1  0.89565000  0.30490000  0.82297000  1.0
  N  N52  1  0.40936000  0.30480000  0.32304000  1.0
  N  N53  1  0.10435000  0.69510000  0.17704000  1.0
  N  N54  1  0.56445000  0.43038000  0.59906000  1.0
  N  N55  1  0.13434000  0.56967000  0.90084000  1.0
  N  N56  1  0.43555000  0.56962000  0.40093000  1.0
  N  N57  1  0.86566000  0.43033000  0.09916000  1.0
  N  N58  1  0.94244000  0.63798000  0.56123000  1.0
  N  N59  1  0.30456000  0.36208000  0.93873000  1.0
  N  N60  1  0.05756000  0.36202000  0.43877000  1.0
  N  N61  1  0.69544000  0.63792000  0.06127000  1.0
  N  N62  1  0.10558000  0.77324000  0.57419000  1.0
  N  N63  1  0.33238000  0.22680000  0.92587000  1.0
  N  N64  1  0.89441000  0.22676000  0.42581000  1.0
  N  N65  1  0.66762000  0.77320000  0.07413000  1.0
  N  N66  1  0.11692000  0.90398000  0.63627000  1.0
  N  N67  1  0.21306000  0.09605000  0.86375000  1.0
  N  N68  1  0.88308000  0.09602000  0.36372000  1.0
  N  N69  1  0.78694000  0.90395000  0.13625000  1.0
  N  N70  1  0.95515000  0.85173000  0.66564000  1.0
  N  N71  1  0.10366000  0.14833000  0.83426000  1.0
  N  N72  1  0.04485000  0.14827000  0.33436000  1.0
  N  N73  1  0.89634000  0.85167000  0.16574000  1.0
  O  O74  1  0.09453000  0.85886000  0.39359000  1.0
  O  O75  1  0.23545000  0.14116000  0.10652000  1.0
  O  O76  1  0.90547000  0.14115000  0.60641000  1.0
  O  O77  1  0.76455000  0.85884000  0.89348000  1.0
  O  O78  1  0.37926000  0.92898000  0.36879000  1.0
  O  O79  1  0.44993000  0.07084000  0.13126000  1.0
  O  O80  1  0.62074000  0.07102000  0.63121000  1.0
  O  O81  1  0.55007000  0.92915000  0.86873000  1.0
