# generated using pymatgen
data_AgH10C9(NO3)2
_symmetry_space_group_name_H-M   'P 1'
_cell_length_a   8.50309000
_cell_length_b   10.91640000
_cell_length_c   12.67590000
_cell_angle_alpha   89.84260000
_cell_angle_beta   70.41960000
_cell_angle_gamma   89.53020000
_symmetry_Int_Tables_number   1
_chemical_formula_structural   AgH10C9(NO3)2
_chemical_formula_sum   'Ag4 H40 C36 N8 O24'
_cell_volume   1108.53825323
_cell_formula_units_Z   4
loop_
 _symmetry_equiv_pos_site_id
 _symmetry_equiv_pos_as_xyz
  1  'x, y, z'
loop_
 _atom_site_type_symbol
 _atom_site_label
 _atom_site_symmetry_multiplicity
 _atom_site_fract_x
 _atom_site_fract_y
 _atom_site_fract_z
 _atom_site_occupancy
  Ag  Ag0  1  0.84724000  0.24987000  0.30593000  1.0
  Ag  Ag1  1  0.15276000  0.75013000  0.69407000  1.0
  Ag  Ag2  1  0.00000000  0.50000000  0.00000000  1.0
  Ag  Ag3  1  0.00000000  0.00000000  0.00000000  1.0
  H  H4  1  0.30503000  0.09336000  0.38203000  1.0
  H  H5  1  0.31289000  0.40633000  0.38205000  1.0
  H  H6  1  0.69497000  0.90664000  0.61797000  1.0
  H  H7  1  0.68712000  0.59367000  0.61795000  1.0
  H  H8  1  0.12170000  0.02124000  0.37452000  1.0
  H  H9  1  0.50354000  0.47871000  0.37459000  1.0
  H  H10  1  0.87830000  0.97876000  0.62548000  1.0
  H  H11  1  0.49647000  0.52129000  0.62541000  1.0
  H  H12  1  0.09002000  0.14639000  0.55452000  1.0
  H  H13  1  0.35595000  0.35345000  0.55449000  1.0
  H  H14  1  0.90998000  0.85362000  0.44548000  1.0
  H  H15  1  0.64405000  0.64655000  0.44551000  1.0
  H  H16  1  0.11390000  0.28016000  0.47069000  1.0
  H  H17  1  0.41565000  0.21968000  0.47063000  1.0
  H  H18  1  0.88610000  0.71984000  0.52930000  1.0
  H  H19  1  0.58435000  0.78033000  0.52937000  1.0
  H  H20  1  0.43019000  0.05403000  0.96697000  1.0
  H  H21  1  0.60319000  0.44631000  0.96705000  1.0
  H  H22  1  0.56981000  0.94597000  0.03303000  1.0
  H  H23  1  0.39681000  0.55369000  0.03295000  1.0
  H  H24  1  0.11454000  0.34056000  0.16460000  1.0
  H  H25  1  0.72067000  0.15960000  0.16477000  1.0
  H  H26  1  0.88547000  0.65944000  0.83540000  1.0
  H  H27  1  0.27934000  0.84040000  0.83522000  1.0
  H  H28  1  0.41209000  0.15786000  0.79641000  1.0
  H  H29  1  0.79153000  0.34228000  0.79647000  1.0
  H  H30  1  0.58791000  0.84213000  0.20359000  1.0
  H  H31  1  0.20847000  0.65772000  0.20353000  1.0
  H  H32  1  0.23093000  0.34512000  0.81842000  1.0
  H  H33  1  0.95041000  0.15491000  0.81859000  1.0
  H  H34  1  0.76907000  0.65488000  0.18158000  1.0
  H  H35  1  0.04959000  0.84509000  0.18141000  1.0
  H  H36  1  0.84836000  0.34360000  0.57321000  1.0
  H  H37  1  0.57890000  0.15621000  0.57293000  1.0
  H  H38  1  0.15164000  0.65641000  0.42679000  1.0
  H  H39  1  0.42110000  0.84379000  0.42706000  1.0
  H  H40  1  0.80188000  0.20763000  0.65707000  1.0
  H  H41  1  0.54110000  0.29218000  0.65680000  1.0
  H  H42  1  0.19812000  0.79237000  0.34293000  1.0
  H  H43  1  0.45890000  0.70782000  0.34320000  1.0
  C  C44  1  0.27129000  0.18800000  0.07974000  1.0
  C  C45  1  0.64916000  0.31224000  0.07980000  1.0
  C  C46  1  0.72871000  0.81200000  0.92026000  1.0
  C  C47  1  0.35084000  0.68775000  0.92020000  1.0
  C  C48  1  0.17909000  0.10994000  0.37887000  1.0
  C  C49  1  0.44203000  0.38993000  0.37886000  1.0
  C  C50  1  0.82091000  0.89007000  0.62113000  1.0
  C  C51  1  0.55797000  0.61007000  0.62114000  1.0
  C  C52  1  0.27665000  0.12053000  0.18097000  1.0
  C  C53  1  0.54255000  0.37969000  0.18100000  1.0
  C  C54  1  0.72335000  0.87946000  0.81903000  1.0
  C  C55  1  0.45745000  0.62031000  0.81900000  1.0
  C  C56  1  0.07429000  0.18380000  0.47769000  1.0
  C  C57  1  0.44834000  0.31603000  0.47759000  1.0
  C  C58  1  0.92571000  0.81620000  0.52231000  1.0
  C  C59  1  0.55166000  0.68397000  0.52241000  1.0
  C  C60  1  0.35653000  0.13743000  0.97449000  1.0
  C  C61  1  0.66920000  0.36283000  0.97456000  1.0
  C  C62  1  0.64347000  0.86257000  0.02550000  1.0
  C  C63  1  0.33080000  0.63716000  0.02544000  1.0
  C  C64  1  0.17973000  0.29612000  0.08486000  1.0
  C  C65  1  0.73542000  0.20404000  0.08499000  1.0
  C  C66  1  0.82027000  0.70388000  0.91514000  1.0
  C  C67  1  0.26458000  0.79596000  0.91501000  1.0
  C  C68  1  0.34708000  0.19527000  0.87912000  1.0
  C  C69  1  0.77387000  0.30492000  0.87922000  1.0
  C  C70  1  0.65292000  0.80473000  0.12088000  1.0
  C  C71  1  0.22613000  0.69508000  0.12078000  1.0
  C  C72  1  0.24842000  0.30009000  0.89067000  1.0
  C  C73  1  0.86082000  0.20002000  0.89082000  1.0
  C  C74  1  0.75158000  0.69991000  0.10933000  1.0
  C  C75  1  0.13918000  0.79998000  0.10918000  1.0
  C  C76  1  0.79945000  0.24963000  0.57823000  1.0
  C  C77  1  0.62263000  0.25019000  0.57808000  1.0
  C  C78  1  0.20055000  0.75037000  0.42177000  1.0
  C  C79  1  0.37737000  0.74981000  0.42192000  1.0
  N  N80  1  0.16589000  0.34961000  0.99210000  1.0
  N  N81  1  0.84195000  0.15050000  0.99226000  1.0
  N  N82  1  0.83411000  0.65039000  0.00790000  1.0
  N  N83  1  0.15805000  0.84950000  0.00774000  1.0
  N  N84  1  0.76930000  0.98821000  0.30556000  1.0
  N  N85  1  0.92503000  0.51168000  0.30556000  1.0
  N  N86  1  0.23070000  0.01179000  0.69444000  1.0
  N  N87  1  0.07497000  0.48832000  0.69444000  1.0
  O  O88  1  0.19280000  0.17840000  0.27708000  1.0
  O  O89  1  0.53018000  0.32164000  0.27705000  1.0
  O  O90  1  0.80720000  0.82160000  0.72292000  1.0
  O  O91  1  0.46982000  0.67836000  0.72295000  1.0
  O  O92  1  0.34833000  0.02164000  0.17632000  1.0
  O  O93  1  0.47566000  0.47863000  0.17640000  1.0
  O  O94  1  0.65166000  0.97836000  0.82369000  1.0
  O  O95  1  0.52434000  0.52136000  0.82360000  1.0
  O  O96  1  0.90244000  0.17835000  0.48532000  1.0
  O  O97  1  0.61264000  0.32143000  0.48509000  1.0
  O  O98  1  0.09756000  0.82165000  0.51468000  1.0
  O  O99  1  0.38736000  0.67857000  0.51491000  1.0
  O  O100  1  0.90134000  0.04980000  0.24748000  1.0
  O  O101  1  0.85157000  0.44994000  0.24724000  1.0
  O  O102  1  0.09866000  0.95020000  0.75252000  1.0
  O  O103  1  0.14843000  0.55006000  0.75276000  1.0
  O  O104  1  0.78163000  0.87419000  0.31054000  1.0
  O  O105  1  0.90732000  0.62568000  0.31062000  1.0
  O  O106  1  0.21837000  0.12581000  0.68946000  1.0
  O  O107  1  0.09268000  0.37432000  0.68938000  1.0
  O  O108  1  0.63558000  0.04563000  0.35345000  1.0
  O  O109  1  0.01084000  0.45444000  0.35360000  1.0
  O  O110  1  0.36442000  0.95437000  0.64655000  1.0
  O  O111  1  0.98916000  0.54556000  0.64640000  1.0
