# generated using pymatgen
data_AlP2H11C10(NO4)2
_symmetry_space_group_name_H-M   'P 1'
_cell_length_a   8.31631000
_cell_length_b   10.90620000
_cell_length_c   15.69250000
_cell_angle_alpha   89.99980000
_cell_angle_beta   89.99990000
_cell_angle_gamma   109.29000000
_symmetry_Int_Tables_number   1
_chemical_formula_structural   AlP2H11C10(NO4)2
_chemical_formula_sum   'Al4 P8 H44 C40 N8 O32'
_cell_volume   1343.39340673
_cell_formula_units_Z   4
loop_
 _symmetry_equiv_pos_site_id
 _symmetry_equiv_pos_as_xyz
  1  'x, y, z'
loop_
 _atom_site_type_symbol
 _atom_site_label
 _atom_site_symmetry_multiplicity
 _atom_site_fract_x
 _atom_site_fract_y
 _atom_site_fract_z
 _atom_site_occupancy
  Al  Al0  1  0.45470000  0.33552000  0.11582000  1.0
  Al  Al1  1  0.04530000  0.66448000  0.61582000  1.0
  Al  Al2  1  0.54530000  0.66448000  0.88418000  1.0
  Al  Al3  1  0.95469000  0.33552000  0.38418000  1.0
  P  P4  1  0.37553000  0.35278000  0.91981000  1.0
  P  P5  1  0.12448000  0.64722000  0.41981000  1.0
  P  P6  1  0.62447000  0.64722000  0.08019000  1.0
  P  P7  1  0.87553000  0.35278000  0.58020000  1.0
  P  P8  1  0.18810000  0.44390000  0.21460000  1.0
  P  P9  1  0.31189000  0.55610000  0.71461000  1.0
  P  P10  1  0.81190000  0.55609000  0.78540000  1.0
  P  P11  1  0.68811000  0.44390000  0.28539000  1.0
  H  H12  1  0.18909000  0.35023000  0.82310000  1.0
  H  H13  1  0.31091000  0.64976000  0.32309000  1.0
  H  H14  1  0.81091000  0.64976000  0.17690000  1.0
  H  H15  1  0.68909000  0.35024000  0.67691000  1.0
  H  H16  1  0.56911000  0.36281000  0.81971000  1.0
  H  H17  1  0.93089000  0.63719000  0.31970000  1.0
  H  H18  1  0.43089000  0.63719000  0.18030000  1.0
  H  H19  1  0.06911000  0.36281000  0.68030000  1.0
  H  H20  1  0.98382000  0.52290000  0.18976000  1.0
  H  H21  1  0.51617000  0.47710000  0.68977000  1.0
  H  H22  1  0.01617000  0.47710000  0.81024000  1.0
  H  H23  1  0.48382000  0.52290000  0.31023000  1.0
  H  H24  1  0.12153000  0.15534000  0.19213000  1.0
  H  H25  1  0.37847000  0.84466000  0.69213000  1.0
  H  H26  1  0.87847000  0.84466000  0.80787000  1.0
  H  H27  1  0.62153000  0.15534000  0.30787000  1.0
  H  H28  1  0.98528000  0.91343000  0.21047000  1.0
  H  H29  1  0.51473000  0.08657000  0.71047000  1.0
  H  H30  1  0.01473000  0.08657000  0.78953000  1.0
  H  H31  1  0.48528000  0.91343000  0.28953000  1.0
  H  H32  1  0.15757000  0.76896000  0.17332000  1.0
  H  H33  1  0.34243000  0.23104000  0.67333000  1.0
  H  H34  1  0.84243000  0.23104000  0.82668000  1.0
  H  H35  1  0.65758000  0.76896000  0.32667000  1.0
  H  H36  1  0.45001000  0.86899000  0.11942000  1.0
  H  H37  1  0.04999000  0.13101000  0.61942000  1.0
  H  H38  1  0.54999000  0.13101000  0.88058000  1.0
  H  H39  1  0.95001000  0.86899000  0.38058000  1.0
  H  H40  1  0.70852000  0.97210000  0.09133000  1.0
  H  H41  1  0.79148000  0.02790000  0.59133000  1.0
  H  H42  1  0.29148000  0.02790000  0.90867000  1.0
  H  H43  1  0.20853000  0.97210000  0.40867000  1.0
  H  H44  1  0.99114000  0.10681000  0.03102000  1.0
  H  H45  1  0.50886000  0.89319000  0.53101000  1.0
  H  H46  1  0.00886000  0.89319000  0.96899000  1.0
  H  H47  1  0.49114000  0.10682000  0.46899000  1.0
  H  H48  1  0.04120000  0.33936000  0.99772000  1.0
  H  H49  1  0.45881000  0.66064000  0.49772000  1.0
  H  H50  1  0.95880000  0.66064000  0.00228000  1.0
  H  H51  1  0.54119000  0.33936000  0.50228000  1.0
  H  H52  1  0.80743000  0.43273000  0.02739000  1.0
  H  H53  1  0.69258000  0.56727000  0.52739000  1.0
  H  H54  1  0.19257000  0.56727000  0.97261000  1.0
  H  H55  1  0.30742000  0.43273000  0.47261000  1.0
  C  C56  1  0.18857000  0.08765000  0.17657000  1.0
  C  C57  1  0.31143000  0.91235000  0.67658000  1.0
  C  C58  1  0.81143000  0.91235000  0.82342000  1.0
  C  C59  1  0.68857000  0.08765000  0.32342000  1.0
  C  C60  1  0.11543000  0.95403000  0.18763000  1.0
  C  C61  1  0.38457000  0.04597000  0.68763000  1.0
  C  C62  1  0.88457000  0.04597000  0.81238000  1.0
  C  C63  1  0.61543000  0.95403000  0.31237000  1.0
  C  C64  1  0.21045000  0.87420000  0.16682000  1.0
  C  C65  1  0.28956000  0.12580000  0.66682000  1.0
  C  C66  1  0.78956000  0.12580000  0.83319000  1.0
  C  C67  1  0.71044000  0.87421000  0.33318000  1.0
  C  C68  1  0.37528000  0.93066000  0.13594000  1.0
  C  C69  1  0.12472000  0.06934000  0.63594000  1.0
  C  C70  1  0.62472000  0.06934000  0.86406000  1.0
  C  C71  1  0.87528000  0.93066000  0.36405000  1.0
  C  C72  1  0.44020000  0.06512000  0.12558000  1.0
  C  C73  1  0.05980000  0.93488000  0.62558000  1.0
  C  C74  1  0.55980000  0.93488000  0.87442000  1.0
  C  C75  1  0.94020000  0.06512000  0.37442000  1.0
  C  C76  1  0.61149000  0.13370000  0.09155000  1.0
  C  C77  1  0.88852000  0.86630000  0.59155000  1.0
  C  C78  1  0.38851000  0.86630000  0.90845000  1.0
  C  C79  1  0.11149000  0.13370000  0.40845000  1.0
  C  C80  1  0.73473000  0.07454000  0.07687000  1.0
  C  C81  1  0.76528000  0.92546000  0.57687000  1.0
  C  C82  1  0.26527000  0.92546000  0.92313000  1.0
  C  C83  1  0.23472000  0.07454000  0.42313000  1.0
  C  C84  1  0.89159000  0.14913000  0.04316000  1.0
  C  C85  1  0.60841000  0.85086000  0.54316000  1.0
  C  C86  1  0.10841000  0.85087000  0.95684000  1.0
  C  C87  1  0.39159000  0.14914000  0.45684000  1.0
  C  C88  1  0.92056000  0.27938000  0.02444000  1.0
  C  C89  1  0.57944000  0.72062000  0.52443000  1.0
  C  C90  1  0.07944000  0.72062000  0.97557000  1.0
  C  C91  1  0.42056000  0.27938000  0.47556000  1.0
  C  C92  1  0.79234000  0.33186000  0.04111000  1.0
  C  C93  1  0.70767000  0.66814000  0.54110000  1.0
  C  C94  1  0.20766000  0.66814000  0.95890000  1.0
  C  C95  1  0.29234000  0.33187000  0.45889000  1.0
  N  N96  1  0.34640000  0.14183000  0.14507000  1.0
  N  N97  1  0.15360000  0.85816000  0.64507000  1.0
  N  N98  1  0.65359000  0.85817000  0.85493000  1.0
  N  N99  1  0.84641000  0.14184000  0.35493000  1.0
  N  N100  1  0.64248000  0.26134000  0.07506000  1.0
  N  N101  1  0.85752000  0.73866000  0.57506000  1.0
  N  N102  1  0.35752000  0.73866000  0.92494000  1.0
  N  N103  1  0.14248000  0.26134000  0.42494000  1.0
  O  O104  1  0.35151000  0.29055000  0.00718000  1.0
  O  O105  1  0.14849000  0.70945000  0.50718000  1.0
  O  O106  1  0.64849000  0.70945000  0.99282000  1.0
  O  O107  1  0.85151000  0.29055000  0.49282000  1.0
  O  O108  1  0.20386000  0.28777000  0.86929000  1.0
  O  O109  1  0.29614000  0.71223000  0.36929000  1.0
  O  O110  1  0.79614000  0.71223000  0.13071000  1.0
  O  O111  1  0.70386000  0.28777000  0.63071000  1.0
  O  O112  1  0.51940000  0.31232000  0.87381000  1.0
  O  O113  1  0.98061000  0.68768000  0.37380000  1.0
  O  O114  1  0.48060000  0.68768000  0.12619000  1.0
  O  O115  1  0.01939000  0.31232000  0.62619000  1.0
  O  O116  1  0.41573000  0.49914000  0.91781000  1.0
  O  O117  1  0.08426000  0.50085000  0.41780000  1.0
  O  O118  1  0.58427000  0.50085000  0.08220000  1.0
  O  O119  1  0.91573000  0.49914000  0.58219000  1.0
  O  O120  1  0.26360000  0.36916000  0.15354000  1.0
  O  O121  1  0.23640000  0.63084000  0.65355000  1.0
  O  O122  1  0.73640000  0.63084000  0.84646000  1.0
  O  O123  1  0.76360000  0.36916000  0.34645000  1.0
  O  O124  1  0.33692000  0.55345000  0.25852000  1.0
  O  O125  1  0.16307000  0.44655000  0.75853000  1.0
  O  O126  1  0.66307000  0.44655000  0.74148000  1.0
  O  O127  1  0.83693000  0.55345000  0.24147000  1.0
  O  O128  1  0.08671000  0.51506000  0.15827000  1.0
  O  O129  1  0.41328000  0.48493000  0.65828000  1.0
  O  O130  1  0.91329000  0.48493000  0.84173000  1.0
  O  O131  1  0.58672000  0.51507000  0.34172000  1.0
  O  O132  1  0.06436000  0.35437000  0.27739000  1.0
  O  O133  1  0.43563000  0.64563000  0.77740000  1.0
  O  O134  1  0.93563000  0.64563000  0.72260000  1.0
  O  O135  1  0.56436000  0.35437000  0.22260000  1.0
