# generated using pymatgen
data_ZnH12C24(NO3)2
_symmetry_space_group_name_H-M   'P 1'
_cell_length_a   13.07480000
_cell_length_b   13.12990000
_cell_length_c   22.34590000
_cell_angle_alpha   90.00010000
_cell_angle_beta   90.00000000
_cell_angle_gamma   111.33200000
_symmetry_Int_Tables_number   1
_chemical_formula_structural   ZnH12C24(NO3)2
_chemical_formula_sum   'Zn4 H48 C96 N8 O24'
_cell_volume   3573.31813522
_cell_formula_units_Z   4
loop_
 _symmetry_equiv_pos_site_id
 _symmetry_equiv_pos_as_xyz
  1  'x, y, z'
loop_
 _atom_site_type_symbol
 _atom_site_label
 _atom_site_symmetry_multiplicity
 _atom_site_fract_x
 _atom_site_fract_y
 _atom_site_fract_z
 _atom_site_occupancy
  Zn  Zn0  1  0.14711000  0.24679000  0.78874000  1.0
  Zn  Zn1  1  0.13180000  0.26249000  0.91564000  1.0
  Zn  Zn2  1  0.85289000  0.75321000  0.28874000  1.0
  Zn  Zn3  1  0.86820000  0.73751000  0.41564000  1.0
  H  H4  1  0.30539000  0.35414000  0.69360000  1.0
  H  H5  1  0.30993000  0.35851000  0.58075000  1.0
  H  H6  1  0.98931000  0.10153000  0.58296000  1.0
  H  H7  1  0.99735000  0.10854000  0.69474000  1.0
  H  H8  1  0.14039000  0.98268000  0.40183000  1.0
  H  H9  1  0.13366000  0.98867000  0.28973000  1.0
  H  H10  1  0.13988000  0.50489000  0.30268000  1.0
  H  H11  1  0.14442000  0.49776000  0.41512000  1.0
  H  H12  1  0.46761000  0.31839000  0.96310000  1.0
  H  H13  1  0.65155000  0.30317000  0.97556000  1.0
  H  H14  1  0.80942000  0.26500000  0.93045000  1.0
  H  H15  1  0.82542000  0.22854000  0.74018000  1.0
  H  H16  1  0.64743000  0.25627000  0.72739000  1.0
  H  H17  1  0.48312000  0.27965000  0.77314000  1.0
  H  H18  1  0.12463000  0.94293000  0.96655000  1.0
  H  H19  1  0.13275000  0.75580000  0.97682000  1.0
  H  H20  1  0.14267000  0.58806000  0.92870000  1.0
  H  H21  1  0.15555000  0.56720000  0.73750000  1.0
  H  H22  1  0.14753000  0.75378000  0.72730000  1.0
  H  H23  1  0.13788000  0.92211000  0.77555000  1.0
  H  H24  1  0.28141000  0.38273000  0.01165000  1.0
  H  H25  1  0.28862000  0.38009000  0.12439000  1.0
  H  H26  1  0.96378000  0.13031000  0.12129000  1.0
  H  H27  1  0.96971000  0.14360000  0.00934000  1.0
  H  H28  1  0.69461000  0.64586000  0.19360000  1.0
  H  H29  1  0.69007000  0.64149000  0.08075000  1.0
  H  H30  1  0.01069000  0.89846000  0.08296000  1.0
  H  H31  1  0.00266000  0.89146000  0.19475000  1.0
  H  H32  1  0.85960000  0.01732000  0.90183000  1.0
  H  H33  1  0.86634000  0.01133000  0.78973000  1.0
  H  H34  1  0.86012000  0.49511000  0.80268000  1.0
  H  H35  1  0.85558000  0.50224000  0.91512000  1.0
  H  H36  1  0.53239000  0.68162000  0.46310000  1.0
  H  H37  1  0.34845000  0.69683000  0.47556000  1.0
  H  H38  1  0.19058000  0.73500000  0.43045000  1.0
  H  H39  1  0.17457000  0.77146000  0.24018000  1.0
  H  H40  1  0.35257000  0.74373000  0.22739000  1.0
  H  H41  1  0.51688000  0.72035000  0.27314000  1.0
  H  H42  1  0.87538000  0.05707000  0.46655000  1.0
  H  H43  1  0.86725000  0.24420000  0.47682000  1.0
  H  H44  1  0.85734000  0.41194000  0.42871000  1.0
  H  H45  1  0.84445000  0.43280000  0.23751000  1.0
  H  H46  1  0.85247000  0.24622000  0.22731000  1.0
  H  H47  1  0.86212000  0.07789000  0.27555000  1.0
  H  H48  1  0.71859000  0.61727000  0.51165000  1.0
  H  H49  1  0.71139000  0.61992000  0.62439000  1.0
  H  H50  1  0.03622000  0.86970000  0.62129000  1.0
  H  H51  1  0.03030000  0.85640000  0.50933000  1.0
  C  C52  1  0.35102000  0.29879000  0.86066000  1.0
  C  C53  1  0.12374000  0.05240000  0.86391000  1.0
  C  C54  1  0.93148000  0.22506000  0.84368000  1.0
  C  C55  1  0.15592000  0.45707000  0.84000000  1.0
  C  C56  1  0.23753000  0.30019000  0.66685000  1.0
  C  C57  1  0.23978000  0.30198000  0.60472000  1.0
  C  C58  1  0.14917000  0.23094000  0.57391000  1.0
  C  C59  1  0.06063000  0.15898000  0.60568000  1.0
  C  C60  1  0.06485000  0.16252000  0.66787000  1.0
  C  C61  1  0.14458000  0.13937000  0.47858000  1.0
  C  C62  1  0.14424000  0.14627000  0.41256000  1.0
  C  C63  1  0.14209000  0.05650000  0.37890000  1.0
  C  C64  1  0.13815000  0.05984000  0.31617000  1.0
  C  C65  1  0.13636000  0.15289000  0.28721000  1.0
  C  C66  1  0.12891000  0.15318000  0.22127000  1.0
  C  C67  1  0.13442000  0.34749000  0.22611000  1.0
  C  C68  1  0.13896000  0.34228000  0.29203000  1.0
  C  C69  1  0.14116000  0.43217000  0.32572000  1.0
  C  C70  1  0.14396000  0.42826000  0.38837000  1.0
  C  C71  1  0.14538000  0.33497000  0.41734000  1.0
  C  C72  1  0.14711000  0.33252000  0.48338000  1.0
  C  C73  1  0.14413000  0.24271000  0.38408000  1.0
  C  C74  1  0.14026000  0.24622000  0.32044000  1.0
  C  C75  1  0.46567000  0.29995000  0.86698000  1.0
  C  C76  1  0.51381000  0.30755000  0.92461000  1.0
  C  C77  1  0.61476000  0.29834000  0.93128000  1.0
  C  C78  1  0.67209000  0.27979000  0.88086000  1.0
  C  C79  1  0.77258000  0.26299000  0.88644000  1.0
  C  C80  1  0.82536000  0.24286000  0.83659000  1.0
  C  C81  1  0.78045000  0.24185000  0.77858000  1.0
  C  C82  1  0.68268000  0.25767000  0.77180000  1.0
  C  C83  1  0.62510000  0.27541000  0.82231000  1.0
  C  C84  1  0.52164000  0.28597000  0.81697000  1.0
  C  C85  1  0.12939000  0.94117000  0.86999000  1.0
  C  C86  1  0.12871000  0.89490000  0.92747000  1.0
  C  C87  1  0.13344000  0.79230000  0.93284000  1.0
  C  C88  1  0.13981000  0.73155000  0.88120000  1.0
  C  C89  1  0.14444000  0.62603000  0.88515000  1.0
  C  C90  1  0.15123000  0.56892000  0.83414000  1.0
  C  C91  1  0.15182000  0.61508000  0.77668000  1.0
  C  C92  1  0.14699000  0.71768000  0.77140000  1.0
  C  C93  1  0.14139000  0.77867000  0.82302000  1.0
  C  C94  1  0.13623000  0.88403000  0.81910000  1.0
  C  C95  1  0.21279000  0.32951000  0.03820000  1.0
  C  C96  1  0.21662000  0.32715000  0.10025000  1.0
  C  C97  1  0.12615000  0.25525000  0.13079000  1.0
  C  C98  1  0.03522000  0.18799000  0.09876000  1.0
  C  C99  1  0.03800000  0.19526000  0.03661000  1.0
  C  C100  1  0.64898000  0.70121000  0.36066000  1.0
  C  C101  1  0.87626000  0.94760000  0.36391000  1.0
  C  C102  1  0.06852000  0.77494000  0.34368000  1.0
  C  C103  1  0.84408000  0.54293000  0.34000000  1.0
  C  C104  1  0.76247000  0.69981000  0.16685000  1.0
  C  C105  1  0.76022000  0.69802000  0.10472000  1.0
  C  C106  1  0.85084000  0.76906000  0.07391000  1.0
  C  C107  1  0.93937000  0.84103000  0.10568000  1.0
  C  C108  1  0.93515000  0.83748000  0.16788000  1.0
  C  C109  1  0.85542000  0.86063000  0.97858000  1.0
  C  C110  1  0.85576000  0.85373000  0.91256000  1.0
  C  C111  1  0.85791000  0.94350000  0.87890000  1.0
  C  C112  1  0.86185000  0.94016000  0.81617000  1.0
  C  C113  1  0.86364000  0.84711000  0.78721000  1.0
  C  C114  1  0.87109000  0.84682000  0.72127000  1.0
  C  C115  1  0.86559000  0.65251000  0.72611000  1.0
  C  C116  1  0.86105000  0.65772000  0.79203000  1.0
  C  C117  1  0.85884000  0.56783000  0.82572000  1.0
  C  C118  1  0.85605000  0.57174000  0.88837000  1.0
  C  C119  1  0.85462000  0.66503000  0.91734000  1.0
  C  C120  1  0.85289000  0.66748000  0.98338000  1.0
  C  C121  1  0.85587000  0.75729000  0.88408000  1.0
  C  C122  1  0.85974000  0.75378000  0.82044000  1.0
  C  C123  1  0.53432000  0.70005000  0.36698000  1.0
  C  C124  1  0.48619000  0.69245000  0.42461000  1.0
  C  C125  1  0.38524000  0.70166000  0.43128000  1.0
  C  C126  1  0.32791000  0.72021000  0.38086000  1.0
  C  C127  1  0.22741000  0.73700000  0.38644000  1.0
  C  C128  1  0.17464000  0.75714000  0.33659000  1.0
  C  C129  1  0.21955000  0.75815000  0.27858000  1.0
  C  C130  1  0.31732000  0.74233000  0.27179000  1.0
  C  C131  1  0.37489000  0.72459000  0.32230000  1.0
  C  C132  1  0.47836000  0.71402000  0.31697000  1.0
  C  C133  1  0.87060000  0.05882000  0.37000000  1.0
  C  C134  1  0.87129000  0.10510000  0.42747000  1.0
  C  C135  1  0.86655000  0.20769000  0.43284000  1.0
  C  C136  1  0.86018000  0.26845000  0.38120000  1.0
  C  C137  1  0.85556000  0.37397000  0.38515000  1.0
  C  C138  1  0.84877000  0.43108000  0.33415000  1.0
  C  C139  1  0.84818000  0.38492000  0.27668000  1.0
  C  C140  1  0.85301000  0.28233000  0.27140000  1.0
  C  C141  1  0.85861000  0.22133000  0.32302000  1.0
  C  C142  1  0.86377000  0.11597000  0.31910000  1.0
  C  C143  1  0.78721000  0.67050000  0.53820000  1.0
  C  C144  1  0.78339000  0.67285000  0.60026000  1.0
  C  C145  1  0.87386000  0.74475000  0.63080000  1.0
  C  C146  1  0.96478000  0.81201000  0.59876000  1.0
  C  C147  1  0.96200000  0.80474000  0.53661000  1.0
  N  N148  1  0.15130000  0.23241000  0.69770000  1.0
  N  N149  1  0.14721000  0.23407000  0.50976000  1.0
  N  N150  1  0.12822000  0.25093000  0.19496000  1.0
  N  N151  1  0.12507000  0.26498000  0.00713000  1.0
  N  N152  1  0.84870000  0.76759000  0.19770000  1.0
  N  N153  1  0.85279000  0.76593000  0.00976000  1.0
  N  N154  1  0.87179000  0.74908000  0.69496000  1.0
  N  N155  1  0.87493000  0.73503000  0.50713000  1.0
  O  O156  1  0.31161000  0.28956000  0.80789000  1.0
  O  O157  1  0.30050000  0.30328000  0.90878000  1.0
  O  O158  1  0.12590000  0.08924000  0.81100000  1.0
  O  O159  1  0.11734000  0.10145000  0.91207000  1.0
  O  O160  1  0.97956000  0.21394000  0.79582000  1.0
  O  O161  1  0.96636000  0.22269000  0.89679000  1.0
  O  O162  1  0.16423000  0.40896000  0.79182000  1.0
  O  O163  1  0.14950000  0.41860000  0.89281000  1.0
  O  O164  1  0.14359000  0.05798000  0.50622000  1.0
  O  O165  1  0.12446000  0.07495000  0.18960000  1.0
  O  O166  1  0.13522000  0.42835000  0.19829000  1.0
  O  O167  1  0.14785000  0.40922000  0.51504000  1.0
  O  O168  1  0.68839000  0.71044000  0.30789000  1.0
  O  O169  1  0.69950000  0.69672000  0.40878000  1.0
  O  O170  1  0.87410000  0.91076000  0.31099000  1.0
  O  O171  1  0.88266000  0.89855000  0.41207000  1.0
  O  O172  1  0.02044000  0.78606000  0.29582000  1.0
  O  O173  1  0.03364000  0.77731000  0.39679000  1.0
  O  O174  1  0.83577000  0.59103000  0.29183000  1.0
  O  O175  1  0.85049000  0.58140000  0.39282000  1.0
  O  O176  1  0.85640000  0.94202000  0.00622000  1.0
  O  O177  1  0.87554000  0.92505000  0.68961000  1.0
  O  O178  1  0.86478000  0.57166000  0.69829000  1.0
  O  O179  1  0.85216000  0.59078000  0.01504000  1.0
