# generated using pymatgen
data_CdH22C22N6(ClO4)2
_symmetry_space_group_name_H-M   'P 1'
_cell_length_a   8.48759000
_cell_length_b   9.55765000
_cell_length_c   17.69900000
_cell_angle_alpha   85.78710000
_cell_angle_beta   80.47680000
_cell_angle_gamma   63.63930000
_symmetry_Int_Tables_number   1
_chemical_formula_structural   CdH22C22N6(ClO4)2
_chemical_formula_sum   'Cd2 H44 C44 N12 Cl4 O16'
_cell_volume   1268.74252174
_cell_formula_units_Z   2
loop_
 _symmetry_equiv_pos_site_id
 _symmetry_equiv_pos_as_xyz
  1  'x, y, z'
loop_
 _atom_site_type_symbol
 _atom_site_label
 _atom_site_symmetry_multiplicity
 _atom_site_fract_x
 _atom_site_fract_y
 _atom_site_fract_z
 _atom_site_occupancy
  Cd  Cd0  1  0.39156000  0.21723000  0.25002000  1.0
  Cd  Cd1  1  0.60844000  0.78277000  0.74998000  1.0
  H  H2  1  0.67410000  0.02663000  0.13333000  1.0
  H  H3  1  0.29983000  0.02657000  0.36664000  1.0
  H  H4  1  0.32590000  0.97337000  0.86667000  1.0
  H  H5  1  0.70017000  0.97343000  0.63336000  1.0
  H  H6  1  0.60656000  0.69186000  0.07701000  1.0
  H  H7  1  0.70214000  0.69196000  0.42305000  1.0
  H  H8  1  0.39344000  0.30814000  0.92299000  1.0
  H  H9  1  0.29786000  0.30804000  0.57694000  1.0
  H  H10  1  0.30694000  0.70547000  0.09108000  1.0
  H  H11  1  0.98809000  0.70563000  0.40897000  1.0
  H  H12  1  0.69305000  0.29453000  0.90892000  1.0
  H  H13  1  0.01191000  0.29437000  0.59103000  1.0
  H  H14  1  0.04397000  0.94142000  0.15669000  1.0
  H  H15  1  0.01510000  0.94152000  0.34331000  1.0
  H  H16  1  0.95603000  0.05859000  0.84331000  1.0
  H  H17  1  0.98490000  0.05848000  0.65669000  1.0
  H  H18  1  0.10448000  0.14366000  0.20949000  1.0
  H  H19  1  0.75236000  0.14370000  0.29046000  1.0
  H  H20  1  0.89552000  0.85634000  0.79051000  1.0
  H  H21  1  0.24764000  0.85630000  0.70954000  1.0
  H  H22  1  0.79303000  0.78231000  0.02067000  1.0
  H  H23  1  0.42512000  0.78238000  0.47935000  1.0
  H  H24  1  0.20697000  0.21769000  0.97933000  1.0
  H  H25  1  0.57488000  0.21762000  0.52065000  1.0
  H  H26  1  0.90813000  0.87983000  0.04648000  1.0
  H  H27  1  0.21255000  0.87987000  0.45349000  1.0
  H  H28  1  0.09187000  0.12017000  0.95352000  1.0
  H  H29  1  0.78745000  0.12013000  0.54651000  1.0
  H  H30  1  0.81176000  0.75263000  0.22656000  1.0
  H  H31  1  0.43658000  0.75226000  0.27345000  1.0
  H  H32  1  0.18824000  0.24737000  0.77344000  1.0
  H  H33  1  0.56342000  0.24774000  0.72655000  1.0
  H  H34  1  0.45569000  0.51882000  0.21145000  1.0
  H  H35  1  0.02599000  0.51914000  0.28867000  1.0
  H  H36  1  0.54431000  0.48118000  0.78855000  1.0
  H  H37  1  0.97401000  0.48086000  0.71133000  1.0
  H  H38  1  0.31757000  0.32814000  0.07879000  1.0
  H  H39  1  0.35398000  0.32845000  0.42132000  1.0
  H  H40  1  0.68243000  0.67186000  0.92121000  1.0
  H  H41  1  0.64602000  0.67156000  0.57867000  1.0
  H  H42  1  0.11503000  0.55460000  0.00791000  1.0
  H  H43  1  0.33022000  0.55489000  0.49216000  1.0
  H  H44  1  0.88497000  0.44540000  0.99209000  1.0
  H  H45  1  0.66978000  0.44511000  0.50784000  1.0
  C  C46  1  0.51549000  0.91754000  0.13145000  1.0
  C  C47  1  0.56754000  0.91751000  0.36852000  1.0
  C  C48  1  0.48451000  0.08246000  0.86855000  1.0
  C  C49  1  0.43246000  0.08249000  0.63148000  1.0
  C  C50  1  0.49300000  0.79280000  0.10436000  1.0
  C  C51  1  0.71471000  0.79287000  0.39566000  1.0
  C  C52  1  0.50700000  0.20720000  0.89564000  1.0
  C  C53  1  0.28529000  0.20713000  0.60434000  1.0
  C  C54  1  0.32428000  0.80020000  0.11327000  1.0
  C  C55  1  0.87600000  0.80028000  0.38675000  1.0
  C  C56  1  0.67572000  0.19980000  0.88673000  1.0
  C  C57  1  0.12399000  0.19971000  0.61325000  1.0
  C  C58  1  0.17909000  0.92912000  0.14995000  1.0
  C  C59  1  0.89231000  0.92916000  0.35003000  1.0
  C  C60  1  0.82091000  0.07089000  0.85005000  1.0
  C  C61  1  0.10769000  0.07084000  0.64997000  1.0
  C  C62  1  0.21181000  0.04282000  0.17885000  1.0
  C  C63  1  0.74587000  0.04284000  0.32110000  1.0
  C  C64  1  0.78819000  0.95718000  0.82115000  1.0
  C  C65  1  0.25413000  0.95716000  0.67890000  1.0
  C  C66  1  0.82930000  0.81741000  0.07068000  1.0
  C  C67  1  0.35383000  0.81746000  0.42932000  1.0
  C  C68  1  0.17070000  0.18259000  0.92932000  1.0
  C  C69  1  0.64616000  0.18254000  0.57068000  1.0
  C  C70  1  0.94675000  0.67372000  0.11173000  1.0
  C  C71  1  0.38012000  0.67369000  0.38831000  1.0
  C  C72  1  0.05325000  0.32628000  0.88827000  1.0
  C  C73  1  0.61988000  0.32632000  0.61169000  1.0
  C  C74  1  0.92192000  0.66111000  0.19150000  1.0
  C  C75  1  0.41785000  0.66083000  0.30855000  1.0
  C  C76  1  0.07808000  0.33889000  0.80850000  1.0
  C  C77  1  0.58215000  0.33917000  0.69145000  1.0
  C  C78  1  0.04105000  0.53097000  0.22646000  1.0
  C  C79  1  0.42875000  0.53070000  0.27364000  1.0
  C  C80  1  0.95895000  0.46903000  0.77354000  1.0
  C  C81  1  0.57124000  0.46930000  0.72636000  1.0
  C  C82  1  0.20299000  0.42444000  0.10930000  1.0
  C  C83  1  0.37264000  0.42457000  0.39079000  1.0
  C  C84  1  0.79701000  0.57556000  0.89070000  1.0
  C  C85  1  0.62736000  0.57543000  0.60920000  1.0
  C  C86  1  0.09016000  0.55090000  0.07022000  1.0
  C  C87  1  0.35909000  0.55106000  0.42985000  1.0
  C  C88  1  0.90984000  0.44910000  0.92978000  1.0
  C  C89  1  0.64091000  0.44894000  0.57015000  1.0
  N  N90  1  0.37565000  0.03727000  0.17168000  1.0
  N  N91  1  0.58762000  0.03722000  0.32827000  1.0
  N  N92  1  0.62435000  0.96273000  0.82832000  1.0
  N  N93  1  0.41237000  0.96278000  0.67174000  1.0
  N  N94  1  0.67350000  0.92547000  0.11852000  1.0
  N  N95  1  0.40160000  0.92545000  0.38145000  1.0
  N  N96  1  0.32650000  0.07453000  0.88148000  1.0
  N  N97  1  0.59840000  0.07456000  0.61855000  1.0
  N  N98  1  0.18028000  0.41473000  0.18625000  1.0
  N  N99  1  0.40536000  0.41466000  0.31386000  1.0
  N  N100  1  0.81972000  0.58527000  0.81375000  1.0
  N  N101  1  0.59463000  0.58534000  0.68614000  1.0
  Cl  Cl102  1  0.73322000  0.28937000  0.10223000  1.0
  Cl  Cl103  1  0.97762000  0.28933000  0.39776000  1.0
  Cl  Cl104  1  0.26679000  0.71063000  0.89778000  1.0
  Cl  Cl105  1  0.02239000  0.71067000  0.60224000  1.0
  O  O106  1  0.66580000  0.21060000  0.16714000  1.0
  O  O107  1  0.12384000  0.21069000  0.33284000  1.0
  O  O108  1  0.33421000  0.78940000  0.83286000  1.0
  O  O109  1  0.87616000  0.78931000  0.66716000  1.0
  O  O110  1  0.58211000  0.41580000  0.07355000  1.0
  O  O111  1  0.00227000  0.41571000  0.42651000  1.0
  O  O112  1  0.41789000  0.58420000  0.92646000  1.0
  O  O113  1  0.99773000  0.58429000  0.57349000  1.0
  O  O114  1  0.84186000  0.34918000  0.13096000  1.0
  O  O115  1  0.80918000  0.34921000  0.36900000  1.0
  O  O116  1  0.15815000  0.65081000  0.86904000  1.0
  O  O117  1  0.19082000  0.65079000  0.63100000  1.0
  O  O118  1  0.83756000  0.17204000  0.04332000  1.0
  O  O119  1  0.99058000  0.17190000  0.45661000  1.0
  O  O120  1  0.16244000  0.82796000  0.95668000  1.0
  O  O121  1  0.00941000  0.82810000  0.54339000  1.0
