# generated using pymatgen
data_Hg4H22C11N2(Cl2O)4
_symmetry_space_group_name_H-M   'P 1'
_cell_length_a   7.82051000
_cell_length_b   10.28810000
_cell_length_c   10.53760000
_cell_angle_alpha   115.80200000
_cell_angle_beta   89.99380000
_cell_angle_gamma   112.34200000
_symmetry_Int_Tables_number   1
_chemical_formula_structural   Hg4H22C11N2(Cl2O)4
_chemical_formula_sum   'Hg4 H22 C11 N2 Cl8 O4'
_cell_volume   691.95084664
_cell_formula_units_Z   1
loop_
 _symmetry_equiv_pos_site_id
 _symmetry_equiv_pos_as_xyz
  1  'x, y, z'
loop_
 _atom_site_type_symbol
 _atom_site_label
 _atom_site_symmetry_multiplicity
 _atom_site_fract_x
 _atom_site_fract_y
 _atom_site_fract_z
 _atom_site_occupancy
  Hg  Hg0  1  0.10659000  0.48731000  0.86391000  1.0
  Hg  Hg1  1  0.61960000  0.51265000  0.13606000  1.0
  Hg  Hg2  1  0.24422000  0.82053000  0.27963000  1.0
  Hg  Hg3  1  0.42348000  0.17927000  0.72034000  1.0
  H  H4  1  0.06099000  0.98923000  0.77858000  1.0
  H  H5  1  0.07190000  0.01083000  0.22140000  1.0
  H  H6  1  0.96019000  0.90273000  0.59542000  1.0
  H  H7  1  0.05757000  0.09732000  0.40454000  1.0
  H  H8  1  0.91950000  0.74754000  0.78296000  1.0
  H  H9  1  0.17203000  0.25255000  0.21699000  1.0
  H  H10  1  0.67215000  0.62269000  0.70826000  1.0
  H  H11  1  0.04941000  0.37733000  0.29166000  1.0
  H  H12  1  0.83351000  0.66064000  0.59452000  1.0
  H  H13  1  0.17292000  0.33951000  0.40544000  1.0
  H  H14  1  0.63266000  0.73848000  0.50527000  1.0
  H  H15  1  0.89443000  0.26153000  0.49480000  1.0
  H  H16  1  0.47687000  0.71546000  0.62670000  1.0
  H  H17  1  0.76154000  0.28458000  0.37347000  1.0
  H  H18  1  0.58342000  0.90312000  0.62505000  1.0
  H  H19  1  0.68053000  0.09692000  0.37508000  1.0
  H  H20  1  0.59063000  0.83014000  0.87037000  1.0
  H  H21  1  0.76038000  0.16987000  0.12975000  1.0
  H  H22  1  0.67349000  0.01615000  0.86877000  1.0
  H  H23  1  0.65747000  0.98380000  0.13124000  1.0
  H  H24  1  0.99857000  0.09156000  0.99586000  1.0
  H  H25  1  0.90736000  0.90879000  0.00414000  1.0
  C  C26  1  0.94788000  0.12659000  0.73022000  1.0
  C  C27  1  0.82148000  0.87343000  0.26980000  1.0
  C  C28  1  0.94126000  0.96646000  0.70541000  1.0
  C  C29  1  0.97493000  0.03358000  0.29456000  1.0
  C  C30  1  0.80051000  0.71066000  0.70148000  1.0
  C  C31  1  0.08990000  0.28943000  0.29848000  1.0
  C  C32  1  0.60192000  0.79828000  0.61119000  1.0
  C  C33  1  0.80385000  0.20178000  0.38892000  1.0
  C  C34  1  0.71555000  0.92623000  0.86935000  1.0
  C  C35  1  0.78938000  0.07384000  0.13070000  1.0
  C  C36  1  0.87064000  0.00014000  0.00003000  1.0
  N  N37  1  0.76640000  0.85242000  0.72380000  1.0
  N  N38  1  0.91409000  0.14763000  0.27620000  1.0
  Cl  Cl39  1  0.08185000  0.46739000  0.07958000  1.0
  Cl  Cl40  1  0.61461000  0.53237000  0.92029000  1.0
  Cl  Cl41  1  0.15187000  0.57047000  0.68746000  1.0
  Cl  Cl42  1  0.58150000  0.42945000  0.31248000  1.0
  Cl  Cl43  1  0.28313000  0.87678000  0.08535000  1.0
  Cl  Cl44  1  0.40605000  0.12299000  0.91460000  1.0
  Cl  Cl45  1  0.21867000  0.78300000  0.48364000  1.0
  Cl  Cl46  1  0.43541000  0.21653000  0.51621000  1.0
  O  O47  1  0.11281000  0.22095000  0.73092000  1.0
  O  O48  1  0.89217000  0.77912000  0.26902000  1.0
  O  O49  1  0.80777000  0.15877000  0.74786000  1.0
  O  O50  1  0.64918000  0.84118000  0.25230000  1.0
