# generated using pymatgen
data_AlH6C24(ClO)6
_symmetry_space_group_name_H-M   'P 1'
_cell_length_a   3.99313000
_cell_length_b   29.02207030
_cell_length_c   29.01910000
_cell_angle_alpha   59.99615807
_cell_angle_beta   89.99930000
_cell_angle_gamma   89.99990001
_symmetry_Int_Tables_number   1
_chemical_formula_structural   AlH6C24(ClO)6
_chemical_formula_sum   'Al2 H12 C48 Cl12 O12'
_cell_volume   2912.32337026
_cell_formula_units_Z   2
loop_
 _symmetry_equiv_pos_site_id
 _symmetry_equiv_pos_as_xyz
  1  'x, y, z'
loop_
 _atom_site_type_symbol
 _atom_site_label
 _atom_site_symmetry_multiplicity
 _atom_site_fract_x
 _atom_site_fract_y
 _atom_site_fract_z
 _atom_site_occupancy
  Al  Al0  1  0.99977000  0.50001000  0.99998000  1.0
  Al  Al1  1  0.00008000  0.16666000  0.66669000  1.0
  H  H2  1  0.77649000  0.30380000  0.52003000  1.0
  H  H3  1  0.22359000  0.17621000  0.52002000  1.0
  H  H4  1  0.22362000  0.49048000  0.14665000  1.0
  H  H5  1  0.77632000  0.36289000  0.14662000  1.0
  H  H6  1  0.77640000  0.17614000  0.80387000  1.0
  H  H7  1  0.22350000  0.30373000  0.67625000  1.0
  H  H8  1  0.22356000  0.36287000  0.99046000  1.0
  H  H9  1  0.77637000  0.49050000  0.86283000  1.0
  H  H10  1  0.77650000  0.02005000  0.67619000  1.0
  H  H11  1  0.22372000  0.01997000  0.80384000  1.0
  H  H12  1  0.22368000  0.64672000  0.86279000  1.0
  H  H13  1  0.77641000  0.64660000  0.99047000  1.0
  C  C14  1  0.49976000  0.58171000  0.95913000  1.0
  C  C15  1  0.49976000  0.45914000  0.08169000  1.0
  C  C16  1  0.49976000  0.45917000  0.95911000  1.0
  C  C17  1  0.50002000  0.20753000  0.58498000  1.0
  C  C18  1  0.49991000  0.20748000  0.70757000  1.0
  C  C19  1  0.50000000  0.08496000  0.70754000  1.0
  C  C20  1  0.50009000  0.23712000  0.52579000  1.0
  C  C21  1  0.65420000  0.28705000  0.49821000  1.0
  C  C22  1  0.64662000  0.31512000  0.44295000  1.0
  C  C23  1  0.50034000  0.29321000  0.41359000  1.0
  C  C24  1  0.35395000  0.24195000  0.44295000  1.0
  C  C25  1  0.34607000  0.21476000  0.49821000  1.0
  C  C26  1  0.50046000  0.32121000  0.35758000  1.0
  C  C27  1  0.50048000  0.34547000  0.30908000  1.0
  C  C28  1  0.50032000  0.37346000  0.25308000  1.0
  C  C29  1  0.35395000  0.42473000  0.22373000  1.0
  C  C30  1  0.34606000  0.45192000  0.16847000  1.0
  C  C31  1  0.49998000  0.42957000  0.14087000  1.0
  C  C32  1  0.65410000  0.37964000  0.16844000  1.0
  C  C33  1  0.64650000  0.35156000  0.22370000  1.0
  C  C34  1  0.49992000  0.23705000  0.73718000  1.0
  C  C35  1  0.65417000  0.21472000  0.78710000  1.0
  C  C36  1  0.64656000  0.24192000  0.81515000  1.0
  C  C37  1  0.50037000  0.29320000  0.79322000  1.0
  C  C38  1  0.35392000  0.31509000  0.74196000  1.0
  C  C39  1  0.34594000  0.28699000  0.71481000  1.0
  C  C40  1  0.50055000  0.32120000  0.82121000  1.0
  C  C41  1  0.50060000  0.34545000  0.84546000  1.0
  C  C42  1  0.50046000  0.37345000  0.87346000  1.0
  C  C43  1  0.35404000  0.35154000  0.92472000  1.0
  C  C44  1  0.34603000  0.37962000  0.95189000  1.0
  C  C45  1  0.49994000  0.42956000  0.92954000  1.0
  C  C46  1  0.65415000  0.45192000  0.87961000  1.0
  C  C47  1  0.64666000  0.42473000  0.85154000  1.0
  C  C48  1  0.50018000  0.02578000  0.73713000  1.0
  C  C49  1  0.65430000  0.99821000  0.71478000  1.0
  C  C50  1  0.64659000  0.94296000  0.74193000  1.0
  C  C51  1  0.50045000  0.91358000  0.79322000  1.0
  C  C52  1  0.35407000  0.94293000  0.81513000  1.0
  C  C53  1  0.34615000  0.99817000  0.78708000  1.0
  C  C54  1  0.50061000  0.85758000  0.82122000  1.0
  C  C55  1  0.50070000  0.80909000  0.84545000  1.0
  C  C56  1  0.50058000  0.75309000  0.87344000  1.0
  C  C57  1  0.35422000  0.72376000  0.85150000  1.0
  C  C58  1  0.34620000  0.66851000  0.87956000  1.0
  C  C59  1  0.50007000  0.64089000  0.92952000  1.0
  C  C60  1  0.65419000  0.66845000  0.95188000  1.0
  C  C61  1  0.64666000  0.72370000  0.92472000  1.0
  Cl  Cl62  1  0.17887000  0.21314000  0.40921000  1.0
  Cl  Cl63  1  0.82168000  0.37766000  0.40921000  1.0
  Cl  Cl64  1  0.82158000  0.28902000  0.25743000  1.0
  Cl  Cl65  1  0.17894000  0.45353000  0.25747000  1.0
  Cl  Cl66  1  0.17898000  0.37764000  0.71313000  1.0
  Cl  Cl67  1  0.82167000  0.21312000  0.87770000  1.0
  Cl  Cl68  1  0.82174000  0.45354000  0.78900000  1.0
  Cl  Cl69  1  0.17903000  0.28899000  0.95354000  1.0
  Cl  Cl70  1  0.17895000  0.90917000  0.87769000  1.0
  Cl  Cl71  1  0.82168000  0.90926000  0.71310000  1.0
  Cl  Cl72  1  0.82174000  0.75738000  0.95358000  1.0
  Cl  Cl73  1  0.17916000  0.75752000  0.78896000  1.0
  O  O74  1  0.26480000  0.44896000  0.99273000  1.0
  O  O75  1  0.26480000  0.55831000  0.94892000  1.0
  O  O76  1  0.26480000  0.49275000  0.05829000  1.0
  O  O77  1  0.73456000  0.49279000  0.94891000  1.0
  O  O78  1  0.73451000  0.44893000  0.05826000  1.0
  O  O79  1  0.73455000  0.55828000  0.99277000  1.0
  O  O80  1  0.26511000  0.10837000  0.71774000  1.0
  O  O81  1  0.26511000  0.17391000  0.60839000  1.0
  O  O82  1  0.26508000  0.21770000  0.67393000  1.0
  O  O83  1  0.73486000  0.10838000  0.67390000  1.0
  O  O84  1  0.73482000  0.17387000  0.71776000  1.0
  O  O85  1  0.73486000  0.21773000  0.60840000  1.0
