# generated using pymatgen
data_AgH5C7SO
_symmetry_space_group_name_H-M   'P 1'
_cell_length_a   5.63869000
_cell_length_b   7.54773000
_cell_length_c   31.91780000
_cell_angle_alpha   90.00000000
_cell_angle_beta   90.00000000
_cell_angle_gamma   90.00000000
_symmetry_Int_Tables_number   1
_chemical_formula_structural   AgH5C7SO
_chemical_formula_sum   'Ag8 H40 C56 S8 O8'
_cell_volume   1358.39953430
_cell_formula_units_Z   8
loop_
 _symmetry_equiv_pos_site_id
 _symmetry_equiv_pos_as_xyz
  1  'x, y, z'
loop_
 _atom_site_type_symbol
 _atom_site_label
 _atom_site_symmetry_multiplicity
 _atom_site_fract_x
 _atom_site_fract_y
 _atom_site_fract_z
 _atom_site_occupancy
  Ag  Ag0  1  0.00026000  0.80937000  0.23610000  1.0
  Ag  Ag1  1  0.49974000  0.19064000  0.73610000  1.0
  Ag  Ag2  1  0.99976000  0.30936000  0.26390000  1.0
  Ag  Ag3  1  0.50025000  0.69064000  0.76390000  1.0
  Ag  Ag4  1  0.99974000  0.19063000  0.76390000  1.0
  Ag  Ag5  1  0.50025000  0.80937000  0.26390000  1.0
  Ag  Ag6  1  0.00025000  0.69064000  0.73610000  1.0
  Ag  Ag7  1  0.49976000  0.30936000  0.23610000  1.0
  H  H8  1  0.29854000  0.66674000  0.14183000  1.0
  H  H9  1  0.20147000  0.33324000  0.64183000  1.0
  H  H10  1  0.70145000  0.16675000  0.35817000  1.0
  H  H11  1  0.79855000  0.83325000  0.85817000  1.0
  H  H12  1  0.70145000  0.33325000  0.85817000  1.0
  H  H13  1  0.79854000  0.66676000  0.35817000  1.0
  H  H14  1  0.29854000  0.83325000  0.64183000  1.0
  H  H15  1  0.20143000  0.16676000  0.14183000  1.0
  H  H16  1  0.38577000  0.77435000  0.06989000  1.0
  H  H17  1  0.11426000  0.22565000  0.56989000  1.0
  H  H18  1  0.61425000  0.27435000  0.43011000  1.0
  H  H19  1  0.88576000  0.72566000  0.93011000  1.0
  H  H20  1  0.61424000  0.22565000  0.93011000  1.0
  H  H21  1  0.88575000  0.77435000  0.43011000  1.0
  H  H22  1  0.38575000  0.72565000  0.56989000  1.0
  H  H23  1  0.11424000  0.27435000  0.06989000  1.0
  H  H24  1  0.10178000  0.71431000  0.01179000  1.0
  H  H25  1  0.39823000  0.28570000  0.51179000  1.0
  H  H26  1  0.89824000  0.21430000  0.48821000  1.0
  H  H27  1  0.60178000  0.78569000  0.98821000  1.0
  H  H28  1  0.89823000  0.28570000  0.98821000  1.0
  H  H29  1  0.60176000  0.71430000  0.48821000  1.0
  H  H30  1  0.10177000  0.78569000  0.51179000  1.0
  H  H31  1  0.39822000  0.21431000  0.01179000  1.0
  H  H32  1  0.72548000  0.55156000  0.02638000  1.0
  H  H33  1  0.77454000  0.44845000  0.52638000  1.0
  H  H34  1  0.27454000  0.05154000  0.47362000  1.0
  H  H35  1  0.22548000  0.94844000  0.97362000  1.0
  H  H36  1  0.27453000  0.44845000  0.97362000  1.0
  H  H37  1  0.22547000  0.55154000  0.47362000  1.0
  H  H38  1  0.72547000  0.94845000  0.52638000  1.0
  H  H39  1  0.77451000  0.05156000  0.02638000  1.0
  H  H40  1  0.63568000  0.45080000  0.09895000  1.0
  H  H41  1  0.86432000  0.54920000  0.59895000  1.0
  H  H42  1  0.36431000  0.95079000  0.40105000  1.0
  H  H43  1  0.13569000  0.04918000  0.90105000  1.0
  H  H44  1  0.36431000  0.54921000  0.90105000  1.0
  H  H45  1  0.13569000  0.45079000  0.40105000  1.0
  H  H46  1  0.63568000  0.04921000  0.59895000  1.0
  H  H47  1  0.86429000  0.95080000  0.09895000  1.0
  C  C48  1  0.89711000  0.48389000  0.16705000  1.0
  C  C49  1  0.60291000  0.51611000  0.66704000  1.0
  C  C50  1  0.10289000  0.98389000  0.33295000  1.0
  C  C51  1  0.39710000  0.01611000  0.83295000  1.0
  C  C52  1  0.10288000  0.51611000  0.83295000  1.0
  C  C53  1  0.39711000  0.48389000  0.33295000  1.0
  C  C54  1  0.89709000  0.01611000  0.66705000  1.0
  C  C55  1  0.60289000  0.98388000  0.16704000  1.0
  C  C56  1  0.96089000  0.55297000  0.12479000  1.0
  C  C57  1  0.53913000  0.44703000  0.62479000  1.0
  C  C58  1  0.03911000  0.05296000  0.37521000  1.0
  C  C59  1  0.46089000  0.94702000  0.87521000  1.0
  C  C60  1  0.03911000  0.44703000  0.87521000  1.0
  C  C61  1  0.46088000  0.55297000  0.37521000  1.0
  C  C62  1  0.96087000  0.94704000  0.62479000  1.0
  C  C63  1  0.53910000  0.05297000  0.12479000  1.0
  C  C64  1  0.17272000  0.64377000  0.11647000  1.0
  C  C65  1  0.32731000  0.35622000  0.61647000  1.0
  C  C66  1  0.82729000  0.14377000  0.38353000  1.0
  C  C67  1  0.67271000  0.85621000  0.88353000  1.0
  C  C68  1  0.82730000  0.35622000  0.88353000  1.0
  C  C69  1  0.67270000  0.64378000  0.38353000  1.0
  C  C70  1  0.17270000  0.85623000  0.61647000  1.0
  C  C71  1  0.32728000  0.14378000  0.11647000  1.0
  C  C72  1  0.22170000  0.70278000  0.07600000  1.0
  C  C73  1  0.27833000  0.29722000  0.57600000  1.0
  C  C74  1  0.77832000  0.20278000  0.42400000  1.0
  C  C75  1  0.72169000  0.79721000  0.92400000  1.0
  C  C76  1  0.77832000  0.29722000  0.92399000  1.0
  C  C77  1  0.72167000  0.70279000  0.42400000  1.0
  C  C78  1  0.22168000  0.79722000  0.57601000  1.0
  C  C79  1  0.27830000  0.20278000  0.07601000  1.0
  C  C80  1  0.06156000  0.66977000  0.04350000  1.0
  C  C81  1  0.43847000  0.33023000  0.54350000  1.0
  C  C82  1  0.93846000  0.16977000  0.45649000  1.0
  C  C83  1  0.56156000  0.83022000  0.95650000  1.0
  C  C84  1  0.93845000  0.33023000  0.95649000  1.0
  C  C85  1  0.56153000  0.66977000  0.45649000  1.0
  C  C86  1  0.06154000  0.83024000  0.54351000  1.0
  C  C87  1  0.43844000  0.16978000  0.04351000  1.0
  C  C88  1  0.85036000  0.57902000  0.05164000  1.0
  C  C89  1  0.64966000  0.42099000  0.55164000  1.0
  C  C90  1  0.14965000  0.07901000  0.44836000  1.0
  C  C91  1  0.35036000  0.92098000  0.94836000  1.0
  C  C92  1  0.14964000  0.42099000  0.94836000  1.0
  C  C93  1  0.35034000  0.57901000  0.44836000  1.0
  C  C94  1  0.85036000  0.92100000  0.55164000  1.0
  C  C95  1  0.64963000  0.07902000  0.05164000  1.0
  C  C96  1  0.79929000  0.52171000  0.09207000  1.0
  C  C97  1  0.70073000  0.47830000  0.59207000  1.0
  C  C98  1  0.20072000  0.02170000  0.40793000  1.0
  C  C99  1  0.29929000  0.97829000  0.90793000  1.0
  C  C100  1  0.20070000  0.47831000  0.90793000  1.0
  C  C101  1  0.29928000  0.52169000  0.40793000  1.0
  C  C102  1  0.79928000  0.97831000  0.59207000  1.0
  C  C103  1  0.70069000  0.02170000  0.09207000  1.0
  S  S104  1  0.10634000  0.51651000  0.20817000  1.0
  S  S105  1  0.39367000  0.48348000  0.70817000  1.0
  S  S106  1  0.89365000  0.01651000  0.29183000  1.0
  S  S107  1  0.60633000  0.98349000  0.79184000  1.0
  S  S108  1  0.89365000  0.48349000  0.79183000  1.0
  S  S109  1  0.60634000  0.51652000  0.29183000  1.0
  S  S110  1  0.10632000  0.98349000  0.70817000  1.0
  S  S111  1  0.39367000  0.01651000  0.20817000  1.0
  O  O112  1  0.70820000  0.40281000  0.17183000  1.0
  O  O113  1  0.79182000  0.59719000  0.67183000  1.0
  O  O114  1  0.29180000  0.90281000  0.32817000  1.0
  O  O115  1  0.20818000  0.09718000  0.82818000  1.0
  O  O116  1  0.29181000  0.59719000  0.82817000  1.0
  O  O117  1  0.20820000  0.40282000  0.32817000  1.0
  O  O118  1  0.70817000  0.09718000  0.67183000  1.0
  O  O119  1  0.79181000  0.90280000  0.17183000  1.0
