# generated using pymatgen
data_CuP2H12C13(NO3)2
_symmetry_space_group_name_H-M   'P 1'
_cell_length_a   4.87016000
_cell_length_b   11.25400000
_cell_length_c   14.42520294
_cell_angle_alpha   95.22706901
_cell_angle_beta   99.71612989
_cell_angle_gamma   102.47410000
_symmetry_Int_Tables_number   1
_chemical_formula_structural   CuP2H12C13(NO3)2
_chemical_formula_sum   'Cu2 P4 H24 C26 N4 O12'
_cell_volume   754.17797371
_cell_formula_units_Z   2
loop_
 _symmetry_equiv_pos_site_id
 _symmetry_equiv_pos_as_xyz
  1  'x, y, z'
loop_
 _atom_site_type_symbol
 _atom_site_label
 _atom_site_symmetry_multiplicity
 _atom_site_fract_x
 _atom_site_fract_y
 _atom_site_fract_z
 _atom_site_occupancy
  Cu  Cu0  1  0.82664000  0.56557000  0.55146000  1.0
  Cu  Cu1  1  0.79031000  0.06530000  0.05136000  1.0
  P  P2  1  0.29180000  0.56919000  0.39999000  1.0
  P  P3  1  0.17724000  0.06931000  0.89990000  1.0
  P  P4  1  0.66899000  0.81107000  0.50417000  1.0
  P  P5  1  0.14570000  0.31100000  0.00443000  1.0
  H  H6  1  0.04693000  0.48348000  0.26141000  1.0
  H  H7  1  0.19917000  0.98387000  0.76137000  1.0
  H  H8  1  0.14017000  0.88493000  0.50182000  1.0
  H  H9  1  0.74526000  0.38469000  0.00223000  1.0
  H  H10  1  0.41725000  0.76231000  0.34136000  1.0
  H  H11  1  0.18622000  0.26259000  0.84157000  1.0
  H  H12  1  0.71416000  0.69009000  0.36561000  1.0
  H  H13  1  0.84136000  0.19036000  0.86574000  1.0
  H  H14  1  0.22323000  0.79527000  0.67856000  1.0
  H  H15  1  0.75129000  0.29498000  0.17872000  1.0
  H  H16  1  0.66847000  0.82912000  0.80567000  1.0
  H  H17  1  0.46725000  0.32891000  0.30589000  1.0
  H  H18  1  0.85263000  0.64657000  0.85180000  1.0
  H  H19  1  0.14660000  0.14642000  0.35195000  1.0
  H  H20  1  0.09897000  0.08827000  0.59794000  1.0
  H  H21  1  0.08639000  0.58823000  0.09749000  1.0
  H  H22  1  0.66418000  0.09271000  0.48439000  1.0
  H  H23  1  0.41234000  0.59245000  0.98408000  1.0
  H  H24  1  0.53653000  0.29829000  0.46355000  1.0
  H  H25  1  0.72476000  0.79806000  0.96319000  1.0
  H  H26  1  0.53303000  0.21255000  0.72791000  1.0
  H  H27  1  0.90677000  0.71263000  0.22756000  1.0
  H  H28  1  0.79303000  0.41192000  0.82220000  1.0
  H  H29  1  0.94122000  0.91189000  0.32217000  1.0
  C  C30  1  0.52999000  0.71309000  0.39148000  1.0
  C  C31  1  0.07433000  0.21328000  0.89163000  1.0
  C  C32  1  0.31170000  0.71957000  0.70160000  1.0
  C  C33  1  0.61015000  0.21932000  0.20173000  1.0
  C  C34  1  0.55789000  0.73631000  0.77283000  1.0
  C  C35  1  0.45214000  0.23612000  0.27302000  1.0
  C  C36  1  0.66109000  0.63580000  0.79712000  1.0
  C  C37  1  0.27265000  0.13564000  0.29726000  1.0
  C  C38  1  0.51947000  0.51748000  0.74923000  1.0
  C  C39  1  0.24764000  0.01734000  0.24923000  1.0
  C  C40  1  0.27418000  0.50993000  0.67877000  1.0
  C  C41  1  0.41482000  0.00974000  0.17873000  1.0
  C  C42  1  0.11855000  0.39453000  0.62675000  1.0
  C  C43  1  0.40273000  0.89433000  0.12662000  1.0
  C  C44  1  0.21012000  0.28618000  0.64369000  1.0
  C  C45  1  0.21944000  0.78608000  0.14345000  1.0
  C  C46  1  0.04183000  0.17563000  0.58958000  1.0
  C  C47  1  0.22287000  0.67554000  0.08926000  1.0
  C  C48  1  0.79936000  0.17802000  0.52453000  1.0
  C  C49  1  0.40263000  0.67784000  0.02420000  1.0
  C  C50  1  0.72562000  0.29055000  0.51267000  1.0
  C  C51  1  0.57720000  0.79032000  0.01236000  1.0
  C  C52  1  0.46153000  0.29597000  0.71477000  1.0
  C  C53  1  0.04895000  0.79599000  0.21455000  1.0
  C  C54  1  0.60850000  0.40657000  0.76605000  1.0
  C  C55  1  0.06416000  0.90654000  0.26597000  1.0
  N  N56  1  0.17297000  0.60914000  0.65667000  1.0
  N  N57  1  0.59318000  0.10889000  0.15669000  1.0
  N  N58  1  0.88271000  0.39575000  0.56212000  1.0
  N  N59  1  0.57500000  0.89549000  0.06195000  1.0
  O  O60  1  0.44817000  0.49752000  0.46753000  1.0
  O  O61  1  0.01629000  0.99725000  0.96714000  1.0
  O  O62  1  0.00574000  0.58640000  0.41717000  1.0
  O  O63  1  0.49767000  0.08655000  0.91723000  1.0
  O  O64  1  0.24397000  0.49308000  0.29411000  1.0
  O  O65  1  0.04397000  0.99375000  0.79378000  1.0
  O  O66  1  0.76532000  0.73035000  0.57776000  1.0
  O  O67  1  0.04342000  0.22983000  0.07790000  1.0
  O  O68  1  0.45593000  0.88215000  0.52930000  1.0
  O  O69  1  0.45456000  0.38253000  0.02963000  1.0
  O  O70  1  0.94319000  0.90674000  0.48696000  1.0
  O  O71  1  0.94934000  0.40648000  0.98748000  1.0
