# generated using pymatgen
data_ZnH17C20BrN2O5
_symmetry_space_group_name_H-M   'P 1'
_cell_length_a   7.95578000
_cell_length_b   9.35632000
_cell_length_c   14.50260000
_cell_angle_alpha   107.21100000
_cell_angle_beta   90.58690000
_cell_angle_gamma   111.80300000
_symmetry_Int_Tables_number   1
_chemical_formula_structural   ZnH17C20BrN2O5
_chemical_formula_sum   'Zn2 H34 C40 Br2 N4 O10'
_cell_volume   948.59801577
_cell_formula_units_Z   2
loop_
 _symmetry_equiv_pos_site_id
 _symmetry_equiv_pos_as_xyz
  1  'x, y, z'
loop_
 _atom_site_type_symbol
 _atom_site_label
 _atom_site_symmetry_multiplicity
 _atom_site_fract_x
 _atom_site_fract_y
 _atom_site_fract_z
 _atom_site_occupancy
  Zn  Zn0  1  0.08126000  0.32033000  0.47280000  1.0
  Zn  Zn1  1  0.91873000  0.67967000  0.52720000  1.0
  H  H2  1  0.25794000  0.20985000  0.33598000  1.0
  H  H3  1  0.74206000  0.79015000  0.66402000  1.0
  H  H4  1  0.37456000  0.26297000  0.44088000  1.0
  H  H5  1  0.62543000  0.73703000  0.55912000  1.0
  H  H6  1  0.60120000  0.90034000  0.47093000  1.0
  H  H7  1  0.39879000  0.09965000  0.52907000  1.0
  H  H8  1  0.51657000  0.94207000  0.18932000  1.0
  H  H9  1  0.48343000  0.05793000  0.81067000  1.0
  H  H10  1  0.12660000  0.54638000  0.26859000  1.0
  H  H11  1  0.87340000  0.45361000  0.73140000  1.0
  H  H12  1  0.94253000  0.09319000  0.58098000  1.0
  H  H13  1  0.05746000  0.90680000  0.41903000  1.0
  H  H14  1  0.00790000  0.07150000  0.74140000  1.0
  H  H15  1  0.99209000  0.92851000  0.25861000  1.0
  H  H16  1  0.42940000  0.55566000  0.81831000  1.0
  H  H17  1  0.57060000  0.44434000  0.18169000  1.0
  H  H18  1  0.34340000  0.55957000  0.65238000  1.0
  H  H19  1  0.65660000  0.44043000  0.34761000  1.0
  H  H20  1  0.25850000  0.41498000  0.94923000  1.0
  H  H21  1  0.74150000  0.58502000  0.05077000  1.0
  H  H22  1  0.42546000  0.34159000  0.90587000  1.0
  H  H23  1  0.57454000  0.65841000  0.09413000  1.0
  H  H24  1  0.02425000  0.11985000  0.89654000  1.0
  H  H25  1  0.97575000  0.88015000  0.10346000  1.0
  H  H26  1  0.20660000  0.05592000  0.87020000  1.0
  H  H27  1  0.79340000  0.94408000  0.12980000  1.0
  H  H28  1  0.03492000  0.27208000  0.23674000  1.0
  H  H29  1  0.96510000  0.72793000  0.76327000  1.0
  H  H30  1  0.98406000  0.25248000  0.06219000  1.0
  H  H31  1  0.01596000  0.74754000  0.93782000  1.0
  H  H32  1  0.43568000  0.10250000  0.01262000  1.0
  H  H33  1  0.56432000  0.89750000  0.98738000  1.0
  H  H34  1  0.47723000  0.14054000  0.19121000  1.0
  H  H35  1  0.52277000  0.85946000  0.80879000  1.0
  C  C36  1  0.35831000  0.71301000  0.37659000  1.0
  C  C37  1  0.64169000  0.28698000  0.62340000  1.0
  C  C38  1  0.51773000  0.85516000  0.40053000  1.0
  C  C39  1  0.48227000  0.14483000  0.59947000  1.0
  C  C40  1  0.57139000  0.93998000  0.33384000  1.0
  C  C41  1  0.42861000  0.06002000  0.66616000  1.0
  C  C42  1  0.46864000  0.87857000  0.24170000  1.0
  C  C43  1  0.53136000  0.12143000  0.75830000  1.0
  C  C44  1  0.31156000  0.73748000  0.21896000  1.0
  C  C45  1  0.68845000  0.26252000  0.78104000  1.0
  C  C46  1  0.25183000  0.65497000  0.28545000  1.0
  C  C47  1  0.74817000  0.34502000  0.71455000  1.0
  C  C48  1  0.30130000  0.61499000  0.44487000  1.0
  C  C49  1  0.69869000  0.38501000  0.55513000  1.0
  C  C50  1  0.74166000  0.09393000  0.35474000  1.0
  C  C51  1  0.25834000  0.90607000  0.64526000  1.0
  C  C52  1  0.04940000  0.19371000  0.63561000  1.0
  C  C53  1  0.95060000  0.80628000  0.36439000  1.0
  C  C54  1  0.08748000  0.18307000  0.72650000  1.0
  C  C55  1  0.91252000  0.81693000  0.27350000  1.0
  C  C56  1  0.22621000  0.31325000  0.79509000  1.0
  C  C57  1  0.77379000  0.68676000  0.20491000  1.0
  C  C58  1  0.31978000  0.45090000  0.76778000  1.0
  C  C59  1  0.68022000  0.54910000  0.23222000  1.0
  C  C60  1  0.27434000  0.45468000  0.67627000  1.0
  C  C61  1  0.72566000  0.54531000  0.32373000  1.0
  C  C62  1  0.27772000  0.31299000  0.89518000  1.0
  C  C63  1  0.72228000  0.68702000  0.10482000  1.0
  C  C64  1  0.17115000  0.15466000  0.91618000  1.0
  C  C65  1  0.82885000  0.84534000  0.08382000  1.0
  C  C66  1  0.12414000  0.23943000  0.18511000  1.0
  C  C67  1  0.87588000  0.76058000  0.81489000  1.0
  C  C68  1  0.09510000  0.22595000  0.08761000  1.0
  C  C69  1  0.90491000  0.77406000  0.91240000  1.0
  C  C70  1  0.20427000  0.17334000  0.02194000  1.0
  C  C71  1  0.79574000  0.82667000  0.97806000  1.0
  C  C72  1  0.34420000  0.14141000  0.05988000  1.0
  C  C73  1  0.65580000  0.85859000  0.94012000  1.0
  C  C74  1  0.36653000  0.16018000  0.15881000  1.0
  C  C75  1  0.63347000  0.83982000  0.84119000  1.0
  Br  Br76  1  0.17798000  0.65382000  0.09081000  1.0
  Br  Br77  1  0.82202000  0.34618000  0.90919000  1.0
  N  N78  1  0.14111000  0.32692000  0.61056000  1.0
  N  N79  1  0.85888000  0.67307000  0.38944000  1.0
  N  N80  1  0.25732000  0.20622000  0.22047000  1.0
  N  N81  1  0.74269000  0.79378000  0.77953000  1.0
  O  O82  1  0.13704000  0.50325000  0.42206000  1.0
  O  O83  1  0.86296000  0.49675000  0.57794000  1.0
  O  O84  1  0.40991000  0.63952000  0.51649000  1.0
  O  O85  1  0.59008000  0.36048000  0.48352000  1.0
  O  O86  1  0.83912000  0.13919000  0.43812000  1.0
  O  O87  1  0.16088000  0.86081000  0.56188000  1.0
  O  O88  1  0.77811000  0.16406000  0.29186000  1.0
  O  O89  1  0.22189000  0.83593000  0.70814000  1.0
  O  O90  1  0.24616000  0.20882000  0.40581000  1.0
  O  O91  1  0.75384000  0.79117000  0.59419000  1.0
