# generated using pymatgen
data_ZnH4C13N(ClO2)2
_symmetry_space_group_name_H-M   'P 1'
_cell_length_a   11.11870000
_cell_length_b   14.83660000
_cell_length_c   16.04910000
_cell_angle_alpha   89.74830000
_cell_angle_beta   91.76420000
_cell_angle_gamma   89.96040000
_symmetry_Int_Tables_number   1
_chemical_formula_structural   ZnH4C13N(ClO2)2
_chemical_formula_sum   'Zn2 H8 C26 N2 Cl4 O8'
_cell_volume   2646.23760355
_cell_formula_units_Z   2
loop_
 _symmetry_equiv_pos_site_id
 _symmetry_equiv_pos_as_xyz
  1  'x, y, z'
loop_
 _atom_site_type_symbol
 _atom_site_label
 _atom_site_symmetry_multiplicity
 _atom_site_fract_x
 _atom_site_fract_y
 _atom_site_fract_z
 _atom_site_occupancy
  Zn  Zn0  1  0.49995000  0.59026000  0.49972000  1.0
  Zn  Zn1  1  0.50000000  0.40295000  0.50022000  1.0
  H  H2  1  0.88656000  0.37879000  0.48335000  1.0
  H  H3  1  0.11332000  0.37845000  0.51613000  1.0
  H  H4  1  0.49327000  0.64815000  0.92131000  1.0
  H  H5  1  0.52410000  0.64835000  0.07579000  1.0
  H  H6  1  0.50632000  0.35821000  0.07859000  1.0
  H  H7  1  0.47682000  0.35792000  0.92405000  1.0
  H  H8  1  0.37973000  0.07980000  0.60391000  1.0
  H  H9  1  0.62031000  0.08110000  0.39612000  1.0
  C  C10  1  0.46383000  0.49770000  0.65859000  1.0
  C  C11  1  0.50002000  0.18525000  0.50025000  1.0
  C  C12  1  0.27044000  0.49687000  0.46982000  1.0
  C  C13  1  0.72950000  0.49671000  0.53011000  1.0
  C  C14  1  0.93530000  0.43942000  0.50328000  1.0
  C  C15  1  0.06461000  0.43937000  0.49631000  1.0
  C  C16  1  0.86453000  0.50382000  0.53566000  1.0
  C  C17  1  0.13540000  0.50416000  0.46421000  1.0
  C  C18  1  0.51350000  0.58507000  0.04215000  1.0
  C  C19  1  0.49614000  0.58495000  0.95617000  1.0
  C  C20  1  0.51720000  0.50328000  0.08749000  1.0
  C  C21  1  0.53603000  0.49816000  0.34133000  1.0
  C  C22  1  0.48302000  0.50301000  0.91239000  1.0
  C  C23  1  0.50362000  0.42136000  0.04369000  1.0
  C  C24  1  0.48696000  0.42121000  0.95775000  1.0
  C  C25  1  0.53093000  0.50274000  0.17550000  1.0
  C  C26  1  0.46914000  0.50220000  0.82440000  1.0
  C  C27  1  0.46118000  0.49971000  0.74852000  1.0
  C  C28  1  0.53881000  0.50038000  0.25141000  1.0
  C  C29  1  0.43201000  0.94936000  0.55843000  1.0
  C  C30  1  0.56798000  0.95013000  0.44115000  1.0
  C  C31  1  0.50002000  0.90200000  0.49971000  1.0
  C  C32  1  0.56817000  0.04391000  0.44112000  1.0
  C  C33  1  0.43186000  0.04314000  0.55880000  1.0
  C  C34  1  0.50001000  0.08935000  0.50004000  1.0
  C  C35  1  0.49994000  0.80661000  0.49952000  1.0
  N  N36  1  0.50006000  0.26343000  0.50040000  1.0
  N  N37  1  0.49990000  0.72845000  0.49945000  1.0
  Cl  Cl38  1  0.92126000  0.59879000  0.58352000  1.0
  Cl  Cl39  1  0.07866000  0.59978000  0.41668000  1.0
  Cl  Cl40  1  0.34992000  0.89076000  0.62881000  1.0
  Cl  Cl41  1  0.65012000  0.89239000  0.37061000  1.0
  O  O42  1  0.44376000  0.57179000  0.62026000  1.0
  O  O43  1  0.55624000  0.57206000  0.37928000  1.0
  O  O44  1  0.48856000  0.42172000  0.62612000  1.0
  O  O45  1  0.51112000  0.42212000  0.37420000  1.0
  O  O46  1  0.32883000  0.56893000  0.45685000  1.0
  O  O47  1  0.67117000  0.56881000  0.54271000  1.0
  O  O48  1  0.31474000  0.42017000  0.48924000  1.0
  O  O49  1  0.68517000  0.42014000  0.51102000  1.0
