# generated using pymatgen
data_CdH8(C7O2)2
_symmetry_space_group_name_H-M   'P 1'
_cell_length_a   8.74632000
_cell_length_b   24.62370000
_cell_length_c   46.56860000
_cell_angle_alpha   90.00020000
_cell_angle_beta   90.00030000
_cell_angle_gamma   89.99980000
_symmetry_Int_Tables_number   1
_chemical_formula_structural   CdH8(C7O2)2
_chemical_formula_sum   'Cd12 H96 C168 O48'
_cell_volume   10029.32848942
_cell_formula_units_Z   12
loop_
 _symmetry_equiv_pos_site_id
 _symmetry_equiv_pos_as_xyz
  1  'x, y, z'
loop_
 _atom_site_type_symbol
 _atom_site_label
 _atom_site_symmetry_multiplicity
 _atom_site_fract_x
 _atom_site_fract_y
 _atom_site_fract_z
 _atom_site_occupancy
  Cd  Cd0  1  0.08757000  0.53773000  0.15088000  1.0
  Cd  Cd1  1  0.58758000  0.96227000  0.34912000  1.0
  Cd  Cd2  1  0.41242000  0.46226000  0.15088000  1.0
  Cd  Cd3  1  0.91243000  0.03773000  0.34912000  1.0
  Cd  Cd4  1  0.91241000  0.46227000  0.84912000  1.0
  Cd  Cd5  1  0.41241000  0.03773000  0.65088000  1.0
  Cd  Cd6  1  0.58758000  0.53773000  0.84912000  1.0
  Cd  Cd7  1  0.08758000  0.96226000  0.65088000  1.0
  Cd  Cd8  1  0.74999000  0.50000000  0.18249000  1.0
  Cd  Cd9  1  0.25001000  0.00000000  0.31751000  1.0
  Cd  Cd10  1  0.25000000  0.50000000  0.81751000  1.0
  Cd  Cd11  1  0.75000000  0.00000000  0.68249000  1.0
  H  H12  1  0.00595000  0.45328000  0.24830000  1.0
  H  H13  1  0.03164000  0.37788000  0.28351000  1.0
  H  H14  1  0.22829000  0.27745000  0.21728000  1.0
  H  H15  1  0.21259000  0.35427000  0.18304000  1.0
  H  H16  1  0.94115000  0.29569000  0.29756000  1.0
  H  H17  1  0.94126000  0.20979000  0.32568000  1.0
  H  H18  1  0.34141000  0.15628000  0.28060000  1.0
  H  H19  1  0.34779000  0.24261000  0.25331000  1.0
  H  H20  1  0.54569000  0.54846000  0.08704000  1.0
  H  H21  1  0.54377000  0.54822000  0.03373000  1.0
  H  H22  1  0.83633000  0.41803000  0.99420000  1.0
  H  H23  1  0.84063000  0.41910000  0.94070000  1.0
  H  H24  1  0.50595000  0.04672000  0.25170000  1.0
  H  H25  1  0.53164000  0.12211000  0.21649000  1.0
  H  H26  1  0.72829000  0.22256000  0.28272000  1.0
  H  H27  1  0.71259000  0.14573000  0.31696000  1.0
  H  H28  1  0.44116000  0.20431000  0.20244000  1.0
  H  H29  1  0.44126000  0.29021000  0.17432000  1.0
  H  H30  1  0.84141000  0.34372000  0.21940000  1.0
  H  H31  1  0.84779000  0.25738000  0.24669000  1.0
  H  H32  1  0.04568000  0.95154000  0.41296000  1.0
  H  H33  1  0.04378000  0.95178000  0.46627000  1.0
  H  H34  1  0.33633000  0.08197000  0.50580000  1.0
  H  H35  1  0.34063000  0.08090000  0.55930000  1.0
  H  H36  1  0.49404000  0.54672000  0.24830000  1.0
  H  H37  1  0.46836000  0.62212000  0.28351000  1.0
  H  H38  1  0.27171000  0.72256000  0.21728000  1.0
  H  H39  1  0.28741000  0.64572000  0.18304000  1.0
  H  H40  1  0.55885000  0.70431000  0.29756000  1.0
  H  H41  1  0.55874000  0.79021000  0.32568000  1.0
  H  H42  1  0.15859000  0.84372000  0.28060000  1.0
  H  H43  1  0.15221000  0.75739000  0.25331000  1.0
  H  H44  1  0.95433000  0.45154000  0.08704000  1.0
  H  H45  1  0.95623000  0.45178000  0.03373000  1.0
  H  H46  1  0.66368000  0.58197000  0.99420000  1.0
  H  H47  1  0.65939000  0.58090000  0.94070000  1.0
  H  H48  1  0.99404000  0.95328000  0.25169000  1.0
  H  H49  1  0.96836000  0.87788000  0.21649000  1.0
  H  H50  1  0.77170000  0.77745000  0.28272000  1.0
  H  H51  1  0.78740000  0.85428000  0.31695000  1.0
  H  H52  1  0.05885000  0.79569000  0.20244000  1.0
  H  H53  1  0.05873000  0.70979000  0.17432000  1.0
  H  H54  1  0.65859000  0.65628000  0.21940000  1.0
  H  H55  1  0.65222000  0.74261000  0.24669000  1.0
  H  H56  1  0.45432000  0.04846000  0.41296000  1.0
  H  H57  1  0.45623000  0.04821000  0.46627000  1.0
  H  H58  1  0.16367000  0.91803000  0.50580000  1.0
  H  H59  1  0.15938000  0.91910000  0.55930000  1.0
  H  H60  1  0.99406000  0.54673000  0.75169000  1.0
  H  H61  1  0.96837000  0.62212000  0.71649000  1.0
  H  H62  1  0.77171000  0.72255000  0.78272000  1.0
  H  H63  1  0.78743000  0.64572000  0.81696000  1.0
  H  H64  1  0.05885000  0.70431000  0.70244000  1.0
  H  H65  1  0.05874000  0.79021000  0.67432000  1.0
  H  H66  1  0.65859000  0.84372000  0.71940000  1.0
  H  H67  1  0.65221000  0.75738000  0.74669000  1.0
  H  H68  1  0.45432000  0.45154000  0.91296000  1.0
  H  H69  1  0.45623000  0.45178000  0.96627000  1.0
  H  H70  1  0.16367000  0.58197000  0.00580000  1.0
  H  H71  1  0.15939000  0.58091000  0.05930000  1.0
  H  H72  1  0.49406000  0.95328000  0.74830000  1.0
  H  H73  1  0.46836000  0.87789000  0.78351000  1.0
  H  H74  1  0.27171000  0.77744000  0.71728000  1.0
  H  H75  1  0.28743000  0.85427000  0.68304000  1.0
  H  H76  1  0.55885000  0.79569000  0.79756000  1.0
  H  H77  1  0.55874000  0.70979000  0.82568000  1.0
  H  H78  1  0.15858000  0.65628000  0.78060000  1.0
  H  H79  1  0.15220000  0.74262000  0.75331000  1.0
  H  H80  1  0.95433000  0.04846000  0.58704000  1.0
  H  H81  1  0.95623000  0.04822000  0.53373000  1.0
  H  H82  1  0.66366000  0.91803000  0.49420000  1.0
  H  H83  1  0.65938000  0.91910000  0.44070000  1.0
  H  H84  1  0.50595000  0.45328000  0.75170000  1.0
  H  H85  1  0.53164000  0.37788000  0.71649000  1.0
  H  H86  1  0.72830000  0.27745000  0.78272000  1.0
  H  H87  1  0.71259000  0.35428000  0.81696000  1.0
  H  H88  1  0.44116000  0.29569000  0.70244000  1.0
  H  H89  1  0.44126000  0.20979000  0.67432000  1.0
  H  H90  1  0.84140000  0.15628000  0.71940000  1.0
  H  H91  1  0.84778000  0.24261000  0.74669000  1.0
  H  H92  1  0.04568000  0.54846000  0.91296000  1.0
  H  H93  1  0.04377000  0.54822000  0.96627000  1.0
  H  H94  1  0.33633000  0.41803000  0.00580000  1.0
  H  H95  1  0.34063000  0.41911000  0.05930000  1.0
  H  H96  1  0.00594000  0.04672000  0.74831000  1.0
  H  H97  1  0.03163000  0.12212000  0.78351000  1.0
  H  H98  1  0.22829000  0.22255000  0.71728000  1.0
  H  H99  1  0.21259000  0.14572000  0.68304000  1.0
  H  H100  1  0.94115000  0.20430000  0.79756000  1.0
  H  H101  1  0.94125000  0.29021000  0.82568000  1.0
  H  H102  1  0.34139000  0.34373000  0.78060000  1.0
  H  H103  1  0.34778000  0.25739000  0.75331000  1.0
  H  H104  1  0.54568000  0.95154000  0.58704000  1.0
  H  H105  1  0.54377000  0.95178000  0.53373000  1.0
  H  H106  1  0.83633000  0.08197000  0.49420000  1.0
  H  H107  1  0.84063000  0.08090000  0.44070000  1.0
  C  C108  1  0.09190000  0.45315000  0.19241000  1.0
  C  C109  1  0.10794000  0.40848000  0.21354000  1.0
  C  C110  1  0.05618000  0.41464000  0.24188000  1.0
  C  C111  1  0.06958000  0.37211000  0.26141000  1.0
  C  C112  1  0.13269000  0.32193000  0.25302000  1.0
  C  C113  1  0.18318000  0.31634000  0.22446000  1.0
  C  C114  1  0.17297000  0.35899000  0.20507000  1.0
  C  C115  1  0.14142000  0.27476000  0.27254000  1.0
  C  C116  1  0.03095000  0.26567000  0.29402000  1.0
  C  C117  1  0.02961000  0.21749000  0.30969000  1.0
  C  C118  1  0.13868000  0.17708000  0.30429000  1.0
  C  C119  1  0.25470000  0.18722000  0.28423000  1.0
  C  C120  1  0.25643000  0.23539000  0.26875000  1.0
  C  C121  1  0.12722000  0.12215000  0.31799000  1.0
  C  C122  1  0.63498000  0.52746000  0.07508000  1.0
  C  C123  1  0.63570000  0.52770000  0.04526000  1.0
  C  C124  1  0.79977000  0.45423000  0.98259000  1.0
  C  C125  1  0.80090000  0.45435000  0.95272000  1.0
  C  C126  1  0.59190000  0.04685000  0.30759000  1.0
  C  C127  1  0.60794000  0.09152000  0.28646000  1.0
  C  C128  1  0.55618000  0.08536000  0.25812000  1.0
  C  C129  1  0.56958000  0.12788000  0.23859000  1.0
  C  C130  1  0.63270000  0.17807000  0.24698000  1.0
  C  C131  1  0.68319000  0.18366000  0.27554000  1.0
  C  C132  1  0.67297000  0.14102000  0.29493000  1.0
  C  C133  1  0.64143000  0.22524000  0.22746000  1.0
  C  C134  1  0.53096000  0.23433000  0.20598000  1.0
  C  C135  1  0.52962000  0.28250000  0.19031000  1.0
  C  C136  1  0.63869000  0.32292000  0.19571000  1.0
  C  C137  1  0.75470000  0.31278000  0.21577000  1.0
  C  C138  1  0.75643000  0.26461000  0.23125000  1.0
  C  C139  1  0.62722000  0.37785000  0.18201000  1.0
  C  C140  1  0.13498000  0.97254000  0.42492000  1.0
  C  C141  1  0.13570000  0.97229000  0.45474000  1.0
  C  C142  1  0.29977000  0.04577000  0.51741000  1.0
  C  C143  1  0.30090000  0.04565000  0.54728000  1.0
  C  C144  1  0.40809000  0.54685000  0.19242000  1.0
  C  C145  1  0.39205000  0.59152000  0.21354000  1.0
  C  C146  1  0.44382000  0.58535000  0.24188000  1.0
  C  C147  1  0.43042000  0.62789000  0.26141000  1.0
  C  C148  1  0.36730000  0.67807000  0.25302000  1.0
  C  C149  1  0.31681000  0.68366000  0.22446000  1.0
  C  C150  1  0.32702000  0.64101000  0.20507000  1.0
  C  C151  1  0.35858000  0.72525000  0.27254000  1.0
  C  C152  1  0.46904000  0.73433000  0.29402000  1.0
  C  C153  1  0.47039000  0.78251000  0.30969000  1.0
  C  C154  1  0.36131000  0.82293000  0.30429000  1.0
  C  C155  1  0.24530000  0.81279000  0.28423000  1.0
  C  C156  1  0.24357000  0.76461000  0.26875000  1.0
  C  C157  1  0.37279000  0.87785000  0.31799000  1.0
  C  C158  1  0.86503000  0.47254000  0.07508000  1.0
  C  C159  1  0.86431000  0.47230000  0.04526000  1.0
  C  C160  1  0.70024000  0.54577000  0.98259000  1.0
  C  C161  1  0.69911000  0.54565000  0.95272000  1.0
  C  C162  1  0.90810000  0.95315000  0.30758000  1.0
  C  C163  1  0.89205000  0.90848000  0.28646000  1.0
  C  C164  1  0.94382000  0.91465000  0.25812000  1.0
  C  C165  1  0.93042000  0.87211000  0.23859000  1.0
  C  C166  1  0.86731000  0.82193000  0.24698000  1.0
  C  C167  1  0.81681000  0.81634000  0.27554000  1.0
  C  C168  1  0.82702000  0.85899000  0.29492000  1.0
  C  C169  1  0.85858000  0.77475000  0.22746000  1.0
  C  C170  1  0.96904000  0.76566000  0.20598000  1.0
  C  C171  1  0.97038000  0.71749000  0.19031000  1.0
  C  C172  1  0.86131000  0.67708000  0.19571000  1.0
  C  C173  1  0.74530000  0.68722000  0.21577000  1.0
  C  C174  1  0.74357000  0.73539000  0.23125000  1.0
  C  C175  1  0.87277000  0.62215000  0.18201000  1.0
  C  C176  1  0.36502000  0.02746000  0.42492000  1.0
  C  C177  1  0.36431000  0.02770000  0.45474000  1.0
  C  C178  1  0.20024000  0.95423000  0.51741000  1.0
  C  C179  1  0.19911000  0.95434000  0.54728000  1.0
  C  C180  1  0.90811000  0.54685000  0.80758000  1.0
  C  C181  1  0.89206000  0.59152000  0.78646000  1.0
  C  C182  1  0.94383000  0.58536000  0.75812000  1.0
  C  C183  1  0.93043000  0.62789000  0.73859000  1.0
  C  C184  1  0.86731000  0.67807000  0.74698000  1.0
  C  C185  1  0.81681000  0.68366000  0.77554000  1.0
  C  C186  1  0.82704000  0.64101000  0.79492000  1.0
  C  C187  1  0.85858000  0.72525000  0.72746000  1.0
  C  C188  1  0.96904000  0.73433000  0.70598000  1.0
  C  C189  1  0.97038000  0.78251000  0.69031000  1.0
  C  C190  1  0.86131000  0.82292000  0.69571000  1.0
  C  C191  1  0.74530000  0.81278000  0.71577000  1.0
  C  C192  1  0.74357000  0.76461000  0.73125000  1.0
  C  C193  1  0.87278000  0.87785000  0.68201000  1.0
  C  C194  1  0.36502000  0.47254000  0.92492000  1.0
  C  C195  1  0.36431000  0.47230000  0.95474000  1.0
  C  C196  1  0.20024000  0.54577000  0.01741000  1.0
  C  C197  1  0.19911000  0.54566000  0.04728000  1.0
  C  C198  1  0.40810000  0.95315000  0.69242000  1.0
  C  C199  1  0.39206000  0.90848000  0.71354000  1.0
  C  C200  1  0.44383000  0.91464000  0.74188000  1.0
  C  C201  1  0.43042000  0.87212000  0.76141000  1.0
  C  C202  1  0.36730000  0.82194000  0.75302000  1.0
  C  C203  1  0.31681000  0.81634000  0.72446000  1.0
  C  C204  1  0.32703000  0.85898000  0.70508000  1.0
  C  C205  1  0.35857000  0.77476000  0.77255000  1.0
  C  C206  1  0.46903000  0.76567000  0.79402000  1.0
  C  C207  1  0.47038000  0.71750000  0.80969000  1.0
  C  C208  1  0.36131000  0.67708000  0.80429000  1.0
  C  C209  1  0.24529000  0.68722000  0.78423000  1.0
  C  C210  1  0.24355000  0.73540000  0.76876000  1.0
  C  C211  1  0.37278000  0.62215000  0.81799000  1.0
  C  C212  1  0.86502000  0.02746000  0.57508000  1.0
  C  C213  1  0.86431000  0.02770000  0.54526000  1.0
  C  C214  1  0.70024000  0.95423000  0.48259000  1.0
  C  C215  1  0.69911000  0.95435000  0.45272000  1.0
  C  C216  1  0.59189000  0.45315000  0.80758000  1.0
  C  C217  1  0.60794000  0.40848000  0.78646000  1.0
  C  C218  1  0.55618000  0.41464000  0.75812000  1.0
  C  C219  1  0.56958000  0.37211000  0.73859000  1.0
  C  C220  1  0.63269000  0.32193000  0.74698000  1.0
  C  C221  1  0.68318000  0.31634000  0.77554000  1.0
  C  C222  1  0.67297000  0.35899000  0.79493000  1.0
  C  C223  1  0.64142000  0.27475000  0.72746000  1.0
  C  C224  1  0.53096000  0.26567000  0.70598000  1.0
  C  C225  1  0.52961000  0.21750000  0.69031000  1.0
  C  C226  1  0.63868000  0.17708000  0.69571000  1.0
  C  C227  1  0.75470000  0.18721000  0.71577000  1.0
  C  C228  1  0.75643000  0.23539000  0.73125000  1.0
  C  C229  1  0.62721000  0.12215000  0.68201000  1.0
  C  C230  1  0.13498000  0.52746000  0.92492000  1.0
  C  C231  1  0.13569000  0.52770000  0.95474000  1.0
  C  C232  1  0.29976000  0.45423000  0.01741000  1.0
  C  C233  1  0.30090000  0.45435000  0.04728000  1.0
  C  C234  1  0.09189000  0.04684000  0.69242000  1.0
  C  C235  1  0.10795000  0.09152000  0.71354000  1.0
  C  C236  1  0.05617000  0.08535000  0.74188000  1.0
  C  C237  1  0.06958000  0.12789000  0.76141000  1.0
  C  C238  1  0.13269000  0.17807000  0.75302000  1.0
  C  C239  1  0.18319000  0.18365000  0.72446000  1.0
  C  C240  1  0.17297000  0.14101000  0.70508000  1.0
  C  C241  1  0.14142000  0.22525000  0.77254000  1.0
  C  C242  1  0.03095000  0.23433000  0.79402000  1.0
  C  C243  1  0.02961000  0.28250000  0.80969000  1.0
  C  C244  1  0.13868000  0.32292000  0.80429000  1.0
  C  C245  1  0.25469000  0.31279000  0.78423000  1.0
  C  C246  1  0.25642000  0.26461000  0.76875000  1.0
  C  C247  1  0.12720000  0.37785000  0.81799000  1.0
  C  C248  1  0.63499000  0.97254000  0.57508000  1.0
  C  C249  1  0.63570000  0.97230000  0.54526000  1.0
  C  C250  1  0.79977000  0.04577000  0.48259000  1.0
  C  C251  1  0.80090000  0.04566000  0.45272000  1.0
  C  C252  1  0.75000000  0.50000000  0.12199000  1.0
  C  C253  1  0.75000000  0.50000000  0.09023000  1.0
  C  C254  1  0.75000000  0.50000000  0.02982000  1.0
  C  C255  1  0.75000000  0.50000000  0.99813000  1.0
  C  C256  1  0.75000000  0.50000000  0.93749000  1.0
  C  C257  1  0.75001000  0.50000000  0.90532000  1.0
  C  C258  1  0.25000000  0.00000000  0.37801000  1.0
  C  C259  1  0.25000000  0.00000000  0.40977000  1.0
  C  C260  1  0.25001000  0.00000000  0.47018000  1.0
  C  C261  1  0.25000000  0.00000000  0.50187000  1.0
  C  C262  1  0.25000000  0.00000000  0.56251000  1.0
  C  C263  1  0.25001000  0.00000000  0.59468000  1.0
  C  C264  1  0.25000000  0.50000000  0.87801000  1.0
  C  C265  1  0.25000000  0.50000000  0.90977000  1.0
  C  C266  1  0.25000000  0.50000000  0.97018000  1.0
  C  C267  1  0.25000000  0.50000000  0.00187000  1.0
  C  C268  1  0.25000000  0.50001000  0.06251000  1.0
  C  C269  1  0.25001000  0.50000000  0.09467000  1.0
  C  C270  1  0.75001000  0.00000000  0.62199000  1.0
  C  C271  1  0.75000000  0.00000000  0.59023000  1.0
  C  C272  1  0.75000000  0.00000000  0.52982000  1.0
  C  C273  1  0.75000000  0.00000000  0.49813000  1.0
  C  C274  1  0.75000000  0.00000000  0.43749000  1.0
  C  C275  1  0.75001000  0.00000000  0.40533000  1.0
  O  O276  1  0.00912000  0.49466000  0.19832000  1.0
  O  O277  1  0.16127000  0.44960000  0.16819000  1.0
  O  O278  1  0.01799000  0.11464000  0.33577000  1.0
  O  O279  1  0.22674000  0.08743000  0.31008000  1.0
  O  O280  1  0.87318000  0.48878000  0.13570000  1.0
  O  O281  1  0.81464000  0.45984000  0.89291000  1.0
  O  O282  1  0.50913000  0.00535000  0.30167000  1.0
  O  O283  1  0.66127000  0.05040000  0.33181000  1.0
  O  O284  1  0.51800000  0.38536000  0.16423000  1.0
  O  O285  1  0.72674000  0.41257000  0.18993000  1.0
  O  O286  1  0.37318000  0.01122000  0.36430000  1.0
  O  O287  1  0.31462000  0.04015000  0.60709000  1.0
  O  O288  1  0.49087000  0.50534000  0.19833000  1.0
  O  O289  1  0.33872000  0.55040000  0.16819000  1.0
  O  O290  1  0.48200000  0.88536000  0.33577000  1.0
  O  O291  1  0.27328000  0.91257000  0.31007000  1.0
  O  O292  1  0.62682000  0.51122000  0.13570000  1.0
  O  O293  1  0.68538000  0.54016000  0.89291000  1.0
  O  O294  1  0.99089000  0.99465000  0.30167000  1.0
  O  O295  1  0.83873000  0.94961000  0.33181000  1.0
  O  O296  1  0.98198000  0.61463000  0.16422000  1.0
  O  O297  1  0.77326000  0.58743000  0.18993000  1.0
  O  O298  1  0.12682000  0.98878000  0.36430000  1.0
  O  O299  1  0.18539000  0.95984000  0.60709000  1.0
  O  O300  1  0.99088000  0.50535000  0.80167000  1.0
  O  O301  1  0.83873000  0.55039000  0.83181000  1.0
  O  O302  1  0.98200000  0.88536000  0.66423000  1.0
  O  O303  1  0.77327000  0.91257000  0.68993000  1.0
  O  O304  1  0.12682000  0.51122000  0.86430000  1.0
  O  O305  1  0.18539000  0.54016000  0.10709000  1.0
  O  O306  1  0.49088000  0.99465000  0.69833000  1.0
  O  O307  1  0.33874000  0.94960000  0.66819000  1.0
  O  O308  1  0.48199000  0.61464000  0.83577000  1.0
  O  O309  1  0.27326000  0.58743000  0.81007000  1.0
  O  O310  1  0.62682000  0.98878000  0.63570000  1.0
  O  O311  1  0.68538000  0.95985000  0.39291000  1.0
  O  O312  1  0.50911000  0.49466000  0.80167000  1.0
  O  O313  1  0.66126000  0.44961000  0.83181000  1.0
  O  O314  1  0.51798000  0.11464000  0.66423000  1.0
  O  O315  1  0.72672000  0.08743000  0.68993000  1.0
  O  O316  1  0.37318000  0.48878000  0.86430000  1.0
  O  O317  1  0.31462000  0.45985000  0.10708000  1.0
  O  O318  1  0.00911000  0.00534000  0.69833000  1.0
  O  O319  1  0.16126000  0.05039000  0.66819000  1.0
  O  O320  1  0.01797000  0.38536000  0.83577000  1.0
  O  O321  1  0.22672000  0.41257000  0.81008000  1.0
  O  O322  1  0.87319000  0.01121000  0.63570000  1.0
  O  O323  1  0.81464000  0.04016000  0.39292000  1.0
