# generated using pymatgen
data_Sm2H11C11NO16
_symmetry_space_group_name_H-M   'P 1'
_cell_length_a   9.72529000
_cell_length_b   9.83792000
_cell_length_c   12.18190000
_cell_angle_alpha   70.78470000
_cell_angle_beta   82.89540000
_cell_angle_gamma   63.56970000
_symmetry_Int_Tables_number   1
_chemical_formula_structural   Sm2H11C11NO16
_chemical_formula_sum   'Sm4 H22 C22 N2 O32'
_cell_volume   985.19380842
_cell_formula_units_Z   2
loop_
 _symmetry_equiv_pos_site_id
 _symmetry_equiv_pos_as_xyz
  1  'x, y, z'
loop_
 _atom_site_type_symbol
 _atom_site_label
 _atom_site_symmetry_multiplicity
 _atom_site_fract_x
 _atom_site_fract_y
 _atom_site_fract_z
 _atom_site_occupancy
  Sm  Sm0  1  0.26995000  0.71882000  0.24261000  1.0
  Sm  Sm1  1  0.73006000  0.28117000  0.75738000  1.0
  Sm  Sm2  1  0.73569000  0.78491000  0.26374000  1.0
  Sm  Sm3  1  0.26430000  0.21509000  0.73626000  1.0
  H  H4  1  0.77873000  0.82991000  0.48408000  1.0
  H  H5  1  0.22128000  0.17009000  0.51591000  1.0
  H  H6  1  0.94192000  0.78405000  0.42524000  1.0
  H  H7  1  0.05808000  0.21595000  0.57476000  1.0
  H  H8  1  0.48295000  0.12873000  0.20649000  1.0
  H  H9  1  0.51705000  0.87127000  0.79351000  1.0
  H  H10  1  0.41354000  0.01530000  0.19116000  1.0
  H  H11  1  0.58646000  0.98470000  0.80885000  1.0
  H  H12  1  0.24457000  0.80831000  0.45244000  1.0
  H  H13  1  0.75543000  0.19170000  0.54756000  1.0
  H  H14  1  0.40757000  0.80474000  0.41479000  1.0
  H  H15  1  0.59243000  0.19526000  0.58522000  1.0
  H  H16  1  0.93933000  0.00170000  0.20626000  1.0
  H  H17  1  0.06068000  0.99830000  0.79374000  1.0
  H  H18  1  0.05394000  0.05218000  0.24920000  1.0
  H  H19  1  0.94606000  0.94781000  0.75080000  1.0
  H  H20  1  0.73656000  0.35181000  0.06760000  1.0
  H  H21  1  0.26344000  0.64818000  0.93241000  1.0
  H  H22  1  0.01889000  0.21224000  0.04684000  1.0
  H  H23  1  0.98111000  0.78775000  0.95317000  1.0
  H  H24  1  0.19438000  0.29593000  0.11777000  1.0
  H  H25  1  0.80561000  0.70407000  0.88224000  1.0
  C  C26  1  0.59227000  0.59030000  0.17432000  1.0
  C  C27  1  0.40773000  0.40971000  0.82567000  1.0
  C  C28  1  0.75856000  0.50557000  0.14920000  1.0
  C  C29  1  0.24144000  0.49444000  0.85080000  1.0
  C  C30  1  0.81474000  0.38391000  0.09837000  1.0
  C  C31  1  0.18525000  0.61609000  0.90163000  1.0
  C  C32  1  0.97346000  0.30647000  0.08744000  1.0
  C  C33  1  0.02654000  0.69352000  0.91256000  1.0
  C  C34  1  0.07038000  0.35272000  0.12609000  1.0
  C  C35  1  0.92962000  0.64728000  0.87392000  1.0
  C  C36  1  0.00302000  0.48195000  0.17005000  1.0
  C  C37  1  0.99697000  0.51805000  0.82996000  1.0
  C  C38  1  0.08985000  0.55851000  0.20151000  1.0
  C  C39  1  0.91015000  0.44148000  0.79849000  1.0
  C  C40  1  0.70350000  0.98673000  0.98271000  1.0
  C  C41  1  0.29651000  0.01327000  0.01727000  1.0
  C  C42  1  0.77314000  0.06692000  0.03506000  1.0
  C  C43  1  0.22687000  0.93308000  0.96493000  1.0
  C  C44  1  0.64640000  0.58965000  0.52070000  1.0
  C  C45  1  0.35360000  0.41035000  0.47930000  1.0
  C  C46  1  0.81217000  0.47561000  0.49857000  1.0
  C  C47  1  0.18783000  0.52439000  0.50144000  1.0
  N  N48  1  0.85101000  0.55443000  0.18143000  1.0
  N  N49  1  0.14900000  0.44557000  0.81857000  1.0
  O  O50  1  0.56080000  0.67739000  0.24159000  1.0
  O  O51  1  0.43919000  0.32261000  0.75841000  1.0
  O  O52  1  0.49049000  0.57321000  0.13354000  1.0
  O  O53  1  0.50951000  0.42681000  0.86644000  1.0
  O  O54  1  0.00859000  0.69606000  0.21633000  1.0
  O  O55  1  0.99140000  0.30395000  0.78366000  1.0
  O  O56  1  0.23414000  0.49284000  0.20926000  1.0
  O  O57  1  0.76586000  0.50716000  0.79074000  1.0
  O  O58  1  0.67714000  0.87373000  0.05078000  1.0
  O  O59  1  0.32286000  0.12626000  0.94922000  1.0
  O  O60  1  0.78542000  0.02121000  0.14589000  1.0
  O  O61  1  0.21458000  0.97878000  0.85411000  1.0
  O  O62  1  0.68371000  0.03969000  0.87260000  1.0
  O  O63  1  0.31630000  0.96031000  0.12740000  1.0
  O  O64  1  0.81431000  0.16767000  0.96518000  1.0
  O  O65  1  0.18569000  0.83231000  0.03482000  1.0
  O  O66  1  0.57765000  0.53509000  0.60505000  1.0
  O  O67  1  0.42235000  0.46492000  0.39495000  1.0
  O  O68  1  0.59341000  0.73068000  0.44850000  1.0
  O  O69  1  0.40658000  0.26933000  0.55150000  1.0
  O  O70  1  0.86844000  0.33674000  0.57290000  1.0
  O  O71  1  0.13155000  0.66326000  0.42709000  1.0
  O  O72  1  0.87775000  0.52502000  0.40961000  1.0
  O  O73  1  0.12225000  0.47498000  0.59039000  1.0
  O  O74  1  0.82827000  0.85176000  0.41018000  1.0
  O  O75  1  0.17173000  0.14824000  0.58983000  1.0
  O  O76  1  0.48701000  0.02243000  0.23830000  1.0
  O  O77  1  0.51298000  0.97758000  0.76170000  1.0
  O  O78  1  0.30237000  0.83695000  0.38486000  1.0
  O  O79  1  0.69763000  0.16305000  0.61514000  1.0
  O  O80  1  0.04012000  0.96166000  0.24634000  1.0
  O  O81  1  0.95988000  0.03834000  0.75366000  1.0
