# generated using pymatgen
data_SmH23C40O11
_symmetry_space_group_name_H-M   'P 1'
_cell_length_a   12.08710000
_cell_length_b   12.13630000
_cell_length_c   13.19100000
_cell_angle_alpha   88.43390000
_cell_angle_beta   67.94450000
_cell_angle_gamma   76.99820000
_symmetry_Int_Tables_number   1
_chemical_formula_structural   SmH23C40O11
_chemical_formula_sum   'Sm2 H46 C80 O22'
_cell_volume   1743.93831386
_cell_formula_units_Z   2
loop_
 _symmetry_equiv_pos_site_id
 _symmetry_equiv_pos_as_xyz
  1  'x, y, z'
loop_
 _atom_site_type_symbol
 _atom_site_label
 _atom_site_symmetry_multiplicity
 _atom_site_fract_x
 _atom_site_fract_y
 _atom_site_fract_z
 _atom_site_occupancy
  Sm  Sm0  1  0.69364000  0.39962000  0.59277000  1.0
  Sm  Sm1  1  0.30636000  0.60038000  0.40723000  1.0
  H  H2  1  0.65437000  0.38419000  0.94645000  1.0
  H  H3  1  0.34563000  0.61581000  0.05355000  1.0
  H  H4  1  0.70210000  0.51349000  0.06173000  1.0
  H  H5  1  0.29790000  0.48651000  0.93827000  1.0
  H  H6  1  0.57561000  0.66350000  0.75496000  1.0
  H  H7  1  0.42439000  0.33650000  0.24504000  1.0
  H  H8  1  0.60814000  0.01922000  0.81513000  1.0
  H  H9  1  0.39186000  0.98078000  0.18487000  1.0
  H  H10  1  0.70403000  0.11335000  0.07964000  1.0
  H  H11  1  0.29597000  0.88665000  0.92036000  1.0
  H  H12  1  0.72690000  0.91448000  0.13498000  1.0
  H  H13  1  0.27311000  0.08552000  0.86502000  1.0
  H  H14  1  0.92499000  0.64998000  0.00586000  1.0
  H  H15  1  0.07501000  0.35002000  0.99414000  1.0
  H  H16  1  0.01339000  0.58258000  0.14439000  1.0
  H  H17  1  0.98661000  0.41742000  0.85561000  1.0
  H  H18  1  0.87337000  0.58797000  0.34298000  1.0
  H  H19  1  0.12663000  0.41203000  0.65702000  1.0
  H  H20  1  0.64890000  0.65603000  0.39462000  1.0
  H  H21  1  0.35110000  0.34397000  0.60538000  1.0
  H  H22  1  0.00258000  0.21595000  0.73779000  1.0
  H  H23  1  0.99742000  0.78405000  0.26221000  1.0
  H  H24  1  0.06615000  0.01415000  0.77317000  1.0
  H  H25  1  0.93386000  0.98585000  0.22683000  1.0
  H  H26  1  0.77889000  0.12338000  0.57782000  1.0
  H  H27  1  0.22111000  0.87662000  0.42218000  1.0
  H  H28  1  0.76494000  0.76313000  0.52315000  1.0
  H  H29  1  0.23505000  0.23687000  0.47685000  1.0
  H  H30  1  0.00121000  0.61103000  0.75600000  1.0
  H  H31  1  0.99879000  0.38897000  0.24400000  1.0
  H  H32  1  0.91898000  0.48156000  0.67490000  1.0
  H  H33  1  0.08102000  0.51844000  0.32510000  1.0
  H  H34  1  0.92303000  0.90215000  0.93110000  1.0
  H  H35  1  0.07696000  0.09785000  0.06890000  1.0
  H  H36  1  0.03931000  0.83907000  0.05102000  1.0
  H  H37  1  0.96069000  0.16093000  0.94898000  1.0
  H  H38  1  0.23876000  0.69863000  0.97792000  1.0
  H  H39  1  0.76124000  0.30138000  0.02208000  1.0
  H  H40  1  0.32514000  0.62419000  0.78230000  1.0
  H  H41  1  0.67486000  0.37581000  0.21770000  1.0
  H  H42  1  0.60916000  0.20144000  0.85945000  1.0
  H  H43  1  0.39084000  0.79856000  0.14055000  1.0
  H  H44  1  0.56498000  0.62749000  0.55209000  1.0
  H  H45  1  0.43502000  0.37251000  0.44791000  1.0
  H  H46  1  0.44784000  0.57630000  0.60154000  1.0
  H  H47  1  0.55216000  0.42370000  0.39846000  1.0
  C  C48  1  0.61513000  0.51394000  0.84144000  1.0
  C  C49  1  0.38487000  0.48606000  0.15856000  1.0
  C  C50  1  0.64978000  0.47353000  0.93164000  1.0
  C  C51  1  0.35022000  0.52647000  0.06836000  1.0
  C  C52  1  0.67580000  0.54440000  0.99379000  1.0
  C  C53  1  0.32420000  0.45560000  0.00621000  1.0
  C  C54  1  0.66813000  0.66140000  0.97273000  1.0
  C  C55  1  0.33187000  0.33860000  0.02727000  1.0
  C  C56  1  0.63015000  0.70088000  0.88488000  1.0
  C  C57  1  0.36985000  0.29912000  0.11512000  1.0
  C  C58  1  0.60253000  0.63099000  0.82202000  1.0
  C  C59  1  0.39747000  0.36901000  0.17798000  1.0
  C  C60  1  0.69212000  0.73795000  0.03486000  1.0
  C  C61  1  0.30788000  0.26205000  0.96513000  1.0
  C  C62  1  0.68273000  0.85245000  0.00626000  1.0
  C  C63  1  0.31728000  0.14755000  0.99374000  1.0
  C  C64  1  0.64781000  0.88644000  0.91663000  1.0
  C  C65  1  0.35219000  0.11356000  0.08337000  1.0
  C  C66  1  0.63638000  0.99658000  0.88359000  1.0
  C  C67  1  0.36362000  0.00342000  0.11641000  1.0
  C  C68  1  0.65751000  0.07859000  0.94247000  1.0
  C  C69  1  0.34249000  0.92141000  0.05753000  1.0
  C  C70  1  0.69026000  0.04786000  0.03403000  1.0
  C  C71  1  0.30975000  0.95213000  0.96597000  1.0
  C  C72  1  0.70252000  0.93788000  0.06441000  1.0
  C  C73  1  0.29748000  0.06213000  0.93559000  1.0
  C  C74  1  0.73830000  0.69696000  0.12245000  1.0
  C  C75  1  0.26170000  0.30304000  0.87755000  1.0
  C  C76  1  0.86484000  0.65328000  0.09189000  1.0
  C  C77  1  0.13516000  0.34671000  0.90811000  1.0
  C  C78  1  0.91436000  0.61489000  0.17014000  1.0
  C  C79  1  0.08564000  0.38511000  0.82986000  1.0
  C  C80  1  0.83733000  0.61782000  0.28031000  1.0
  C  C81  1  0.16267000  0.38218000  0.71969000  1.0
  C  C82  1  0.71131000  0.65714000  0.31017000  1.0
  C  C83  1  0.28869000  0.34286000  0.68983000  1.0
  C  C84  1  0.66021000  0.69707000  0.23319000  1.0
  C  C85  1  0.33979000  0.30293000  0.76681000  1.0
  C  C86  1  0.52312000  0.73459000  0.26805000  1.0
  C  C87  1  0.47688000  0.26541000  0.73195000  1.0
  C  C88  1  0.83742000  0.61226000  0.59215000  1.0
  C  C89  1  0.16257000  0.38774000  0.40785000  1.0
  C  C90  1  0.88175000  0.18664000  0.65923000  1.0
  C  C91  1  0.11825000  0.81336000  0.34077000  1.0
  C  C92  1  0.96709000  0.15088000  0.71284000  1.0
  C  C93  1  0.03291000  0.84912000  0.28715000  1.0
  C  C94  1  0.00179000  0.03951000  0.73227000  1.0
  C  C95  1  0.99822000  0.96049000  0.26773000  1.0
  C  C96  1  0.95571000  0.95352000  0.70012000  1.0
  C  C97  1  0.04429000  0.04648000  0.29988000  1.0
  C  C98  1  0.87714000  0.98953000  0.64128000  1.0
  C  C99  1  0.12287000  0.01047000  0.35872000  1.0
  C  C100  1  0.83986000  0.10117000  0.62215000  1.0
  C  C101  1  0.16014000  0.89883000  0.37784000  1.0
  C  C102  1  0.98273000  0.83872000  0.72217000  1.0
  C  C103  1  0.01727000  0.16128000  0.27783000  1.0
  C  C104  1  0.93190000  0.76121000  0.68529000  1.0
  C  C105  1  0.06810000  0.23879000  0.31471000  1.0
  C  C106  1  0.86187000  0.80039000  0.61985000  1.0
  C  C107  1  0.13813000  0.19961000  0.38015000  1.0
  C  C108  1  0.81710000  0.72893000  0.57324000  1.0
  C  C109  1  0.18289000  0.27107000  0.42676000  1.0
  C  C110  1  0.95006000  0.64366000  0.70460000  1.0
  C  C111  1  0.04994000  0.35634000  0.29540000  1.0
  C  C112  1  0.90571000  0.57151000  0.65973000  1.0
  C  C113  1  0.09429000  0.42849000  0.34027000  1.0
  C  C114  1  0.05840000  0.80088000  0.78868000  1.0
  C  C115  1  0.94160000  0.19912000  0.21132000  1.0
  C  C116  1  0.01179000  0.84205000  0.89848000  1.0
  C  C117  1  0.98821000  0.15795000  0.10152000  1.0
  C  C118  1  0.07648000  0.80571000  0.96597000  1.0
  C  C119  1  0.92352000  0.19429000  0.03403000  1.0
  C  C120  1  0.18847000  0.72615000  0.92504000  1.0
  C  C121  1  0.81153000  0.27385000  0.07496000  1.0
  C  C122  1  0.23659000  0.68474000  0.81591000  1.0
  C  C123  1  0.76340000  0.31526000  0.18409000  1.0
  C  C124  1  0.17351000  0.72276000  0.74685000  1.0
  C  C125  1  0.82649000  0.27724000  0.25315000  1.0
  C  C126  1  0.23087000  0.68502000  0.62821000  1.0
  C  C127  1  0.76913000  0.31498000  0.37179000  1.0
  O  O128  1  0.79278000  0.54394000  0.55188000  1.0
  O  O129  1  0.20721000  0.45606000  0.44812000  1.0
  O  O130  1  0.59830000  0.44366000  0.77998000  1.0
  O  O131  1  0.40170000  0.55634000  0.22002000  1.0
  O  O132  1  0.84639000  0.29298000  0.64575000  1.0
  O  O133  1  0.15361000  0.70702000  0.35425000  1.0
  O  O134  1  0.62165000  0.81140000  0.85878000  1.0
  O  O135  1  0.37835000  0.18860000  0.14122000  1.0
  O  O136  1  0.64608000  0.18722000  0.91737000  1.0
  O  O137  1  0.35392000  0.81278000  0.08263000  1.0
  O  O138  1  0.48212000  0.79253000  0.20387000  1.0
  O  O139  1  0.51788000  0.20747000  0.79614000  1.0
  O  O140  1  0.45714000  0.70430000  0.36110000  1.0
  O  O141  1  0.54286000  0.29570000  0.63890000  1.0
  O  O142  1  0.83475000  0.91247000  0.60079000  1.0
  O  O143  1  0.16525000  0.08753000  0.39921000  1.0
  O  O144  1  0.19492000  0.74383000  0.56065000  1.0
  O  O145  1  0.80508000  0.25617000  0.43935000  1.0
  O  O146  1  0.31516000  0.59248000  0.59485000  1.0
  O  O147  1  0.68483000  0.40752000  0.40515000  1.0
  O  O148  1  0.53108000  0.57314000  0.60295000  1.0
  O  O149  1  0.46891000  0.42687000  0.39705000  1.0
