# generated using pymatgen
data_CdH6C8Br2(N2Cl)2
_symmetry_space_group_name_H-M   'P 1'
_cell_length_a   3.85927000
_cell_length_b   10.48040000
_cell_length_c   16.43050000
_cell_angle_alpha   89.99990000
_cell_angle_beta   90.00000000
_cell_angle_gamma   94.79180000
_symmetry_Int_Tables_number   1
_chemical_formula_structural   CdH6C8Br2(N2Cl)2
_chemical_formula_sum   'Cd2 H12 C16 Br4 N8 Cl4'
_cell_volume   662.23664286
_cell_formula_units_Z   2
loop_
 _symmetry_equiv_pos_site_id
 _symmetry_equiv_pos_as_xyz
  1  'x, y, z'
loop_
 _atom_site_type_symbol
 _atom_site_label
 _atom_site_symmetry_multiplicity
 _atom_site_fract_x
 _atom_site_fract_y
 _atom_site_fract_z
 _atom_site_occupancy
  Cd  Cd0  1  0.50000000  0.50000000  0.50000000  1.0
  Cd  Cd1  1  0.50000000  0.00000000  0.00000000  1.0
  H  H2  1  0.28663000  0.19174000  0.48473000  1.0
  H  H3  1  0.71337000  0.30826000  0.98472000  1.0
  H  H4  1  0.71337000  0.80826000  0.51527000  1.0
  H  H5  1  0.28663000  0.69174000  0.01527000  1.0
  H  H6  1  0.64558000  0.44908000  0.30431000  1.0
  H  H7  1  0.35442000  0.05092000  0.80431000  1.0
  H  H8  1  0.35442000  0.55092000  0.69569000  1.0
  H  H9  1  0.64558000  0.94908000  0.19569000  1.0
  H  H10  1  0.69210000  0.26354000  0.20638000  1.0
  H  H11  1  0.30791000  0.23646000  0.70638000  1.0
  H  H12  1  0.30790000  0.73646000  0.79362000  1.0
  H  H13  1  0.69210000  0.76354000  0.29362000  1.0
  C  C14  1  0.39187000  0.10827000  0.36595000  1.0
  C  C15  1  0.60813000  0.39174000  0.86595000  1.0
  C  C16  1  0.60813000  0.89173000  0.63405000  1.0
  C  C17  1  0.39187000  0.60826000  0.13405000  1.0
  C  C18  1  0.37485000  0.20787000  0.42224000  1.0
  C  C19  1  0.62516000  0.29213000  0.92225000  1.0
  C  C20  1  0.62514000  0.79213000  0.57776000  1.0
  C  C21  1  0.37485000  0.70788000  0.07776000  1.0
  C  C22  1  0.57732000  0.35006000  0.32251000  1.0
  C  C23  1  0.42268000  0.14993000  0.82252000  1.0
  C  C24  1  0.42268000  0.64994000  0.67748000  1.0
  C  C25  1  0.57732000  0.85006000  0.17749000  1.0
  C  C26  1  0.59875000  0.24821000  0.26857000  1.0
  C  C27  1  0.40126000  0.25179000  0.76857000  1.0
  C  C28  1  0.40126000  0.75179000  0.73143000  1.0
  C  C29  1  0.59874000  0.74820000  0.23143000  1.0
  Br  Br30  1  0.03101000  0.63052000  0.41288000  1.0
  Br  Br31  1  0.96900000  0.86948000  0.91288000  1.0
  Br  Br32  1  0.96900000  0.36948000  0.58712000  1.0
  Br  Br33  1  0.03101000  0.13052000  0.08712000  1.0
  N  N34  1  0.50808000  0.12669000  0.29054000  1.0
  N  N35  1  0.49193000  0.37331000  0.79054000  1.0
  N  N36  1  0.49192000  0.87331000  0.70946000  1.0
  N  N37  1  0.50808000  0.62669000  0.20946000  1.0
  N  N38  1  0.47007000  0.32826000  0.39947000  1.0
  N  N39  1  0.52993000  0.17174000  0.89946000  1.0
  N  N40  1  0.52993000  0.67175000  0.60053000  1.0
  N  N41  1  0.47006000  0.82825000  0.10053000  1.0
  Cl  Cl42  1  0.25730000  0.95295000  0.39457000  1.0
  Cl  Cl43  1  0.74271000  0.54705000  0.89457000  1.0
  Cl  Cl44  1  0.74271000  0.04705000  0.60543000  1.0
  Cl  Cl45  1  0.25729000  0.45295000  0.10543000  1.0
