# generated using pymatgen
data_ZnH11C27N2(ClO2)3
_symmetry_space_group_name_H-M   'P 1'
_cell_length_a   9.74176000
_cell_length_b   11.05480000
_cell_length_c   28.07780000
_cell_angle_alpha   89.85090000
_cell_angle_beta   89.30740000
_cell_angle_gamma   89.44210000
_symmetry_Int_Tables_number   1
_chemical_formula_structural   ZnH11C27N2(ClO2)3
_chemical_formula_sum   'Zn2 H22 C54 N4 Cl6 O12'
_cell_volume   3023.41477799
_cell_formula_units_Z   2
loop_
 _symmetry_equiv_pos_site_id
 _symmetry_equiv_pos_as_xyz
  1  'x, y, z'
loop_
 _atom_site_type_symbol
 _atom_site_label
 _atom_site_symmetry_multiplicity
 _atom_site_fract_x
 _atom_site_fract_y
 _atom_site_fract_z
 _atom_site_occupancy
  Zn  Zn0  1  0.63559000  0.50134000  0.50050000  1.0
  Zn  Zn1  1  0.35066000  0.50590000  0.49983000  1.0
  H  H2  1  0.29097000  0.45697000  0.65427000  1.0
  H  H3  1  0.28812000  0.51440000  0.34553000  1.0
  H  H4  1  0.29902000  0.51694000  0.25615000  1.0
  H  H5  1  0.56842000  0.81584000  0.96896000  1.0
  H  H6  1  0.30581000  0.12192000  0.45944000  1.0
  H  H7  1  0.30642000  0.89738000  0.45549000  1.0
  H  H8  1  0.29288000  0.45920000  0.74327000  1.0
  H  H9  1  0.12264000  0.59224000  0.43409000  1.0
  H  H10  1  0.86347000  0.58923000  0.43401000  1.0
  H  H11  1  0.86062000  0.45162000  0.61054000  1.0
  H  H12  1  0.86260000  0.30704000  0.58312000  1.0
  H  H13  1  0.45757000  0.22172000  0.87693000  1.0
  H  H14  1  0.72565000  0.47224000  0.35039000  1.0
  H  H15  1  0.73791000  0.47564000  0.26103000  1.0
  H  H16  1  0.70579000  0.58279000  0.65013000  1.0
  H  H17  1  0.70922000  0.58564000  0.73919000  1.0
  H  H18  1  0.50609000  0.81109000  0.03632000  1.0
  H  H19  1  0.49367000  0.80180000  0.12458000  1.0
  H  H20  1  0.80635000  0.11213000  0.53766000  1.0
  H  H21  1  0.11992000  0.45333000  0.61043000  1.0
  H  H22  1  0.12499000  0.30848000  0.58230000  1.0
  H  H23  1  0.48545000  0.20936000  0.96414000  1.0
  C  C24  1  0.48714000  0.26866000  0.50340000  1.0
  C  C25  1  0.38284000  0.48680000  0.72274000  1.0
  C  C26  1  0.50135000  0.52217000  0.74612000  1.0
  C  C27  1  0.52317000  0.51869000  0.89834000  1.0
  C  C28  1  0.49884000  0.41049000  0.87294000  1.0
  C  C29  1  0.48195000  0.30222000  0.89737000  1.0
  C  C30  1  0.53348000  0.63097000  0.87333000  1.0
  C  C31  1  0.49813000  0.51917000  0.64677000  1.0
  C  C32  1  0.50631000  0.49388000  0.35312000  1.0
  C  C33  1  0.55823000  0.39433000  0.02444000  1.0
  C  C34  1  0.53339000  0.61844000  0.02709000  1.0
  C  C35  1  0.49761000  0.51550000  0.59339000  1.0
  C  C36  1  0.54285000  0.50437000  0.05100000  1.0
  C  C37  1  0.59908000  0.29032000  0.04981000  1.0
  C  C38  1  0.59713000  0.28689000  0.10062000  1.0
  C  C39  1  0.55955000  0.38977000  0.12680000  1.0
  C  C40  1  0.54062000  0.50104000  0.10191000  1.0
  C  C41  1  0.52085000  0.61030000  0.12756000  1.0
  C  C42  1  0.51578000  0.61225000  0.18015000  1.0
  C  C43  1  0.54019000  0.38632000  0.17947000  1.0
  C  C44  1  0.63976000  0.48414000  0.27983000  1.0
  C  C45  1  0.63303000  0.48246000  0.32937000  1.0
  C  C46  1  0.48969000  0.73828000  0.49438000  1.0
  C  C47  1  0.38601000  0.50611000  0.32663000  1.0
  C  C48  1  0.39200000  0.50734000  0.27707000  1.0
  C  C49  1  0.51907000  0.49668000  0.25403000  1.0
  C  C50  1  0.53239000  0.39841000  0.97303000  1.0
  C  C51  1  0.53456000  0.51264000  0.94908000  1.0
  C  C52  1  0.54364000  0.62246000  0.97517000  1.0
  C  C53  1  0.49896000  0.29592000  0.94654000  1.0
  C  C54  1  0.55340000  0.73595000  0.90026000  1.0
  C  C55  1  0.51545000  0.72375000  0.05404000  1.0
  C  C56  1  0.50812000  0.71980000  0.10356000  1.0
  C  C57  1  0.49997000  0.49413000  0.40653000  1.0
  C  C58  1  0.55621000  0.73069000  0.95022000  1.0
  C  C59  1  0.59028000  0.06309000  0.52204000  1.0
  C  C60  1  0.48851000  0.13389000  0.50110000  1.0
  C  C61  1  0.38731000  0.07009000  0.47655000  1.0
  C  C62  1  0.38849000  0.94368000  0.47395000  1.0
  C  C63  1  0.49241000  0.87316000  0.49487000  1.0
  C  C64  1  0.59322000  0.93765000  0.51840000  1.0
  C  C65  1  0.71945000  0.92426000  0.54893000  1.0
  C  C66  1  0.71507000  0.06944000  0.55311000  1.0
  C  C67  1  0.06420000  0.45915000  0.53493000  1.0
  C  C68  1  0.48920000  0.40881000  0.82050000  1.0
  C  C69  1  0.06449000  0.55311000  0.46359000  1.0
  C  C70  1  0.92141000  0.55127000  0.46350000  1.0
  C  C71  1  0.92105000  0.45770000  0.53494000  1.0
  C  C72  1  0.91080000  0.39634000  0.58289000  1.0
  C  C73  1  0.07390000  0.39739000  0.58281000  1.0
  C  C74  1  0.52164000  0.63371000  0.82065000  1.0
  C  C75  1  0.61803000  0.55685000  0.72037000  1.0
  C  C76  1  0.61612000  0.55521000  0.67083000  1.0
  C  C77  1  0.38184000  0.48556000  0.67319000  1.0
  N  N78  1  0.50479000  0.52102000  0.79752000  1.0
  N  N79  1  0.52703000  0.49918000  0.20259000  1.0
  N  N80  1  0.13931000  0.50607000  0.49990000  1.0
  N  N81  1  0.84638000  0.50242000  0.49972000  1.0
  Cl  Cl82  1  0.57356000  0.87788000  0.87606000  1.0
  Cl  Cl83  1  0.69726000  0.84101000  0.60215000  1.0
  Cl  Cl84  1  0.87216000  0.87383000  0.51822000  1.0
  Cl  Cl85  1  0.68862000  0.13132000  0.61084000  1.0
  Cl  Cl86  1  0.64382000  0.15439000  0.12783000  1.0
  Cl  Cl87  1  0.66209000  0.16310000  0.02113000  1.0
  O  O88  1  0.60195000  0.31886000  0.51080000  1.0
  O  O89  1  0.53378000  0.29300000  0.20311000  1.0
  O  O90  1  0.52558000  0.72688000  0.79684000  1.0
  O  O91  1  0.50140000  0.70578000  0.20338000  1.0
  O  O92  1  0.37225000  0.32169000  0.49712000  1.0
  O  O93  1  0.61337000  0.52662000  0.57237000  1.0
  O  O94  1  0.38268000  0.50101000  0.57295000  1.0
  O  O95  1  0.60506000  0.68440000  0.49091000  1.0
  O  O96  1  0.37220000  0.68980000  0.49837000  1.0
  O  O97  1  0.61303000  0.47856000  0.42829000  1.0
  O  O98  1  0.38274000  0.51014000  0.42620000  1.0
  O  O99  1  0.46992000  0.31536000  0.79796000  1.0
