# generated using pymatgen
data_CsBH8C6OF6
_symmetry_space_group_name_H-M   'P 1'
_cell_length_a   8.93349000
_cell_length_b   9.19697000
_cell_length_c   12.60550000
_cell_angle_alpha   90.00000000
_cell_angle_beta   93.85890000
_cell_angle_gamma   90.00000000
_symmetry_Int_Tables_number   1
_chemical_formula_structural   CsBH8C6OF6
_chemical_formula_sum   'Cs4 B4 H32 C24 O4 F24'
_cell_volume   1033.33289980
_cell_formula_units_Z   4
loop_
 _symmetry_equiv_pos_site_id
 _symmetry_equiv_pos_as_xyz
  1  'x, y, z'
loop_
 _atom_site_type_symbol
 _atom_site_label
 _atom_site_symmetry_multiplicity
 _atom_site_fract_x
 _atom_site_fract_y
 _atom_site_fract_z
 _atom_site_occupancy
  Cs  Cs0  1  0.17206000  0.16582000  0.44200000  1.0
  Cs  Cs1  1  0.67207000  0.33418000  0.94200000  1.0
  Cs  Cs2  1  0.82793000  0.83418000  0.55800000  1.0
  Cs  Cs3  1  0.32793000  0.66582000  0.05800000  1.0
  B  B4  1  0.77588000  0.26343000  0.56404000  1.0
  B  B5  1  0.27588000  0.23657000  0.06404000  1.0
  B  B6  1  0.22412000  0.73657000  0.43596000  1.0
  B  B7  1  0.72412000  0.76343000  0.93596000  1.0
  H  H8  1  0.83070000  0.11581000  0.32244000  1.0
  H  H9  1  0.33071000  0.38419000  0.82244000  1.0
  H  H10  1  0.16930000  0.88419000  0.67756000  1.0
  H  H11  1  0.66929000  0.61581000  0.17756000  1.0
  H  H12  1  0.65022000  0.15847000  0.36428000  1.0
  H  H13  1  0.15022000  0.34153000  0.86428000  1.0
  H  H14  1  0.34979000  0.84153000  0.63572000  1.0
  H  H15  1  0.84978000  0.65847000  0.13572000  1.0
  H  H16  1  0.90848000  0.37523000  0.34149000  1.0
  H  H17  1  0.40848000  0.12477000  0.84149000  1.0
  H  H18  1  0.09152000  0.62477000  0.65851000  1.0
  H  H19  1  0.59152000  0.87523000  0.15851000  1.0
  H  H20  1  0.74449000  0.35785000  0.25658000  1.0
  H  H21  1  0.24449000  0.14215000  0.75658000  1.0
  H  H22  1  0.25551000  0.64215000  0.74342000  1.0
  H  H23  1  0.75551000  0.85785000  0.24342000  1.0
  H  H24  1  0.58696000  0.42765000  0.40438000  1.0
  H  H25  1  0.08696000  0.07235000  0.90438000  1.0
  H  H26  1  0.41304000  0.57236000  0.59562000  1.0
  H  H27  1  0.91304000  0.92765000  0.09562000  1.0
  H  H28  1  0.72042000  0.56309000  0.38353000  1.0
  H  H29  1  0.22042000  0.93691000  0.88353000  1.0
  H  H30  1  0.27958000  0.43691000  0.61647000  1.0
  H  H31  1  0.77958000  0.06309000  0.11647000  1.0
  H  H32  1  0.88423000  0.47828000  0.53623000  1.0
  H  H33  1  0.38423000  0.02172000  0.03623000  1.0
  H  H34  1  0.11577000  0.52172000  0.46377000  1.0
  H  H35  1  0.61577000  0.97828000  0.96377000  1.0
  H  H36  1  0.70187000  0.49740000  0.58162000  1.0
  H  H37  1  0.20187000  0.00260000  0.08162000  1.0
  H  H38  1  0.29813000  0.50260000  0.41838000  1.0
  H  H39  1  0.79813000  0.99740000  0.91838000  1.0
  C  C40  1  0.76986000  0.18918000  0.37369000  1.0
  C  C41  1  0.26986000  0.31082000  0.87369000  1.0
  C  C42  1  0.23014000  0.81082000  0.62631000  1.0
  C  C43  1  0.73014000  0.68918000  0.12631000  1.0
  C  C44  1  0.78832000  0.34692000  0.33983000  1.0
  C  C45  1  0.28832000  0.15308000  0.83983000  1.0
  C  C46  1  0.21168000  0.65308000  0.66017000  1.0
  C  C47  1  0.71168000  0.84692000  0.16017000  1.0
  C  C48  1  0.70803000  0.45088000  0.41184000  1.0
  C  C49  1  0.20803000  0.04912000  0.91184000  1.0
  C  C50  1  0.29197000  0.54912000  0.58816000  1.0
  C  C51  1  0.79197000  0.95088000  0.08816000  1.0
  C  C52  1  0.76924000  0.43360000  0.52808000  1.0
  C  C53  1  0.26924000  0.06640000  0.02808000  1.0
  C  C54  1  0.23076000  0.56640000  0.47192000  1.0
  C  C55  1  0.73076000  0.93360000  0.97192000  1.0
  C  C56  1  0.60990000  0.21274000  0.60165000  1.0
  C  C57  1  0.10990000  0.28726000  0.10165000  1.0
  C  C58  1  0.39009000  0.78726000  0.39835000  1.0
  C  C59  1  0.89009000  0.71274000  0.89835000  1.0
  C  C60  1  0.89917000  0.24174000  0.66535000  1.0
  C  C61  1  0.39917000  0.25826000  0.16535000  1.0
  C  C62  1  0.10083000  0.75826000  0.33465000  1.0
  C  C63  1  0.60083000  0.74174000  0.83465000  1.0
  O  O64  1  0.82746000  0.16278000  0.48144000  1.0
  O  O65  1  0.32746000  0.33722000  0.98144000  1.0
  O  O66  1  0.17254000  0.83722000  0.51856000  1.0
  O  O67  1  0.67254000  0.66278000  0.01856000  1.0
  F  F68  1  0.49332000  0.23873000  0.52454000  1.0
  F  F69  1  0.99332000  0.26127000  0.02454000  1.0
  F  F70  1  0.50668000  0.76127000  0.47546000  1.0
  F  F71  1  0.00668000  0.73873000  0.97546000  1.0
  F  F72  1  0.59535000  0.06599000  0.62466000  1.0
  F  F73  1  0.09535000  0.43401000  0.12466000  1.0
  F  F74  1  0.40465000  0.93401000  0.37534000  1.0
  F  F75  1  0.90465000  0.56599000  0.87534000  1.0
  F  F76  1  0.56450000  0.28351000  0.69152000  1.0
  F  F77  1  0.06450000  0.21650000  0.19152000  1.0
  F  F78  1  0.43550000  0.71650000  0.30848000  1.0
  F  F79  1  0.93550000  0.78350000  0.80848000  1.0
  F  F80  1  0.04278000  0.28606000  0.64230000  1.0
  F  F81  1  0.54278000  0.21394000  0.14230000  1.0
  F  F82  1  0.95722000  0.71394000  0.35770000  1.0
  F  F83  1  0.45722000  0.78606000  0.85770000  1.0
  F  F84  1  0.92009000  0.09860000  0.70042000  1.0
  F  F85  1  0.42009000  0.40141000  0.20042000  1.0
  F  F86  1  0.07991000  0.90140000  0.29958000  1.0
  F  F87  1  0.57991000  0.59860000  0.79958000  1.0
  F  F88  1  0.87088000  0.31867000  0.75567000  1.0
  F  F89  1  0.37088000  0.18133000  0.25567000  1.0
  F  F90  1  0.12912000  0.68133000  0.24434000  1.0
  F  F91  1  0.62912000  0.81867000  0.74434000  1.0
