# generated using pymatgen
data_ZnH12C11N2O5
_symmetry_space_group_name_H-M   'P 1'
_cell_length_a   10.75510000
_cell_length_b   11.23280000
_cell_length_c   14.91490000
_cell_angle_alpha   89.99990000
_cell_angle_beta   90.00000000
_cell_angle_gamma   90.00000000
_symmetry_Int_Tables_number   1
_chemical_formula_structural   ZnH12C11N2O5
_chemical_formula_sum   'Zn4 H48 C44 N8 O20'
_cell_volume   1801.86738779
_cell_formula_units_Z   4
loop_
 _symmetry_equiv_pos_site_id
 _symmetry_equiv_pos_as_xyz
  1  'x, y, z'
loop_
 _atom_site_type_symbol
 _atom_site_label
 _atom_site_symmetry_multiplicity
 _atom_site_fract_x
 _atom_site_fract_y
 _atom_site_fract_z
 _atom_site_occupancy
  Zn  Zn0  1  0.34443000  0.82177000  0.15769000  1.0
  Zn  Zn1  1  0.15557000  0.17823000  0.65769000  1.0
  Zn  Zn2  1  0.65557000  0.32177000  0.34231000  1.0
  Zn  Zn3  1  0.84443000  0.67823000  0.84231000  1.0
  H  H4  1  0.52673000  0.54492000  0.29369000  1.0
  H  H5  1  0.44575000  0.26501000  0.46586000  1.0
  H  H6  1  0.17074000  0.54073000  0.42611000  1.0
  H  H7  1  0.07727000  0.85217000  0.14526000  1.0
  H  H8  1  0.96870000  0.96247000  0.18178000  1.0
  H  H9  1  0.01204000  0.84404000  0.25499000  1.0
  H  H10  1  0.93954000  0.11071000  0.28671000  1.0
  H  H11  1  0.00776000  0.13910000  0.39302000  1.0
  H  H12  1  0.96440000  0.99112000  0.36456000  1.0
  H  H13  1  0.22795000  0.12433000  0.41305000  1.0
  H  H14  1  0.20866000  0.22576000  0.32191000  1.0
  H  H15  1  0.31624000  0.10520000  0.31255000  1.0
  H  H16  1  0.97327000  0.45508000  0.79368000  1.0
  H  H17  1  0.05424000  0.73499000  0.96586000  1.0
  H  H18  1  0.32926000  0.45927000  0.92611000  1.0
  H  H19  1  0.42274000  0.14782000  0.64526000  1.0
  H  H20  1  0.53130000  0.03753000  0.68178000  1.0
  H  H21  1  0.48797000  0.15596000  0.75499000  1.0
  H  H22  1  0.56046000  0.88929000  0.78671000  1.0
  H  H23  1  0.49224000  0.86090000  0.89302000  1.0
  H  H24  1  0.53560000  0.00888000  0.86456000  1.0
  H  H25  1  0.27205000  0.87567000  0.91306000  1.0
  H  H26  1  0.29134000  0.77424000  0.82192000  1.0
  H  H27  1  0.18376000  0.89481000  0.81255000  1.0
  H  H28  1  0.47327000  0.04492000  0.20631000  1.0
  H  H29  1  0.55425000  0.76501000  0.03414000  1.0
  H  H30  1  0.82926000  0.04073000  0.07389000  1.0
  H  H31  1  0.92274000  0.35218000  0.35474000  1.0
  H  H32  1  0.03130000  0.46247000  0.31822000  1.0
  H  H33  1  0.98796000  0.34404000  0.24501000  1.0
  H  H34  1  0.06046000  0.61071000  0.21329000  1.0
  H  H35  1  0.99224000  0.63910000  0.10698000  1.0
  H  H36  1  0.03560000  0.49112000  0.13544000  1.0
  H  H37  1  0.77205000  0.62433000  0.08695000  1.0
  H  H38  1  0.79134000  0.72576000  0.17808000  1.0
  H  H39  1  0.68376000  0.60519000  0.18745000  1.0
  H  H40  1  0.02673000  0.95507000  0.70632000  1.0
  H  H41  1  0.94576000  0.23499000  0.53414000  1.0
  H  H42  1  0.67074000  0.95927000  0.57389000  1.0
  H  H43  1  0.57727000  0.64782000  0.85474000  1.0
  H  H44  1  0.46870000  0.53753000  0.81822000  1.0
  H  H45  1  0.51204000  0.65596000  0.74501000  1.0
  H  H46  1  0.43954000  0.38929000  0.71329000  1.0
  H  H47  1  0.50776000  0.36090000  0.60698000  1.0
  H  H48  1  0.46440000  0.50888000  0.63544000  1.0
  H  H49  1  0.72795000  0.37567000  0.58694000  1.0
  H  H50  1  0.70866000  0.27424000  0.67808000  1.0
  H  H51  1  0.81624000  0.39480000  0.68745000  1.0
  C  C52  1  0.45995000  0.50458000  0.33931000  1.0
  C  C53  1  0.41439000  0.34888000  0.43670000  1.0
  C  C54  1  0.29779000  0.39701000  0.45623000  1.0
  C  C55  1  0.26210000  0.50220000  0.41342000  1.0
  C  C56  1  0.34404000  0.55705000  0.35373000  1.0
  C  C57  1  0.21061000  0.33384000  0.51931000  1.0
  C  C58  1  0.30589000  0.66539000  0.30062000  1.0
  C  C59  1  0.15198000  0.97732000  0.23830000  1.0
  C  C60  1  0.04587000  0.90476000  0.20262000  1.0
  C  C61  1  0.00251000  0.07481000  0.33809000  1.0
  C  C62  1  0.22624000  0.13221000  0.33967000  1.0
  C  C63  1  0.04005000  0.49541000  0.83931000  1.0
  C  C64  1  0.08560000  0.65112000  0.93670000  1.0
  C  C65  1  0.20220000  0.60299000  0.95624000  1.0
  C  C66  1  0.23789000  0.49780000  0.91342000  1.0
  C  C67  1  0.15596000  0.44295000  0.85372000  1.0
  C  C68  1  0.28939000  0.66616000  0.01931000  1.0
  C  C69  1  0.19411000  0.33461000  0.80062000  1.0
  C  C70  1  0.34802000  0.02268000  0.73830000  1.0
  C  C71  1  0.45414000  0.09523000  0.70262000  1.0
  C  C72  1  0.49749000  0.92519000  0.83809000  1.0
  C  C73  1  0.27376000  0.86779000  0.83968000  1.0
  C  C74  1  0.54006000  0.00458000  0.16069000  1.0
  C  C75  1  0.58561000  0.84888000  0.06330000  1.0
  C  C76  1  0.70220000  0.89701000  0.04376000  1.0
  C  C77  1  0.73790000  0.00220000  0.08658000  1.0
  C  C78  1  0.65596000  0.05705000  0.14627000  1.0
  C  C79  1  0.78939000  0.83384000  0.98069000  1.0
  C  C80  1  0.69411000  0.16539000  0.19938000  1.0
  C  C81  1  0.84802000  0.47732000  0.26170000  1.0
  C  C82  1  0.95413000  0.40477000  0.29738000  1.0
  C  C83  1  0.99749000  0.57481000  0.16191000  1.0
  C  C84  1  0.77375000  0.63221000  0.16033000  1.0
  C  C85  1  0.95995000  0.99541000  0.66069000  1.0
  C  C86  1  0.91440000  0.15112000  0.56330000  1.0
  C  C87  1  0.79780000  0.10299000  0.54377000  1.0
  C  C88  1  0.76210000  0.99780000  0.58659000  1.0
  C  C89  1  0.84404000  0.94295000  0.64628000  1.0
  C  C90  1  0.71061000  0.16616000  0.48069000  1.0
  C  C91  1  0.80589000  0.83461000  0.69938000  1.0
  C  C92  1  0.65198000  0.52268000  0.76170000  1.0
  C  C93  1  0.54587000  0.59523000  0.79738000  1.0
  C  C94  1  0.50251000  0.42519000  0.66191000  1.0
  C  C95  1  0.72624000  0.36779000  0.66033000  1.0
  N  N96  1  0.49380000  0.40214000  0.37948000  1.0
  N  N97  1  0.12820000  0.05696000  0.30292000  1.0
  N  N98  1  0.00620000  0.59786000  0.87948000  1.0
  N  N99  1  0.37180000  0.94304000  0.80292000  1.0
  N  N100  1  0.50620000  0.90214000  0.12052000  1.0
  N  N101  1  0.87180000  0.55696000  0.19708000  1.0
  N  N102  1  0.99380000  0.09786000  0.62052000  1.0
  N  N103  1  0.62820000  0.44304000  0.69708000  1.0
  O  O104  1  0.26201000  0.24794000  0.56488000  1.0
  O  O105  1  0.09954000  0.36447000  0.52348000  1.0
  O  O106  1  0.39415000  0.70993000  0.25177000  1.0
  O  O107  1  0.19619000  0.70103000  0.30439000  1.0
  O  O108  1  0.26214000  0.96662000  0.20803000  1.0
  O  O109  1  0.23799000  0.75206000  0.06488000  1.0
  O  O110  1  0.40046000  0.63553000  0.02348000  1.0
  O  O111  1  0.10585000  0.29007000  0.75177000  1.0
  O  O112  1  0.30381000  0.29897000  0.80438000  1.0
  O  O113  1  0.23786000  0.03338000  0.70803000  1.0
  O  O114  1  0.73799000  0.74794000  0.93512000  1.0
  O  O115  1  0.90046000  0.86447000  0.97652000  1.0
  O  O116  1  0.60585000  0.20993000  0.24823000  1.0
  O  O117  1  0.80381000  0.20104000  0.19561000  1.0
  O  O118  1  0.73786000  0.46662000  0.29197000  1.0
  O  O119  1  0.76201000  0.25206000  0.43512000  1.0
  O  O120  1  0.59955000  0.13554000  0.47652000  1.0
  O  O121  1  0.89414000  0.79007000  0.74823000  1.0
  O  O122  1  0.69619000  0.79897000  0.69561000  1.0
  O  O123  1  0.76214000  0.53338000  0.79197000  1.0
