# generated using pymatgen
data_NiMo4H20C15N15O13
_symmetry_space_group_name_H-M   'P 1'
_cell_length_a   10.63170000
_cell_length_b   11.93220000
_cell_length_c   13.84520000
_cell_angle_alpha   72.72100000
_cell_angle_beta   79.76250000
_cell_angle_gamma   81.14950000
_symmetry_Int_Tables_number   1
_chemical_formula_structural   NiMo4H20C15N15O13
_chemical_formula_sum   'Ni2 Mo8 H40 C30 N30 O26'
_cell_volume   1640.85465790
_cell_formula_units_Z   2
loop_
 _symmetry_equiv_pos_site_id
 _symmetry_equiv_pos_as_xyz
  1  'x, y, z'
loop_
 _atom_site_type_symbol
 _atom_site_label
 _atom_site_symmetry_multiplicity
 _atom_site_fract_x
 _atom_site_fract_y
 _atom_site_fract_z
 _atom_site_occupancy
  Ni  Ni0  1  0.00000000  0.50000000  0.50000000  1.0
  Ni  Ni1  1  0.00000000  0.00000000  0.00000000  1.0
  Mo  Mo2  1  0.84711000  0.98659000  0.46903000  1.0
  Mo  Mo3  1  0.15289000  0.01341000  0.53096000  1.0
  Mo  Mo4  1  0.88041000  0.22309000  0.26139000  1.0
  Mo  Mo5  1  0.11959000  0.77691000  0.73861000  1.0
  Mo  Mo6  1  0.87496000  0.21668000  0.54521000  1.0
  Mo  Mo7  1  0.12504000  0.78332000  0.45479000  1.0
  Mo  Mo8  1  0.09547000  0.99827000  0.25109000  1.0
  Mo  Mo9  1  0.90453000  0.00173000  0.74890000  1.0
  H  H10  1  0.27009000  0.61163000  0.35267000  1.0
  H  H11  1  0.72992000  0.38837000  0.64733000  1.0
  H  H12  1  0.07250000  0.33530000  0.34482000  1.0
  H  H13  1  0.92750000  0.66470000  0.65518000  1.0
  H  H14  1  0.86762000  0.78371000  0.97253000  1.0
  H  H15  1  0.13237000  0.21629000  0.02747000  1.0
  H  H16  1  0.36295000  0.37186000  0.13375000  1.0
  H  H17  1  0.63705000  0.62814000  0.86625000  1.0
  H  H18  1  0.21180000  0.31077000  0.16487000  1.0
  H  H19  1  0.78820000  0.68923000  0.83513000  1.0
  H  H20  1  0.28320000  0.16930000  0.32449000  1.0
  H  H21  1  0.71680000  0.83070000  0.67551000  1.0
  H  H22  1  0.37617000  0.14643000  0.21140000  1.0
  H  H23  1  0.62383000  0.85357000  0.78861000  1.0
  H  H24  1  0.61814000  0.19304000  0.17558000  1.0
  H  H25  1  0.38186000  0.80696000  0.82443000  1.0
  H  H26  1  0.46396000  0.25706000  0.72934000  1.0
  H  H27  1  0.53604000  0.74294000  0.27066000  1.0
  H  H28  1  0.48799000  0.24816000  0.60199000  1.0
  H  H29  1  0.51201000  0.75184000  0.39801000  1.0
  H  H30  1  0.04439000  0.42975000  0.74144000  1.0
  H  H31  1  0.95561000  0.57025000  0.25856000  1.0
  H  H32  1  0.28221000  0.31288000  0.50520000  1.0
  H  H33  1  0.71779000  0.68712000  0.49480000  1.0
  H  H34  1  0.86486000  0.56645000  0.98872000  1.0
  H  H35  1  0.13514000  0.43355000  0.01128000  1.0
  H  H36  1  0.91550000  0.47712000  0.10605000  1.0
  H  H37  1  0.08450000  0.52288000  0.89395000  1.0
  H  H38  1  0.16453000  0.04963000  0.77684000  1.0
  H  H39  1  0.83548000  0.95037000  0.22316000  1.0
  H  H40  1  0.38573000  0.05901000  0.65854000  1.0
  H  H41  1  0.61427000  0.94099000  0.34146000  1.0
  H  H42  1  0.52575000  0.05258000  0.71624000  1.0
  H  H43  1  0.47425000  0.94742000  0.28376000  1.0
  H  H44  1  0.18670000  0.75492000  0.12229000  1.0
  H  H45  1  0.81330000  0.24508000  0.87771000  1.0
  H  H46  1  0.31262000  0.98590000  0.05394000  1.0
  H  H47  1  0.68738000  0.01410000  0.94607000  1.0
  H  H48  1  0.62012000  0.26051000  0.45660000  1.0
  H  H49  1  0.37988000  0.73949000  0.54340000  1.0
  C  C50  1  0.24340000  0.53867000  0.33172000  1.0
  C  C51  1  0.75660000  0.46133000  0.66828000  1.0
  C  C52  1  0.14056000  0.39923000  0.32953000  1.0
  C  C53  1  0.85944000  0.60077000  0.67047000  1.0
  C  C54  1  0.94958000  0.75042000  0.01347000  1.0
  C  C55  1  0.05042000  0.24958000  0.98653000  1.0
  C  C56  1  0.29300000  0.32713000  0.19603000  1.0
  C  C57  1  0.70700000  0.67287000  0.80397000  1.0
  C  C58  1  0.35178000  0.20833000  0.25841000  1.0
  C  C59  1  0.64822000  0.79167000  0.74159000  1.0
  C  C60  1  0.58819000  0.21024000  0.24934000  1.0
  C  C61  1  0.41181000  0.78976000  0.75066000  1.0
  C  C62  1  0.42511000  0.22564000  0.67507000  1.0
  C  C63  1  0.57489000  0.77436000  0.32493000  1.0
  C  C64  1  0.12304000  0.38703000  0.69960000  1.0
  C  C65  1  0.87696000  0.61297000  0.30040000  1.0
  C  C66  1  0.24099000  0.33091000  0.57738000  1.0
  C  C67  1  0.75901000  0.66909000  0.42262000  1.0
  C  C68  1  0.94811000  0.53394000  0.02987000  1.0
  C  C69  1  0.05189000  0.46606000  0.97013000  1.0
  C  C70  1  0.22554000  0.04024000  0.83440000  1.0
  C  C71  1  0.77446000  0.95976000  0.16560000  1.0
  C  C72  1  0.42565000  0.09138000  0.71194000  1.0
  C  C73  1  0.57435000  0.90862000  0.28806000  1.0
  C  C74  1  0.11235000  0.73317000  0.08868000  1.0
  C  C75  1  0.88765000  0.26683000  0.91132000  1.0
  C  C76  1  0.30425000  0.00685000  0.97319000  1.0
  C  C77  1  0.69575000  0.99315000  0.02681000  1.0
  C  C78  1  0.58591000  0.24637000  0.39221000  1.0
  C  C79  1  0.41409000  0.75363000  0.60779000  1.0
  N  N80  1  0.46341000  0.24267000  0.38736000  1.0
  N  N81  1  0.53659000  0.75734000  0.61264000  1.0
  N  N82  1  0.10072000  0.62306000  0.09076000  1.0
  N  N83  1  0.89928000  0.37694000  0.90924000  1.0
  N  N84  1  0.40427000  0.03169000  0.90044000  1.0
  N  N85  1  0.59573000  0.96831000  0.09956000  1.0
  N  N86  1  0.12915000  0.39326000  0.59878000  1.0
  N  N87  1  0.87085000  0.60675000  0.40122000  1.0
  N  N88  1  0.31330000  0.49445000  0.25933000  1.0
  N  N89  1  0.68670000  0.50555000  0.74067000  1.0
  N  N90  1  0.24560000  0.40649000  0.25901000  1.0
  N  N91  1  0.75440000  0.59351000  0.74099000  1.0
  N  N92  1  0.99633000  0.63611000  0.04203000  1.0
  N  N93  1  0.00367000  0.36389000  0.95797000  1.0
  N  N94  1  0.22414000  0.32544000  0.74153000  1.0
  N  N95  1  0.77586000  0.67456000  0.25847000  1.0
  N  N96  1  0.29869000  0.29041000  0.66225000  1.0
  N  N97  1  0.70131000  0.70959000  0.33775000  1.0
  N  N98  1  0.35183000  0.05184000  0.81278000  1.0
  N  N99  1  0.64817000  0.94816000  0.18722000  1.0
  N  N100  1  0.19207000  0.01088000  0.93559000  1.0
  N  N101  1  0.80793000  0.98912000  0.06441000  1.0
  N  N102  1  0.02112000  0.81451000  0.04192000  1.0
  N  N103  1  0.97888000  0.18549000  0.95808000  1.0
  N  N104  1  0.13594000  0.48245000  0.37697000  1.0
  N  N105  1  0.86406000  0.51755000  0.62303000  1.0
  N  N106  1  0.46725000  0.21830000  0.29638000  1.0
  N  N107  1  0.53275000  0.78170000  0.70362000  1.0
  N  N108  1  0.66618000  0.22727000  0.30832000  1.0
  N  N109  1  0.33382000  0.77273000  0.69168000  1.0
  O  O110  1  0.90280000  0.83526000  0.50036000  1.0
  O  O111  1  0.09720000  0.16474000  0.49964000  1.0
  O  O112  1  0.09711000  0.97737000  0.41756000  1.0
  O  O113  1  0.90289000  0.02263000  0.58244000  1.0
  O  O114  1  0.71202000  0.23998000  0.58462000  1.0
  O  O115  1  0.28798000  0.76002000  0.41538000  1.0
  O  O116  1  0.25998000  0.99312000  0.22387000  1.0
  O  O117  1  0.74002000  0.00688000  0.77613000  1.0
  O  O118  1  0.83547000  0.22644000  0.14706000  1.0
  O  O119  1  0.16453000  0.77356000  0.85294000  1.0
  O  O120  1  0.04700000  0.00093000  0.13597000  1.0
  O  O121  1  0.95300000  0.99907000  0.86403000  1.0
  O  O122  1  0.92194000  0.35883000  0.49986000  1.0
  O  O123  1  0.07806000  0.64117000  0.50014000  1.0
  O  O124  1  0.68349000  0.99227000  0.49797000  1.0
  O  O125  1  0.31651000  0.00773000  0.50203000  1.0
  O  O126  1  0.05833000  0.16688000  0.24321000  1.0
  O  O127  1  0.94167000  0.83312000  0.75678000  1.0
  O  O128  1  0.86574000  0.17526000  0.42281000  1.0
  O  O129  1  0.13426000  0.82474000  0.57719000  1.0
  O  O130  1  0.92835000  0.16313000  0.67925000  1.0
  O  O131  1  0.07165000  0.83687000  0.32075000  1.0
  O  O132  1  0.87959000  0.02798000  0.32462000  1.0
  O  O133  1  0.12041000  0.97202000  0.67538000  1.0
  O  O134  1  0.88729000  0.36833000  0.25476000  1.0
  O  O135  1  0.11271000  0.63167000  0.74524000  1.0
