# generated using pymatgen
data_ZnH5C3SNO2
_symmetry_space_group_name_H-M   'P 1'
_cell_length_a   5.73326000
_cell_length_b   9.11306000
_cell_length_c   9.19766000
_cell_angle_alpha   89.99910000
_cell_angle_beta   89.99990000
_cell_angle_gamma   89.99940000
_symmetry_Int_Tables_number   1
_chemical_formula_structural   ZnH5C3SNO2
_chemical_formula_sum   'Zn4 H20 C12 S4 N4 O8'
_cell_volume   480.55513052
_cell_formula_units_Z   4
loop_
 _symmetry_equiv_pos_site_id
 _symmetry_equiv_pos_as_xyz
  1  'x, y, z'
loop_
 _atom_site_type_symbol
 _atom_site_label
 _atom_site_symmetry_multiplicity
 _atom_site_fract_x
 _atom_site_fract_y
 _atom_site_fract_z
 _atom_site_occupancy
  Zn  Zn0  1  0.57464000  0.91767000  0.82776000  1.0
  Zn  Zn1  1  0.92537000  0.41766000  0.17224000  1.0
  Zn  Zn2  1  0.07464000  0.08233000  0.67224000  1.0
  Zn  Zn3  1  0.42536000  0.58233000  0.32775000  1.0
  H  H4  1  0.58972000  0.70813000  0.63570000  1.0
  H  H5  1  0.91029000  0.20812000  0.36430000  1.0
  H  H6  1  0.08971000  0.29187000  0.86430000  1.0
  H  H7  1  0.41027000  0.79188000  0.13570000  1.0
  H  H8  1  0.81071000  0.81367000  0.60277000  1.0
  H  H9  1  0.68931000  0.31367000  0.39723000  1.0
  H  H10  1  0.31070000  0.18633000  0.89723000  1.0
  H  H11  1  0.18929000  0.68634000  0.10276000  1.0
  H  H12  1  0.20368000  0.71611000  0.65096000  1.0
  H  H13  1  0.29632000  0.21610000  0.34904000  1.0
  H  H14  1  0.70367000  0.28390000  0.84904000  1.0
  H  H15  1  0.79630000  0.78390000  0.15097000  1.0
  H  H16  1  0.23652000  0.63629000  0.82624000  1.0
  H  H17  1  0.26350000  0.13629000  0.17375000  1.0
  H  H18  1  0.73650000  0.36371000  0.67375000  1.0
  H  H19  1  0.76348000  0.86370000  0.32626000  1.0
  H  H20  1  0.88718000  0.55352000  0.69283000  1.0
  H  H21  1  0.61284000  0.05351000  0.30717000  1.0
  H  H22  1  0.38716000  0.44649000  0.80717000  1.0
  H  H23  1  0.11281000  0.94649000  0.19283000  1.0
  C  C24  1  0.13220000  0.71266000  0.76121000  1.0
  C  C25  1  0.36782000  0.21265000  0.23878000  1.0
  C  C26  1  0.63219000  0.28734000  0.73878000  1.0
  C  C27  1  0.86780000  0.78734000  0.26122000  1.0
  C  C28  1  0.88193000  0.65602000  0.75601000  1.0
  C  C29  1  0.61808000  0.15601000  0.24399000  1.0
  C  C30  1  0.38192000  0.34399000  0.74399000  1.0
  C  C31  1  0.11807000  0.84399000  0.25602000  1.0
  C  C32  1  0.79385000  0.61886000  0.90919000  1.0
  C  C33  1  0.70617000  0.11887000  0.09081000  1.0
  C  C34  1  0.29384000  0.38113000  0.59081000  1.0
  C  C35  1  0.20616000  0.88113000  0.40919000  1.0
  S  S36  1  0.16223000  0.89248000  0.84526000  1.0
  S  S37  1  0.33778000  0.39247000  0.15474000  1.0
  S  S38  1  0.66222000  0.10752000  0.65474000  1.0
  S  S39  1  0.83777000  0.60752000  0.34526000  1.0
  N  N40  1  0.72492000  0.76173000  0.68579000  1.0
  N  N41  1  0.77509000  0.26172000  0.31421000  1.0
  N  N42  1  0.22492000  0.23828000  0.81421000  1.0
  N  N43  1  0.27508000  0.73828000  0.18580000  1.0
  O  O44  1  0.90297000  0.51244000  0.96985000  1.0
  O  O45  1  0.59703000  0.01243000  0.03014000  1.0
  O  O46  1  0.40295000  0.48755000  0.53015000  1.0
  O  O47  1  0.09702000  0.98757000  0.46986000  1.0
  O  O48  1  0.63172000  0.69444000  0.96298000  1.0
  O  O49  1  0.86828000  0.19444000  0.03702000  1.0
  O  O50  1  0.13171000  0.30555000  0.53702000  1.0
  O  O51  1  0.36828000  0.80557000  0.46298000  1.0
