# generated using pymatgen
data_CdH16C22(NO2)2
_symmetry_space_group_name_H-M   'P 1'
_cell_length_a   8.90149000
_cell_length_b   10.32010000
_cell_length_c   13.11660000
_cell_angle_alpha   99.62290000
_cell_angle_beta   93.71260000
_cell_angle_gamma   111.80400000
_symmetry_Int_Tables_number   1
_chemical_formula_structural   CdH16C22(NO2)2
_chemical_formula_sum   'Cd2 H32 C44 N4 O8'
_cell_volume   1092.36306571
_cell_formula_units_Z   2
loop_
 _symmetry_equiv_pos_site_id
 _symmetry_equiv_pos_as_xyz
  1  'x, y, z'
loop_
 _atom_site_type_symbol
 _atom_site_label
 _atom_site_symmetry_multiplicity
 _atom_site_fract_x
 _atom_site_fract_y
 _atom_site_fract_z
 _atom_site_occupancy
  Cd  Cd0  1  0.81411000  0.39261000  0.37787000  1.0
  Cd  Cd1  1  0.18589000  0.60738000  0.62212000  1.0
  H  H2  1  0.66713000  0.55130000  0.53758000  1.0
  H  H3  1  0.33286000  0.44870000  0.46242000  1.0
  H  H4  1  0.53398000  0.53595000  0.69701000  1.0
  H  H5  1  0.46602000  0.46405000  0.30299000  1.0
  H  H6  1  0.51731000  0.10587000  0.66605000  1.0
  H  H7  1  0.48268000  0.89414000  0.33395000  1.0
  H  H8  1  0.65223000  0.14031000  0.50529000  1.0
  H  H9  1  0.34777000  0.85969000  0.49471000  1.0
  H  H10  1  0.41374000  0.19963000  0.81463000  1.0
  H  H11  1  0.58626000  0.80037000  0.18536000  1.0
  H  H12  1  0.40800000  0.49927000  0.82121000  1.0
  H  H13  1  0.59200000  0.50073000  0.17880000  1.0
  H  H14  1  0.27707000  0.27253000  0.95669000  1.0
  H  H15  1  0.72293000  0.72747000  0.04331000  1.0
  H  H16  1  0.28370000  0.57459000  0.96209000  1.0
  H  H17  1  0.71630000  0.42541000  0.03791000  1.0
  H  H18  1  0.15365000  0.24495000  0.09003000  1.0
  H  H19  1  0.84636000  0.75505000  0.90998000  1.0
  H  H20  1  0.00406000  0.23557000  0.24319000  1.0
  H  H21  1  0.99595000  0.76443000  0.75682000  1.0
  H  H22  1  0.00014000  0.63582000  0.24823000  1.0
  H  H23  1  0.99986000  0.36419000  0.75177000  1.0
  H  H24  1  0.15779000  0.66695000  0.09657000  1.0
  H  H25  1  0.84221000  0.33306000  0.90343000  1.0
  H  H26  1  0.12423000  0.89863000  0.62508000  1.0
  H  H27  1  0.87575000  0.10136000  0.37493000  1.0
  H  H28  1  0.81482000  0.83983000  0.34116000  1.0
  H  H29  1  0.18516000  0.16017000  0.65885000  1.0
  H  H30  1  0.37068000  0.16656000  0.06839000  1.0
  H  H31  1  0.62933000  0.83343000  0.93160000  1.0
  H  H32  1  0.73224000  0.99223000  0.11132000  1.0
  H  H33  1  0.26777000  0.00776000  0.88867000  1.0
  C  C34  1  0.63212000  0.45445000  0.56869000  1.0
  C  C35  1  0.36788000  0.54555000  0.43131000  1.0
  C  C36  1  0.55862000  0.44538000  0.65840000  1.0
  C  C37  1  0.44137000  0.55463000  0.34160000  1.0
  C  C38  1  0.51593000  0.31899000  0.69723000  1.0
  C  C39  1  0.48407000  0.68101000  0.30277000  1.0
  C  C40  1  0.55035000  0.20701000  0.64036000  1.0
  C  C41  1  0.44965000  0.79300000  0.35964000  1.0
  C  C42  1  0.62382000  0.22503000  0.55063000  1.0
  C  C43  1  0.37618000  0.77498000  0.44936000  1.0
  C  C44  1  0.43638000  0.30056000  0.78984000  1.0
  C  C45  1  0.56362000  0.69944000  0.21016000  1.0
  C  C46  1  0.38667000  0.39781000  0.84467000  1.0
  C  C47  1  0.61333000  0.60219000  0.15533000  1.0
  C  C48  1  0.30265000  0.37467000  0.93333000  1.0
  C  C49  1  0.69735000  0.62533000  0.06667000  1.0
  C  C50  1  0.25523000  0.47366000  0.98787000  1.0
  C  C51  1  0.74478000  0.52634000  0.01213000  1.0
  C  C52  1  0.16902000  0.45797000  0.07804000  1.0
  C  C53  1  0.83099000  0.54203000  0.92196000  1.0
  C  C54  1  0.12377000  0.33541000  0.12204000  1.0
  C  C55  1  0.87624000  0.66460000  0.87796000  1.0
  C  C56  1  0.03999000  0.32890000  0.20766000  1.0
  C  C57  1  0.96001000  0.67111000  0.79235000  1.0
  C  C58  1  0.03916000  0.55309000  0.21114000  1.0
  C  C59  1  0.96085000  0.44691000  0.78886000  1.0
  C  C60  1  0.12551000  0.56890000  0.12637000  1.0
  C  C61  1  0.87450000  0.43111000  0.87364000  1.0
  C  C62  1  0.06916000  0.94314000  0.57093000  1.0
  C  C63  1  0.93082000  0.05686000  0.42908000  1.0
  C  C64  1  0.96416000  0.85366000  0.48111000  1.0
  C  C65  1  0.03582000  0.14633000  0.51889000  1.0
  C  C66  1  0.89580000  0.91133000  0.41042000  1.0
  C  C67  1  0.10417000  0.08867000  0.58959000  1.0
  C  C68  1  0.92218000  0.69663000  0.46122000  1.0
  C  C69  1  0.07781000  0.30336000  0.53877000  1.0
  C  C70  1  0.42561000  0.09246000  0.03736000  1.0
  C  C71  1  0.57440000  0.90754000  0.96263000  1.0
  C  C72  1  0.55572000  0.08730000  0.10037000  1.0
  C  C73  1  0.44429000  0.91270000  0.89963000  1.0
  C  C74  1  0.63004000  0.99418000  0.06192000  1.0
  C  C75  1  0.36998000  0.00582000  0.93807000  1.0
  C  C76  1  0.61919000  0.18423000  0.20611000  1.0
  C  C77  1  0.38082000  0.81577000  0.79388000  1.0
  N  N78  1  0.66477000  0.34695000  0.51483000  1.0
  N  N79  1  0.33522000  0.65306000  0.48517000  1.0
  N  N80  1  0.99599000  0.43499000  0.25155000  1.0
  N  N81  1  0.00401000  0.56502000  0.74845000  1.0
  O  O82  1  0.97861000  0.64359000  0.52751000  1.0
  O  O83  1  0.02139000  0.35640000  0.47248000  1.0
  O  O84  1  0.82570000  0.62003000  0.37807000  1.0
  O  O85  1  0.17430000  0.37996000  0.62193000  1.0
  O  O86  1  0.59273000  0.29847000  0.22382000  1.0
  O  O87  1  0.40727000  0.70152000  0.77618000  1.0
  O  O88  1  0.70270000  0.14996000  0.27186000  1.0
  O  O89  1  0.29731000  0.85003000  0.72814000  1.0
