# generated using pymatgen
data_GdH10C8SO10
_symmetry_space_group_name_H-M   'P 1'
_cell_length_a   7.71496000
_cell_length_b   8.51226000
_cell_length_c   10.52470000
_cell_angle_alpha   71.49110000
_cell_angle_beta   87.58690000
_cell_angle_gamma   67.85660000
_symmetry_Int_Tables_number   1
_chemical_formula_structural   GdH10C8SO10
_chemical_formula_sum   'Gd2 H20 C16 S2 O20'
_cell_volume   604.71107354
_cell_formula_units_Z   2
loop_
 _symmetry_equiv_pos_site_id
 _symmetry_equiv_pos_as_xyz
  1  'x, y, z'
loop_
 _atom_site_type_symbol
 _atom_site_label
 _atom_site_symmetry_multiplicity
 _atom_site_fract_x
 _atom_site_fract_y
 _atom_site_fract_z
 _atom_site_occupancy
  Gd  Gd0  1  0.67920000  0.20576000  0.12236000  1.0
  Gd  Gd1  1  0.32081000  0.79423000  0.87764000  1.0
  H  H2  1  0.22329000  0.37841000  0.71250000  1.0
  H  H3  1  0.77670000  0.62160000  0.28750000  1.0
  H  H4  1  0.27680000  0.76469000  0.34845000  1.0
  H  H5  1  0.72318000  0.23532000  0.65154000  1.0
  H  H6  1  0.24542000  0.17289000  0.58759000  1.0
  H  H7  1  0.75458000  0.82711000  0.41241000  1.0
  H  H8  1  0.23784000  0.67659000  0.59333000  1.0
  H  H9  1  0.76212000  0.32343000  0.40666000  1.0
  H  H10  1  0.94465000  0.38500000  0.14049000  1.0
  H  H11  1  0.05536000  0.61499000  0.85951000  1.0
  H  H12  1  0.74243000  0.54678000  0.07785000  1.0
  H  H13  1  0.25758000  0.45322000  0.92214000  1.0
  H  H14  1  0.08417000  0.92571000  0.13415000  1.0
  H  H15  1  0.91584000  0.07429000  0.86585000  1.0
  H  H16  1  0.07225000  0.11503000  0.04521000  1.0
  H  H17  1  0.92776000  0.88497000  0.95480000  1.0
  H  H18  1  0.97207000  0.06740000  0.35050000  1.0
  H  H19  1  0.02793000  0.93260000  0.64951000  1.0
  H  H20  1  0.80507000  0.03121000  0.43409000  1.0
  H  H21  1  0.19493000  0.96880000  0.56591000  1.0
  C  C22  1  0.24108000  0.41841000  0.60530000  1.0
  C  C23  1  0.75891000  0.58160000  0.39470000  1.0
  C  C24  1  0.41342000  0.08832000  0.96837000  1.0
  C  C25  1  0.58659000  0.91166000  0.03164000  1.0
  C  C26  1  0.28688000  0.51701000  0.32910000  1.0
  C  C27  1  0.71312000  0.48299000  0.67090000  1.0
  C  C28  1  0.27911000  0.34829000  0.39804000  1.0
  C  C29  1  0.72089000  0.65171000  0.60196000  1.0
  C  C30  1  0.32296000  0.57335000  0.18450000  1.0
  C  C31  1  0.67704000  0.42665000  0.81550000  1.0
  C  C32  1  0.26903000  0.63486000  0.40071000  1.0
  C  C33  1  0.73096000  0.36515000  0.59928000  1.0
  C  C34  1  0.25489000  0.30088000  0.53500000  1.0
  C  C35  1  0.74511000  0.69912000  0.46500000  1.0
  C  C36  1  0.24808000  0.58530000  0.53822000  1.0
  C  C37  1  0.75190000  0.41471000  0.46178000  1.0
  S  S38  1  0.28118000  0.19925000  0.30971000  1.0
  S  S39  1  0.71882000  0.80075000  0.69029000  1.0
  O  O40  1  0.16412000  0.31291000  0.18385000  1.0
  O  O41  1  0.83589000  0.68709000  0.81615000  1.0
  O  O42  1  0.20540000  0.07064000  0.39703000  1.0
  O  O43  1  0.79460000  0.92936000  0.60297000  1.0
  O  O44  1  0.44651000  0.46273000  0.13854000  1.0
  O  O45  1  0.55350000  0.53726000  0.86146000  1.0
  O  O46  1  0.47866000  0.10488000  0.28624000  1.0
  O  O47  1  0.52134000  0.89512000  0.71376000  1.0
  O  O48  1  0.42042000  0.22874000  0.98100000  1.0
  O  O49  1  0.57959000  0.77126000  0.01900000  1.0
  O  O50  1  0.81009000  0.41508000  0.11552000  1.0
  O  O51  1  0.18992000  0.58491000  0.88448000  1.0
  O  O52  1  0.01593000  0.05616000  0.12105000  1.0
  O  O53  1  0.98408000  0.94384000  0.87895000  1.0
  O  O54  1  0.84156000  0.07599000  0.34226000  1.0
  O  O55  1  0.15844000  0.92402000  0.65775000  1.0
  O  O56  1  0.23336000  0.73532000  0.11004000  1.0
  O  O57  1  0.76665000  0.26467000  0.88996000  1.0
  O  O58  1  0.27919000  0.07763000  0.91048000  1.0
  O  O59  1  0.72083000  0.92236000  0.08952000  1.0
