# generated using pymatgen
data_CdH9C8(NO2)2
_symmetry_space_group_name_H-M   'P 1'
_cell_length_a   7.49031000
_cell_length_b   9.10819000
_cell_length_c   14.65886746
_cell_angle_alpha   92.05716948
_cell_angle_beta   104.80299773
_cell_angle_gamma   89.97090000
_symmetry_Int_Tables_number   1
_chemical_formula_structural   CdH9C8(NO2)2
_chemical_formula_sum   'Cd4 H36 C32 N8 O16'
_cell_volume   966.21991706
_cell_formula_units_Z   4
loop_
 _symmetry_equiv_pos_site_id
 _symmetry_equiv_pos_as_xyz
  1  'x, y, z'
loop_
 _atom_site_type_symbol
 _atom_site_label
 _atom_site_symmetry_multiplicity
 _atom_site_fract_x
 _atom_site_fract_y
 _atom_site_fract_z
 _atom_site_occupancy
  Cd  Cd0  1  0.88103000  0.51905000  0.36841000  1.0
  Cd  Cd1  1  0.51206000  0.98098000  0.63155000  1.0
  Cd  Cd2  1  0.11897000  0.48095000  0.63159000  1.0
  Cd  Cd3  1  0.48794000  0.01902000  0.36845000  1.0
  H  H4  1  0.05480000  0.13745000  0.59145000  1.0
  H  H5  1  0.46365000  0.36269000  0.40865000  1.0
  H  H6  1  0.94520000  0.86255000  0.40855000  1.0
  H  H7  1  0.53633000  0.63732000  0.59134000  1.0
  H  H8  1  0.84026000  0.03833000  0.56183000  1.0
  H  H9  1  0.27840000  0.46174000  0.43805000  1.0
  H  H10  1  0.15974000  0.96167000  0.43817000  1.0
  H  H11  1  0.72160000  0.53826000  0.56195000  1.0
  H  H12  1  0.76902000  0.30519000  0.17726000  1.0
  H  H13  1  0.59093000  0.19490000  0.82270000  1.0
  H  H14  1  0.23097000  0.69481000  0.82274000  1.0
  H  H15  1  0.40907000  0.80510000  0.17730000  1.0
  H  H16  1  0.40960000  0.25062000  0.06890000  1.0
  H  H17  1  0.33951000  0.24961000  0.93090000  1.0
  H  H18  1  0.59040000  0.74937000  0.93111000  1.0
  H  H19  1  0.66050000  0.75039000  0.06911000  1.0
  H  H20  1  0.40769000  0.59297000  0.27214000  1.0
  H  H21  1  0.13523000  0.90691000  0.72788000  1.0
  H  H22  1  0.59231000  0.40704000  0.72785000  1.0
  H  H23  1  0.86477000  0.09309000  0.27212000  1.0
  H  H24  1  0.10238000  0.51569000  0.16982000  1.0
  H  H25  1  0.93182000  0.98448000  0.83009000  1.0
  H  H26  1  0.89762000  0.48430000  0.83018000  1.0
  H  H27  1  0.06818000  0.01552000  0.16991000  1.0
  H  H28  1  0.08963000  0.33284000  0.12336000  1.0
  H  H29  1  0.96547000  0.16730000  0.87665000  1.0
  H  H30  1  0.91037000  0.66716000  0.87664000  1.0
  H  H31  1  0.03453000  0.83270000  0.12335000  1.0
  H  H32  1  0.16724000  0.42747000  0.97506000  1.0
  H  H33  1  0.19213000  0.07239000  0.02467000  1.0
  H  H34  1  0.83275000  0.57253000  0.02494000  1.0
  H  H35  1  0.80786000  0.92760000  0.97533000  1.0
  H  H36  1  0.16532000  0.60783000  0.02184000  1.0
  H  H37  1  0.14326000  0.89211000  0.97785000  1.0
  H  H38  1  0.83469000  0.39217000  0.97817000  1.0
  H  H39  1  0.85674000  0.10789000  0.02215000  1.0
  C  C40  1  0.84196000  0.24011000  0.49000000  1.0
  C  C41  1  0.35210000  0.25999000  0.50998000  1.0
  C  C42  1  0.15804000  0.75989000  0.51000000  1.0
  C  C43  1  0.64790000  0.74001000  0.49002000  1.0
  C  C44  1  0.90376000  0.14747000  0.57690000  1.0
  C  C45  1  0.32707000  0.35260000  0.42306000  1.0
  C  C46  1  0.09624000  0.85253000  0.42310000  1.0
  C  C47  1  0.67293000  0.64740000  0.57694000  1.0
  C  C48  1  0.85909000  0.22022000  0.66436000  1.0
  C  C49  1  0.19532000  0.27981000  0.33558000  1.0
  C  C50  1  0.14091000  0.77978000  0.33564000  1.0
  C  C51  1  0.80467000  0.72018000  0.66441000  1.0
  C  C52  1  0.64017000  0.35784000  0.17887000  1.0
  C  C53  1  0.46054000  0.14223000  0.82107000  1.0
  C  C54  1  0.35984000  0.64215000  0.82114000  1.0
  C  C55  1  0.53946000  0.85777000  0.17893000  1.0
  C  C56  1  0.46404000  0.33184000  0.12465000  1.0
  C  C57  1  0.33842000  0.16840000  0.87517000  1.0
  C  C58  1  0.53596000  0.66816000  0.87535000  1.0
  C  C59  1  0.66158000  0.83160000  0.12483000  1.0
  C  C60  1  0.45990000  0.50771000  0.23227000  1.0
  C  C61  1  0.22708000  0.99232000  0.76770000  1.0
  C  C62  1  0.54011000  0.49230000  0.76773000  1.0
  C  C63  1  0.77293000  0.00769000  0.23231000  1.0
  C  C64  1  0.15252000  0.44138000  0.12122000  1.0
  C  C65  1  0.03058000  0.05876000  0.87868000  1.0
  C  C66  1  0.84748000  0.55863000  0.87878000  1.0
  C  C67  1  0.96941000  0.94124000  0.12132000  1.0
  C  C68  1  0.10412000  0.49749000  0.02096000  1.0
  C  C69  1  0.08293000  0.00247000  0.97888000  1.0
  C  C70  1  0.89588000  0.50251000  0.97904000  1.0
  C  C71  1  0.91707000  0.99753000  0.02112000  1.0
  N  N72  1  0.63554000  0.46718000  0.24568000  1.0
  N  N73  1  0.38933000  0.03280000  0.75431000  1.0
  N  N74  1  0.36446000  0.53282000  0.75432000  1.0
  N  N75  1  0.61067000  0.96720000  0.24569000  1.0
  N  N76  1  0.35156000  0.42786000  0.15889000  1.0
  N  N77  1  0.19186000  0.07234000  0.84094000  1.0
  N  N78  1  0.64843000  0.57214000  0.84110000  1.0
  N  N79  1  0.80814000  0.92766000  0.15906000  1.0
  O  O80  1  0.90202000  0.37390000  0.49832000  1.0
  O  O81  1  0.40390000  0.12617000  0.50167000  1.0
  O  O82  1  0.09798000  0.62610000  0.50168000  1.0
  O  O83  1  0.59609000  0.87383000  0.49832000  1.0
  O  O84  1  0.74029000  0.18703000  0.41423000  1.0
  O  O85  1  0.32605000  0.31316000  0.58571000  1.0
  O  O86  1  0.25970000  0.81298000  0.58577000  1.0
  O  O87  1  0.67394000  0.68685000  0.41428000  1.0
  O  O88  1  0.72650000  0.16933000  0.69328000  1.0
  O  O89  1  0.03352000  0.33036000  0.30670000  1.0
  O  O90  1  0.27350000  0.83067000  0.30672000  1.0
  O  O91  1  0.96647000  0.66964000  0.69329000  1.0
  O  O92  1  0.95675000  0.32965000  0.70545000  1.0
  O  O93  1  0.25238000  0.17069000  0.29438000  1.0
  O  O94  1  0.04324000  0.67036000  0.29454000  1.0
  O  O95  1  0.74761000  0.82931000  0.70562000  1.0
