# generated using pymatgen
data_ErAgH12C14N2O11
_symmetry_space_group_name_H-M   'P 1'
_cell_length_a   7.32752000
_cell_length_b   13.28950000
_cell_length_c   19.87190000
_cell_angle_alpha   74.13300000
_cell_angle_beta   89.99980000
_cell_angle_gamma   89.99890000
_symmetry_Int_Tables_number   1
_chemical_formula_structural   ErAgH12C14N2O11
_chemical_formula_sum   'Er4 Ag4 H48 C56 N8 O44'
_cell_volume   1861.37764052
_cell_formula_units_Z   4
loop_
 _symmetry_equiv_pos_site_id
 _symmetry_equiv_pos_as_xyz
  1  'x, y, z'
loop_
 _atom_site_type_symbol
 _atom_site_label
 _atom_site_symmetry_multiplicity
 _atom_site_fract_x
 _atom_site_fract_y
 _atom_site_fract_z
 _atom_site_occupancy
  Er  Er0  1  0.40988000  0.80813000  0.84917000  1.0
  Er  Er1  1  0.90992000  0.69189000  0.65081000  1.0
  Er  Er2  1  0.59008000  0.19186000  0.15083000  1.0
  Er  Er3  1  0.09008000  0.30812000  0.34918000  1.0
  Ag  Ag4  1  0.91701000  0.89308000  0.00641000  1.0
  Ag  Ag5  1  0.41706000  0.60692000  0.49356000  1.0
  Ag  Ag6  1  0.08295000  0.10691000  0.99357000  1.0
  Ag  Ag7  1  0.58297000  0.39306000  0.50644000  1.0
  H  H8  1  0.30928000  0.62079000  0.13252000  1.0
  H  H9  1  0.80938000  0.87921000  0.36745000  1.0
  H  H10  1  0.69073000  0.37921000  0.86749000  1.0
  H  H11  1  0.19062000  0.12082000  0.63254000  1.0
  H  H12  1  0.61310000  0.53206000  0.15616000  1.0
  H  H13  1  0.11315000  0.96793000  0.34384000  1.0
  H  H14  1  0.38693000  0.46795000  0.84385000  1.0
  H  H15  1  0.88685000  0.03208000  0.65616000  1.0
  H  H16  1  0.83167000  0.54862000  0.05262000  1.0
  H  H17  1  0.33168000  0.95138000  0.44737000  1.0
  H  H18  1  0.16834000  0.45138000  0.94737000  1.0
  H  H19  1  0.66831000  0.04863000  0.55262000  1.0
  H  H20  1  0.03027000  0.17786000  0.79378000  1.0
  H  H21  1  0.53038000  0.32217000  0.70629000  1.0
  H  H22  1  0.96974000  0.82216000  0.20619000  1.0
  H  H23  1  0.46969000  0.67783000  0.29378000  1.0
  H  H24  1  0.25369000  0.27776000  0.84801000  1.0
  H  H25  1  0.75377000  0.22225000  0.65203000  1.0
  H  H26  1  0.74637000  0.72225000  0.15193000  1.0
  H  H27  1  0.24633000  0.77773000  0.34805000  1.0
  H  H28  1  0.53378000  0.18215000  0.90826000  1.0
  H  H29  1  0.03382000  0.31785000  0.59174000  1.0
  H  H30  1  0.46626000  0.81787000  0.09168000  1.0
  H  H31  1  0.96625000  0.68212000  0.40832000  1.0
  H  H32  1  0.08970000  0.64438000  0.88259000  1.0
  H  H33  1  0.58972000  0.85564000  0.61739000  1.0
  H  H34  1  0.91026000  0.35561000  0.11741000  1.0
  H  H35  1  0.41029000  0.14438000  0.38259000  1.0
  H  H36  1  0.28605000  0.59452000  0.88764000  1.0
  H  H37  1  0.78606000  0.90549000  0.61235000  1.0
  H  H38  1  0.71392000  0.40546000  0.11236000  1.0
  H  H39  1  0.21395000  0.09452000  0.38764000  1.0
  H  H40  1  0.72147000  0.94795000  0.76929000  1.0
  H  H41  1  0.22153000  0.55208000  0.73070000  1.0
  H  H42  1  0.27850000  0.05204000  0.23072000  1.0
  H  H43  1  0.77848000  0.44795000  0.26928000  1.0
  H  H44  1  0.62016000  0.88252000  0.72545000  1.0
  H  H45  1  0.12021000  0.61750000  0.77453000  1.0
  H  H46  1  0.37980000  0.11747000  0.27455000  1.0
  H  H47  1  0.87981000  0.38252000  0.22546000  1.0
  H  H48  1  0.49642000  0.69975000  0.73645000  1.0
  H  H49  1  0.99639000  0.80028000  0.76353000  1.0
  H  H50  1  0.50357000  0.30026000  0.26353000  1.0
  H  H51  1  0.00357000  0.19972000  0.23647000  1.0
  H  H52  1  0.32288000  0.77376000  0.70865000  1.0
  H  H53  1  0.82287000  0.72626000  0.79133000  1.0
  H  H54  1  0.67711000  0.22625000  0.29135000  1.0
  H  H55  1  0.17709000  0.27374000  0.20866000  1.0
  C  C56  1  0.20273000  0.75406000  0.00323000  1.0
  C  C57  1  0.70279000  0.74593000  0.49675000  1.0
  C  C58  1  0.79724000  0.24592000  0.99678000  1.0
  C  C59  1  0.29724000  0.25408000  0.50324000  1.0
  C  C60  1  0.36175000  0.68010000  0.02210000  1.0
  C  C61  1  0.86180000  0.81989000  0.47789000  1.0
  C  C62  1  0.63823000  0.31988000  0.97791000  1.0
  C  C63  1  0.13823000  0.18010000  0.52211000  1.0
  C  C64  1  0.40449000  0.62228000  0.09017000  1.0
  C  C65  1  0.90454000  0.87771000  0.40981000  1.0
  C  C66  1  0.59550000  0.37771000  0.90983000  1.0
  C  C67  1  0.09546000  0.12228000  0.59018000  1.0
  C  C68  1  0.57442000  0.57276000  0.10252000  1.0
  C  C69  1  0.07445000  0.92725000  0.39748000  1.0
  C  C70  1  0.42559000  0.42725000  0.89749000  1.0
  C  C71  1  0.92556000  0.07274000  0.60252000  1.0
  C  C72  1  0.69352000  0.58044000  0.04643000  1.0
  C  C73  1  0.19355000  0.91957000  0.45356000  1.0
  C  C74  1  0.30647000  0.41956000  0.95356000  1.0
  C  C75  1  0.80645000  0.08043000  0.54644000  1.0
  C  C76  1  0.63417000  0.63394000  0.97943000  1.0
  C  C77  1  0.13418000  0.86607000  0.52057000  1.0
  C  C78  1  0.36581000  0.36605000  0.02057000  1.0
  C  C79  1  0.86581000  0.13395000  0.47943000  1.0
  C  C80  1  0.75052000  0.64727000  0.91513000  1.0
  C  C81  1  0.25053000  0.85274000  0.58487000  1.0
  C  C82  1  0.24945000  0.35272000  0.08487000  1.0
  C  C83  1  0.74946000  0.14727000  0.41513000  1.0
  C  C84  1  0.07316000  0.97202000  0.78947000  1.0
  C  C85  1  0.57327000  0.52803000  0.71054000  1.0
  C  C86  1  0.92679000  0.02797000  0.21053000  1.0
  C  C87  1  0.42677000  0.47200000  0.28947000  1.0
  C  C88  1  0.19674000  0.03921000  0.81959000  1.0
  C  C89  1  0.69682000  0.46081000  0.68042000  1.0
  C  C90  1  0.80323000  0.96078000  0.18039000  1.0
  C  C91  1  0.30319000  0.53921000  0.31960000  1.0
  C  C92  1  0.15662000  0.14261000  0.81797000  1.0
  C  C93  1  0.65670000  0.35741000  0.68205000  1.0
  C  C94  1  0.84338000  0.85739000  0.18200000  1.0
  C  C95  1  0.34333000  0.64261000  0.31798000  1.0
  C  C96  1  0.27998000  0.19673000  0.84885000  1.0
  C  C97  1  0.78004000  0.30329000  0.65117000  1.0
  C  C98  1  0.72004000  0.80328000  0.15111000  1.0
  C  C99  1  0.22001000  0.69671000  0.34888000  1.0
  C  C100  1  0.43519000  0.14489000  0.88198000  1.0
  C  C101  1  0.93526000  0.35511000  0.61805000  1.0
  C  C102  1  0.56483000  0.85512000  0.11798000  1.0
  C  C103  1  0.06482000  0.64488000  0.38201000  1.0
  C  C104  1  0.46202000  0.04079000  0.88239000  1.0
  C  C105  1  0.96213000  0.45921000  0.61762000  1.0
  C  C106  1  0.53795000  0.95921000  0.11759000  1.0
  C  C107  1  0.03794000  0.54078000  0.38242000  1.0
  C  C108  1  0.61406000  0.97309000  0.92048000  1.0
  C  C109  1  0.11415000  0.52691000  0.57951000  1.0
  C  C110  1  0.38590000  0.02689000  0.07951000  1.0
  C  C111  1  0.88589000  0.47309000  0.42051000  1.0
  N  N112  1  0.47302000  0.68278000  0.96801000  1.0
  N  N113  1  0.97305000  0.81723000  0.53198000  1.0
  N  N114  1  0.52696000  0.31721000  0.03199000  1.0
  N  N115  1  0.02695000  0.18279000  0.46802000  1.0
  N  N116  1  0.34708000  0.99070000  0.85035000  1.0
  N  N117  1  0.84718000  0.50931000  0.64967000  1.0
  N  N118  1  0.65288000  0.00928000  0.14964000  1.0
  N  N119  1  0.15286000  0.49070000  0.35036000  1.0
  O  O120  1  0.19536000  0.80997000  0.94030000  1.0
  O  O121  1  0.69541000  0.69003000  0.55967000  1.0
  O  O122  1  0.80461000  0.19001000  0.05970000  1.0
  O  O123  1  0.30459000  0.30998000  0.44032000  1.0
  O  O124  1  0.09320000  0.75996000  0.05171000  1.0
  O  O125  1  0.59326000  0.74003000  0.44826000  1.0
  O  O126  1  0.90678000  0.24002000  0.94829000  1.0
  O  O127  1  0.40675000  0.25998000  0.55173000  1.0
  O  O128  1  0.67535000  0.69844000  0.85745000  1.0
  O  O129  1  0.17537000  0.80156000  0.64255000  1.0
  O  O130  1  0.32461000  0.30154000  0.14255000  1.0
  O  O131  1  0.82465000  0.19844000  0.35745000  1.0
  O  O132  1  0.90781000  0.60874000  0.92316000  1.0
  O  O133  1  0.40782000  0.89125000  0.57684000  1.0
  O  O134  1  0.09216000  0.39125000  0.07683000  1.0
  O  O135  1  0.59218000  0.10873000  0.42316000  1.0
  O  O136  1  0.13850000  0.88232000  0.78904000  1.0
  O  O137  1  0.63858000  0.61774000  0.71094000  1.0
  O  O138  1  0.86144000  0.11767000  0.21096000  1.0
  O  O139  1  0.36142000  0.38229000  0.28905000  1.0
  O  O140  1  0.91921000  0.00811000  0.76777000  1.0
  O  O141  1  0.41930000  0.49193000  0.73226000  1.0
  O  O142  1  0.08074000  0.99189000  0.23223000  1.0
  O  O143  1  0.58070000  0.50808000  0.26776000  1.0
  O  O144  1  0.62247000  0.88059000  0.91433000  1.0
  O  O145  1  0.12253000  0.61942000  0.58564000  1.0
  O  O146  1  0.37749000  0.11940000  0.08567000  1.0
  O  O147  1  0.87748000  0.38058000  0.41435000  1.0
  O  O148  1  0.72043000  0.01170000  0.95761000  1.0
  O  O149  1  0.22048000  0.48829000  0.54237000  1.0
  O  O150  1  0.27954000  0.98830000  0.04237000  1.0
  O  O151  1  0.77956000  0.51168000  0.45765000  1.0
  O  O152  1  0.21620000  0.65423000  0.86063000  1.0
  O  O153  1  0.71623000  0.84577000  0.63934000  1.0
  O  O154  1  0.78376000  0.34575000  0.13936000  1.0
  O  O155  1  0.28377000  0.15424000  0.36065000  1.0
  O  O156  1  0.60049000  0.91717000  0.76274000  1.0
  O  O157  1  0.10055000  0.58285000  0.73723000  1.0
  O  O158  1  0.39949000  0.08282000  0.23726000  1.0
  O  O159  1  0.89947000  0.41717000  0.26276000  1.0
  O  O160  1  0.41762000  0.75542000  0.74625000  1.0
  O  O161  1  0.91763000  0.74460000  0.75374000  1.0
  O  O162  1  0.58236000  0.24458000  0.25375000  1.0
  O  O163  1  0.08235000  0.25540000  0.24626000  1.0
