# generated using pymatgen
data_HgH9C12N7O
_symmetry_space_group_name_H-M   'P 1'
_cell_length_a   14.54420000
_cell_length_b   14.54910000
_cell_length_c   16.21800000
_cell_angle_alpha   90.00000000
_cell_angle_beta   89.99970000
_cell_angle_gamma   89.99990000
_symmetry_Int_Tables_number   1
_chemical_formula_structural   HgH9C12N7O
_chemical_formula_sum   'Hg8 H72 C96 N56 O8'
_cell_volume   3431.81021788
_cell_formula_units_Z   8
loop_
 _symmetry_equiv_pos_site_id
 _symmetry_equiv_pos_as_xyz
  1  'x, y, z'
loop_
 _atom_site_type_symbol
 _atom_site_label
 _atom_site_symmetry_multiplicity
 _atom_site_fract_x
 _atom_site_fract_y
 _atom_site_fract_z
 _atom_site_occupancy
  Hg  Hg0  1  0.46590000  0.85339000  0.43254000  1.0
  Hg  Hg1  1  0.53410000  0.64661000  0.93253000  1.0
  Hg  Hg2  1  0.96590000  0.14661000  0.06746000  1.0
  Hg  Hg3  1  0.03410000  0.35339000  0.56747000  1.0
  Hg  Hg4  1  0.53410000  0.14661000  0.56747000  1.0
  Hg  Hg5  1  0.46590000  0.35339000  0.06746000  1.0
  Hg  Hg6  1  0.03410000  0.85339000  0.93254000  1.0
  Hg  Hg7  1  0.96590000  0.64661000  0.43254000  1.0
  H  H8  1  0.62235000  0.83365000  0.73186000  1.0
  H  H9  1  0.37766000  0.66635000  0.23186000  1.0
  H  H10  1  0.12235000  0.16635000  0.76814000  1.0
  H  H11  1  0.87765000  0.33365000  0.26814000  1.0
  H  H12  1  0.37765000  0.16635000  0.26814000  1.0
  H  H13  1  0.62235000  0.33364000  0.76814000  1.0
  H  H14  1  0.87765000  0.83365000  0.23186000  1.0
  H  H15  1  0.12235000  0.66635000  0.73186000  1.0
  H  H16  1  0.73487000  0.70343000  0.71376000  1.0
  H  H17  1  0.26513000  0.79657000  0.21377000  1.0
  H  H18  1  0.23487000  0.29658000  0.78624000  1.0
  H  H19  1  0.76513000  0.20343000  0.28623000  1.0
  H  H20  1  0.26513000  0.29657000  0.28623000  1.0
  H  H21  1  0.73487000  0.20342000  0.78624000  1.0
  H  H22  1  0.76513000  0.70343000  0.21376000  1.0
  H  H23  1  0.23487000  0.79657000  0.71376000  1.0
  H  H24  1  0.73931000  0.62125000  0.57832000  1.0
  H  H25  1  0.26069000  0.87875000  0.07832000  1.0
  H  H26  1  0.23931000  0.37875000  0.92168000  1.0
  H  H27  1  0.76068000  0.12125000  0.42167000  1.0
  H  H28  1  0.26068000  0.37875000  0.42168000  1.0
  H  H29  1  0.73931000  0.12125000  0.92168000  1.0
  H  H30  1  0.76069000  0.62125000  0.07832000  1.0
  H  H31  1  0.23931000  0.87875000  0.57832000  1.0
  H  H32  1  0.63468000  0.67365000  0.46513000  1.0
  H  H33  1  0.36532000  0.82635000  0.96513000  1.0
  H  H34  1  0.13468000  0.32635000  0.03487000  1.0
  H  H35  1  0.86531000  0.17365000  0.53487000  1.0
  H  H36  1  0.36531000  0.32635000  0.53487000  1.0
  H  H37  1  0.63468000  0.17365000  0.03487000  1.0
  H  H38  1  0.86532000  0.67365000  0.96513000  1.0
  H  H39  1  0.13468000  0.82635000  0.46513000  1.0
  H  H40  1  0.49824000  0.92873000  0.67837000  1.0
  H  H41  1  0.50175000  0.57126000  0.17836000  1.0
  H  H42  1  0.99825000  0.07127000  0.82163000  1.0
  H  H43  1  0.00175000  0.42873000  0.32164000  1.0
  H  H44  1  0.50175000  0.07127000  0.32164000  1.0
  H  H45  1  0.49825000  0.42873000  0.82163000  1.0
  H  H46  1  0.00175000  0.92874000  0.17837000  1.0
  H  H47  1  0.99825000  0.57126000  0.67837000  1.0
  H  H48  1  0.20034000  0.06446000  0.40347000  1.0
  H  H49  1  0.79966000  0.43554000  0.90347000  1.0
  H  H50  1  0.70034000  0.93554000  0.09653000  1.0
  H  H51  1  0.29965000  0.56446000  0.59653000  1.0
  H  H52  1  0.79965000  0.93554000  0.59653000  1.0
  H  H53  1  0.20034000  0.56446000  0.09653000  1.0
  H  H54  1  0.29966000  0.06446000  0.90347000  1.0
  H  H55  1  0.70034000  0.43554000  0.40347000  1.0
  H  H56  1  0.08815000  0.19226000  0.42894000  1.0
  H  H57  1  0.91185000  0.30774000  0.92894000  1.0
  H  H58  1  0.58815000  0.80774000  0.07106000  1.0
  H  H59  1  0.41185000  0.69226000  0.57107000  1.0
  H  H60  1  0.91185000  0.80774000  0.57107000  1.0
  H  H61  1  0.08815000  0.69226000  0.07106000  1.0
  H  H62  1  0.41185000  0.19226000  0.92893000  1.0
  H  H63  1  0.58815000  0.30774000  0.42894000  1.0
  H  H64  1  0.19390000  0.23992000  0.66204000  1.0
  H  H65  1  0.80611000  0.26009000  0.16204000  1.0
  H  H66  1  0.69390000  0.76008000  0.83796000  1.0
  H  H67  1  0.30610000  0.73991000  0.33796000  1.0
  H  H68  1  0.80610000  0.76009000  0.33796000  1.0
  H  H69  1  0.19390000  0.73992000  0.83796000  1.0
  H  H70  1  0.30611000  0.23992000  0.16204000  1.0
  H  H71  1  0.69390000  0.26008000  0.66204000  1.0
  H  H72  1  0.30834000  0.11162000  0.64752000  1.0
  H  H73  1  0.69166000  0.38838000  0.14752000  1.0
  H  H74  1  0.80835000  0.88838000  0.85248000  1.0
  H  H75  1  0.19166000  0.61162000  0.35248000  1.0
  H  H76  1  0.69166000  0.88838000  0.35248000  1.0
  H  H77  1  0.30835000  0.61162000  0.85248000  1.0
  H  H78  1  0.19166000  0.11162000  0.14752000  1.0
  H  H79  1  0.80834000  0.38838000  0.64751000  1.0
  C  C80  1  0.56988000  0.82062000  0.60813000  1.0
  C  C81  1  0.43011000  0.67938000  0.10813000  1.0
  C  C82  1  0.06989000  0.17938000  0.89187000  1.0
  C  C83  1  0.93011000  0.32062000  0.39188000  1.0
  C  C84  1  0.43011000  0.17938000  0.39188000  1.0
  C  C85  1  0.56989000  0.32062000  0.89187000  1.0
  C  C86  1  0.93012000  0.82063000  0.10813000  1.0
  C  C87  1  0.06988000  0.67938000  0.60813000  1.0
  C  C88  1  0.62723000  0.79583000  0.67400000  1.0
  C  C89  1  0.37277000  0.70417000  0.17400000  1.0
  C  C90  1  0.12723000  0.20417000  0.82600000  1.0
  C  C91  1  0.87277000  0.29584000  0.32600000  1.0
  C  C92  1  0.37277000  0.20417000  0.32600000  1.0
  C  C93  1  0.62723000  0.29583000  0.82600000  1.0
  C  C94  1  0.87277000  0.79583000  0.17400000  1.0
  C  C95  1  0.12723000  0.70417000  0.67400000  1.0
  C  C96  1  0.68869000  0.72348000  0.66407000  1.0
  C  C97  1  0.31131000  0.77652000  0.16408000  1.0
  C  C98  1  0.18869000  0.27653000  0.83593000  1.0
  C  C99  1  0.81131000  0.22347000  0.33593000  1.0
  C  C100  1  0.31131000  0.27653000  0.33593000  1.0
  C  C101  1  0.68869000  0.22347000  0.83593000  1.0
  C  C102  1  0.81131000  0.72348000  0.16407000  1.0
  C  C103  1  0.18869000  0.77653000  0.66407000  1.0
  C  C104  1  0.69185000  0.67783000  0.58853000  1.0
  C  C105  1  0.30815000  0.82217000  0.08853000  1.0
  C  C106  1  0.19185000  0.32217000  0.91147000  1.0
  C  C107  1  0.80815000  0.17783000  0.41147000  1.0
  C  C108  1  0.30815000  0.32217000  0.41147000  1.0
  C  C109  1  0.69185000  0.17783000  0.91147000  1.0
  C  C110  1  0.80815000  0.67783000  0.08853000  1.0
  C  C111  1  0.19185000  0.82217000  0.58853000  1.0
  C  C112  1  0.63339000  0.70703000  0.52544000  1.0
  C  C113  1  0.36661000  0.79297000  0.02544000  1.0
  C  C114  1  0.13339000  0.29297000  0.97456000  1.0
  C  C115  1  0.86661000  0.20703000  0.47456000  1.0
  C  C116  1  0.36661000  0.29297000  0.47456000  1.0
  C  C117  1  0.63339000  0.20703000  0.97456000  1.0
  C  C118  1  0.86661000  0.70703000  0.02544000  1.0
  C  C119  1  0.13339000  0.79297000  0.52544000  1.0
  C  C120  1  0.50342000  0.89436000  0.61851000  1.0
  C  C121  1  0.49658000  0.60564000  0.11851000  1.0
  C  C122  1  0.00342000  0.10564000  0.88149000  1.0
  C  C123  1  0.99658000  0.39436000  0.38149000  1.0
  C  C124  1  0.49658000  0.10564000  0.38149000  1.0
  C  C125  1  0.50342000  0.39436000  0.88149000  1.0
  C  C126  1  0.99658000  0.89436000  0.11851000  1.0
  C  C127  1  0.00342000  0.60564000  0.61851000  1.0
  C  C128  1  0.32970000  0.00170000  0.50822000  1.0
  C  C129  1  0.67030000  0.49830000  0.00822000  1.0
  C  C130  1  0.82970000  0.99830000  0.99178000  1.0
  C  C131  1  0.17029000  0.50170000  0.49178000  1.0
  C  C132  1  0.67029000  0.99830000  0.49178000  1.0
  C  C133  1  0.32970000  0.50170000  0.99178000  1.0
  C  C134  1  0.17030000  0.00170000  0.00822000  1.0
  C  C135  1  0.82970000  0.49830000  0.50822000  1.0
  C  C136  1  0.26249000  0.07770000  0.52386000  1.0
  C  C137  1  0.73751000  0.42230000  0.02387000  1.0
  C  C138  1  0.76249000  0.92230000  0.97613000  1.0
  C  C139  1  0.23751000  0.57770000  0.47613000  1.0
  C  C140  1  0.73751000  0.92229000  0.47613000  1.0
  C  C141  1  0.26249000  0.57770000  0.97613000  1.0
  C  C142  1  0.23751000  0.07770000  0.02387000  1.0
  C  C143  1  0.76249000  0.42229000  0.52386000  1.0
  C  C144  1  0.19950000  0.10093000  0.46209000  1.0
  C  C145  1  0.80050000  0.39907000  0.96209000  1.0
  C  C146  1  0.69950000  0.89907000  0.03791000  1.0
  C  C147  1  0.30050000  0.60093000  0.53791000  1.0
  C  C148  1  0.80050000  0.89907000  0.53791000  1.0
  C  C149  1  0.19950000  0.60093000  0.03791000  1.0
  C  C150  1  0.30050000  0.10093000  0.96209000  1.0
  C  C151  1  0.69950000  0.39907000  0.46209000  1.0
  C  C152  1  0.13729000  0.17182000  0.47628000  1.0
  C  C153  1  0.86272000  0.32818000  0.97628000  1.0
  C  C154  1  0.63729000  0.82818000  0.02372000  1.0
  C  C155  1  0.36271000  0.67182000  0.52372000  1.0
  C  C156  1  0.86271000  0.82818000  0.52372000  1.0
  C  C157  1  0.13729000  0.67182000  0.02371000  1.0
  C  C158  1  0.36272000  0.17182000  0.97628000  1.0
  C  C159  1  0.63729000  0.32818000  0.47628000  1.0
  C  C160  1  0.19674000  0.19786000  0.60646000  1.0
  C  C161  1  0.80326000  0.30214000  0.10647000  1.0
  C  C162  1  0.69674000  0.80214000  0.89353000  1.0
  C  C163  1  0.30326000  0.69786000  0.39354000  1.0
  C  C164  1  0.80326000  0.80214000  0.39354000  1.0
  C  C165  1  0.19674000  0.69786000  0.89353000  1.0
  C  C166  1  0.30326000  0.19786000  0.10647000  1.0
  C  C167  1  0.69674000  0.30214000  0.60646000  1.0
  C  C168  1  0.26054000  0.12747000  0.59791000  1.0
  C  C169  1  0.73946000  0.37253000  0.09791000  1.0
  C  C170  1  0.76055000  0.87253000  0.90209000  1.0
  C  C171  1  0.23946000  0.62747000  0.40209000  1.0
  C  C172  1  0.73946000  0.87253000  0.40209000  1.0
  C  C173  1  0.26054000  0.62747000  0.90209000  1.0
  C  C174  1  0.23946000  0.12747000  0.09791000  1.0
  C  C175  1  0.76054000  0.37253000  0.59791000  1.0
  N  N176  1  0.57404000  0.77642000  0.53477000  1.0
  N  N177  1  0.42596000  0.72358000  0.03477000  1.0
  N  N178  1  0.07404000  0.22358000  0.96523000  1.0
  N  N179  1  0.92596000  0.27641000  0.46523000  1.0
  N  N180  1  0.42596000  0.22359000  0.46523000  1.0
  N  N181  1  0.57404000  0.27642000  0.96523000  1.0
  N  N182  1  0.92596000  0.77642000  0.03477000  1.0
  N  N183  1  0.07404000  0.72358000  0.53477000  1.0
  N  N184  1  0.44971000  0.91980000  0.55879000  1.0
  N  N185  1  0.55029000  0.58021000  0.05879000  1.0
  N  N186  1  0.94971000  0.08020000  0.94121000  1.0
  N  N187  1  0.05030000  0.41980000  0.44122000  1.0
  N  N188  1  0.55030000  0.08020000  0.44122000  1.0
  N  N189  1  0.44971000  0.41980000  0.94121000  1.0
  N  N190  1  0.05029000  0.91980000  0.05879000  1.0
  N  N191  1  0.94970000  0.58020000  0.55878000  1.0
  N  N192  1  0.38893000  0.98772000  0.57193000  1.0
  N  N193  1  0.61107000  0.51228000  0.07193000  1.0
  N  N194  1  0.88894000  0.01228000  0.92807000  1.0
  N  N195  1  0.11106000  0.48772000  0.42808000  1.0
  N  N196  1  0.61106000  0.01228000  0.42807000  1.0
  N  N197  1  0.38894000  0.48772000  0.92807000  1.0
  N  N198  1  0.11107000  0.98772000  0.07193000  1.0
  N  N199  1  0.88893000  0.51228000  0.57193000  1.0
  N  N200  1  0.13566000  0.21923000  0.54726000  1.0
  N  N201  1  0.86434000  0.28077000  0.04726000  1.0
  N  N202  1  0.63567000  0.78077000  0.95274000  1.0
  N  N203  1  0.36434000  0.71923000  0.45274000  1.0
  N  N204  1  0.86434000  0.78077000  0.45274000  1.0
  N  N205  1  0.13567000  0.71923000  0.95274000  1.0
  N  N206  1  0.36434000  0.21923000  0.04726000  1.0
  N  N207  1  0.63566000  0.28077000  0.54726000  1.0
  N  N208  1  0.47511000  0.85128000  0.30028000  1.0
  N  N209  1  0.52488000  0.64872000  0.80027000  1.0
  N  N210  1  0.97512000  0.14872000  0.19972000  1.0
  N  N211  1  0.02488000  0.35127000  0.69973000  1.0
  N  N212  1  0.52488000  0.14872000  0.69972000  1.0
  N  N213  1  0.47512000  0.35128000  0.19972000  1.0
  N  N214  1  0.02489000  0.85128000  0.80028000  1.0
  N  N215  1  0.97512000  0.64872000  0.30028000  1.0
  N  N216  1  0.54276000  0.82049000  0.26671000  1.0
  N  N217  1  0.45725000  0.67951000  0.76671000  1.0
  N  N218  1  0.04275000  0.17951000  0.23329000  1.0
  N  N219  1  0.95724000  0.32048000  0.73330000  1.0
  N  N220  1  0.45724000  0.17951000  0.73330000  1.0
  N  N221  1  0.54275000  0.32050000  0.23329000  1.0
  N  N222  1  0.95725000  0.82049000  0.76671000  1.0
  N  N223  1  0.04275000  0.67951000  0.26671000  1.0
  N  N224  1  0.60466000  0.79224000  0.22849000  1.0
  N  N225  1  0.39534000  0.70776000  0.72848000  1.0
  N  N226  1  0.10466000  0.20776000  0.27152000  1.0
  N  N227  1  0.89534000  0.29223000  0.77152000  1.0
  N  N228  1  0.39534000  0.20777000  0.77152000  1.0
  N  N229  1  0.60466000  0.29224000  0.27152000  1.0
  N  N230  1  0.89534000  0.79224000  0.72848000  1.0
  N  N231  1  0.10466000  0.70776000  0.22848000  1.0
  O  O232  1  0.32490000  0.95801000  0.44108000  1.0
  O  O233  1  0.67510000  0.54198000  0.94108000  1.0
  O  O234  1  0.82490000  0.04199000  0.05892000  1.0
  O  O235  1  0.17509000  0.45802000  0.55893000  1.0
  O  O236  1  0.67509000  0.04199000  0.55893000  1.0
  O  O237  1  0.32490000  0.45801000  0.05892000  1.0
  O  O238  1  0.17510000  0.95801000  0.94108000  1.0
  O  O239  1  0.82490000  0.54199000  0.44108000  1.0
