# generated using pymatgen
data_FeHC2O3
_symmetry_space_group_name_H-M   'P 1'
_cell_length_a   3.37472000
_cell_length_b   8.59580019
_cell_length_c   9.68543000
_cell_angle_alpha   89.99875820
_cell_angle_beta   89.99810000
_cell_angle_gamma   94.35603167
_symmetry_Int_Tables_number   1
_chemical_formula_structural   FeHC2O3
_chemical_formula_sum   'Fe4 H4 C8 O12'
_cell_volume   280.14741225
_cell_formula_units_Z   4
loop_
 _symmetry_equiv_pos_site_id
 _symmetry_equiv_pos_as_xyz
  1  'x, y, z'
loop_
 _atom_site_type_symbol
 _atom_site_label
 _atom_site_symmetry_multiplicity
 _atom_site_fract_x
 _atom_site_fract_y
 _atom_site_fract_z
 _atom_site_occupancy
  Fe  Fe0  1  0.18278000  0.56268000  0.09902000  1.0
  Fe  Fe1  1  0.31716000  0.93731000  0.59901000  1.0
  Fe  Fe2  1  0.81721000  0.43733000  0.90099000  1.0
  Fe  Fe3  1  0.68280000  0.06266000  0.40101000  1.0
  H  H4  1  0.33769000  0.68048000  0.84928000  1.0
  H  H5  1  0.16235000  0.81951000  0.34927000  1.0
  H  H6  1  0.66231000  0.31953000  0.15072000  1.0
  H  H7  1  0.83765000  0.18045000  0.65072000  1.0
  C  C8  1  0.38183000  0.55382000  0.41441000  1.0
  C  C9  1  0.11819000  0.94615000  0.91438000  1.0
  C  C10  1  0.61816000  0.44617000  0.58560000  1.0
  C  C11  1  0.88185000  0.05385000  0.08561000  1.0
  C  C12  1  0.55314000  0.60815000  0.54754000  1.0
  C  C13  1  0.94692000  0.89187000  0.04756000  1.0
  C  C14  1  0.44684000  0.39183000  0.45245000  1.0
  C  C15  1  0.05313000  0.10815000  0.95243000  1.0
  O  O16  1  0.33865000  0.57543000  0.89242000  1.0
  O  O17  1  0.16138000  0.92458000  0.39240000  1.0
  O  O18  1  0.66129000  0.42458000  0.10757000  1.0
  O  O19  1  0.83865000  0.07543000  0.60760000  1.0
  O  O20  1  0.23839000  0.62194000  0.31264000  1.0
  O  O21  1  0.26159000  0.87803000  0.81265000  1.0
  O  O22  1  0.76160000  0.37804000  0.68736000  1.0
  O  O23  1  0.73843000  0.12198000  0.18736000  1.0
  O  O24  1  0.62365000  0.73878000  0.60583000  1.0
  O  O25  1  0.87644000  0.76123000  0.10585000  1.0
  O  O26  1  0.37632000  0.26122000  0.39418000  1.0
  O  O27  1  0.12359000  0.23878000  0.89415000  1.0
