# generated using pymatgen
data_Zr3H10C32S5O28
_symmetry_space_group_name_H-M   'P 1'
_cell_length_a   16.43780000
_cell_length_b   16.44540482
_cell_length_c   16.45854622
_cell_angle_alpha   118.12355442
_cell_angle_beta   119.82327346
_cell_angle_gamma   91.71803477
_symmetry_Int_Tables_number   1
_chemical_formula_structural   Zr3H10C32S5O28
_chemical_formula_sum   'Zr6 H20 C64 S10 O56'
_cell_volume   3194.48787493
_cell_formula_units_Z   2
loop_
 _symmetry_equiv_pos_site_id
 _symmetry_equiv_pos_as_xyz
  1  'x, y, z'
loop_
 _atom_site_type_symbol
 _atom_site_label
 _atom_site_symmetry_multiplicity
 _atom_site_fract_x
 _atom_site_fract_y
 _atom_site_fract_z
 _atom_site_occupancy
  Zr  Zr0  1  0.60270000  0.09736000  0.21025000  1.0
  Zr  Zr1  1  0.38907000  0.88938000  0.78911000  1.0
  Zr  Zr2  1  0.38841000  0.10101000  0.99925000  1.0
  Zr  Zr3  1  0.60434000  0.88713000  0.00056000  1.0
  Zr  Zr4  1  0.60336000  0.10163000  0.99926000  1.0
  Zr  Zr5  1  0.38818000  0.88585000  0.99966000  1.0
  H  H6  1  0.58411000  0.24437000  0.16495000  1.0
  H  H7  1  0.58086000  0.91708000  0.83396000  1.0
  H  H8  1  0.24050000  0.90758000  0.83022000  1.0
  H  H9  1  0.57957000  0.90752000  0.16899000  1.0
  H  H10  1  0.40268000  0.38607000  0.26450000  1.0
  H  H11  1  0.67121000  0.36350000  0.48861000  1.0
  H  H12  1  0.63033000  0.64019000  0.73697000  1.0
  H  H13  1  0.37311000  0.67469000  0.51192000  1.0
  H  H14  1  0.20352000  0.68786000  0.85479000  1.0
  H  H15  1  0.81484000  0.27053000  0.14600000  1.0
  H  H16  1  0.62446000  0.16517000  0.85180000  1.0
  H  H17  1  0.33347000  0.84757000  0.14351000  1.0
  H  H18  1  0.09565000  0.22502000  0.09484000  1.0
  H  H19  1  0.96350000  0.87350000  0.12872000  1.0
  H  H20  1  0.24603000  0.33517000  0.88362000  1.0
  H  H21  1  0.57451000  0.47616000  0.84083000  1.0
  H  H22  1  0.21148000  0.85488000  0.56084000  1.0
  H  H23  1  0.80037000  0.15120000  0.43815000  1.0
  H  H24  1  0.25934000  0.42369000  0.27055000  1.0
  H  H25  1  0.69014000  0.49637000  0.74591000  1.0
  C  C26  1  0.78040000  0.25800000  0.26733000  1.0
  C  C27  1  0.49094000  0.00959000  0.73057000  1.0
  C  C28  1  0.22714000  0.71418000  0.73256000  1.0
  C  C29  1  0.48349000  0.99189000  0.26647000  1.0
  C  C30  1  0.50813000  0.26398000  0.27304000  1.0
  C  C31  1  0.77762000  0.00391000  0.27679000  1.0
  C  C32  1  0.49533000  0.73328000  0.72850000  1.0
  C  C33  1  0.22905000  0.99735000  0.72240000  1.0
  C  C34  1  0.49431000  0.26302000  0.99228000  1.0
  C  C35  1  0.22451000  0.99202000  0.00143000  1.0
  C  C36  1  0.49057000  0.71888000  0.99418000  1.0
  C  C37  1  0.77130000  0.99996000  0.00461000  1.0
  C  C38  1  0.08730000  0.56260000  0.65361000  1.0
  C  C39  1  0.93639000  0.39373000  0.34728000  1.0
  C  C40  1  0.14506000  0.61953000  0.64578000  1.0
  C  C41  1  0.87451000  0.34139000  0.35531000  1.0
  C  C42  1  0.01360000  0.47502000  0.45713000  1.0
  C  C43  1  0.01099000  0.48101000  0.54365000  1.0
  C  C44  1  0.54708000  0.08551000  0.65081000  1.0
  C  C45  1  0.40899000  0.93152000  0.34440000  1.0
  C  C46  1  0.48620000  0.01583000  0.64254000  1.0
  C  C47  1  0.47481000  0.99659000  0.35279000  1.0
  C  C48  1  0.43723000  0.96472000  0.45425000  1.0
  C  C49  1  0.51849000  0.05320000  0.54104000  1.0
  C  C50  1  0.08148000  0.05660000  0.99121000  1.0
  C  C51  1  0.90471000  0.92688000  0.99812000  1.0
  C  C52  1  0.13239000  0.99076000  0.99587000  1.0
  C  C53  1  0.85844000  0.99683000  0.00102000  1.0
  C  C54  1  0.98900000  0.95100000  0.99930000  1.0
  C  C55  1  0.00107000  0.03517000  0.99690000  1.0
  C  C56  1  0.43030000  0.40486000  0.00195000  1.0
  C  C57  1  0.55517000  0.57642000  0.98520000  1.0
  C  C58  1  0.49264000  0.35150000  0.99110000  1.0
  C  C59  1  0.49201000  0.62950000  0.99400000  1.0
  C  C60  1  0.53015000  0.49294000  0.98477000  1.0
  C  C61  1  0.45105000  0.48566000  0.99633000  1.0
  C  C62  1  0.46462000  0.41342000  0.35082000  1.0
  C  C63  1  0.61714000  0.40126000  0.47845000  1.0
  C  C64  1  0.63574000  0.48802000  0.57061000  1.0
  C  C65  1  0.56290000  0.53569000  0.55714000  1.0
  C  C66  1  0.56927000  0.61408000  0.65069000  1.0
  C  C67  1  0.42330000  0.63299000  0.52267000  1.0
  C  C68  1  0.41561000  0.55749000  0.43001000  1.0
  C  C69  1  0.48007000  0.50119000  0.44392000  1.0
  C  C70  1  0.52864000  0.36112000  0.36874000  1.0
  C  C71  1  0.49690000  0.65788000  0.63306000  1.0
  C  C72  1  0.09626000  0.93947000  0.51326000  1.0
  C  C73  1  0.93133000  0.08205000  0.48526000  1.0
  C  C74  1  0.14825000  0.00241000  0.63159000  1.0
  C  C75  1  0.87365000  0.01372000  0.36714000  1.0
  C  C76  1  0.01309000  0.05444000  0.53732000  1.0
  C  C77  1  0.01781000  0.97024000  0.46108000  1.0
  C  C78  1  0.09185000  0.56818000  0.74962000  1.0
  C  C79  1  0.93996000  0.37684000  0.25155000  1.0
  C  C80  1  0.62667000  0.18435000  0.74667000  1.0
  C  C81  1  0.31763000  0.84104000  0.24794000  1.0
  C  C82  1  0.09743000  0.13140000  0.96792000  1.0
  C  C83  1  0.86043000  0.83028000  0.97460000  1.0
  C  C84  1  0.36395000  0.38956000  0.03556000  1.0
  C  C85  1  0.64234000  0.60302000  0.98341000  1.0
  C  C86  1  0.10715000  0.85238000  0.43473000  1.0
  C  C87  1  0.92600000  0.17466000  0.56336000  1.0
  C  C88  1  0.34406000  0.54199000  0.31678000  1.0
  C  C89  1  0.73879000  0.53781000  0.68069000  1.0
  S  S90  1  0.10894000  0.57050000  0.50793000  1.0
  S  S91  1  0.91384000  0.38816000  0.49372000  1.0
  S  S92  1  0.39393000  0.91748000  0.50396000  1.0
  S  S93  1  0.56414000  0.09756000  0.49084000  1.0
  S  S94  1  0.07993000  0.90105000  0.00057000  1.0
  S  S95  1  0.91204000  0.08735000  0.99821000  1.0
  S  S96  1  0.57779000  0.39988000  0.97828000  1.0
  S  S97  1  0.40496000  0.57976000  0.00386000  1.0
  S  S98  1  0.10387000  0.09808000  0.67545000  1.0
  S  S99  1  0.92203000  0.92175000  0.32302000  1.0
  O  O100  1  0.74088000  0.22301000  0.29893000  1.0
  O  O101  1  0.42489000  0.93818000  0.69922000  1.0
  O  O102  1  0.26076000  0.75404000  0.70013000  1.0
  O  O103  1  0.55634000  0.05754000  0.29929000  1.0
  O  O104  1  0.43387000  0.22918000  0.17186000  1.0
  O  O105  1  0.74030000  0.93461000  0.17506000  1.0
  O  O106  1  0.56224000  0.76116000  0.82993000  1.0
  O  O107  1  0.26255000  0.06282000  0.82410000  1.0
  O  O108  1  0.56496000  0.23081000  0.99462000  1.0
  O  O109  1  0.25656000  0.92160000  0.99998000  1.0
  O  O110  1  0.42331000  0.75385000  0.99908000  1.0
  O  O111  1  0.73627000  0.06780000  0.00126000  1.0
  O  O112  1  0.26582000  0.06384000  0.00764000  1.0
  O  O113  1  0.55742000  0.75524000  0.99037000  1.0
  O  O114  1  0.73669000  0.93356000  0.01023000  1.0
  O  O115  1  0.42465000  0.22529000  0.99166000  1.0
  O  O116  1  0.57052000  0.22048000  0.30077000  1.0
  O  O117  1  0.26019000  0.92401000  0.69266000  1.0
  O  O118  1  0.42322000  0.76682000  0.70034000  1.0
  O  O119  1  0.73476000  0.06562000  0.30667000  1.0
  O  O120  1  0.41792000  0.92050000  0.16190000  1.0
  O  O121  1  0.74072000  0.22609000  0.16264000  1.0
  O  O122  1  0.56342000  0.07496000  0.83518000  1.0
  O  O123  1  0.26008000  0.75312000  0.83706000  1.0
  O  O124  1  0.55614000  0.93151000  0.12050000  1.0
  O  O125  1  0.31300000  0.93280000  0.87901000  1.0
  O  O126  1  0.55712000  0.93883000  0.88152000  1.0
  O  O127  1  0.55883000  0.17310000  0.11770000  1.0
  O  O128  1  0.45134000  0.03965000  0.91164000  1.0
  O  O129  1  0.62989000  0.03751000  0.08742000  1.0
  O  O130  1  0.45162000  0.86223000  0.91357000  1.0
  O  O131  1  0.45089000  0.03544000  0.08614000  1.0
  O  O132  1  0.16247000  0.64258000  0.85575000  1.0
  O  O133  1  0.03120000  0.50216000  0.72725000  1.0
  O  O134  1  0.86689000  0.30379000  0.14576000  1.0
  O  O135  1  0.01200000  0.42963000  0.27324000  1.0
  O  O136  1  0.65878000  0.21721000  0.85232000  1.0
  O  O137  1  0.65883000  0.23413000  0.72515000  1.0
  O  O138  1  0.28626000  0.80604000  0.14200000  1.0
  O  O139  1  0.27299000  0.80317000  0.26976000  1.0
  O  O140  1  0.10166000  0.22248000  0.03754000  1.0
  O  O141  1  0.10037000  0.11274000  0.88911000  1.0
  O  O142  1  0.90706000  0.81519000  0.05794000  1.0
  O  O143  1  0.78740000  0.76665000  0.88118000  1.0
  O  O144  1  0.26421000  0.35298000  0.95767000  1.0
  O  O145  1  0.39992000  0.41362000  0.13167000  1.0
  O  O146  1  0.63637000  0.53200000  0.89004000  1.0
  O  O147  1  0.71477000  0.67708000  0.05823000  1.0
  O  O148  1  0.17583000  0.81564000  0.47663000  1.0
  O  O149  1  0.05210000  0.81785000  0.33313000  1.0
  O  O150  1  0.84737000  0.20158000  0.52178000  1.0
  O  O151  1  0.99540000  0.22351000  0.66423000  1.0
  O  O152  1  0.26135000  0.45938000  0.23771000  1.0
  O  O153  1  0.35888000  0.60080000  0.29673000  1.0
  O  O154  1  0.75214000  0.53383000  0.76653000  1.0
  O  O155  1  0.80853000  0.58031000  0.69105000  1.0
