# generated using pymatgen
data_Na5MnH24(C4O11)2
_symmetry_space_group_name_H-M   'P 1'
_cell_length_a   6.76345000
_cell_length_b   9.55585000
_cell_length_c   10.48658240
_cell_angle_alpha   110.91965562
_cell_angle_beta   108.80930262
_cell_angle_gamma   90.01190000
_symmetry_Int_Tables_number   1
_chemical_formula_structural   Na5MnH24(C4O11)2
_chemical_formula_sum   'Na5 Mn1 H24 C8 O22'
_cell_volume   594.14921987
_cell_formula_units_Z   1
loop_
 _symmetry_equiv_pos_site_id
 _symmetry_equiv_pos_as_xyz
  1  'x, y, z'
loop_
 _atom_site_type_symbol
 _atom_site_label
 _atom_site_symmetry_multiplicity
 _atom_site_fract_x
 _atom_site_fract_y
 _atom_site_fract_z
 _atom_site_occupancy
  Na  Na0  1  0.81810000  0.50420000  0.52952000  1.0
  Na  Na1  1  0.28867000  0.49575000  0.47066000  1.0
  Na  Na2  1  0.96184000  0.72332000  0.96036000  1.0
  Na  Na3  1  0.00151000  0.27669000  0.03968000  1.0
  Na  Na4  1  0.46180000  0.50006000  0.99996000  1.0
  Mn  Mn5  1  0.31244000  0.00001000  0.99998000  1.0
  H  H6  1  0.66688000  0.04583000  0.36373000  1.0
  H  H7  1  0.30349000  0.95414000  0.63623000  1.0
  H  H8  1  0.27598000  0.00718000  0.34441000  1.0
  H  H9  1  0.93192000  0.99296000  0.65554000  1.0
  H  H10  1  0.62773000  0.91658000  0.85496000  1.0
  H  H11  1  0.77274000  0.08329000  0.14520000  1.0
  H  H12  1  0.85897000  0.93292000  0.84946000  1.0
  H  H13  1  0.00942000  0.06702000  0.15063000  1.0
  H  H14  1  0.68328000  0.48156000  0.75291000  1.0
  H  H15  1  0.93066000  0.51844000  0.24721000  1.0
  H  H16  1  0.91214000  0.42317000  0.79083000  1.0
  H  H17  1  0.12160000  0.57683000  0.20927000  1.0
  H  H18  1  0.66390000  0.81630000  0.10480000  1.0
  H  H19  1  0.55914000  0.18365000  0.89521000  1.0
  H  H20  1  0.79375000  0.72550000  0.19211000  1.0
  H  H21  1  0.60158000  0.27436000  0.80779000  1.0
  H  H22  1  0.63980000  0.74976000  0.66277000  1.0
  H  H23  1  0.97691000  0.25015000  0.33725000  1.0
  H  H24  1  0.56193000  0.73645000  0.49645000  1.0
  H  H25  1  0.06536000  0.26355000  0.50356000  1.0
  H  H26  1  0.59999000  0.60144000  0.29017000  1.0
  H  H27  1  0.30961000  0.39854000  0.70967000  1.0
  H  H28  1  0.56443000  0.41804000  0.22747000  1.0
  H  H29  1  0.33664000  0.58195000  0.77241000  1.0
  C  C30  1  0.48791000  0.21253000  0.29671000  1.0
  C  C31  1  0.19116000  0.78747000  0.70324000  1.0
  C  C32  1  0.53188000  0.04798000  0.27193000  1.0
  C  C33  1  0.26019000  0.95199000  0.72800000  1.0
  C  C34  1  0.33046000  0.95472000  0.25109000  1.0
  C  C35  1  0.07970000  0.04538000  0.74889000  1.0
  C  C36  1  0.37417000  0.79366000  0.24414000  1.0
  C  C37  1  0.13036000  0.20650000  0.75591000  1.0
  O  O38  1  0.51710000  0.30456000  0.42332000  1.0
  O  O39  1  0.09368000  0.69543000  0.57664000  1.0
  O  O40  1  0.41829000  0.24228000  0.18016000  1.0
  O  O41  1  0.23804000  0.75776000  0.81980000  1.0
  O  O42  1  0.56862000  0.98037000  0.13675000  1.0
  O  O43  1  0.43215000  0.01952000  0.86321000  1.0
  O  O44  1  0.17817000  0.95436000  0.12033000  1.0
  O  O45  1  0.05807000  0.04566000  0.87962000  1.0
  O  O46  1  0.25230000  0.68064000  0.13865000  1.0
  O  O47  1  0.11407000  0.31945000  0.86148000  1.0
  O  O48  1  0.53239000  0.78501000  0.34564000  1.0
  O  O49  1  0.18678000  0.21519000  0.65431000  1.0
  O  O50  1  0.74284000  0.85619000  0.83474000  1.0
  O  O51  1  0.90807000  0.14373000  0.16547000  1.0
  O  O52  1  0.83121000  0.49839000  0.75949000  1.0
  O  O53  1  0.07197000  0.50158000  0.24058000  1.0
  O  O54  1  0.73039000  0.72022000  0.09268000  1.0
  O  O55  1  0.63757000  0.27982000  0.90727000  1.0
  O  O56  1  0.57659000  0.67753000  0.55852000  1.0
  O  O57  1  0.01780000  0.32243000  0.44147000  1.0
  O  O58  1  0.66014000  0.50813000  0.24657000  1.0
  O  O59  1  0.41331000  0.49193000  0.75315000  1.0
