# generated using pymatgen
data_CuH18C26N4O5
_symmetry_space_group_name_H-M   'P 1'
_cell_length_a   12.62320000
_cell_length_b   14.95880000
_cell_length_c   16.56870000
_cell_angle_alpha   69.80600000
_cell_angle_beta   89.99980000
_cell_angle_gamma   89.99950000
_symmetry_Int_Tables_number   1
_chemical_formula_structural   CuH18C26N4O5
_chemical_formula_sum   'Cu4 H72 C104 N16 O20'
_cell_volume   2936.31356808
_cell_formula_units_Z   4
loop_
 _symmetry_equiv_pos_site_id
 _symmetry_equiv_pos_as_xyz
  1  'x, y, z'
loop_
 _atom_site_type_symbol
 _atom_site_label
 _atom_site_symmetry_multiplicity
 _atom_site_fract_x
 _atom_site_fract_y
 _atom_site_fract_z
 _atom_site_occupancy
  Cu  Cu0  1  0.95748000  0.10093000  0.37714000  1.0
  Cu  Cu1  1  0.45749000  0.89905000  0.12289000  1.0
  Cu  Cu2  1  0.04253000  0.89903000  0.62287000  1.0
  Cu  Cu3  1  0.54249000  0.10097000  0.87710000  1.0
  H  H4  1  0.72072000  0.08164000  0.38460000  1.0
  H  H5  1  0.22073000  0.91840000  0.11540000  1.0
  H  H6  1  0.27928000  0.91837000  0.61539000  1.0
  H  H7  1  0.77927000  0.08160000  0.88460000  1.0
  H  H8  1  0.60999000  0.26404000  0.52030000  1.0
  H  H9  1  0.10998000  0.73592000  0.97976000  1.0
  H  H10  1  0.39002000  0.73598000  0.47969000  1.0
  H  H11  1  0.88999000  0.26406000  0.02026000  1.0
  H  H12  1  0.81332000  0.50829000  0.02116000  1.0
  H  H13  1  0.31332000  0.49171000  0.47883000  1.0
  H  H14  1  0.18666000  0.49172000  0.97882000  1.0
  H  H15  1  0.68668000  0.50830000  0.52118000  1.0
  H  H16  1  0.77903000  0.62453000  0.11571000  1.0
  H  H17  1  0.27903000  0.37547000  0.38432000  1.0
  H  H18  1  0.22096000  0.37546000  0.88430000  1.0
  H  H19  1  0.72097000  0.62454000  0.61567000  1.0
  H  H20  1  0.93505000  0.78734000  0.87903000  1.0
  H  H21  1  0.43506000  0.21265000  0.62096000  1.0
  H  H22  1  0.06494000  0.21267000  0.12098000  1.0
  H  H23  1  0.56492000  0.78735000  0.37904000  1.0
  H  H24  1  0.82554000  0.33853000  0.12181000  1.0
  H  H25  1  0.32553000  0.66146000  0.37820000  1.0
  H  H26  1  0.17446000  0.66148000  0.87820000  1.0
  H  H27  1  0.67447000  0.33854000  0.62180000  1.0
  H  H28  1  0.43681000  0.97181000  0.35059000  1.0
  H  H29  1  0.93682000  0.02819000  0.14942000  1.0
  H  H30  1  0.56320000  0.02820000  0.64941000  1.0
  H  H31  1  0.06319000  0.97179000  0.85059000  1.0
  H  H32  1  0.19491000  0.11054000  0.38681000  1.0
  H  H33  1  0.69491000  0.88949000  0.11319000  1.0
  H  H34  1  0.80512000  0.88948000  0.61318000  1.0
  H  H35  1  0.30511000  0.11051000  0.88679000  1.0
  H  H36  1  0.09984000  0.40684000  0.24116000  1.0
  H  H37  1  0.59985000  0.59315000  0.25885000  1.0
  H  H38  1  0.90015000  0.59316000  0.75886000  1.0
  H  H39  1  0.40013000  0.40684000  0.74115000  1.0
  H  H40  1  0.47845000  0.17293000  0.47328000  1.0
  H  H41  1  0.97845000  0.82703000  0.02676000  1.0
  H  H42  1  0.52156000  0.82709000  0.52670000  1.0
  H  H43  1  0.02154000  0.17293000  0.97326000  1.0
  H  H44  1  0.12059000  0.86731000  0.25629000  1.0
  H  H45  1  0.62060000  0.13269000  0.24372000  1.0
  H  H46  1  0.87942000  0.13268000  0.74370000  1.0
  H  H47  1  0.37940000  0.86731000  0.75629000  1.0
  H  H48  1  0.94030000  0.24191000  0.46037000  1.0
  H  H49  1  0.44031000  0.75809000  0.03965000  1.0
  H  H50  1  0.05971000  0.75807000  0.53965000  1.0
  H  H51  1  0.55969000  0.24191000  0.96034000  1.0
  H  H52  1  0.30972000  0.89163000  0.29342000  1.0
  H  H53  1  0.80972000  0.10838000  0.20658000  1.0
  H  H54  1  0.69029000  0.10839000  0.70657000  1.0
  H  H55  1  0.19027000  0.89160000  0.79342000  1.0
  H  H56  1  0.79097000  0.90953000  0.84836000  1.0
  H  H57  1  0.29097000  0.09043000  0.65166000  1.0
  H  H58  1  0.20903000  0.09048000  0.15164000  1.0
  H  H59  1  0.70903000  0.90956000  0.34836000  1.0
  H  H60  1  0.79974000  0.31164000  0.52840000  1.0
  H  H61  1  0.29975000  0.68832000  0.97165000  1.0
  H  H62  1  0.20027000  0.68835000  0.47161000  1.0
  H  H63  1  0.70024000  0.31167000  0.02836000  1.0
  H  H64  1  0.97827000  0.96195000  0.29379000  1.0
  H  H65  1  0.47826000  0.03808000  0.20623000  1.0
  H  H66  1  0.02174000  0.03805000  0.70621000  1.0
  H  H67  1  0.52174000  0.96193000  0.79377000  1.0
  H  H68  1  0.63461000  0.74544000  0.08336000  1.0
  H  H69  1  0.13458000  0.25459000  0.41664000  1.0
  H  H70  1  0.36540000  0.25457000  0.91663000  1.0
  H  H71  1  0.86543000  0.74541000  0.58337000  1.0
  H  H72  1  0.09061000  0.57634000  0.13936000  1.0
  H  H73  1  0.59061000  0.42365000  0.36063000  1.0
  H  H74  1  0.90938000  0.42367000  0.86063000  1.0
  H  H75  1  0.40940000  0.57634000  0.63938000  1.0
  C  C76  1  0.64930000  0.17226000  0.44820000  1.0
  C  C77  1  0.14931000  0.82774000  0.05183000  1.0
  C  C78  1  0.35071000  0.82775000  0.55180000  1.0
  C  C79  1  0.85069000  0.17225000  0.94817000  1.0
  C  C80  1  0.96304000  0.36260000  0.18687000  1.0
  C  C81  1  0.46304000  0.63740000  0.31313000  1.0
  C  C82  1  0.03697000  0.63740000  0.81313000  1.0
  C  C83  1  0.53695000  0.36260000  0.68688000  1.0
  C  C84  1  0.26696000  0.00355000  0.34264000  1.0
  C  C85  1  0.76695000  0.99646000  0.15737000  1.0
  C  C86  1  0.73305000  0.99646000  0.65736000  1.0
  C  C87  1  0.23303000  0.00354000  0.84262000  1.0
  C  C88  1  0.73391000  0.13487000  0.41470000  1.0
  C  C89  1  0.23393000  0.86515000  0.08531000  1.0
  C  C90  1  0.26610000  0.86514000  0.58529000  1.0
  C  C91  1  0.76607000  0.13484000  0.91469000  1.0
  C  C92  1  0.67327000  0.23557000  0.49153000  1.0
  C  C93  1  0.17327000  0.76440000  0.00852000  1.0
  C  C94  1  0.32674000  0.76443000  0.50848000  1.0
  C  C95  1  0.82672000  0.23558000  0.99150000  1.0
  C  C96  1  0.87528000  0.48561000  0.06978000  1.0
  C  C97  1  0.37529000  0.51440000  0.43022000  1.0
  C  C98  1  0.12470000  0.51440000  0.93023000  1.0
  C  C99  1  0.62471000  0.48560000  0.56979000  1.0
  C  C100  1  0.78019000  0.68585000  0.05632000  1.0
  C  C101  1  0.28018000  0.31413000  0.44368000  1.0
  C  C102  1  0.21980000  0.31413000  0.94368000  1.0
  C  C103  1  0.71981000  0.68588000  0.55631000  1.0
  C  C104  1  0.86820000  0.77862000  0.92278000  1.0
  C  C105  1  0.36819000  0.22136000  0.57722000  1.0
  C  C106  1  0.13179000  0.22138000  0.07723000  1.0
  C  C107  1  0.63180000  0.77865000  0.42278000  1.0
  C  C108  1  0.95148000  0.55092000  0.07551000  1.0
  C  C109  1  0.45149000  0.44908000  0.42450000  1.0
  C  C110  1  0.04850000  0.44908000  0.92450000  1.0
  C  C111  1  0.54850000  0.55092000  0.57550000  1.0
  C  C112  1  0.88224000  0.39194000  0.12524000  1.0
  C  C113  1  0.38225000  0.60807000  0.37475000  1.0
  C  C114  1  0.11776000  0.60807000  0.87476000  1.0
  C  C115  1  0.61773000  0.39194000  0.62525000  1.0
  C  C116  1  0.37692000  0.02102000  0.35966000  1.0
  C  C117  1  0.87692000  0.97900000  0.14035000  1.0
  C  C118  1  0.62309000  0.97901000  0.64033000  1.0
  C  C119  1  0.12307000  0.02100000  0.85966000  1.0
  C  C120  1  0.70354000  0.83523000  0.96380000  1.0
  C  C121  1  0.20352000  0.16476000  0.53619000  1.0
  C  C122  1  0.29645000  0.16477000  0.03618000  1.0
  C  C123  1  0.79648000  0.83523000  0.46382000  1.0
  C  C124  1  0.18164000  0.05527000  0.35908000  1.0
  C  C125  1  0.68164000  0.94474000  0.14092000  1.0
  C  C126  1  0.81838000  0.94474000  0.64091000  1.0
  C  C127  1  0.31836000  0.05526000  0.85906000  1.0
  C  C128  1  0.03750000  0.42940000  0.19277000  1.0
  C  C129  1  0.53750000  0.57060000  0.30722000  1.0
  C  C130  1  0.96251000  0.57060000  0.80722000  1.0
  C  C131  1  0.46249000  0.42939000  0.69279000  1.0
  C  C132  1  0.53927000  0.14828000  0.43845000  1.0
  C  C133  1  0.03927000  0.85170000  0.06157000  1.0
  C  C134  1  0.46075000  0.85174000  0.56154000  1.0
  C  C135  1  0.96073000  0.14828000  0.93844000  1.0
  C  C136  1  0.14107000  0.91876000  0.28689000  1.0
  C  C137  1  0.64106000  0.08125000  0.21312000  1.0
  C  C138  1  0.85895000  0.08122000  0.71311000  1.0
  C  C139  1  0.35893000  0.91875000  0.78689000  1.0
  C  C140  1  0.85696000  0.22416000  0.45874000  1.0
  C  C141  1  0.35697000  0.77584000  0.04128000  1.0
  C  C142  1  0.14304000  0.77584000  0.54126000  1.0
  C  C143  1  0.64303000  0.22416000  0.95872000  1.0
  C  C144  1  0.24529000  0.93328000  0.30657000  1.0
  C  C145  1  0.74528000  0.06673000  0.19343000  1.0
  C  C146  1  0.75472000  0.06673000  0.69343000  1.0
  C  C147  1  0.25470000  0.93327000  0.80656000  1.0
  C  C148  1  0.78799000  0.84637000  0.90613000  1.0
  C  C149  1  0.28799000  0.15360000  0.59388000  1.0
  C  C150  1  0.21200000  0.15363000  0.09387000  1.0
  C  C151  1  0.71202000  0.84639000  0.40613000  1.0
  C  C152  1  0.62060000  0.91049000  0.95086000  1.0
  C  C153  1  0.12060000  0.08951000  0.54912000  1.0
  C  C154  1  0.37940000  0.08953000  0.04911000  1.0
  C  C155  1  0.87942000  0.91046000  0.45091000  1.0
  C  C156  1  0.77814000  0.26212000  0.49592000  1.0
  C  C157  1  0.27814000  0.73785000  0.00412000  1.0
  C  C158  1  0.22187000  0.73788000  0.50408000  1.0
  C  C159  1  0.72185000  0.26213000  0.99589000  1.0
  C  C160  1  0.06124000  0.97218000  0.30584000  1.0
  C  C161  1  0.56123000  0.02784000  0.19416000  1.0
  C  C162  1  0.93877000  0.02782000  0.69415000  1.0
  C  C163  1  0.43877000  0.97214000  0.80585000  1.0
  C  C164  1  0.96572000  0.25982000  0.24286000  1.0
  C  C165  1  0.46572000  0.74017000  0.25715000  1.0
  C  C166  1  0.03428000  0.74018000  0.75714000  1.0
  C  C167  1  0.53427000  0.25984000  0.74285000  1.0
  C  C168  1  0.86499000  0.69956000  0.99897000  1.0
  C  C169  1  0.36498000  0.30042000  0.50104000  1.0
  C  C170  1  0.13500000  0.30043000  0.00104000  1.0
  C  C171  1  0.63502000  0.69958000  0.49896000  1.0
  C  C172  1  0.69973000  0.75359000  0.03805000  1.0
  C  C173  1  0.19971000  0.24641000  0.46195000  1.0
  C  C174  1  0.30027000  0.24641000  0.96193000  1.0
  C  C175  1  0.80030000  0.75359000  0.53807000  1.0
  C  C176  1  0.03241000  0.52358000  0.13671000  1.0
  C  C177  1  0.53241000  0.47642000  0.36329000  1.0
  C  C178  1  0.96758000  0.47643000  0.86330000  1.0
  C  C179  1  0.46757000  0.52357000  0.63670000  1.0
  N  N180  1  0.51259000  0.10111000  0.38918000  1.0
  N  N181  1  0.01259000  0.89891000  0.11082000  1.0
  N  N182  1  0.48744000  0.89892000  0.61080000  1.0
  N  N183  1  0.98741000  0.10109000  0.88918000  1.0
  N  N184  1  0.08126000  0.03849000  0.34220000  1.0
  N  N185  1  0.58125000  0.96154000  0.15779000  1.0
  N  N186  1  0.91876000  0.96152000  0.65778000  1.0
  N  N187  1  0.41875000  0.03846000  0.84221000  1.0
  N  N188  1  0.83466000  0.16011000  0.42029000  1.0
  N  N189  1  0.33466000  0.83991000  0.07971000  1.0
  N  N190  1  0.16535000  0.83989000  0.57971000  1.0
  N  N191  1  0.66533000  0.16009000  0.92028000  1.0
  N  N192  1  0.40429000  0.09192000  0.38283000  1.0
  N  N193  1  0.90429000  0.90810000  0.11717000  1.0
  N  N194  1  0.59573000  0.90811000  0.61716000  1.0
  N  N195  1  0.09570000  0.09189000  0.88284000  1.0
  O  O196  1  0.95452000  0.64285000  0.01669000  1.0
  O  O197  1  0.45449000  0.35714000  0.48332000  1.0
  O  O198  1  0.04548000  0.35715000  0.98331000  1.0
  O  O199  1  0.54550000  0.64286000  0.51668000  1.0
  O  O200  1  0.54134000  0.89421000  0.99943000  1.0
  O  O201  1  0.04132000  0.10580000  0.50056000  1.0
  O  O202  1  0.45867000  0.10580000  0.00056000  1.0
  O  O203  1  0.95871000  0.89419000  0.49944000  1.0
  O  O204  1  0.63735000  0.99036000  0.88877000  1.0
  O  O205  1  0.13738000  0.00965000  0.61120000  1.0
  O  O206  1  0.36264000  0.00966000  0.11120000  1.0
  O  O207  1  0.86262000  0.99033000  0.38883000  1.0
  O  O208  1  0.01358000  0.23723000  0.31607000  1.0
  O  O209  1  0.51360000  0.76277000  0.18394000  1.0
  O  O210  1  0.98642000  0.76276000  0.68393000  1.0
  O  O211  1  0.48638000  0.23723000  0.81605000  1.0
  O  O212  1  0.91897000  0.20012000  0.21705000  1.0
  O  O213  1  0.41894000  0.79987000  0.28296000  1.0
  O  O214  1  0.08104000  0.79988000  0.78295000  1.0
  O  O215  1  0.58105000  0.20014000  0.71703000  1.0
