# generated using pymatgen
data_ZnH18C18S2(NO2)2
_symmetry_space_group_name_H-M   'P 1'
_cell_length_a   10.15980000
_cell_length_b   10.51550000
_cell_length_c   22.42770000
_cell_angle_alpha   96.51730000
_cell_angle_beta   94.32120000
_cell_angle_gamma   114.47400000
_symmetry_Int_Tables_number   1
_chemical_formula_structural   ZnH18C18S2(NO2)2
_chemical_formula_sum   'Zn4 H72 C72 S8 N8 O16'
_cell_volume   2146.75941821
_cell_formula_units_Z   4
loop_
 _symmetry_equiv_pos_site_id
 _symmetry_equiv_pos_as_xyz
  1  'x, y, z'
loop_
 _atom_site_type_symbol
 _atom_site_label
 _atom_site_symmetry_multiplicity
 _atom_site_fract_x
 _atom_site_fract_y
 _atom_site_fract_z
 _atom_site_occupancy
  Zn  Zn0  1  0.76007000  0.11480000  0.18076000  1.0
  Zn  Zn1  1  0.23993000  0.88521000  0.81924000  1.0
  Zn  Zn2  1  0.87505000  0.69203000  0.31342000  1.0
  Zn  Zn3  1  0.12494000  0.30797000  0.68657000  1.0
  H  H4  1  0.84725000  0.51572000  0.11504000  1.0
  H  H5  1  0.15274000  0.48429000  0.88496000  1.0
  H  H6  1  0.67230000  0.61810000  0.11889000  1.0
  H  H7  1  0.32768000  0.38189000  0.88111000  1.0
  H  H8  1  0.46598000  0.34285000  0.15689000  1.0
  H  H9  1  0.53401000  0.65713000  0.84311000  1.0
  H  H10  1  0.43648000  0.49649000  0.15917000  1.0
  H  H11  1  0.56350000  0.50349000  0.84083000  1.0
  H  H12  1  0.44489000  0.49037000  0.04809000  1.0
  H  H13  1  0.55509000  0.50962000  0.95191000  1.0
  H  H14  1  0.30835000  0.33015000  0.06201000  1.0
  H  H15  1  0.69164000  0.66984000  0.93799000  1.0
  H  H16  1  0.46300000  0.29260000  0.98425000  1.0
  H  H17  1  0.53698000  0.70739000  0.01576000  1.0
  H  H18  1  0.47100000  0.21000000  0.04741000  1.0
  H  H19  1  0.52899000  0.79000000  0.95259000  1.0
  H  H20  1  0.72009000  0.33333333  0.02290000  1.0
  H  H21  1  0.27990000  0.66666667  0.97710000  1.0
  H  H22  1  0.69972000  0.49189000  0.02182000  1.0
  H  H23  1  0.30027000  0.50810000  0.97818000  1.0
  H  H24  1  0.96409000  0.30189000  0.37181000  1.0
  H  H25  1  0.03593000  0.69812000  0.62819000  1.0
  H  H26  1  0.79489000  0.06269000  0.37672000  1.0
  H  H27  1  0.20512000  0.93732000  0.62328000  1.0
  H  H28  1  0.95350000  0.20817000  0.46856000  1.0
  H  H29  1  0.04652000  0.79184000  0.53143000  1.0
  H  H30  1  0.92104000  0.02886000  0.46903000  1.0
  H  H31  1  0.07897000  0.97115000  0.53097000  1.0
  H  H32  1  0.16681000  0.08368000  0.43366000  1.0
  H  H33  1  0.83320000  0.91632000  0.56634000  1.0
  H  H34  1  0.18393000  0.18997000  0.50307000  1.0
  H  H35  1  0.81608000  0.81003000  0.49693000  1.0
  H  H36  1  0.19486000  0.38761000  0.44738000  1.0
  H  H37  1  0.80515000  0.61239000  0.55262000  1.0
  H  H38  1  0.33436000  0.33556000  0.42996000  1.0
  H  H39  1  0.66566000  0.66445000  0.57004000  1.0
  H  H40  1  0.20368000  0.36517000  0.33603000  1.0
  H  H41  1  0.79634000  0.63483000  0.66397000  1.0
  H  H42  1  0.18262000  0.18932000  0.33309000  1.0
  H  H43  1  0.81740000  0.81068000  0.66691000  1.0
  H  H44  1  0.93346000  0.94183000  0.21109000  1.0
  H  H45  1  0.06654000  0.05818000  0.78892000  1.0
  H  H46  1  0.01893000  0.78176000  0.15296000  1.0
  H  H47  1  0.98108000  0.21825000  0.84705000  1.0
  H  H48  1  0.85731000  0.88092000  0.98811000  1.0
  H  H49  1  0.14269000  0.11909000  0.01190000  1.0
  H  H50  1  0.77892000  0.03860000  0.05396000  1.0
  H  H51  1  0.22107000  0.96140000  0.94605000  1.0
  H  H52  1  0.25149000  0.92647000  0.06016000  1.0
  H  H53  1  0.74851000  0.07354000  0.93984000  1.0
  H  H54  1  0.50063000  0.09910000  0.10846000  1.0
  H  H55  1  0.49937000  0.90091000  0.89154000  1.0
  H  H56  1  0.56708000  0.79672000  0.19441000  1.0
  H  H57  1  0.43292000  0.20327000  0.80558000  1.0
  H  H58  1  0.31968000  0.61284000  0.15146000  1.0
  H  H59  1  0.68032000  0.38716000  0.84854000  1.0
  H  H60  1  0.04319000  0.82611000  0.42956000  1.0
  H  H61  1  0.95679000  0.17388000  0.57045000  1.0
  H  H62  1  0.26963000  0.86382000  0.49550000  1.0
  H  H63  1  0.73036000  0.13617000  0.50450000  1.0
  H  H64  1  0.36746000  0.63207000  0.34625000  1.0
  H  H65  1  0.63254000  0.36793000  0.65375000  1.0
  H  H66  1  0.13099000  0.59493000  0.28878000  1.0
  H  H67  1  0.86901000  0.40510000  0.71121000  1.0
  H  H68  1  0.39376000  0.54450000  0.51607000  1.0
  H  H69  1  0.60628000  0.45550000  0.48393000  1.0
  H  H70  1  0.25925000  0.34989000  0.57370000  1.0
  H  H71  1  0.74078000  0.65011000  0.42631000  1.0
  H  H72  1  0.26139000  0.63440000  0.71815000  1.0
  H  H73  1  0.73862000  0.36559000  0.28185000  1.0
  H  H74  1  0.39169000  0.83979000  0.66780000  1.0
  H  H75  1  0.60831000  0.16019000  0.33220000  1.0
  C  C76  1  0.72710000  0.32097000  0.14125000  1.0
  C  C77  1  0.27288000  0.67902000  0.85874000  1.0
  C  C78  1  0.73036000  0.44507000  0.11140000  1.0
  C  C79  1  0.26962000  0.55492000  0.88859000  1.0
  C  C80  1  0.65362000  0.52675000  0.14286000  1.0
  C  C81  1  0.34636000  0.47323000  0.85714000  1.0
  C  C82  1  0.48816000  0.43683000  0.13505000  1.0
  C  C83  1  0.51182000  0.56315000  0.86495000  1.0
  C  C84  1  0.42726000  0.39408000  0.06778000  1.0
  C  C85  1  0.57273000  0.60591000  0.93222000  1.0
  C  C86  1  0.50196000  0.31449000  0.03316000  1.0
  C  C87  1  0.49803000  0.68552000  0.96685000  1.0
  C  C88  1  0.66836000  0.39706000  0.04381000  1.0
  C  C89  1  0.33163000  0.60294000  0.95618000  1.0
  C  C90  1  0.71911000  0.59572000  0.20817000  1.0
  C  C91  1  0.28088000  0.40428000  0.79183000  1.0
  C  C92  1  0.92280000  0.19519000  0.28318000  1.0
  C  C93  1  0.07722000  0.80482000  0.71683000  1.0
  C  C94  1  0.98857000  0.21668000  0.34877000  1.0
  C  C95  1  0.01144000  0.78331000  0.65124000  1.0
  C  C96  1  0.91183000  0.08724000  0.37978000  1.0
  C  C97  1  0.08818000  0.91276000  0.62022000  1.0
  C  C98  1  0.97633000  0.12131000  0.44694000  1.0
  C  C99  1  0.02370000  0.87870000  0.55306000  1.0
  C  C100  1  0.14149000  0.16947000  0.45467000  1.0
  C  C101  1  0.85854000  0.83054000  0.54533000  1.0
  C  C102  1  0.21529000  0.30004000  0.42448000  1.0
  C  C103  1  0.78473000  0.69997000  0.57552000  1.0
  C  C104  1  0.15512000  0.27012000  0.35725000  1.0
  C  C105  1  0.84489000  0.72988000  0.64274000  1.0
  C  C106  1  0.91639000  0.95154000  0.34955000  1.0
  C  C107  1  0.08361000  0.04845000  0.65045000  1.0
  C  C108  1  0.91907000  0.92612000  0.16158000  1.0
  C  C109  1  0.08091000  0.07387000  0.83843000  1.0
  C  C110  1  0.96812000  0.83759000  0.12882000  1.0
  C  C111  1  0.03189000  0.16242000  0.87119000  1.0
  C  C112  1  0.94592000  0.81916000  0.06560000  1.0
  C  C113  1  0.05408000  0.18083000  0.93440000  1.0
  C  C114  1  0.87626000  0.89166000  0.03728000  1.0
  C  C115  1  0.12374000  0.10835000  0.96272000  1.0
  C  C116  1  0.83181000  0.97835000  0.07343000  1.0
  C  C117  1  0.16819000  0.02165000  0.92658000  1.0
  C  C118  1  0.26605000  0.75528000  0.10176000  1.0
  C  C119  1  0.73395000  0.24472000  0.89824000  1.0
  C  C120  1  0.31789000  0.89380000  0.08960000  1.0
  C  C121  1  0.68211000  0.10620000  0.91040000  1.0
  C  C122  1  0.45669000  0.98974000  0.11611000  1.0
  C  C123  1  0.54330000  0.01025000  0.88389000  1.0
  C  C124  1  0.49458000  0.82256000  0.16455000  1.0
  C  C125  1  0.50541000  0.17743000  0.83545000  1.0
  C  C126  1  0.35618000  0.71942000  0.14035000  1.0
  C  C127  1  0.64382000  0.28058000  0.85965000  1.0
  C  C128  1  0.11776000  0.78375000  0.41334000  1.0
  C  C129  1  0.88222000  0.21625000  0.58666000  1.0
  C  C130  1  0.24416000  0.80526000  0.44965000  1.0
  C  C131  1  0.75583000  0.19474000  0.55035000  1.0
  C  C132  1  0.33802000  0.75220000  0.42599000  1.0
  C  C133  1  0.66197000  0.24781000  0.57401000  1.0
  C  C134  1  0.29863000  0.67650000  0.36679000  1.0
  C  C135  1  0.70135000  0.32350000  0.63321000  1.0
  C  C136  1  0.16764000  0.65734000  0.33412000  1.0
  C  C137  1  0.83234000  0.34268000  0.66588000  1.0
  C  C138  1  0.40404000  0.70815000  0.58715000  1.0
  C  C139  1  0.59599000  0.29186000  0.41286000  1.0
  C  C140  1  0.36586000  0.56862000  0.56056000  1.0
  C  C141  1  0.63416000  0.43138000  0.43944000  1.0
  C  C142  1  0.29048000  0.46036000  0.59210000  1.0
  C  C143  1  0.70955000  0.53964000  0.40791000  1.0
  C  C144  1  0.29040000  0.61835000  0.67292000  1.0
  C  C145  1  0.70961000  0.38164000  0.32708000  1.0
  C  C146  1  0.36636000  0.73371000  0.64469000  1.0
  C  C147  1  0.63365000  0.26628000  0.35531000  1.0
  S  S148  1  0.50716000  0.77891000  0.46631000  1.0
  S  S149  1  0.49282000  0.22108000  0.53368000  1.0
  S  S150  1  0.50227000  0.85774000  0.55302000  1.0
  S  S151  1  0.49773000  0.14226000  0.44698000  1.0
  S  S152  1  0.00280000  0.71327000  0.01688000  1.0
  S  S153  1  0.99720000  0.28674000  0.98312000  1.0
  S  S154  1  0.09061000  0.62180000  0.07311000  1.0
  S  S155  1  0.90939000  0.37820000  0.92689000  1.0
  N  N156  1  0.85223000  0.99527000  0.13434000  1.0
  N  N157  1  0.14777000  0.00474000  0.86566000  1.0
  N  N158  1  0.54448000  0.95618000  0.15257000  1.0
  N  N159  1  0.45552000  0.04381000  0.84742000  1.0
  N  N160  1  0.07884000  0.71136000  0.35651000  1.0
  N  N161  1  0.92115000  0.28866000  0.64348000  1.0
  N  N162  1  0.25214000  0.48382000  0.64697000  1.0
  N  N163  1  0.74788000  0.51617000  0.35303000  1.0
  O  O164  1  0.78556000  0.24490000  0.11542000  1.0
  O  O165  1  0.21445000  0.75511000  0.88458000  1.0
  O  O166  1  0.66958000  0.29222000  0.18890000  1.0
  O  O167  1  0.33041000  0.70777000  0.81109000  1.0
  O  O168  1  0.85100000  0.61245000  0.22605000  1.0
  O  O169  1  0.14899000  0.38755000  0.77395000  1.0
  O  O170  1  0.64879000  0.64030000  0.24181000  1.0
  O  O171  1  0.35121000  0.35969000  0.75820000  1.0
  O  O172  1  0.78718000  0.10338000  0.26870000  1.0
  O  O173  1  0.21284000  0.89663000  0.73130000  1.0
  O  O174  1  0.99422000  0.26672000  0.24585000  1.0
  O  O175  1  0.00578000  0.73330000  0.75415000  1.0
  O  O176  1  0.84826000  0.83898000  0.37337000  1.0
  O  O177  1  0.15174000  0.16102000  0.62663000  1.0
  O  O178  1  0.98256000  0.94778000  0.30468000  1.0
  O  O179  1  0.01745000  0.05222000  0.69532000  1.0
