# generated using pymatgen
data_CuH12C11N3O4
_symmetry_space_group_name_H-M   'P 1'
_cell_length_a   5.00300000
_cell_length_b   11.29170000
_cell_length_c   23.07270000
_cell_angle_alpha   89.99890000
_cell_angle_beta   90.00000000
_cell_angle_gamma   89.99950000
_symmetry_Int_Tables_number   1
_chemical_formula_structural   CuH12C11N3O4
_chemical_formula_sum   'Cu4 H48 C44 N12 O16'
_cell_volume   1303.43162268
_cell_formula_units_Z   4
loop_
 _symmetry_equiv_pos_site_id
 _symmetry_equiv_pos_as_xyz
  1  'x, y, z'
loop_
 _atom_site_type_symbol
 _atom_site_label
 _atom_site_symmetry_multiplicity
 _atom_site_fract_x
 _atom_site_fract_y
 _atom_site_fract_z
 _atom_site_occupancy
  Cu  Cu0  1  0.00290000  0.71252000  0.73925000  1.0
  Cu  Cu1  1  0.99710000  0.71249000  0.26075000  1.0
  Cu  Cu2  1  0.50290000  0.28751000  0.76075000  1.0
  Cu  Cu3  1  0.49711000  0.28748000  0.23925000  1.0
  H  H4  1  0.37812000  0.70111000  0.66646000  1.0
  H  H5  1  0.62191000  0.70108000  0.33355000  1.0
  H  H6  1  0.87811000  0.29891000  0.83354000  1.0
  H  H7  1  0.12190000  0.29889000  0.16645000  1.0
  H  H8  1  0.34016000  0.57234000  0.69785000  1.0
  H  H9  1  0.65984000  0.57231000  0.30215000  1.0
  H  H10  1  0.84018000  0.42768000  0.80215000  1.0
  H  H11  1  0.15984000  0.42766000  0.19785000  1.0
  H  H12  1  0.15278000  0.41715000  0.63935000  1.0
  H  H13  1  0.84720000  0.41713000  0.36064000  1.0
  H  H14  1  0.65281000  0.58286000  0.86064000  1.0
  H  H15  1  0.34720000  0.58285000  0.13935000  1.0
  H  H16  1  0.86686000  0.45056000  0.59732000  1.0
  H  H17  1  0.13311000  0.45050000  0.40267000  1.0
  H  H18  1  0.36693000  0.54949000  0.90267000  1.0
  H  H19  1  0.63312000  0.54946000  0.09732000  1.0
  H  H20  1  0.17897000  0.61366000  0.59000000  1.0
  H  H21  1  0.82106000  0.61362000  0.41000000  1.0
  H  H22  1  0.67897000  0.38637000  0.90999000  1.0
  H  H23  1  0.32104000  0.38635000  0.09000000  1.0
  H  H24  1  0.49329000  0.89333000  0.74421000  1.0
  H  H25  1  0.50668000  0.89330000  0.25580000  1.0
  H  H26  1  0.99331000  0.10670000  0.75580000  1.0
  H  H27  1  0.00669000  0.10666000  0.24421000  1.0
  H  H28  1  0.48717000  0.06380000  0.83177000  1.0
  H  H29  1  0.51283000  0.06377000  0.16823000  1.0
  H  H30  1  0.98717000  0.93624000  0.66823000  1.0
  H  H31  1  0.01282000  0.93619000  0.33177000  1.0
  H  H32  1  0.13902000  0.82872000  0.85723000  1.0
  H  H33  1  0.86097000  0.82869000  0.14277000  1.0
  H  H34  1  0.63901000  0.17131000  0.64277000  1.0
  H  H35  1  0.36096000  0.17127000  0.35723000  1.0
  H  H36  1  0.96498000  0.12257000  0.89910000  1.0
  H  H37  1  0.03499000  0.12254000  0.10090000  1.0
  H  H38  1  0.46501000  0.87747000  0.60090000  1.0
  H  H39  1  0.53501000  0.87742000  0.39911000  1.0
  H  H40  1  0.09957000  0.99017000  0.92729000  1.0
  H  H41  1  0.90044000  0.99014000  0.07271000  1.0
  H  H42  1  0.59956000  0.00987000  0.57271000  1.0
  H  H43  1  0.40042000  0.00983000  0.42729000  1.0
  H  H44  1  0.68356000  0.21969000  0.96382000  1.0
  H  H45  1  0.31640000  0.21967000  0.03619000  1.0
  H  H46  1  0.18364000  0.78033000  0.53619000  1.0
  H  H47  1  0.81648000  0.78031000  0.46382000  1.0
  H  H48  1  0.67338000  0.83837000  0.96151000  1.0
  H  H49  1  0.32665000  0.83836000  0.03848000  1.0
  H  H50  1  0.17329000  0.16164000  0.53849000  1.0
  H  H51  1  0.82657000  0.16162000  0.46152000  1.0
  C  C52  1  0.79779000  0.45159000  0.68876000  1.0
  C  C53  1  0.20220000  0.45154000  0.31124000  1.0
  C  C54  1  0.29779000  0.54844000  0.81124000  1.0
  C  C55  1  0.70219000  0.54843000  0.18876000  1.0
  C  C56  1  0.97746000  0.47590000  0.63660000  1.0
  C  C57  1  0.02253000  0.47586000  0.36340000  1.0
  C  C58  1  0.47749000  0.52413000  0.86339000  1.0
  C  C59  1  0.52253000  0.52411000  0.13660000  1.0
  C  C60  1  0.06572000  0.60499000  0.63071000  1.0
  C  C61  1  0.93431000  0.60495000  0.36929000  1.0
  C  C62  1  0.56574000  0.39505000  0.86928000  1.0
  C  C63  1  0.43427000  0.39503000  0.13071000  1.0
  C  C64  1  0.82225000  0.68819000  0.62698000  1.0
  C  C65  1  0.17776000  0.68814000  0.37302000  1.0
  C  C66  1  0.32226000  0.31185000  0.87302000  1.0
  C  C67  1  0.67778000  0.31183000  0.12697000  1.0
  C  C68  1  0.62561000  0.90493000  0.78089000  1.0
  C  C69  1  0.37437000  0.90491000  0.21911000  1.0
  C  C70  1  0.12562000  0.09510000  0.71911000  1.0
  C  C71  1  0.87438000  0.09506000  0.28089000  1.0
  C  C72  1  0.62009000  0.98951000  0.82374000  1.0
  C  C73  1  0.37989000  0.98948000  0.17626000  1.0
  C  C74  1  0.12010000  0.01053000  0.67626000  1.0
  C  C75  1  0.87989000  0.01048000  0.32374000  1.0
  C  C76  1  0.96147000  0.86806000  0.83848000  1.0
  C  C77  1  0.03853000  0.86803000  0.16152000  1.0
  C  C78  1  0.46147000  0.13198000  0.66152000  1.0
  C  C79  1  0.53852000  0.13193000  0.33848000  1.0
  C  C80  1  0.91464000  0.03122000  0.91128000  1.0
  C  C81  1  0.08535000  0.03120000  0.08872000  1.0
  C  C82  1  0.41464000  0.96882000  0.58873000  1.0
  C  C83  1  0.58536000  0.96877000  0.41128000  1.0
  C  C84  1  0.70004000  0.02967000  0.95714000  1.0
  C  C85  1  0.29996000  0.02966000  0.04287000  1.0
  C  C86  1  0.20003000  0.97034000  0.54287000  1.0
  C  C87  1  0.79996000  0.97032000  0.45714000  1.0
  C  C88  1  0.60066000  0.13604000  0.97904000  1.0
  C  C89  1  0.39932000  0.13604000  0.02096000  1.0
  C  C90  1  0.10070000  0.86396000  0.52096000  1.0
  C  C91  1  0.89937000  0.86395000  0.47904000  1.0
  C  C92  1  0.59818000  0.92226000  0.97859000  1.0
  C  C93  1  0.40184000  0.92225000  0.02141000  1.0
  C  C94  1  0.09813000  0.07775000  0.52141000  1.0
  C  C95  1  0.90180000  0.07774000  0.47859000  1.0
  N  N96  1  0.23596000  0.64140000  0.67969000  1.0
  N  N97  1  0.76405000  0.64137000  0.32031000  1.0
  N  N98  1  0.73597000  0.35863000  0.82031000  1.0
  N  N99  1  0.26404000  0.35861000  0.17969000  1.0
  N  N100  1  0.83880000  0.82984000  0.79058000  1.0
  N  N101  1  0.16119000  0.82981000  0.20942000  1.0
  N  N102  1  0.33881000  0.17019000  0.70942000  1.0
  N  N103  1  0.66119000  0.17015000  0.29058000  1.0
  N  N104  1  0.83539000  0.96489000  0.85954000  1.0
  N  N105  1  0.16461000  0.96486000  0.14046000  1.0
  N  N106  1  0.33538000  0.03515000  0.64046000  1.0
  N  N107  1  0.66460000  0.03509000  0.35954000  1.0
  O  O108  1  0.72649000  0.53450000  0.72154000  1.0
  O  O109  1  0.27350000  0.53445000  0.27846000  1.0
  O  O110  1  0.22650000  0.46554000  0.77846000  1.0
  O  O111  1  0.77351000  0.46551000  0.22154000  1.0
  O  O112  1  0.72632000  0.34241000  0.69397000  1.0
  O  O113  1  0.27368000  0.34236000  0.30603000  1.0
  O  O114  1  0.22630000  0.65762000  0.80603000  1.0
  O  O115  1  0.77364000  0.65761000  0.19397000  1.0
  O  O116  1  0.79600000  0.76602000  0.66855000  1.0
  O  O117  1  0.20403000  0.76598000  0.33145000  1.0
  O  O118  1  0.29598000  0.23401000  0.83145000  1.0
  O  O119  1  0.70404000  0.23399000  0.16855000  1.0
  O  O120  1  0.66149000  0.67850000  0.58617000  1.0
  O  O121  1  0.33855000  0.67845000  0.41382000  1.0
  O  O122  1  0.16148000  0.32154000  0.91383000  1.0
  O  O123  1  0.83851000  0.32151000  0.08617000  1.0
