# generated using pymatgen
data_ZnH6(C3N2)2
_symmetry_space_group_name_H-M   'P 1'
_cell_length_a   7.02063000
_cell_length_b   7.78227000
_cell_length_c   7.84467000
_cell_angle_alpha   70.64900000
_cell_angle_beta   90.00020000
_cell_angle_gamma   90.00010000
_symmetry_Int_Tables_number   1
_chemical_formula_structural   ZnH6(C3N2)2
_chemical_formula_sum   'Zn2 H12 C12 N8'
_cell_volume   404.39139002
_cell_formula_units_Z   2
loop_
 _symmetry_equiv_pos_site_id
 _symmetry_equiv_pos_as_xyz
  1  'x, y, z'
loop_
 _atom_site_type_symbol
 _atom_site_label
 _atom_site_symmetry_multiplicity
 _atom_site_fract_x
 _atom_site_fract_y
 _atom_site_fract_z
 _atom_site_occupancy
  Zn  Zn0  1  0.98385000  0.09395000  0.19382000  1.0
  Zn  Zn1  1  0.48385000  0.90605000  0.80618000  1.0
  H  H2  1  0.00362000  0.66184000  0.35445000  1.0
  H  H3  1  0.50362000  0.33816000  0.64555000  1.0
  H  H4  1  0.99696000  0.69965000  0.88116000  1.0
  H  H5  1  0.49696000  0.30035000  0.11884000  1.0
  H  H6  1  0.98385000  0.04896000  0.62737000  1.0
  H  H7  1  0.48385000  0.95104000  0.37262000  1.0
  H  H8  1  0.13335000  0.38554000  0.80315000  1.0
  H  H9  1  0.63335000  0.61446000  0.19685000  1.0
  H  H10  1  0.01970000  0.37344000  0.60361000  1.0
  H  H11  1  0.51970000  0.62656000  0.39639000  1.0
  H  H12  1  0.87765000  0.37821000  0.79142000  1.0
  H  H13  1  0.37765000  0.62179000  0.20858000  1.0
  C  C14  1  0.99952000  0.34459000  0.19611000  1.0
  C  C15  1  0.49951000  0.65541000  0.80389000  1.0
  C  C16  1  0.79079000  0.02413000  0.04097000  1.0
  C  C17  1  0.29079000  0.97587000  0.95903000  1.0
  C  C18  1  0.00020000  0.72355000  0.46059000  1.0
  C  C19  1  0.50020000  0.27645000  0.53941000  1.0
  C  C20  1  0.99706000  0.74672000  0.73468000  1.0
  C  C21  1  0.49706000  0.25328000  0.26532000  1.0
  C  C22  1  0.99071000  0.91779000  0.60775000  1.0
  C  C23  1  0.49071000  0.08222000  0.39225000  1.0
  C  C24  1  0.00876000  0.42830000  0.71506000  1.0
  C  C25  1  0.50877000  0.57170000  0.28494000  1.0
  N  N26  1  0.00858000  0.49677000  0.18997000  1.0
  N  N27  1  0.50858000  0.50323000  0.81003000  1.0
  N  N28  1  0.70219000  0.97360000  0.94093000  1.0
  N  N29  1  0.20219000  0.02640000  0.05907000  1.0
  N  N30  1  0.99281000  0.90165000  0.43751000  1.0
  N  N31  1  0.49281000  0.09835000  0.56249000  1.0
  N  N32  1  0.00319000  0.62636000  0.63890000  1.0
  N  N33  1  0.50319000  0.37364000  0.36110000  1.0
