# generated using pymatgen
data_InPH12(C3O)7
_symmetry_space_group_name_H-M   'P 1'
_cell_length_a   8.83370000
_cell_length_b   8.84078000
_cell_length_c   8.85348000
_cell_angle_alpha   107.89300000
_cell_angle_beta   107.86800000
_cell_angle_gamma   107.78900000
_symmetry_Int_Tables_number   1
_chemical_formula_structural   InPH12(C3O)7
_chemical_formula_sum   'In1 P1 H12 C21 O7'
_cell_volume   561.94167273
_cell_formula_units_Z   1
loop_
 _symmetry_equiv_pos_site_id
 _symmetry_equiv_pos_as_xyz
  1  'x, y, z'
loop_
 _atom_site_type_symbol
 _atom_site_label
 _atom_site_symmetry_multiplicity
 _atom_site_fract_x
 _atom_site_fract_y
 _atom_site_fract_z
 _atom_site_occupancy
  In  In0  1  0.78939000  0.78969000  0.78967000  1.0
  P  P1  1  0.17240000  0.17241000  0.17235000  1.0
  H  H2  1  0.26361000  0.88478000  0.07147000  1.0
  H  H3  1  0.88488000  0.07099000  0.26320000  1.0
  H  H4  1  0.07102000  0.26319000  0.88500000  1.0
  H  H5  1  0.45054000  0.77994000  0.24797000  1.0
  H  H6  1  0.78022000  0.24793000  0.45044000  1.0
  H  H7  1  0.24793000  0.45031000  0.78045000  1.0
  H  H8  1  0.56194000  0.20140000  0.73109000  1.0
  H  H9  1  0.20138000  0.73163000  0.56233000  1.0
  H  H10  1  0.73163000  0.56238000  0.20130000  1.0
  H  H11  1  0.37810000  0.30966000  0.55780000  1.0
  H  H12  1  0.30952000  0.55790000  0.37824000  1.0
  H  H13  1  0.55794000  0.37839000  0.30931000  1.0
  C  C14  1  0.30975000  0.10332000  0.30463000  1.0
  C  C15  1  0.10318000  0.30462000  0.30961000  1.0
  C  C16  1  0.30457000  0.30964000  0.10319000  1.0
  C  C17  1  0.32995000  0.95431000  0.21575000  1.0
  C  C18  1  0.95431000  0.21548000  0.32972000  1.0
  C  C19  1  0.21553000  0.32970000  0.95440000  1.0
  C  C20  1  0.43311000  0.89542000  0.31335000  1.0
  C  C21  1  0.89560000  0.31329000  0.43300000  1.0
  C  C22  1  0.31326000  0.43289000  0.89573000  1.0
  C  C23  1  0.51576000  0.98480000  0.49911000  1.0
  C  C24  1  0.98491000  0.49930000  0.51586000  1.0
  C  C25  1  0.49933000  0.51581000  0.98492000  1.0
  C  C26  1  0.49596000  0.13360000  0.58700000  1.0
  C  C27  1  0.13367000  0.58736000  0.49620000  1.0
  C  C28  1  0.58733000  0.49617000  0.13358000  1.0
  C  C29  1  0.39268000  0.19308000  0.48977000  1.0
  C  C30  1  0.19300000  0.48995000  0.39283000  1.0
  C  C31  1  0.48998000  0.39291000  0.19287000  1.0
  C  C32  1  0.62179000  0.91811000  0.60267000  1.0
  C  C33  1  0.91823000  0.60299000  0.62195000  1.0
  C  C34  1  0.60294000  0.62189000  0.91830000  1.0
  O  O35  1  0.69920000  0.00003000  0.77216000  1.0
  O  O36  1  0.99988000  0.77266000  0.69942000  1.0
  O  O37  1  0.77268000  0.69948000  0.00000000  1.0
  O  O38  1  0.63251000  0.77710000  0.52206000  1.0
  O  O39  1  0.77733000  0.52212000  0.63265000  1.0
  O  O40  1  0.52192000  0.63247000  0.77751000  1.0
  O  O41  1  0.01461000  0.01435000  0.01459000  1.0
