# generated using pymatgen
data_Hf3H12C22(NO8)2
_symmetry_space_group_name_H-M   'P 1'
_cell_length_a   13.02840000
_cell_length_b   16.49260389
_cell_length_c   16.56170000
_cell_angle_alpha   80.11092621
_cell_angle_beta   66.87280000
_cell_angle_gamma   66.79863726
_symmetry_Int_Tables_number   1
_chemical_formula_structural   Hf3H12C22(NO8)2
_chemical_formula_sum   'Hf6 H24 C44 N4 O32'
_cell_volume   3007.37745717
_cell_formula_units_Z   2
loop_
 _symmetry_equiv_pos_site_id
 _symmetry_equiv_pos_as_xyz
  1  'x, y, z'
loop_
 _atom_site_type_symbol
 _atom_site_label
 _atom_site_symmetry_multiplicity
 _atom_site_fract_x
 _atom_site_fract_y
 _atom_site_fract_z
 _atom_site_occupancy
  Hf  Hf0  1  0.89839000  0.12176000  0.01156000  1.0
  Hf  Hf1  1  0.06193000  0.95185000  0.85718000  1.0
  Hf  Hf2  1  0.89725000  0.95887000  0.18083000  1.0
  Hf  Hf3  1  0.05442000  0.79160000  0.02519000  1.0
  Hf  Hf4  1  0.78657000  0.95723000  0.01781000  1.0
  Hf  Hf5  1  0.17055000  0.95421000  0.01863000  1.0
  H  H6  1  0.36554000  0.48374000  0.02239000  1.0
  H  H7  1  0.14141000  0.57371000  0.02094000  1.0
  H  H8  1  0.60941000  0.42970000  0.98150000  1.0
  H  H9  1  0.83384000  0.33885000  0.98131000  1.0
  H  H10  1  0.88773000  0.96811000  0.49059000  1.0
  H  H11  1  0.75875000  0.95528000  0.40086000  1.0
  H  H12  1  0.07816000  0.92717000  0.54066000  1.0
  H  H13  1  0.21366000  0.91404000  0.63371000  1.0
  H  H14  1  0.11546000  0.09490000  0.88112000  1.0
  H  H15  1  0.95925000  0.82451000  0.88870000  1.0
  H  H16  1  0.13033000  0.82029000  0.14781000  1.0
  H  H17  1  0.70082000  0.08808000  0.14748000  1.0
  H  H18  1  0.23757000  0.82922000  0.74788000  1.0
  H  H19  1  0.16070000  0.75981000  0.84604000  1.0
  H  H20  1  0.99696000  0.67615000  0.15114000  1.0
  H  H21  1  0.96742000  0.77838000  0.21775000  1.0
  H  H22  1  0.84085000  0.07911000  0.29311000  1.0
  H  H23  1  0.79880000  0.15196000  0.19060000  1.0
  H  H24  1  0.85436000  0.23589000  0.88935000  1.0
  H  H25  1  0.14777000  0.04861000  0.70114000  1.0
  H  H26  1  0.96894000  0.82418000  0.29772000  1.0
  H  H27  1  0.84897000  0.22990000  0.13772000  1.0
  H  H28  1  0.01744000  0.05065000  0.71827000  1.0
  H  H29  1  0.23859000  0.68388000  0.89844000  1.0
  C  C30  1  0.32697000  0.36551000  0.02061000  1.0
  C  C31  1  0.30321000  0.45576000  0.02165000  1.0
  C  C32  1  0.18681000  0.50280000  0.02149000  1.0
  C  C33  1  0.13704000  0.44208000  0.02056000  1.0
  C  C34  1  0.63852000  0.54640000  0.00142000  1.0
  C  C35  1  0.66780000  0.45687000  0.99022000  1.0
  C  C36  1  0.78344000  0.40925000  0.99189000  1.0
  C  C37  1  0.82670000  0.46916000  0.00485000  1.0
  C  C38  1  0.73552000  0.95921000  0.60835000  1.0
  C  C39  1  0.80065000  0.96170000  0.51834000  1.0
  C  C40  1  0.73491000  0.95472000  0.47144000  1.0
  C  C41  1  0.62809000  0.94784000  0.53217000  1.0
  C  C42  1  0.23056000  0.94092000  0.42574000  1.0
  C  C43  1  0.16669000  0.93092000  0.51473000  1.0
  C  C44  1  0.23674000  0.92543000  0.56335000  1.0
  C  C45  1  0.34456000  0.93298000  0.50478000  1.0
  C  C46  1  0.63278000  0.16152000  0.01000000  1.0
  C  C47  1  0.33238000  0.94735000  0.81335000  1.0
  C  C48  1  0.83020000  0.96591000  0.81163000  1.0
  C  C49  1  0.12596000  0.15630000  0.02538000  1.0
  C  C50  1  0.12078000  0.95662000  0.22505000  1.0
  C  C51  1  0.82930000  0.75072000  0.02822000  1.0
  C  C52  1  0.33002000  0.74721000  0.01106000  1.0
  C  C53  1  0.63592000  0.94910000  0.22242000  1.0
  C  C54  1  0.19932000  0.94813000  0.35294000  1.0
  C  C55  1  0.16569000  0.95413000  0.29217000  1.0
  C  C56  1  0.43292000  0.94550000  0.34695000  1.0
  C  C57  1  0.52558000  0.94652000  0.28918000  1.0
  C  C58  1  0.53689000  0.94850000  0.69004000  1.0
  C  C59  1  0.44484000  0.94616000  0.74782000  1.0
  C  C60  1  0.76191000  0.96355000  0.68080000  1.0
  C  C61  1  0.78811000  0.96707000  0.74305000  1.0
  C  C62  1  0.53122000  0.94045000  0.52216000  1.0
  C  C63  1  0.44310000  0.93497000  0.51690000  1.0
  C  C64  1  0.53563000  0.61852000  0.00374000  1.0
  C  C65  1  0.44292000  0.67955000  0.00554000  1.0
  C  C66  1  0.78405000  0.68451000  0.02759000  1.0
  C  C67  1  0.75223000  0.62703000  0.01981000  1.0
  C  C68  1  0.17154000  0.22248000  0.02602000  1.0
  C  C69  1  0.20420000  0.28295000  0.02288000  1.0
  C  C70  1  0.42924000  0.29263000  0.01765000  1.0
  C  C71  1  0.52093000  0.22958000  0.01329000  1.0
  C  C72  1  0.02781000  0.45257000  0.01710000  1.0
  C  C73  1  0.93431000  0.45824000  0.01151000  1.0
  N  N74  1  0.22326000  0.35715000  0.02088000  1.0
  N  N75  1  0.73749000  0.55406000  0.01060000  1.0
  N  N76  1  0.62832000  0.95068000  0.61672000  1.0
  N  N77  1  0.34106000  0.94164000  0.41965000  1.0
  O  O78  1  0.71413000  0.18871000  0.00550000  1.0
  O  O79  1  0.64136000  0.08118000  0.01274000  1.0
  O  O80  1  0.25449000  0.94756000  0.78390000  1.0
  O  O81  1  0.31940000  0.94888000  0.89310000  1.0
  O  O82  1  0.93403000  0.97180000  0.78538000  1.0
  O  O83  1  0.76491000  0.95727000  0.89073000  1.0
  O  O84  1  0.01650000  0.18460000  0.03324000  1.0
  O  O85  1  0.19858000  0.07619000  0.01552000  1.0
  O  O86  1  0.91624000  0.21343000  0.91477000  1.0
  O  O87  1  0.80028000  0.19768000  0.13761000  1.0
  O  O88  1  0.06829000  0.05773000  0.74529000  1.0
  O  O89  1  0.15459000  0.83589000  0.78154000  1.0
  O  O90  1  0.89772000  0.02479000  0.94681000  1.0
  O  O91  1  0.08468000  0.05108000  0.91844000  1.0
  O  O92  1  0.01321000  0.95728000  0.25313000  1.0
  O  O93  1  0.18978000  0.95656000  0.14539000  1.0
  O  O94  1  0.93418000  0.72229000  0.03217000  1.0
  O  O95  1  0.76323000  0.83104000  0.02313000  1.0
  O  O96  1  0.25087000  0.72099000  0.00809000  1.0
  O  O97  1  0.31665000  0.82666000  0.01954000  1.0
  O  O98  1  0.71559000  0.94716000  0.24972000  1.0
  O  O99  1  0.64237000  0.95425000  0.14288000  1.0
  O  O100  1  0.92060000  0.83125000  0.26293000  1.0
  O  O101  1  0.80331000  0.07478000  0.25442000  1.0
  O  O102  1  0.03709000  0.71709000  0.14388000  1.0
  O  O103  1  0.15692000  0.71390000  0.89930000  1.0
  O  O104  1  0.08570000  0.86052000  0.11290000  1.0
  O  O105  1  0.89657000  0.88915000  0.08734000  1.0
  O  O106  1  0.99467000  0.02247000  0.08315000  1.0
  O  O107  1  0.96478000  0.86091000  0.92598000  1.0
  O  O108  1  0.77947000  0.05163000  0.10970000  1.0
  O  O109  1  0.12680000  0.88642000  0.95194000  1.0
