# generated using pymatgen
data_LiH6C3O5
_symmetry_space_group_name_H-M   'P 1'
_cell_length_a   4.62536000
_cell_length_b   5.24644000
_cell_length_c   19.91910000
_cell_angle_alpha   89.99900000
_cell_angle_beta   89.99910000
_cell_angle_gamma   96.57300000
_symmetry_Int_Tables_number   1
_chemical_formula_structural   LiH6C3O5
_chemical_formula_sum   'Li4 H24 C12 O20'
_cell_volume   480.19301943
_cell_formula_units_Z   4
loop_
 _symmetry_equiv_pos_site_id
 _symmetry_equiv_pos_as_xyz
  1  'x, y, z'
loop_
 _atom_site_type_symbol
 _atom_site_label
 _atom_site_symmetry_multiplicity
 _atom_site_fract_x
 _atom_site_fract_y
 _atom_site_fract_z
 _atom_site_occupancy
  Li  Li0  1  0.34971000  0.66973000  0.78286000  1.0
  Li  Li1  1  0.65029000  0.83027000  0.28286000  1.0
  Li  Li2  1  0.65030000  0.33027000  0.21714000  1.0
  Li  Li3  1  0.34971000  0.16973000  0.71714000  1.0
  H  H4  1  0.98499000  0.01190000  0.81804000  1.0
  H  H5  1  0.01500000  0.48810000  0.31805000  1.0
  H  H6  1  0.01500000  0.98810000  0.18196000  1.0
  H  H7  1  0.98501000  0.51190000  0.68195000  1.0
  H  H8  1  0.92901000  0.89378000  0.74779000  1.0
  H  H9  1  0.07098000  0.60622000  0.24780000  1.0
  H  H10  1  0.07098000  0.10621000  0.25221000  1.0
  H  H11  1  0.92902000  0.39379000  0.75220000  1.0
  H  H12  1  0.09883000  0.61479000  0.90711000  1.0
  H  H13  1  0.90118000  0.88523000  0.40711000  1.0
  H  H14  1  0.90116000  0.38520000  0.09289000  1.0
  H  H15  1  0.09883000  0.11478000  0.59289000  1.0
  H  H16  1  0.71470000  0.81497000  0.92860000  1.0
  H  H17  1  0.28530000  0.68505000  0.42860000  1.0
  H  H18  1  0.28527000  0.18502000  0.07141000  1.0
  H  H19  1  0.71472000  0.31497000  0.57141000  1.0
  H  H20  1  0.24331000  0.22119000  0.92412000  1.0
  H  H21  1  0.75670000  0.27884000  0.42411000  1.0
  H  H22  1  0.75667000  0.77881000  0.07588000  1.0
  H  H23  1  0.24332000  0.72117000  0.57588000  1.0
  H  H24  1  0.71914000  0.30895000  0.98465000  1.0
  H  H25  1  0.28086000  0.19105000  0.48465000  1.0
  H  H26  1  0.28084000  0.69103000  0.01535000  1.0
  H  H27  1  0.71916000  0.80896000  0.51535000  1.0
  C  C28  1  0.60241000  0.27296000  0.85574000  1.0
  C  C29  1  0.39760000  0.22705000  0.35574000  1.0
  C  C30  1  0.39756000  0.72706000  0.14425000  1.0
  C  C31  1  0.60242000  0.77293000  0.64426000  1.0
  C  C32  1  0.40867000  0.37865000  0.90876000  1.0
  C  C33  1  0.59135000  0.12137000  0.40876000  1.0
  C  C34  1  0.59131000  0.62134000  0.09124000  1.0
  C  C35  1  0.40868000  0.87865000  0.59124000  1.0
  C  C36  1  0.59384000  0.46626000  0.97022000  1.0
  C  C37  1  0.40617000  0.03375000  0.47022000  1.0
  C  C38  1  0.40614000  0.53372000  0.02979000  1.0
  C  C39  1  0.59386000  0.96627000  0.52978000  1.0
  O  O40  1  0.60940000  0.37403000  0.79744000  1.0
  O  O41  1  0.39059000  0.12598000  0.29745000  1.0
  O  O42  1  0.39059000  0.62598000  0.20256000  1.0
  O  O43  1  0.60940000  0.87401000  0.70255000  1.0
  O  O44  1  0.09277000  0.94561000  0.77928000  1.0
  O  O45  1  0.90722000  0.55439000  0.27929000  1.0
  O  O46  1  0.90722000  0.05439000  0.22072000  1.0
  O  O47  1  0.09279000  0.44561000  0.72071000  1.0
  O  O48  1  0.74644000  0.09336000  0.87397000  1.0
  O  O49  1  0.25357000  0.40666000  0.37397000  1.0
  O  O50  1  0.25355000  0.90663000  0.12603000  1.0
  O  O51  1  0.74645000  0.59335000  0.62603000  1.0
  O  O52  1  0.27544000  0.58567000  0.88057000  1.0
  O  O53  1  0.72457000  0.91436000  0.38058000  1.0
  O  O54  1  0.72455000  0.41434000  0.11943000  1.0
  O  O55  1  0.27543000  0.08564000  0.61943000  1.0
  O  O56  1  0.80462000  0.67958000  0.95349000  1.0
  O  O57  1  0.19538000  0.82044000  0.45349000  1.0
  O  O58  1  0.19536000  0.32041000  0.04651000  1.0
  O  O59  1  0.80464000  0.17958000  0.54651000  1.0
