# generated using pymatgen
data_CdH8C10I2(BrN)2
_symmetry_space_group_name_H-M   'P 1'
_cell_length_a   4.16676000
_cell_length_b   12.32070000
_cell_length_c   14.78290000
_cell_angle_alpha   89.99950000
_cell_angle_beta   89.99940000
_cell_angle_gamma   93.73640000
_symmetry_Int_Tables_number   1
_chemical_formula_structural   CdH8C10I2(BrN)2
_chemical_formula_sum   'Cd2 H16 C20 I4 Br4 N4'
_cell_volume   757.30251309
_cell_formula_units_Z   2
loop_
 _symmetry_equiv_pos_site_id
 _symmetry_equiv_pos_as_xyz
  1  'x, y, z'
loop_
 _atom_site_type_symbol
 _atom_site_label
 _atom_site_symmetry_multiplicity
 _atom_site_fract_x
 _atom_site_fract_y
 _atom_site_fract_z
 _atom_site_occupancy
  Cd  Cd0  1  0.00001000  0.00000000  1.00000000  1.0
  Cd  Cd1  1  1.00000000  0.50000000  0.50000000  1.0
  H  H2  1  0.22186000  0.90010000  0.19449000  1.0
  H  H3  1  0.22188000  0.40009000  0.30551000  1.0
  H  H4  1  0.77811000  0.09991000  0.80550000  1.0
  H  H5  1  0.77816000  0.59990000  0.69450000  1.0
  H  H6  1  0.03441000  0.11187000  0.41947000  1.0
  H  H7  1  0.03442000  0.61185000  0.08053000  1.0
  H  H8  1  0.96556000  0.88813000  0.58053000  1.0
  H  H9  1  0.96558000  0.38814000  0.91948000  1.0
  H  H10  1  0.81250000  0.23997000  0.30779000  1.0
  H  H11  1  0.81252000  0.73996000  0.19220000  1.0
  H  H12  1  0.18750000  0.76004000  0.69221000  1.0
  H  H13  1  0.18747000  0.26003000  0.80780000  1.0
  H  H14  1  0.81069000  0.19137000  0.14273000  1.0
  H  H15  1  0.81072000  0.69137000  0.35727000  1.0
  H  H16  1  0.18931000  0.80865000  0.85727000  1.0
  H  H17  1  0.18928000  0.30862000  0.64274000  1.0
  C  C18  1  0.13225000  0.97457000  0.22209000  1.0
  C  C19  1  0.13228000  0.47456000  0.27792000  1.0
  C  C20  1  0.86772000  0.02544000  0.77790000  1.0
  C  C21  1  0.86775000  0.52544000  0.72209000  1.0
  C  C22  1  0.14450000  0.99695000  0.31455000  1.0
  C  C23  1  0.14455000  0.49694000  0.18545000  1.0
  C  C24  1  0.85546000  0.00305000  0.68544000  1.0
  C  C25  1  0.85549000  0.50305000  0.81456000  1.0
  C  C26  1  0.02951000  0.09299000  0.34744000  1.0
  C  C27  1  0.02953000  0.59298000  0.15256000  1.0
  C  C28  1  0.97046000  0.90702000  0.65256000  1.0
  C  C29  1  0.97047000  0.40702000  0.84745000  1.0
  C  C30  1  0.90761000  0.16434000  0.28489000  1.0
  C  C31  1  0.90764000  0.66432000  0.21510000  1.0
  C  C32  1  0.09238000  0.83567000  0.71510000  1.0
  C  C33  1  0.09237000  0.33566000  0.78490000  1.0
  C  C34  1  0.90478000  0.13758000  0.19339000  1.0
  C  C35  1  0.90481000  0.63757000  0.30660000  1.0
  C  C36  1  0.09522000  0.86243000  0.80660000  1.0
  C  C37  1  0.09521000  0.36242000  0.69340000  1.0
  I  I38  1  0.52202000  0.16969000  0.96912000  1.0
  I  I39  1  0.52201000  0.66970000  0.53087000  1.0
  I  I40  1  0.47800000  0.83031000  0.03088000  1.0
  I  I41  1  0.47799000  0.33031000  0.46913000  1.0
  Br  Br42  1  0.31409000  0.89335000  0.39416000  1.0
  Br  Br43  1  0.31414000  0.39334000  0.10584000  1.0
  Br  Br44  1  0.68588000  0.10665000  0.60583000  1.0
  Br  Br45  1  0.68591000  0.60666000  0.89417000  1.0
  N  N46  1  0.01434000  0.04409000  0.16259000  1.0
  N  N47  1  0.01436000  0.54409000  0.33741000  1.0
  N  N48  1  0.98564000  0.95592000  0.83740000  1.0
  N  N49  1  0.98566000  0.45590000  0.66260000  1.0
