# generated using pymatgen
data_CdH20C28(NO4)2
_symmetry_space_group_name_H-M   'P 1'
_cell_length_a   8.97840000
_cell_length_b   11.87160000
_cell_length_c   11.87130000
_cell_angle_alpha   88.31890000
_cell_angle_beta   76.79980000
_cell_angle_gamma   76.79950000
_symmetry_Int_Tables_number   1
_chemical_formula_structural   CdH20C28(NO4)2
_chemical_formula_sum   'Cd2 H40 C56 N4 O16'
_cell_volume   1199.00710095
_cell_formula_units_Z   2
loop_
 _symmetry_equiv_pos_site_id
 _symmetry_equiv_pos_as_xyz
  1  'x, y, z'
loop_
 _atom_site_type_symbol
 _atom_site_label
 _atom_site_symmetry_multiplicity
 _atom_site_fract_x
 _atom_site_fract_y
 _atom_site_fract_z
 _atom_site_occupancy
  Cd  Cd0  1  0.24325000  0.64989000  0.39097000  1.0
  Cd  Cd1  1  0.74326000  0.39096000  0.64988000  1.0
  H  H2  1  0.91558000  0.04892000  0.46673000  1.0
  H  H3  1  0.41557000  0.46673000  0.04893000  1.0
  H  H4  1  0.89567000  0.88926000  0.15188000  1.0
  H  H5  1  0.39566000  0.15189000  0.88926000  1.0
  H  H6  1  0.72492000  0.07431000  0.10352000  1.0
  H  H7  1  0.22491000  0.10354000  0.07431000  1.0
  H  H8  1  0.74573000  0.23076000  0.42094000  1.0
  H  H9  1  0.24570000  0.42094000  0.23077000  1.0
  H  H10  1  0.55324000  0.32792000  0.30273000  1.0
  H  H11  1  0.05323000  0.30273000  0.32793000  1.0
  H  H12  1  0.55846000  0.26362000  0.16764000  1.0
  H  H13  1  0.05844000  0.16766000  0.26363000  1.0
  H  H14  1  0.72964000  0.29194000  0.00252000  1.0
  H  H15  1  0.22961000  0.00254000  0.29195000  1.0
  H  H16  1  0.75345000  0.41822000  0.32138000  1.0
  H  H17  1  0.25344000  0.32138000  0.41823000  1.0
  H  H18  1  0.93609000  0.53595000  0.22851000  1.0
  H  H19  1  0.43609000  0.22851000  0.53595000  1.0
  H  H20  1  0.90873000  0.40372000  0.89555000  1.0
  H  H21  1  0.40872000  0.89556000  0.40371000  1.0
  H  H22  1  0.08426000  0.62966000  0.14674000  1.0
  H  H23  1  0.58427000  0.14674000  0.62965000  1.0
  H  H24  1  0.04250000  0.50834000  0.81334000  1.0
  H  H25  1  0.54249000  0.81335000  0.50835000  1.0
  H  H26  1  0.22525000  0.62565000  0.72066000  1.0
  H  H27  1  0.72523000  0.72067000  0.62566000  1.0
  H  H28  1  0.26171000  0.74285000  0.03981000  1.0
  H  H29  1  0.76172000  0.03981000  0.74284000  1.0
  H  H30  1  0.43153000  0.71201000  0.73956000  1.0
  H  H31  1  0.93152000  0.73955000  0.71201000  1.0
  H  H32  1  0.42584000  0.77643000  0.87468000  1.0
  H  H33  1  0.92584000  0.87467000  0.77644000  1.0
  H  H34  1  0.24905000  0.96337000  0.94230000  1.0
  H  H35  1  0.74902000  0.94231000  0.96337000  1.0
  H  H36  1  0.24674000  0.81033000  0.61815000  1.0
  H  H37  1  0.74673000  0.61815000  0.81033000  1.0
  H  H38  1  0.07684000  0.99178000  0.57143000  1.0
  H  H39  1  0.57684000  0.57143000  0.99179000  1.0
  H  H40  1  0.07965000  0.14828000  0.89255000  1.0
  H  H41  1  0.57962000  0.89255000  0.14828000  1.0
  C  C42  1  0.02500000  0.84697000  0.33812000  1.0
  C  C43  1  0.52500000  0.33811000  0.84698000  1.0
  C  C44  1  0.91766000  0.95724000  0.31155000  1.0
  C  C45  1  0.41765000  0.31156000  0.95725000  1.0
  C  C46  1  0.87403000  0.05350000  0.38709000  1.0
  C  C47  1  0.37401000  0.38709000  0.05351000  1.0
  C  C48  1  0.86285000  0.96521000  0.20929000  1.0
  C  C49  1  0.36284000  0.20930000  0.96521000  1.0
  C  C50  1  0.76816000  0.06828000  0.18288000  1.0
  C  C51  1  0.26814000  0.18289000  0.06829000  1.0
  C  C52  1  0.77944000  0.15670000  0.36086000  1.0
  C  C53  1  0.27942000  0.36087000  0.15671000  1.0
  C  C54  1  0.72689000  0.16503000  0.25797000  1.0
  C  C55  1  0.22687000  0.25798000  0.16504000  1.0
  C  C56  1  0.63045000  0.27774000  0.22653000  1.0
  C  C57  1  0.13043000  0.22653000  0.27775000  1.0
  C  C58  1  0.77749000  0.34815000  0.04806000  1.0
  C  C59  1  0.27748000  0.04807000  0.34816000  1.0
  C  C60  1  0.78874000  0.42074000  0.22746000  1.0
  C  C61  1  0.28873000  0.22746000  0.42074000  1.0
  C  C62  1  0.89144000  0.48666000  0.17294000  1.0
  C  C63  1  0.39143000  0.17294000  0.48666000  1.0
  C  C64  1  0.87891000  0.41303000  0.98949000  1.0
  C  C65  1  0.37890000  0.98949000  0.41302000  1.0
  C  C66  1  0.93843000  0.48448000  0.05146000  1.0
  C  C67  1  0.43843000  0.05146000  0.48448000  1.0
  C  C68  1  0.04717000  0.55449000  0.99065000  1.0
  C  C69  1  0.54717000  0.99065000  0.55449000  1.0
  C  C70  1  0.11051000  0.62310000  0.05271000  1.0
  C  C71  1  0.61052000  0.05271000  0.62310000  1.0
  C  C72  1  0.09031000  0.55512000  0.86906000  1.0
  C  C73  1  0.59030000  0.86907000  0.55513000  1.0
  C  C74  1  0.19293000  0.62108000  0.81460000  1.0
  C  C75  1  0.69292000  0.81461000  0.62108000  1.0
  C  C76  1  0.21128000  0.68850000  0.99420000  1.0
  C  C77  1  0.71129000  0.99419000  0.68850000  1.0
  C  C78  1  0.35403000  0.76200000  0.81578000  1.0
  C  C79  1  0.85402000  0.81578000  0.76201000  1.0
  C  C80  1  0.25702000  0.87446000  0.78420000  1.0
  C  C81  1  0.75700000  0.78420000  0.87446000  1.0
  C  C82  1  0.21037000  0.97012000  0.86103000  1.0
  C  C83  1  0.71035000  0.86103000  0.97012000  1.0
  C  C84  1  0.20933000  0.88367000  0.67932000  1.0
  C  C85  1  0.70932000  0.67932000  0.88368000  1.0
  C  C86  1  0.11491000  0.98671000  0.65251000  1.0
  C  C87  1  0.61490000  0.65252000  0.98672000  1.0
  C  C88  1  0.11614000  0.07307000  0.83394000  1.0
  C  C89  1  0.61611000  0.83395000  0.07308000  1.0
  C  C90  1  0.06684000  0.08211000  0.72937000  1.0
  C  C91  1  0.56682000  0.72937000  0.08212000  1.0
  C  C92  1  0.96065000  0.19263000  0.70191000  1.0
  C  C93  1  0.46063000  0.70192000  0.19264000  1.0
  C  C94  1  0.98875000  0.49733000  0.46033000  1.0
  C  C95  1  0.48876000  0.46032000  0.49734000  1.0
  C  C96  1  0.99772000  0.54368000  0.58046000  1.0
  C  C97  1  0.49775000  0.58044000  0.54370000  1.0
  N  N98  1  0.73352000  0.35277000  0.16502000  1.0
  N  N99  1  0.23351000  0.16502000  0.35278000  1.0
  N  N100  1  0.25148000  0.68661000  0.87720000  1.0
  N  N101  1  0.75148000  0.87720000  0.68661000  1.0
  O  O102  1  0.06407000  0.84122000  0.43534000  1.0
  O  O103  1  0.56407000  0.43533000  0.84121000  1.0
  O  O104  1  0.07325000  0.76697000  0.26106000  1.0
  O  O105  1  0.57328000  0.26104000  0.76698000  1.0
  O  O106  1  0.92362000  0.19883000  0.60397000  1.0
  O  O107  1  0.42361000  0.60398000  0.19884000  1.0
  O  O108  1  0.91116000  0.27250000  0.77915000  1.0
  O  O109  1  0.41113000  0.77916000  0.27251000  1.0
  O  O110  1  0.08620000  0.61277000  0.58081000  1.0
  O  O111  1  0.58620000  0.58080000  0.61276000  1.0
  O  O112  1  0.07293000  0.53036000  0.36998000  1.0
  O  O113  1  0.57293000  0.36999000  0.53035000  1.0
  O  O114  1  0.89962000  0.42877000  0.46006000  1.0
  O  O115  1  0.39960000  0.46005000  0.42877000  1.0
  O  O116  1  0.91443000  0.50989000  0.67075000  1.0
  O  O117  1  0.41441000  0.67075000  0.50989000  1.0
