# generated using pymatgen
data_CdH8(C4N3)3
_symmetry_space_group_name_H-M   'P 1'
_cell_length_a   7.98115000
_cell_length_b   8.82664000
_cell_length_c   10.10750000
_cell_angle_alpha   75.76830000
_cell_angle_beta   73.88780000
_cell_angle_gamma   82.76740000
_symmetry_Int_Tables_number   1
_chemical_formula_structural   CdH8(C4N3)3
_chemical_formula_sum   'Cd2 H16 C24 N18'
_cell_volume   661.80422748
_cell_formula_units_Z   2
loop_
 _symmetry_equiv_pos_site_id
 _symmetry_equiv_pos_as_xyz
  1  'x, y, z'
loop_
 _atom_site_type_symbol
 _atom_site_label
 _atom_site_symmetry_multiplicity
 _atom_site_fract_x
 _atom_site_fract_y
 _atom_site_fract_z
 _atom_site_occupancy
  Cd  Cd0  1  0.20711000  0.87381000  0.45874000  1.0
  Cd  Cd1  1  0.79288000  0.12618000  0.54126000  1.0
  H  H2  1  0.70509000  0.96045000  0.87004000  1.0
  H  H3  1  0.29491000  0.03955000  0.12997000  1.0
  H  H4  1  0.85998000  0.22226000  0.12047000  1.0
  H  H5  1  0.14002000  0.77774000  0.87953000  1.0
  H  H6  1  0.98340000  0.41257000  0.89839000  1.0
  H  H7  1  0.01660000  0.58742000  0.10161000  1.0
  H  H8  1  0.49743000  0.77974000  0.65216000  1.0
  H  H9  1  0.50257000  0.22026000  0.34784000  1.0
  H  H10  1  0.25042000  0.26819000  0.76627000  1.0
  H  H11  1  0.74958000  0.73181000  0.23374000  1.0
  H  H12  1  0.61279000  0.56123000  0.81690000  1.0
  H  H13  1  0.38721000  0.43878000  0.18310000  1.0
  H  H14  1  0.71040000  0.99236000  0.10708000  1.0
  H  H15  1  0.28960000  0.00764000  0.89292000  1.0
  H  H16  1  0.48606000  0.29625000  0.87530000  1.0
  H  H17  1  0.51394000  0.70376000  0.12470000  1.0
  C  C18  1  0.76898000  0.05723000  0.88064000  1.0
  C  C19  1  0.23102000  0.94277000  0.11936000  1.0
  C  C20  1  0.97342000  0.39527000  0.62844000  1.0
  C  C21  1  0.02658000  0.60473000  0.37156000  1.0
  C  C22  1  0.85349000  0.20337000  0.01964000  1.0
  C  C23  1  0.14651000  0.79663000  0.98037000  1.0
  C  C24  1  0.92592000  0.30883000  0.89500000  1.0
  C  C25  1  0.07408000  0.69116000  0.10500000  1.0
  C  C26  1  0.24448000  0.51037000  0.65682000  1.0
  C  C27  1  0.75552000  0.48963000  0.34318000  1.0
  C  C28  1  0.10923000  0.50031000  0.58380000  1.0
  C  C29  1  0.89077000  0.49969000  0.41620000  1.0
  C  C30  1  0.44336000  0.66524000  0.68149000  1.0
  C  C31  1  0.55664000  0.33476000  0.31851000  1.0
  C  C32  1  0.30558000  0.38059000  0.74576000  1.0
  C  C33  1  0.69442000  0.61942000  0.25424000  1.0
  C  C34  1  0.91706000  0.28227000  0.76621000  1.0
  C  C35  1  0.08294000  0.71773000  0.23379000  1.0
  C  C36  1  0.50845000  0.54187000  0.77356000  1.0
  C  C37  1  0.49155000  0.45814000  0.22644000  1.0
  C  C38  1  0.77321000  0.07530000  0.01273000  1.0
  C  C39  1  0.22679000  0.92470000  0.98727000  1.0
  C  C40  1  0.43804000  0.39671000  0.80567000  1.0
  C  C41  1  0.56196000  0.60329000  0.19433000  1.0
  N  N42  1  0.31443000  0.65113000  0.62462000  1.0
  N  N43  1  0.68557000  0.34887000  0.37538000  1.0
  N  N44  1  0.12714000  0.60086000  0.45861000  1.0
  N  N45  1  0.87286000  0.39913000  0.54139000  1.0
  N  N46  1  0.83879000  0.15783000  0.76069000  1.0
  N  N47  1  0.16121000  0.84217000  0.23931000  1.0
  N  N48  1  0.47411000  0.94415000  0.31630000  1.0
  N  N49  1  0.52589000  0.05586000  0.68370000  1.0
  N  N50  1  0.60086000  0.94832000  0.35598000  1.0
  N  N51  1  0.39912000  0.05168000  0.64401000  1.0
  N  N52  1  0.85772000  0.68002000  0.83376000  1.0
  N  N53  1  0.14228000  0.31998000  0.16624000  1.0
  N  N54  1  0.93216000  0.86435000  0.61517000  1.0
  N  N55  1  0.06784000  0.13564000  0.38483000  1.0
  N  N56  1  0.89533000  0.77115000  0.72564000  1.0
  N  N57  1  0.10467000  0.22885000  0.27435000  1.0
  N  N58  1  0.73239000  0.95295000  0.38592000  1.0
  N  N59  1  0.26761000  0.04705000  0.61407000  1.0
