# generated using pymatgen
data_AlH3C27(Cl2O)6
_symmetry_space_group_name_H-M   'P 1'
_cell_length_a   4.25744000
_cell_length_b   28.08040000
_cell_length_c   28.09920000
_cell_angle_alpha   60.06270000
_cell_angle_beta   89.89680000
_cell_angle_gamma   89.77750000
_symmetry_Int_Tables_number   1
_chemical_formula_structural   AlH3C27(Cl2O)6
_chemical_formula_sum   'Al3 H9 C81 Cl36 O18'
_cell_volume   2911.03332241
_cell_formula_units_Z   3
loop_
 _symmetry_equiv_pos_site_id
 _symmetry_equiv_pos_as_xyz
  1  'x, y, z'
loop_
 _atom_site_type_symbol
 _atom_site_label
 _atom_site_symmetry_multiplicity
 _atom_site_fract_x
 _atom_site_fract_y
 _atom_site_fract_z
 _atom_site_occupancy
  Al  Al0  1  0.99790000  0.49972000  0.49994000  1.0
  Al  Al1  1  0.04754000  0.83325000  0.83322000  1.0
  Al  Al2  1  0.95897000  0.16638000  0.16669000  1.0
  H  H3  1  0.50733000  0.07736000  0.92249000  1.0
  H  H4  1  0.42062000  0.25283000  0.83423000  1.0
  H  H5  1  0.58534000  0.16579000  0.74711000  1.0
  H  H6  1  0.50731000  0.50012000  0.07709000  1.0
  H  H7  1  0.58614000  0.58710000  0.16571000  1.0
  H  H8  1  0.42424000  0.41318000  0.25243000  1.0
  H  H9  1  0.49994000  0.92283000  0.49977000  1.0
  H  H10  1  0.41604000  0.83416000  0.41293000  1.0
  H  H11  1  0.58140000  0.74728000  0.58673000  1.0
  C  C12  1  0.49469000  0.57265000  0.49973000  1.0
  C  C13  1  0.49977000  0.42709000  0.57274000  1.0
  C  C14  1  0.49984000  0.49962000  0.42723000  1.0
  C  C15  1  0.54425000  0.90339000  0.83670000  1.0
  C  C16  1  0.54735000  0.75982000  0.90346000  1.0
  C  C17  1  0.54643000  0.83659000  0.75969000  1.0
  C  C18  1  0.46215000  0.16313000  0.09645000  1.0
  C  C19  1  0.45863000  0.23987000  0.16361000  1.0
  C  C20  1  0.46073000  0.09619000  0.24014000  1.0
  C  C21  1  0.47680000  0.16514000  0.88529000  1.0
  C  C22  1  0.50614000  0.11584000  0.88406000  1.0
  C  C23  1  0.53354000  0.11464000  0.83476000  1.0
  C  C24  1  0.54423000  0.16544000  0.78538000  1.0
  C  C25  1  0.50297000  0.21589000  0.78409000  1.0
  C  C26  1  0.46310000  0.21456000  0.83455000  1.0
  C  C27  1  0.68522000  0.96190000  0.87872000  1.0
  C  C28  1  0.70031000  0.01313000  0.87636000  1.0
  C  C29  1  0.54235000  0.06064000  0.83535000  1.0
  C  C30  1  0.38169000  0.05286000  0.79547000  1.0
  C  C31  1  0.39513000  0.00322000  0.79459000  1.0
  C  C32  1  0.54003000  0.95698000  0.83700000  1.0
  C  C33  1  0.31109000  0.12338000  0.98668000  1.0
  C  C34  1  0.32495000  0.12109000  0.03784000  1.0
  C  C35  1  0.46761000  0.16297000  0.04280000  1.0
  C  C36  1  0.61153000  0.20545000  0.99667000  1.0
  C  C37  1  0.62671000  0.20449000  0.94711000  1.0
  C  C38  1  0.46801000  0.16449000  0.93926000  1.0
  C  C39  1  0.66652000  0.31672000  0.72262000  1.0
  C  C40  1  0.65360000  0.36783000  0.67346000  1.0
  C  C41  1  0.50083000  0.37337000  0.62649000  1.0
  C  C42  1  0.34858000  0.32633000  0.63217000  1.0
  C  C43  1  0.33655000  0.27726000  0.68334000  1.0
  C  C44  1  0.50181000  0.26961000  0.73039000  1.0
  C  C45  1  0.53429000  0.55062000  0.11445000  1.0
  C  C46  1  0.50682000  0.50013000  0.11558000  1.0
  C  C47  1  0.47832000  0.44965000  0.16480000  1.0
  C  C48  1  0.46577000  0.45104000  0.21423000  1.0
  C  C49  1  0.50536000  0.50014000  0.21563000  1.0
  C  C50  1  0.54541000  0.54924000  0.16526000  1.0
  C  C51  1  0.32108000  0.34061000  0.12147000  1.0
  C  C52  1  0.30981000  0.38975000  0.12339000  1.0
  C  C53  1  0.46848000  0.39618000  0.16432000  1.0
  C  C54  1  0.62639000  0.34816000  0.20451000  1.0
  C  C55  1  0.60860000  0.29746000  0.20583000  1.0
  C  C56  1  0.46344000  0.29371000  0.16347000  1.0
  C  C57  1  0.70232000  0.61040000  0.01320000  1.0
  C  C58  1  0.68886000  0.65930000  0.96211000  1.0
  C  C59  1  0.54356000  0.70611000  0.95712000  1.0
  C  C60  1  0.39841000  0.70249000  0.00325000  1.0
  C  C61  1  0.38383000  0.65198000  0.05277000  1.0
  C  C62  1  0.54361000  0.60405000  0.06059000  1.0
  C  C63  1  0.33725000  0.53943000  0.27719000  1.0
  C  C64  1  0.34818000  0.54127000  0.32643000  1.0
  C  C65  1  0.50205000  0.49985000  0.37336000  1.0
  C  C66  1  0.65795000  0.45867000  0.36755000  1.0
  C  C67  1  0.67111000  0.46080000  0.31633000  1.0
  C  C68  1  0.50453000  0.50014000  0.26935000  1.0
  C  C69  1  0.47091000  0.88540000  0.44940000  1.0
  C  C70  1  0.49966000  0.88428000  0.49982000  1.0
  C  C71  1  0.52819000  0.83502000  0.55027000  1.0
  C  C72  1  0.53965000  0.78553000  0.54889000  1.0
  C  C73  1  0.49852000  0.78414000  0.49984000  1.0
  C  C74  1  0.45814000  0.83456000  0.45078000  1.0
  C  C75  1  0.68319000  0.87877000  0.65902000  1.0
  C  C76  1  0.69559000  0.87666000  0.61002000  1.0
  C  C77  1  0.53817000  0.83561000  0.60365000  1.0
  C  C78  1  0.38055000  0.79551000  0.65158000  1.0
  C  C79  1  0.39743000  0.79435000  0.70217000  1.0
  C  C80  1  0.54146000  0.83682000  0.70586000  1.0
  C  C81  1  0.30423000  0.98686000  0.38948000  1.0
  C  C82  1  0.31856000  0.03792000  0.34057000  1.0
  C  C83  1  0.46437000  0.04265000  0.29398000  1.0
  C  C84  1  0.61002000  0.99635000  0.29789000  1.0
  C  C85  1  0.62377000  0.94686000  0.34842000  1.0
  C  C86  1  0.46271000  0.93929000  0.39604000  1.0
  C  C87  1  0.66233000  0.72244000  0.46046000  1.0
  C  C88  1  0.64833000  0.67332000  0.45834000  1.0
  C  C89  1  0.49425000  0.62650000  0.49965000  1.0
  C  C90  1  0.34118000  0.63235000  0.54098000  1.0
  C  C91  1  0.33080000  0.68352000  0.53908000  1.0
  C  C92  1  0.49752000  0.73037000  0.49982000  1.0
  Cl  Cl93  1  0.23422000  0.99814000  0.74126000  1.0
  Cl  Cl94  1  0.84741000  0.90395000  0.93268000  1.0
  Cl  Cl95  1  0.15204000  0.10313000  0.74563000  1.0
  Cl  Cl96  1  0.93078000  0.01483000  0.92546000  1.0
  Cl  Cl97  1  0.16393000  0.06703000  0.09567000  1.0
  Cl  Cl98  1  0.08317000  0.07409000  0.98488000  1.0
  Cl  Cl99  1  0.76900000  0.25902000  0.00171000  1.0
  Cl  Cl100  1  0.85509000  0.25444000  0.89695000  1.0
  Cl  Cl101  1  0.89961000  0.31359000  0.77368000  1.0
  Cl  Cl102  1  0.82174000  0.42334000  0.67357000  1.0
  Cl  Cl103  1  0.10360000  0.22618000  0.68661000  1.0
  Cl  Cl104  1  0.18034000  0.32600000  0.57675000  1.0
  Cl  Cl105  1  0.76437000  0.23872000  0.25967000  1.0
  Cl  Cl106  1  0.15691000  0.33661000  0.06771000  1.0
  Cl  Cl107  1  0.85711000  0.34830000  0.25430000  1.0
  Cl  Cl108  1  0.08276000  0.44103000  0.07390000  1.0
  Cl  Cl109  1  0.85337000  0.66309000  0.90439000  1.0
  Cl  Cl110  1  0.93246000  0.55930000  0.01502000  1.0
  Cl  Cl111  1  0.23850000  0.76112000  0.99822000  1.0
  Cl  Cl112  1  0.15374000  0.65189000  0.10287000  1.0
  Cl  Cl113  1  0.10348000  0.58737000  0.22611000  1.0
  Cl  Cl114  1  0.17674000  0.59680000  0.32644000  1.0
  Cl  Cl115  1  0.90642000  0.41306000  0.31288000  1.0
  Cl  Cl116  1  0.82942000  0.40308000  0.42280000  1.0
  Cl  Cl117  1  0.24196000  0.74061000  0.76081000  1.0
  Cl  Cl118  1  0.84469000  0.93278000  0.66288000  1.0
  Cl  Cl119  1  0.15096000  0.74563000  0.65147000  1.0
  Cl  Cl120  1  0.92241000  0.92609000  0.55886000  1.0
  Cl  Cl121  1  0.15491000  0.09594000  0.33647000  1.0
  Cl  Cl122  1  0.07426000  0.98537000  0.44035000  1.0
  Cl  Cl123  1  0.77163000  0.00114000  0.23957000  1.0
  Cl  Cl124  1  0.85401000  0.89647000  0.34896000  1.0
  Cl  Cl125  1  0.89713000  0.77322000  0.41271000  1.0
  Cl  Cl126  1  0.81630000  0.67332000  0.40266000  1.0
  Cl  Cl127  1  0.09824000  0.68705000  0.58696000  1.0
  Cl  Cl128  1  0.16964000  0.57717000  0.59640000  1.0
  O  O129  1  0.73625000  0.47873000  0.45841000  1.0
  O  O130  1  0.73177000  0.56222000  0.47901000  1.0
  O  O131  1  0.73583000  0.45820000  0.56247000  1.0
  O  O132  1  0.26171000  0.52031000  0.43748000  1.0
  O  O133  1  0.26301000  0.43729000  0.54171000  1.0
  O  O134  1  0.25810000  0.54168000  0.52056000  1.0
  O  O135  1  0.78507000  0.81449000  0.78976000  1.0
  O  O136  1  0.78238000  0.89529000  0.81453000  1.0
  O  O137  1  0.78521000  0.78993000  0.89535000  1.0
  O  O138  1  0.31198000  0.85804000  0.76988000  1.0
  O  O139  1  0.31376000  0.76987000  0.87186000  1.0
  O  O140  1  0.31036000  0.87192000  0.85807000  1.0
  O  O141  1  0.69453000  0.12765000  0.23010000  1.0
  O  O142  1  0.69626000  0.14161000  0.12802000  1.0
  O  O143  1  0.69274000  0.22970000  0.14211000  1.0
  O  O144  1  0.22315000  0.10430000  0.20990000  1.0
  O  O145  1  0.22038000  0.20984000  0.18556000  1.0
  O  O146  1  0.22329000  0.18519000  0.10455000  1.0
