# generated using pymatgen
data_Zn4H36C38N4O13
_symmetry_space_group_name_H-M   'P 1'
_cell_length_a   15.85230000
_cell_length_b   15.85170000
_cell_length_c   20.60022700
_cell_angle_alpha   112.51219948
_cell_angle_beta   112.51201436
_cell_angle_gamma   90.27080000
_symmetry_Int_Tables_number   1
_chemical_formula_structural   Zn4H36C38N4O13
_chemical_formula_sum   'Zn8 H72 C76 N8 O26'
_cell_volume   4347.68235826
_cell_formula_units_Z   2
loop_
 _symmetry_equiv_pos_site_id
 _symmetry_equiv_pos_as_xyz
  1  'x, y, z'
loop_
 _atom_site_type_symbol
 _atom_site_label
 _atom_site_symmetry_multiplicity
 _atom_site_fract_x
 _atom_site_fract_y
 _atom_site_fract_z
 _atom_site_occupancy
  Zn  Zn0  1  0.61682000  0.21793000  0.43246000  1.0
  Zn  Zn1  1  0.38305000  0.78383000  0.56737000  1.0
  Zn  Zn2  1  0.21619000  0.61694000  0.43263000  1.0
  Zn  Zn3  1  0.78209000  0.38320000  0.56755000  1.0
  Zn  Zn4  1  0.81563000  0.21462000  0.43247000  1.0
  Zn  Zn5  1  0.18423000  0.78353000  0.56734000  1.0
  Zn  Zn6  1  0.21647000  0.81577000  0.43265000  1.0
  Zn  Zn7  1  0.78539000  0.18438000  0.56753000  1.0
  H  H8  1  0.38954000  0.11683000  0.83176000  1.0
  H  H9  1  0.61654000  0.35908000  0.73169000  1.0
  H  H10  1  0.21004000  0.72805000  0.06789000  1.0
  H  H11  1  0.24352000  0.72644000  0.15974000  1.0
  H  H12  1  0.32962000  0.75450000  0.13213000  1.0
  H  H13  1  0.32907000  0.59132000  0.11585000  1.0
  H  H14  1  0.28918000  0.59790000  0.02699000  1.0
  H  H15  1  0.27210000  0.78970000  0.93211000  1.0
  H  H16  1  0.27372000  0.75629000  0.84028000  1.0
  H  H17  1  0.24579000  0.67012000  0.86788000  1.0
  H  H18  1  0.40897000  0.67090000  0.88417000  1.0
  H  H19  1  0.40239000  0.71074000  0.97303000  1.0
  H  H20  1  0.66826000  0.28119000  0.67553000  1.0
  H  H21  1  0.38398000  0.24673000  0.06791000  1.0
  H  H22  1  0.47401000  0.26982000  0.15938000  1.0
  H  H23  1  0.44158000  0.36287000  0.13233000  1.0
  H  H24  1  0.58567000  0.32923000  0.11505000  1.0
  H  H25  1  0.49202000  0.30004000  0.02642000  1.0
  H  H26  1  0.17920000  0.31627000  0.93211000  1.0
  H  H27  1  0.11069000  0.31460000  0.84059000  1.0
  H  H28  1  0.23083000  0.30955000  0.86766000  1.0
  H  H29  1  0.21391000  0.47082000  0.88476000  1.0
  H  H30  1  0.27359000  0.46593000  0.97339000  1.0
  H  H31  1  0.70183000  0.40365000  0.71191000  1.0
  H  H32  1  0.85782000  0.33992000  0.06805000  1.0
  H  H33  1  0.91619000  0.43337000  0.15991000  1.0
  H  H34  1  0.80247000  0.37776000  0.13229000  1.0
  H  H35  1  0.78690000  0.52470000  0.11604000  1.0
  H  H36  1  0.73781000  0.42925000  0.02720000  1.0
  H  H37  1  0.65997000  0.14231000  0.93190000  1.0
  H  H38  1  0.56653000  0.08390000  0.84006000  1.0
  H  H39  1  0.62203000  0.19767000  0.86769000  1.0
  H  H40  1  0.47514000  0.21311000  0.88396000  1.0
  H  H41  1  0.57057000  0.26222000  0.97279000  1.0
  H  H42  1  0.28507000  0.55797000  0.16816000  1.0
  H  H43  1  0.68386000  0.82097000  0.06783000  1.0
  H  H44  1  0.68553000  0.88944000  0.15936000  1.0
  H  H45  1  0.69076000  0.76933000  0.13231000  1.0
  H  H46  1  0.52944000  0.78602000  0.11523000  1.0
  H  H47  1  0.53432000  0.72639000  0.02658000  1.0
  H  H48  1  0.75312000  0.61583000  0.93205000  1.0
  H  H49  1  0.73006000  0.52581000  0.84058000  1.0
  H  H50  1  0.63701000  0.55815000  0.86763000  1.0
  H  H51  1  0.67080000  0.41410000  0.88495000  1.0
  H  H52  1  0.69991000  0.50774000  0.97355000  1.0
  H  H53  1  0.38196000  0.67977000  0.27230000  1.0
  H  H54  1  0.33396000  0.64862000  0.32683000  1.0
  H  H55  1  0.28702000  0.72859000  0.28662000  1.0
  H  H56  1  0.44226000  0.71496000  0.83184000  1.0
  H  H57  1  0.32046000  0.61801000  0.72770000  1.0
  H  H58  1  0.35161000  0.66601000  0.67317000  1.0
  H  H59  1  0.40706000  0.10952000  0.72754000  1.0
  H  H60  1  0.27160000  0.71291000  0.71334000  1.0
  H  H61  1  0.65526000  0.27355000  0.16694000  1.0
  H  H62  1  0.64070000  0.38346000  0.26832000  1.0
  H  H63  1  0.71866000  0.33177000  0.32448000  1.0
  H  H64  1  0.59621000  0.29812000  0.28809000  1.0
  H  H65  1  0.10633000  0.48848000  0.83309000  1.0
  H  H66  1  0.11506000  0.37255000  0.73178000  1.0
  H  H67  1  0.00722000  0.39427000  0.67557000  1.0
  H  H68  1  0.00996000  0.30822000  0.71197000  1.0
  H  H69  1  0.88315000  0.61025000  0.16827000  1.0
  H  H70  1  0.32140000  0.00698000  0.67310000  1.0
  H  H71  1  0.89058000  0.59277000  0.27253000  1.0
  H  H72  1  0.99311000  0.67843000  0.32694000  1.0
  H  H73  1  0.99981000  0.55824000  0.28675000  1.0
  H  H74  1  0.44160000  0.00028000  0.71325000  1.0
  H  H75  1  0.51173000  0.89356000  0.16691000  1.0
  H  H76  1  0.62772000  0.88493000  0.26823000  1.0
  H  H77  1  0.60596000  0.99274000  0.32445000  1.0
  H  H78  1  0.69195000  0.99006000  0.28800000  1.0
  H  H79  1  0.72651000  0.34455000  0.83306000  1.0
  C  C80  1  0.85486000  0.35502000  0.70989000  1.0
  C  C81  1  0.40787000  0.59215000  0.50001000  1.0
  C  C82  1  0.86471000  0.49511000  0.04014000  1.0
  C  C83  1  0.50482000  0.13529000  0.95986000  1.0
  C  C84  1  0.50899000  0.86285000  0.03931000  1.0
  C  C85  1  0.82355000  0.46945000  0.96078000  1.0
  C  C86  1  0.17534000  0.54487000  0.04003000  1.0
  C  C87  1  0.38815000  0.04043000  0.72371000  1.0
  C  C88  1  0.62281000  0.95666000  0.27463000  1.0
  C  C89  1  0.68190000  0.34787000  0.72532000  1.0
  C  C90  1  0.31673000  0.66469000  0.27618000  1.0
  C  C91  1  0.33551000  0.68323000  0.72380000  1.0
  C  C92  1  0.09124000  0.59107000  0.50004000  1.0
  C  C93  1  0.65198000  0.31811000  0.27469000  1.0
  C  C94  1  0.04332000  0.37740000  0.72538000  1.0
  C  C95  1  0.95965000  0.61170000  0.27633000  1.0
  C  C96  1  0.90797000  0.40788000  0.50016000  1.0
  C  C97  1  0.39316000  0.73019000  0.92533000  1.0
  C  C98  1  0.29025000  0.73679000  0.88883000  1.0
  C  C99  1  0.52100000  0.27849000  0.07406000  1.0
  C  C100  1  0.45155000  0.29028000  0.11102000  1.0
  C  C101  1  0.20437000  0.44709000  0.92580000  1.0
  C  C102  1  0.17948000  0.34069000  0.88894000  1.0
  C  C103  1  0.80498000  0.46772000  0.07485000  1.0
  C  C104  1  0.84816000  0.40131000  0.11135000  1.0
  C  C105  1  0.53215000  0.19504000  0.92514000  1.0
  C  C106  1  0.90961000  0.09037000  0.49999000  1.0
  C  C107  1  0.59854000  0.15194000  0.88862000  1.0
  C  C108  1  0.55310000  0.79562000  0.07418000  1.0
  C  C109  1  0.65949000  0.82062000  0.11101000  1.0
  C  C110  1  0.72148000  0.47881000  0.92592000  1.0
  C  C111  1  0.70962000  0.54825000  0.88895000  1.0
  C  C112  1  0.26972000  0.60706000  0.07467000  1.0
  C  C113  1  0.26302000  0.70997000  0.11119000  1.0
  C  C114  1  0.09209000  0.90791000  0.50000000  1.0
  C  C115  1  0.40894000  0.90879000  0.49998000  1.0
  C  C116  1  0.59213000  0.09205000  0.49985000  1.0
  C  C117  1  0.59031000  0.40968000  0.49998000  1.0
  C  C118  1  0.14560000  0.64568000  0.29109000  1.0
  C  C119  1  0.52762000  0.02750000  0.49985000  1.0
  C  C120  1  0.47342000  0.97326000  0.49989000  1.0
  C  C121  1  0.47209000  0.52792000  0.50001000  1.0
  C  C122  1  0.52607000  0.47392000  0.50000000  1.0
  C  C123  1  0.97254000  0.47238000  0.50017000  1.0
  C  C124  1  0.35432000  0.85442000  0.70892000  1.0
  C  C125  1  0.02677000  0.52658000  0.50012000  1.0
  C  C126  1  0.02786000  0.97214000  0.50000000  1.0
  C  C127  1  0.97387000  0.02613000  0.50000000  1.0
  C  C128  1  0.64500000  0.14514000  0.29012000  1.0
  C  C129  1  0.41708000  0.99490000  0.83490000  1.0
  C  C130  1  0.56398000  0.00677000  0.16415000  1.0
  C  C131  1  0.84247000  0.39967000  0.83586000  1.0
  C  C132  1  0.16001000  0.58225000  0.16506000  1.0
  C  C133  1  0.41780000  0.83998000  0.83495000  1.0
  C  C134  1  0.60027000  0.15754000  0.16414000  1.0
  C  C135  1  0.99320000  0.43608000  0.83586000  1.0
  C  C136  1  0.00510000  0.58287000  0.16511000  1.0
  C  C137  1  0.39757000  0.89759000  0.79524000  1.0
  C  C138  1  0.60200000  0.10209000  0.20399000  1.0
  C  C139  1  0.89791000  0.39801000  0.79602000  1.0
  C  C140  1  0.10240000  0.60242000  0.20476000  1.0
  C  C141  1  0.44781000  0.88039000  0.91706000  1.0
  C  C142  1  0.54844000  0.11951000  0.08206000  1.0
  C  C143  1  0.03734000  0.46621000  0.91792000  1.0
  C  C144  1  0.96337000  0.53067000  0.08302000  1.0
  C  C145  1  0.46927000  0.03662000  0.91698000  1.0
  C  C146  1  0.53384000  0.96264000  0.08209000  1.0
  C  C147  1  0.88049000  0.45148000  0.91794000  1.0
  C  C148  1  0.11960000  0.55224000  0.08295000  1.0
  C  C149  1  0.47908000  0.97904000  0.95807000  1.0
  C  C150  1  0.52059000  0.02052000  0.04098000  1.0
  C  C151  1  0.97947000  0.47940000  0.95902000  1.0
  C  C152  1  0.02095000  0.52091000  0.04193000  1.0
  C  C153  1  0.45525000  0.82463000  0.95997000  1.0
  C  C154  1  0.53043000  0.17645000  0.03922000  1.0
  C  C155  1  0.13713000  0.49113000  0.96069000  1.0
  N  N156  1  0.38409000  0.05056000  0.79569000  1.0
  N  N157  1  0.55372000  0.95549000  0.20308000  1.0
  N  N158  1  0.75228000  0.35046000  0.79692000  1.0
  N  N159  1  0.25489000  0.58858000  0.20425000  1.0
  N  N160  1  0.41155000  0.74511000  0.79575000  1.0
  N  N161  1  0.64941000  0.24776000  0.20308000  1.0
  N  N162  1  0.04445000  0.44641000  0.79693000  1.0
  N  N163  1  0.94945000  0.61579000  0.20434000  1.0
  O  O164  1  0.74997000  0.25004000  0.50000000  1.0
  O  O165  1  0.18077000  0.59326000  0.32485000  1.0
  O  O166  1  0.26813000  0.85581000  0.67523000  1.0
  O  O167  1  0.73294000  0.17237000  0.32384000  1.0
  O  O168  1  0.82768000  0.26707000  0.67616000  1.0
  O  O169  1  0.14418000  0.73187000  0.32477000  1.0
  O  O170  1  0.40675000  0.81927000  0.67516000  1.0
  O  O171  1  0.59075000  0.15162000  0.32381000  1.0
  O  O172  1  0.84834000  0.40929000  0.67621000  1.0
  O  O173  1  0.24997000  0.75004000  0.50000000  1.0
  O  O174  1  0.66904000  0.43868000  0.55770000  1.0
  O  O175  1  0.32215000  0.55614000  0.46768000  1.0
  O  O176  1  0.12161000  0.66912000  0.55856000  1.0
  O  O177  1  0.90948000  0.32223000  0.46573000  1.0
  O  O178  1  0.88875000  0.11924000  0.55780000  1.0
  O  O179  1  0.14547000  0.91158000  0.46765000  1.0
  O  O180  1  0.43714000  0.88931000  0.55853000  1.0
  O  O181  1  0.55613000  0.14327000  0.46545000  1.0
  O  O182  1  0.11070000  0.56287000  0.44148000  1.0
  O  O183  1  0.85675000  0.44389000  0.53457000  1.0
  O  O184  1  0.56130000  0.33094000  0.44226000  1.0
  O  O185  1  0.44387000  0.67787000  0.53233000  1.0
  O  O186  1  0.33089000  0.87842000  0.44146000  1.0
  O  O187  1  0.67778000  0.09054000  0.53429000  1.0
  O  O188  1  0.88072000  0.11124000  0.44219000  1.0
  O  O189  1  0.08843000  0.85454000  0.53236000  1.0
