# generated using pymatgen
data_CuH9C16N3ClO4
_symmetry_space_group_name_H-M   'P 1'
_cell_length_a   9.24198000
_cell_length_b   10.12251181
_cell_length_c   12.36860000
_cell_angle_alpha   69.79722040
_cell_angle_beta   85.95790000
_cell_angle_gamma   63.41165210
_symmetry_Int_Tables_number   1
_chemical_formula_structural   CuH9C16N3ClO4
_chemical_formula_sum   'Cu2 H18 C32 N6 Cl2 O8'
_cell_volume   966.19160775
_cell_formula_units_Z   2
loop_
 _symmetry_equiv_pos_site_id
 _symmetry_equiv_pos_as_xyz
  1  'x, y, z'
loop_
 _atom_site_type_symbol
 _atom_site_label
 _atom_site_symmetry_multiplicity
 _atom_site_fract_x
 _atom_site_fract_y
 _atom_site_fract_z
 _atom_site_occupancy
  Cu  Cu0  1  0.66882000  0.97398000  0.42833000  1.0
  Cu  Cu1  1  0.33118000  0.02602000  0.57167000  1.0
  H  H2  1  0.85750000  0.73119000  0.30530000  1.0
  H  H3  1  0.14250000  0.26881000  0.69470000  1.0
  H  H4  1  0.14233000  0.50433000  0.34016000  1.0
  H  H5  1  0.85766000  0.49568000  0.65984000  1.0
  H  H6  1  0.32897000  0.44347000  0.50143000  1.0
  H  H7  1  0.67104000  0.55653000  0.49857000  1.0
  H  H8  1  0.27070000  0.71278000  0.77983000  1.0
  H  H9  1  0.72931000  0.28722000  0.22017000  1.0
  H  H10  1  0.04215000  0.95334000  0.80697000  1.0
  H  H11  1  0.95785000  0.04667000  0.19303000  1.0
  H  H12  1  0.75270000  0.17095000  0.74216000  1.0
  H  H13  1  0.24730000  0.82905000  0.25784000  1.0
  H  H14  1  0.59511000  0.18008000  0.58130000  1.0
  H  H15  1  0.40489000  0.81991000  0.41870000  1.0
  H  H16  1  0.49856000  0.82202000  0.19677000  1.0
  H  H17  1  0.50144000  0.17797000  0.80324000  1.0
  H  H18  1  0.60209000  0.19672000  0.97787000  1.0
  H  H19  1  0.39790000  0.80328000  0.02213000  1.0
  C  C20  1  0.94580000  0.70213000  0.37414000  1.0
  C  C21  1  0.05421000  0.29787000  0.62586000  1.0
  C  C22  1  0.10277000  0.57658000  0.39461000  1.0
  C  C23  1  0.89724000  0.42342000  0.60539000  1.0
  C  C24  1  0.20857000  0.54211000  0.48536000  1.0
  C  C25  1  0.79143000  0.45789000  0.51464000  1.0
  C  C26  1  0.15929000  0.63678000  0.55548000  1.0
  C  C27  1  0.84072000  0.36322000  0.44452000  1.0
  C  C28  1  0.25235000  0.62164000  0.65226000  1.0
  C  C29  1  0.74766000  0.37836000  0.34774000  1.0
  C  C30  1  0.19304000  0.72464000  0.71135000  1.0
  C  C31  1  0.80697000  0.27536000  0.28865000  1.0
  C  C32  1  0.03274000  0.85148000  0.68166000  1.0
  C  C33  1  0.96726000  0.14853000  0.31834000  1.0
  C  C34  1  0.96619000  0.96245000  0.73865000  1.0
  C  C35  1  0.03382000  0.03755000  0.26135000  1.0
  C  C36  1  0.80929000  0.08107000  0.70275000  1.0
  C  C37  1  0.19071000  0.91893000  0.29725000  1.0
  C  C38  1  0.71944000  0.08925000  0.61129000  1.0
  C  C39  1  0.28056000  0.91074000  0.38871000  1.0
  C  C40  1  0.93502000  0.86908000  0.59006000  1.0
  C  C41  1  0.06498000  0.13092000  0.40994000  1.0
  C  C42  1  0.99818000  0.76271000  0.52723000  1.0
  C  C43  1  0.00181000  0.23730000  0.47277000  1.0
  C  C44  1  0.61876000  0.02159000  0.20102000  1.0
  C  C45  1  0.38123000  0.97841000  0.79898000  1.0
  C  C46  1  0.55663000  0.00986000  0.09768000  1.0
  C  C47  1  0.44338000  0.99013000  0.90232000  1.0
  C  C48  1  0.49872000  0.89941000  0.11009000  1.0
  C  C49  1  0.50128000  0.10058000  0.88992000  1.0
  C  C50  1  0.55777000  0.11061000  0.98670000  1.0
  C  C51  1  0.44223000  0.88938000  0.01330000  1.0
  N  N52  1  0.89526000  0.79185000  0.43950000  1.0
  N  N53  1  0.10474000  0.20815000  0.56050000  1.0
  N  N54  1  0.78100000  0.98685000  0.55588000  1.0
  N  N55  1  0.21900000  0.01315000  0.44412000  1.0
  N  N56  1  0.41915000  0.49514000  0.69321000  1.0
  N  N57  1  0.58085000  0.50486000  0.30679000  1.0
  Cl  Cl58  1  0.44051000  0.20690000  0.40410000  1.0
  Cl  Cl59  1  0.55948000  0.79310000  0.59590000  1.0
  O  O60  1  0.58890000  0.94365000  0.30112000  1.0
  O  O61  1  0.41110000  0.05635000  0.69888000  1.0
  O  O62  1  0.69620000  0.09938000  0.18868000  1.0
  O  O63  1  0.30380000  0.90062000  0.81132000  1.0
  O  O64  1  0.49258000  0.41872000  0.62962000  1.0
  O  O65  1  0.50743000  0.58128000  0.37037000  1.0
  O  O66  1  0.47845000  0.46993000  0.78911000  1.0
  O  O67  1  0.52155000  0.53006000  0.21089000  1.0
