# generated using pymatgen
data_CuH24C32N2O7
_symmetry_space_group_name_H-M   'P 1'
_cell_length_a   8.80842557
_cell_length_b   8.80898000
_cell_length_c   39.41400000
_cell_angle_alpha   90.00500000
_cell_angle_beta   89.99689974
_cell_angle_gamma   120.00024632
_symmetry_Int_Tables_number   1
_chemical_formula_structural   CuH24C32N2O7
_chemical_formula_sum   'Cu3 H72 C96 N6 O21'
_cell_volume   2648.52439197
_cell_formula_units_Z   3
loop_
 _symmetry_equiv_pos_site_id
 _symmetry_equiv_pos_as_xyz
  1  'x, y, z'
loop_
 _atom_site_type_symbol
 _atom_site_label
 _atom_site_symmetry_multiplicity
 _atom_site_fract_x
 _atom_site_fract_y
 _atom_site_fract_z
 _atom_site_occupancy
  Cu  Cu0  1  0.29776000  0.29778000  0.83333000  1.0
  Cu  Cu1  1  0.99997000  0.70224000  0.16666000  1.0
  Cu  Cu2  1  0.70236000  0.99986000  0.50004000  1.0
  H  H3  1  0.43238000  0.62770000  0.74991000  1.0
  H  H4  1  0.19521000  0.56773000  0.08322000  1.0
  H  H5  1  0.37255000  0.80468000  0.41661000  1.0
  H  H6  1  0.62745000  0.43219000  0.91674000  1.0
  H  H7  1  0.56779000  0.19530000  0.58344000  1.0
  H  H8  1  0.80477000  0.37251000  0.25009000  1.0
  H  H9  1  0.14885000  0.63815000  0.62442000  1.0
  H  H10  1  0.48885000  0.85106000  0.95771000  1.0
  H  H11  1  0.36218000  0.51121000  0.29106000  1.0
  H  H12  1  0.63779000  0.14897000  0.04226000  1.0
  H  H13  1  0.85094000  0.48908000  0.70896000  1.0
  H  H14  1  0.51108000  0.36205000  0.37561000  1.0
  H  H15  1  0.42894000  0.91165000  0.61389000  1.0
  H  H16  1  0.48242000  0.57107000  0.94718000  1.0
  H  H17  1  0.08864000  0.51774000  0.28054000  1.0
  H  H18  1  0.91138000  0.42901000  0.05279000  1.0
  H  H19  1  0.57082000  0.48248000  0.71947000  1.0
  H  H20  1  0.51755000  0.08851000  0.38611000  1.0
  H  H21  1  0.66953000  0.02490000  0.65682000  1.0
  H  H22  1  0.35527000  0.33054000  0.99012000  1.0
  H  H23  1  0.97525000  0.64480000  0.32352000  1.0
  H  H24  1  0.02475000  0.66947000  0.00983000  1.0
  H  H25  1  0.33039000  0.35533000  0.67651000  1.0
  H  H26  1  0.64470000  0.97516000  0.34315000  1.0
  H  H27  1  0.62385000  0.87387000  0.71138000  1.0
  H  H28  1  0.24995000  0.37625000  0.04470000  1.0
  H  H29  1  0.12628000  0.74998000  0.37809000  1.0
  H  H30  1  0.87371000  0.62366000  0.95526000  1.0
  H  H31  1  0.37625000  0.25007000  0.62194000  1.0
  H  H32  1  0.74998000  0.12623000  0.28859000  1.0
  H  H33  1  0.95987000  0.28277000  0.81956000  1.0
  H  H34  1  0.32283000  0.04003000  0.15290000  1.0
  H  H35  1  0.71710000  0.67690000  0.48624000  1.0
  H  H36  1  0.28274000  0.95993000  0.84709000  1.0
  H  H37  1  0.04016000  0.32282000  0.51380000  1.0
  H  H38  1  0.67705000  0.71715000  0.18044000  1.0
  H  H39  1  0.80219000  0.43535000  0.84110000  1.0
  H  H40  1  0.63314000  0.19771000  0.17442000  1.0
  H  H41  1  0.56421000  0.36659000  0.50774000  1.0
  H  H42  1  0.43523000  0.80220000  0.82554000  1.0
  H  H43  1  0.19780000  0.63300000  0.49225000  1.0
  H  H44  1  0.36679000  0.56458000  0.15890000  1.0
  H  H45  1  0.93642000  0.64877000  0.88955000  1.0
  H  H46  1  0.71235000  0.06350000  0.22287000  1.0
  H  H47  1  0.35093000  0.28756000  0.55621000  1.0
  H  H48  1  0.64861000  0.93635000  0.77708000  1.0
  H  H49  1  0.06359000  0.71203000  0.44377000  1.0
  H  H50  1  0.28766000  0.35131000  0.11042000  1.0
  H  H51  1  0.21163000  0.68812000  0.91624000  1.0
  H  H52  1  0.47644000  0.78837000  0.24958000  1.0
  H  H53  1  0.31216000  0.52363000  0.58298000  1.0
  H  H54  1  0.68797000  0.21155000  0.75039000  1.0
  H  H55  1  0.78849000  0.47606000  0.41707000  1.0
  H  H56  1  0.52359000  0.31208000  0.08371000  1.0
  H  H57  1  0.35047000  0.52274000  0.89175000  1.0
  H  H58  1  0.17220000  0.64956000  0.22510000  1.0
  H  H59  1  0.47776000  0.82786000  0.55851000  1.0
  H  H60  1  0.52264000  0.35042000  0.77488000  1.0
  H  H61  1  0.64973000  0.17190000  0.44157000  1.0
  H  H62  1  0.82778000  0.47743000  0.10822000  1.0
  H  H63  1  0.92882000  0.14292000  0.73850000  1.0
  H  H64  1  0.21389000  0.07121000  0.07182000  1.0
  H  H65  1  0.85719000  0.78574000  0.40518000  1.0
  H  H66  1  0.14264000  0.92874000  0.92817000  1.0
  H  H67  1  0.07142000  0.21425000  0.59488000  1.0
  H  H68  1  0.78599000  0.85723000  0.26152000  1.0
  H  H69  1  0.70649000  0.69602000  0.85264000  1.0
  H  H70  1  0.98918000  0.29392000  0.18603000  1.0
  H  H71  1  0.30432000  0.01050000  0.51921000  1.0
  H  H72  1  0.69470000  0.70562000  0.81387000  1.0
  H  H73  1  0.29538000  0.98830000  0.48046000  1.0
  H  H74  1  0.01063000  0.30467000  0.14726000  1.0
  C  C75  1  0.33321000  0.57333000  0.73003000  1.0
  C  C76  1  0.23989000  0.66682000  0.06333000  1.0
  C  C77  1  0.42691000  0.75997000  0.39671000  1.0
  C  C78  1  0.57305000  0.33311000  0.93663000  1.0
  C  C79  1  0.66690000  0.24009000  0.60333000  1.0
  C  C80  1  0.76007000  0.42690000  0.26998000  1.0
  C  C81  1  0.18427000  0.41260000  0.73565000  1.0
  C  C82  1  0.22809000  0.81574000  0.06894000  1.0
  C  C83  1  0.58758000  0.77167000  0.40233000  1.0
  C  C84  1  0.41232000  0.18419000  0.93103000  1.0
  C  C85  1  0.81589000  0.22837000  0.59773000  1.0
  C  C86  1  0.77182000  0.58759000  0.26438000  1.0
  C  C87  1  0.05155000  0.33809000  0.70991000  1.0
  C  C88  1  0.28622000  0.94845000  0.04321000  1.0
  C  C89  1  0.66212000  0.71353000  0.37658000  1.0
  C  C90  1  0.33778000  0.05153000  0.95677000  1.0
  C  C91  1  0.94857000  0.28659000  0.62347000  1.0
  C  C92  1  0.71368000  0.66215000  0.29012000  1.0
  C  C93  1  0.07049000  0.42818000  0.67965000  1.0
  C  C94  1  0.35732000  0.92950000  0.01295000  1.0
  C  C95  1  0.57208000  0.64252000  0.34630000  1.0
  C  C96  1  0.42782000  0.07048000  0.98704000  1.0
  C  C97  1  0.92952000  0.35765000  0.65373000  1.0
  C  C98  1  0.64260000  0.57208000  0.32038000  1.0
  C  C99  1  0.22541000  0.59212000  0.67392000  1.0
  C  C100  1  0.36635000  0.77457000  0.00721000  1.0
  C  C101  1  0.40816000  0.63359000  0.34057000  1.0
  C  C102  1  0.59177000  0.22542000  0.99276000  1.0
  C  C103  1  0.77455000  0.36659000  0.65945000  1.0
  C  C104  1  0.63364000  0.40814000  0.32611000  1.0
  C  C105  1  0.25326000  0.68771000  0.64331000  1.0
  C  C106  1  0.43409000  0.74668000  0.97660000  1.0
  C  C107  1  0.31259000  0.56598000  0.30996000  1.0
  C  C108  1  0.68739000  0.25334000  0.02337000  1.0
  C  C109  1  0.74660000  0.43428000  0.69006000  1.0
  C  C110  1  0.56591000  0.31250000  0.35672000  1.0
  C  C111  1  0.40941000  0.83985000  0.63752000  1.0
  C  C112  1  0.43018000  0.59058000  0.97081000  1.0
  C  C113  1  0.16042000  0.56995000  0.30417000  1.0
  C  C114  1  0.83959000  0.40947000  0.02916000  1.0
  C  C115  1  0.59042000  0.43026000  0.69584000  1.0
  C  C116  1  0.56984000  0.16031000  0.36250000  1.0
  C  C117  1  0.54563000  0.90655000  0.66188000  1.0
  C  C118  1  0.36077000  0.45443000  0.99518000  1.0
  C  C119  1  0.09367000  0.63931000  0.32855000  1.0
  C  C120  1  0.90634000  0.54559000  0.00478000  1.0
  C  C121  1  0.45430000  0.36083000  0.67146000  1.0
  C  C122  1  0.63924000  0.09359000  0.33812000  1.0
  C  C123  1  0.51983000  0.82168000  0.69240000  1.0
  C  C124  1  0.30169000  0.48024000  0.02570000  1.0
  C  C125  1  0.17854000  0.69830000  0.35908000  1.0
  C  C126  1  0.82146000  0.51973000  0.97426000  1.0
  C  C127  1  0.48021000  0.30180000  0.64094000  1.0
  C  C128  1  0.69831000  0.17850000  0.30760000  1.0
  C  C129  1  0.36066000  0.66457000  0.69930000  1.0
  C  C130  1  0.30365000  0.63937000  0.03260000  1.0
  C  C131  1  0.33570000  0.69629000  0.36597000  1.0
  C  C132  1  0.66427000  0.36059000  0.96737000  1.0
  C  C133  1  0.63939000  0.30385000  0.63406000  1.0
  C  C134  1  0.69635000  0.33568000  0.30072000  1.0
  C  C135  1  0.16344000  0.31720000  0.76797000  1.0
  C  C136  1  0.15364000  0.83663000  0.10129000  1.0
  C  C137  1  0.68293000  0.84603000  0.43467000  1.0
  C  C138  1  0.31695000  0.16329000  0.89869000  1.0
  C  C139  1  0.83683000  0.15380000  0.56540000  1.0
  C  C140  1  0.84628000  0.68296000  0.23204000  1.0
  C  C141  1  0.01021000  0.37396000  0.84085000  1.0
  C  C142  1  0.36368000  0.98970000  0.17418000  1.0
  C  C143  1  0.62596000  0.63611000  0.50753000  1.0
  C  C144  1  0.37392000  0.01025000  0.82580000  1.0
  C  C145  1  0.98982000  0.36360000  0.49251000  1.0
  C  C146  1  0.63624000  0.62600000  0.15914000  1.0
  C  C147  1  0.92433000  0.45969000  0.85288000  1.0
  C  C148  1  0.53530000  0.07556000  0.18620000  1.0
  C  C149  1  0.54006000  0.46450000  0.51955000  1.0
  C  C150  1  0.45960000  0.92435000  0.81376000  1.0
  C  C151  1  0.07566000  0.53515000  0.48047000  1.0
  C  C152  1  0.46463000  0.54029000  0.14711000  1.0
  C  C153  1  0.99801000  0.57663000  0.87989000  1.0
  C  C154  1  0.57859000  0.00191000  0.21321000  1.0
  C  C155  1  0.42320000  0.42129000  0.54657000  1.0
  C  C156  1  0.57652000  0.99797000  0.78675000  1.0
  C  C157  1  0.00202000  0.57834000  0.45344000  1.0
  C  C158  1  0.42138000  0.42343000  0.12009000  1.0
  C  C159  1  0.15275000  0.60117000  0.89457000  1.0
  C  C160  1  0.44836000  0.84723000  0.22790000  1.0
  C  C161  1  0.39898000  0.55162000  0.56130000  1.0
  C  C162  1  0.60104000  0.15269000  0.77206000  1.0
  C  C163  1  0.84735000  0.44808000  0.43875000  1.0
  C  C164  1  0.55165000  0.39899000  0.10540000  1.0
  C  C165  1  0.23035000  0.51006000  0.88125000  1.0
  C  C166  1  0.27965000  0.76966000  0.21459000  1.0
  C  C167  1  0.49023000  0.72032000  0.54798000  1.0
  C  C168  1  0.50998000  0.23033000  0.78539000  1.0
  C  C169  1  0.76978000  0.27940000  0.45208000  1.0
  C  C170  1  0.72033000  0.49006000  0.11873000  1.0
  N  N171  1  0.16145000  0.39993000  0.85470000  1.0
  N  N172  1  0.23845000  0.83854000  0.18804000  1.0
  N  N173  1  0.60024000  0.76146000  0.52141000  1.0
  N  N174  1  0.39989000  0.16147000  0.81195000  1.0
  N  N175  1  0.83865000  0.23828000  0.47865000  1.0
  N  N176  1  0.76148000  0.60009000  0.14529000  1.0
  O  O177  1  0.90694000  0.17991000  0.71531000  1.0
  O  O178  1  0.27270000  0.09304000  0.04862000  1.0
  O  O179  1  0.82025000  0.72697000  0.38198000  1.0
  O  O180  1  0.17961000  0.90688000  0.95136000  1.0
  O  O181  1  0.09324000  0.27312000  0.61808000  1.0
  O  O182  1  0.72718000  0.82025000  0.28472000  1.0
  O  O183  1  0.02824000  0.16818000  0.77312000  1.0
  O  O184  1  0.13988000  0.97186000  0.10645000  1.0
  O  O185  1  0.83187000  0.85970000  0.43982000  1.0
  O  O186  1  0.16794000  0.02808000  0.89354000  1.0
  O  O187  1  0.97213000  0.14009000  0.56026000  1.0
  O  O188  1  0.86002000  0.83194000  0.22689000  1.0
  O  O189  1  0.28843000  0.39620000  0.78973000  1.0
  O  O190  1  0.10771000  0.71165000  0.12306000  1.0
  O  O191  1  0.60396000  0.89202000  0.45644000  1.0
  O  O192  1  0.39599000  0.28826000  0.87693000  1.0
  O  O193  1  0.71183000  0.10770000  0.54363000  1.0
  O  O194  1  0.89224000  0.60397000  0.21027000  1.0
  O  O195  1  0.63295000  0.63298000  0.83335000  1.0
  O  O196  1  0.99996000  0.36706000  0.16665000  1.0
  O  O197  1  0.36797000  0.00019000  0.50000000  1.0
