# generated using pymatgen
data_ZnH8C24N5O4
_symmetry_space_group_name_H-M   'P 1'
_cell_length_a   14.04220000
_cell_length_b   15.37330000
_cell_length_c   17.81590000
_cell_angle_alpha   90.22500000
_cell_angle_beta   90.08620000
_cell_angle_gamma   89.97290000
_symmetry_Int_Tables_number   1
_chemical_formula_structural   ZnH8C24N5O4
_chemical_formula_sum   'Zn2 H16 C48 N10 O8'
_cell_volume   3845.97215260
_cell_formula_units_Z   2
loop_
 _symmetry_equiv_pos_site_id
 _symmetry_equiv_pos_as_xyz
  1  'x, y, z'
loop_
 _atom_site_type_symbol
 _atom_site_label
 _atom_site_symmetry_multiplicity
 _atom_site_fract_x
 _atom_site_fract_y
 _atom_site_fract_z
 _atom_site_occupancy
  Zn  Zn0  1  0.39698000  0.50095000  0.49992000  1.0
  Zn  Zn1  1  0.60351000  0.50082000  0.50005000  1.0
  H  H2  1  0.35060000  0.52026000  0.73984000  1.0
  H  H3  1  0.64810000  0.51946000  0.26139000  1.0
  H  H4  1  0.35046000  0.45529000  0.26438000  1.0
  H  H5  1  0.64779000  0.45457000  0.73407000  1.0
  H  H6  1  0.42641000  0.05977000  0.39360000  1.0
  H  H7  1  0.56851000  0.94105000  0.39186000  1.0
  H  H8  1  0.42979000  0.94144000  0.60764000  1.0
  H  H9  1  0.57190000  0.06000000  0.60686000  1.0
  H  H10  1  0.93173000  0.37434000  0.44487000  1.0
  H  H11  1  0.06881000  0.57009000  0.60573000  1.0
  H  H12  1  0.93233000  0.62573000  0.55523000  1.0
  H  H13  1  0.06866000  0.42962000  0.39447000  1.0
  H  H14  1  0.75397000  0.38025000  0.44729000  1.0
  H  H15  1  0.24646000  0.56900000  0.60022000  1.0
  H  H16  1  0.75455000  0.62037000  0.55296000  1.0
  H  H17  1  0.24633000  0.43133000  0.39989000  1.0
  C  C18  1  0.50227000  0.33055000  0.49961000  1.0
  C  C19  1  0.50232000  0.67065000  0.50040000  1.0
  C  C20  1  0.49836000  0.49612000  0.35486000  1.0
  C  C21  1  0.49874000  0.49756000  0.64514000  1.0
  C  C22  1  0.41492000  0.49415000  0.84759000  1.0
  C  C23  1  0.58469000  0.49362000  0.15293000  1.0
  C  C24  1  0.41548000  0.45739000  0.15466000  1.0
  C  C25  1  0.58391000  0.45693000  0.84434000  1.0
  C  C26  1  0.41553000  0.50249000  0.76946000  1.0
  C  C27  1  0.58345000  0.50174000  0.23117000  1.0
  C  C28  1  0.41554000  0.46645000  0.23279000  1.0
  C  C29  1  0.58322000  0.46631000  0.76626000  1.0
  C  C30  1  0.49936000  0.48918000  0.72889000  1.0
  C  C31  1  0.49909000  0.48848000  0.27102000  1.0
  C  C32  1  0.49969000  0.47163000  0.88680000  1.0
  C  C33  1  0.50024000  0.47166000  0.11290000  1.0
  C  C34  1  0.50036000  0.46653000  0.96559000  1.0
  C  C35  1  0.50023000  0.46661000  0.03407000  1.0
  C  C36  1  0.45925000  0.09474000  0.44022000  1.0
  C  C37  1  0.53824000  0.90620000  0.43932000  1.0
  C  C38  1  0.46117000  0.90638000  0.56049000  1.0
  C  C39  1  0.54008000  0.09483000  0.55995000  1.0
  C  C40  1  0.45791000  0.18605000  0.44074000  1.0
  C  C41  1  0.54086000  0.81494000  0.43989000  1.0
  C  C42  1  0.45985000  0.81508000  0.56003000  1.0
  C  C43  1  0.54268000  0.18609000  0.55936000  1.0
  C  C44  1  0.50107000  0.23272000  0.49986000  1.0
  C  C45  1  0.50112000  0.76847000  0.50014000  1.0
  C  C46  1  0.49957000  0.04869000  0.50001000  1.0
  C  C47  1  0.49958000  0.95233000  0.49995000  1.0
  C  C48  1  0.89588000  0.43073000  0.46885000  1.0
  C  C49  1  0.10467000  0.53985000  0.55820000  1.0
  C  C50  1  0.89619000  0.56944000  0.53129000  1.0
  C  C51  1  0.10458000  0.46007000  0.44196000  1.0
  C  C52  1  0.79707000  0.43312000  0.47008000  1.0
  C  C53  1  0.20351000  0.53889000  0.55617000  1.0
  C  C54  1  0.79738000  0.56737000  0.53012000  1.0
  C  C55  1  0.20344000  0.46142000  0.44390000  1.0
  C  C56  1  0.94778000  0.50001000  0.50006000  1.0
  C  C57  1  0.05294000  0.49995000  0.50005000  1.0
  C  C58  1  0.32853000  0.50985000  0.88742000  1.0
  C  C59  1  0.67141000  0.50878000  0.11351000  1.0
  C  C60  1  0.32957000  0.43229000  0.11769000  1.0
  C  C61  1  0.66981000  0.43135000  0.88101000  1.0
  C  C62  1  0.41214000  0.23174000  0.38087000  1.0
  C  C63  1  0.58290000  0.76902000  0.37830000  1.0
  C  C64  1  0.41617000  0.76913000  0.62061000  1.0
  C  C65  1  0.58677000  0.23165000  0.62033000  1.0
  N  N66  1  0.74869000  0.50034000  0.50009000  1.0
  N  N67  1  0.25194000  0.50033000  0.49998000  1.0
  N  N68  1  0.25636000  0.52361000  0.91776000  1.0
  N  N69  1  0.74357000  0.52183000  0.08304000  1.0
  N  N70  1  0.25810000  0.41033000  0.08987000  1.0
  N  N71  1  0.74086000  0.40925000  0.90928000  1.0
  N  N72  1  0.37420000  0.26845000  0.33196000  1.0
  N  N73  1  0.61667000  0.73235000  0.32734000  1.0
  N  N74  1  0.37993000  0.73196000  0.66996000  1.0
  N  N75  1  0.62230000  0.26776000  0.67090000  1.0
  O  O76  1  0.42149000  0.36684000  0.50059000  1.0
  O  O77  1  0.58395000  0.63565000  0.50184000  1.0
  O  O78  1  0.42153000  0.63443000  0.49923000  1.0
  O  O79  1  0.58389000  0.36551000  0.49840000  1.0
  O  O80  1  0.41726000  0.49804000  0.38661000  1.0
  O  O81  1  0.57936000  0.49953000  0.61270000  1.0
  O  O82  1  0.41763000  0.50117000  0.61332000  1.0
  O  O83  1  0.57899000  0.49927000  0.38744000  1.0
