# generated using pymatgen
data_InH8(C2O)8
_symmetry_space_group_name_H-M   'P 1'
_cell_length_a   12.65410000
_cell_length_b   14.40240000
_cell_length_c   14.40450668
_cell_angle_alpha   119.96349573
_cell_angle_beta   89.99799736
_cell_angle_gamma   89.99730000
_symmetry_Int_Tables_number   1
_chemical_formula_structural   InH8(C2O)8
_chemical_formula_sum   'In3 H24 C48 O24'
_cell_volume   2274.33682923
_cell_formula_units_Z   3
loop_
 _symmetry_equiv_pos_site_id
 _symmetry_equiv_pos_as_xyz
  1  'x, y, z'
loop_
 _atom_site_type_symbol
 _atom_site_label
 _atom_site_symmetry_multiplicity
 _atom_site_fract_x
 _atom_site_fract_y
 _atom_site_fract_z
 _atom_site_occupancy
  In  In0  1  0.83339000  0.50001000  0.50003000  1.0
  In  In1  1  0.16662000  1.00000000  0.50000000  1.0
  In  In2  1  0.49999000  0.50000000  0.99996000  1.0
  H  H3  1  0.08636000  0.66713000  0.78158000  1.0
  H  H4  1  0.41983000  0.88560000  0.66697000  1.0
  H  H5  1  0.75322000  0.21854000  0.88577000  1.0
  H  H6  1  0.08642000  0.33291000  0.21848000  1.0
  H  H7  1  0.41983000  0.11440000  0.33290000  1.0
  H  H8  1  0.75318000  0.78151000  0.11432000  1.0
  H  H9  1  0.58027000  0.21852000  0.33295000  1.0
  H  H10  1  0.91347000  0.88569000  0.21854000  1.0
  H  H11  1  0.24679000  0.66712000  0.88568000  1.0
  H  H12  1  0.58024000  0.78150000  0.66703000  1.0
  H  H13  1  0.91351000  0.11430000  0.78156000  1.0
  H  H14  1  0.24687000  0.33288000  0.11437000  1.0
  H  H15  1  0.08915000  0.32166000  0.60714000  1.0
  H  H16  1  0.42251000  0.71472000  0.32156000  1.0
  H  H17  1  0.75592000  0.39306000  0.71464000  1.0
  H  H18  1  0.08920000  0.67840000  0.39288000  1.0
  H  H19  1  0.42243000  0.28524000  0.67836000  1.0
  H  H20  1  0.75588000  0.60691000  0.28536000  1.0
  H  H21  1  0.57747000  0.39286000  0.67836000  1.0
  H  H22  1  0.91075000  0.71461000  0.39310000  1.0
  H  H23  1  0.24419000  0.32163000  0.71475000  1.0
  H  H24  1  0.57751000  0.60707000  0.32160000  1.0
  H  H25  1  0.91081000  0.28534000  0.60691000  1.0
  H  H26  1  0.24424000  0.67839000  0.28525000  1.0
  C  C27  1  0.12245000  0.59261000  0.76775000  1.0
  C  C28  1  0.45589000  0.82494000  0.59246000  1.0
  C  C29  1  0.78925000  0.23233000  0.82502000  1.0
  C  C30  1  0.12251000  0.40744000  0.23231000  1.0
  C  C31  1  0.45587000  0.17506000  0.40743000  1.0
  C  C32  1  0.78921000  0.76769000  0.17505000  1.0
  C  C33  1  0.54419000  0.23232000  0.40744000  1.0
  C  C34  1  0.87744000  0.82498000  0.23237000  1.0
  C  C35  1  0.21074000  0.59260000  0.82500000  1.0
  C  C36  1  0.54420000  0.76768000  0.59250000  1.0
  C  C37  1  0.87750000  0.17501000  0.76772000  1.0
  C  C38  1  0.21080000  0.40744000  0.17506000  1.0
  C  C39  1  0.07859000  0.49467000  0.68974000  1.0
  C  C40  1  0.41193000  0.80502000  0.49453000  1.0
  C  C41  1  0.74536000  0.31041000  0.80507000  1.0
  C  C42  1  0.07864000  0.50538000  0.31030000  1.0
  C  C43  1  0.41190000  0.19498000  0.50537000  1.0
  C  C44  1  0.74532000  0.68960000  0.19498000  1.0
  C  C45  1  0.58806000  0.31033000  0.50538000  1.0
  C  C46  1  0.92130000  0.80502000  0.31041000  1.0
  C  C47  1  0.25468000  0.49464000  0.80505000  1.0
  C  C48  1  0.58807000  0.68964000  0.49458000  1.0
  C  C49  1  0.92135000  0.19496000  0.68965000  1.0
  C  C50  1  0.25474000  0.50539000  0.19499000  1.0
  C  C51  1  0.12307000  0.39672000  0.66924000  1.0
  C  C52  1  0.45642000  0.72765000  0.39664000  1.0
  C  C53  1  0.78978000  0.33091000  0.72759000  1.0
  C  C54  1  0.12310000  0.60331000  0.33078000  1.0
  C  C55  1  0.45636000  0.27232000  0.60329000  1.0
  C  C56  1  0.78973000  0.66907000  0.27244000  1.0
  C  C57  1  0.54358000  0.33079000  0.60330000  1.0
  C  C58  1  0.87687000  0.72756000  0.33094000  1.0
  C  C59  1  0.21026000  0.39671000  0.72768000  1.0
  C  C60  1  0.54362000  0.66917000  0.39667000  1.0
  C  C61  1  0.87692000  0.27241000  0.66909000  1.0
  C  C62  1  0.21031000  0.60330000  0.27233000  1.0
  C  C63  1  0.98574000  0.49486000  0.62715000  1.0
  C  C64  1  0.31906000  0.86770000  0.49471000  1.0
  C  C65  1  0.65256000  0.37298000  0.86780000  1.0
  C  C66  1  0.98580000  0.50520000  0.37289000  1.0
  C  C67  1  0.31901000  0.13228000  0.50517000  1.0
  C  C68  1  0.65254000  0.62704000  0.13222000  1.0
  C  C69  1  0.68091000  0.37291000  0.50521000  1.0
  C  C70  1  0.01409000  0.86776000  0.37299000  1.0
  C  C71  1  0.34760000  0.49482000  0.86774000  1.0
  C  C72  1  0.68089000  0.62709000  0.49479000  1.0
  C  C73  1  0.01413000  0.13219000  0.62705000  1.0
  C  C74  1  0.34764000  0.50517000  0.13225000  1.0
  O  O75  1  0.92899000  0.57861000  0.65939000  1.0
  O  O76  1  0.26233000  0.91915000  0.57850000  1.0
  O  O77  1  0.59582000  0.34072000  0.91937000  1.0
  O  O78  1  0.92904000  0.42143000  0.34063000  1.0
  O  O79  1  0.26231000  0.08084000  0.42138000  1.0
  O  O80  1  0.59584000  0.65932000  0.08065000  1.0
  O  O81  1  0.73770000  0.34063000  0.42146000  1.0
  O  O82  1  0.07081000  0.91931000  0.34070000  1.0
  O  O83  1  0.40425000  0.57864000  0.91923000  1.0
  O  O84  1  0.73768000  0.65937000  0.57855000  1.0
  O  O85  1  0.07085000  0.08062000  0.65931000  1.0
  O  O86  1  0.40429000  0.42136000  0.08073000  1.0
  O  O87  1  0.96304000  0.41053000  0.53815000  1.0
  O  O88  1  0.29622000  0.87243000  0.41038000  1.0
  O  O89  1  0.62977000  0.46198000  0.87239000  1.0
  O  O90  1  0.96306000  0.58952000  0.46190000  1.0
  O  O91  1  0.29619000  0.12754000  0.58948000  1.0
  O  O92  1  0.62973000  0.53805000  0.12762000  1.0
  O  O93  1  0.70364000  0.46193000  0.58951000  1.0
  O  O94  1  0.03687000  0.87239000  0.46200000  1.0
  O  O95  1  0.37045000  0.41044000  0.87236000  1.0
  O  O96  1  0.70366000  0.53806000  0.41048000  1.0
  O  O97  1  0.03686000  0.12756000  0.53805000  1.0
  O  O98  1  0.37048000  0.58955000  0.12762000  1.0
