# generated using pymatgen
data_PrH27C16O9
_symmetry_space_group_name_H-M   'P 1'
_cell_length_a   8.43587000
_cell_length_b   8.87341000
_cell_length_c   13.02510000
_cell_angle_alpha   99.66530000
_cell_angle_beta   102.91600000
_cell_angle_gamma   98.41700000
_symmetry_Int_Tables_number   1
_chemical_formula_structural   PrH27C16O9
_chemical_formula_sum   'Pr2 H54 C32 O18'
_cell_volume   919.51582465
_cell_formula_units_Z   2
loop_
 _symmetry_equiv_pos_site_id
 _symmetry_equiv_pos_as_xyz
  1  'x, y, z'
loop_
 _atom_site_type_symbol
 _atom_site_label
 _atom_site_symmetry_multiplicity
 _atom_site_fract_x
 _atom_site_fract_y
 _atom_site_fract_z
 _atom_site_occupancy
  Pr  Pr0  1  0.24904000  0.51544000  0.49664000  1.0
  Pr  Pr1  1  0.75096000  0.48456000  0.50336000  1.0
  H  H2  1  0.73160000  0.29245000  0.22457000  1.0
  H  H3  1  0.26840000  0.70755000  0.77544000  1.0
  H  H4  1  0.78982000  0.11719000  0.24946000  1.0
  H  H5  1  0.21018000  0.88281000  0.75054000  1.0
  H  H6  1  0.96971000  0.12383000  0.12034000  1.0
  H  H7  1  0.03029000  0.87617000  0.87966000  1.0
  H  H8  1  0.92793000  0.30655000  0.10058000  1.0
  H  H9  1  0.07207000  0.69345000  0.89942000  1.0
  H  H10  1  0.62437000  0.18868000  0.02631000  1.0
  H  H11  1  0.37563000  0.81132000  0.97369000  1.0
  H  H12  1  0.66656000  0.00513000  0.04426000  1.0
  H  H13  1  0.33344000  0.99486000  0.95574000  1.0
  H  H14  1  0.80920000  0.19646000  0.89884000  1.0
  H  H15  1  0.19080000  0.80354000  0.10116000  1.0
  H  H16  1  0.84668000  0.01051000  0.91519000  1.0
  H  H17  1  0.15332000  0.98949000  0.08481000  1.0
  H  H18  1  0.50317000  0.08407000  0.82828000  1.0
  H  H19  1  0.49683000  0.91593000  0.17172000  1.0
  H  H20  1  0.54380000  0.89829000  0.84291000  1.0
  H  H21  1  0.45620000  0.10171000  0.15709000  1.0
  H  H22  1  0.67933000  0.09522000  0.69789000  1.0
  H  H23  1  0.32067000  0.90478000  0.30211000  1.0
  H  H24  1  0.72038000  0.90575000  0.71081000  1.0
  H  H25  1  0.27962000  0.09425000  0.28919000  1.0
  H  H26  1  0.26329000  0.94808000  0.53654000  1.0
  H  H27  1  0.73671000  0.05193000  0.46346000  1.0
  H  H28  1  0.57185000  0.34082000  0.80848000  1.0
  H  H29  1  0.42815000  0.65918000  0.19152000  1.0
  H  H30  1  0.73856000  0.44132000  0.76862000  1.0
  H  H31  1  0.26144000  0.55868000  0.23138000  1.0
  H  H32  1  0.52234000  0.59945000  0.89824000  1.0
  H  H33  1  0.47766000  0.40056000  0.10176000  1.0
  H  H34  1  0.69892000  0.69379000  0.86558000  1.0
  H  H35  1  0.30109000  0.30621000  0.13442000  1.0
  H  H36  1  0.87580000  0.54048000  0.97290000  1.0
  H  H37  1  0.12420000  0.45952000  0.02710000  1.0
  H  H38  1  0.70093000  0.45271000  0.00935000  1.0
  H  H39  1  0.29907000  0.54729000  0.99065000  1.0
  H  H40  1  0.66872000  0.71510000  0.10013000  1.0
  H  H41  1  0.33128000  0.28490000  0.89987000  1.0
  H  H42  1  0.83956000  0.80411000  0.06002000  1.0
  H  H43  1  0.16044000  0.19590000  0.93998000  1.0
  H  H44  1  0.85019000  0.57229000  0.21078000  1.0
  H  H45  1  0.14981000  0.42771000  0.78922000  1.0
  H  H46  1  0.02101000  0.64949000  0.16591000  1.0
  H  H47  1  0.97900000  0.35051000  0.83409000  1.0
  H  H48  1  0.83357000  0.83418000  0.30392000  1.0
  H  H49  1  0.16643000  0.16582000  0.69608000  1.0
  H  H50  1  0.98845000  0.92317000  0.25126000  1.0
  H  H51  1  0.01155000  0.07683000  0.74874000  1.0
  H  H52  1  0.15285000  0.13468000  0.47374000  1.0
  H  H53  1  0.84715000  0.86532000  0.52626000  1.0
  H  H54  1  0.32963000  0.20924000  0.54577000  1.0
  H  H55  1  0.67036000  0.79076000  0.45423000  1.0
  C  C56  1  0.97608000  0.31780000  0.31836000  1.0
  C  C57  1  0.02392000  0.68220000  0.68164000  1.0
  C  C58  1  0.83331000  0.22730000  0.22676000  1.0
  C  C59  1  0.16669000  0.77270000  0.77324000  1.0
  C  C60  1  0.87355000  0.19576000  0.11757000  1.0
  C  C61  1  0.12645000  0.80423000  0.88243000  1.0
  C  C62  1  0.72029000  0.11618000  0.02716000  1.0
  C  C63  1  0.27971000  0.88382000  0.97284000  1.0
  C  C64  1  0.75370000  0.08589000  0.91584000  1.0
  C  C65  1  0.24630000  0.91411000  0.08416000  1.0
  C  C66  1  0.59722000  0.01007000  0.82699000  1.0
  C  C67  1  0.40277000  0.98993000  0.17301000  1.0
  C  C68  1  0.63034000  0.98286000  0.71468000  1.0
  C  C69  1  0.36966000  0.01714000  0.28532000  1.0
  C  C70  1  0.47363000  0.90832000  0.62935000  1.0
  C  C71  1  0.52637000  0.09168000  0.37065000  1.0
  C  C72  1  0.49752000  0.46943000  0.69017000  1.0
  C  C73  1  0.50248000  0.53056000  0.30983000  1.0
  C  C74  1  0.62076000  0.45187000  0.78891000  1.0
  C  C75  1  0.37924000  0.54813000  0.21109000  1.0
  C  C76  1  0.64440000  0.58519000  0.88535000  1.0
  C  C77  1  0.35560000  0.41481000  0.11465000  1.0
  C  C78  1  0.75609000  0.56008000  0.98808000  1.0
  C  C79  1  0.24391000  0.43992000  0.01192000  1.0
  C  C80  1  0.78791000  0.69695000  0.08317000  1.0
  C  C81  1  0.21209000  0.30306000  0.91683000  1.0
  C  C82  1  0.90532000  0.67444000  0.18464000  1.0
  C  C83  1  0.09468000  0.32556000  0.81536000  1.0
  C  C84  1  0.94540000  0.81566000  0.27698000  1.0
  C  C85  1  0.05460000  0.18434000  0.72302000  1.0
  C  C86  1  0.07490000  0.80591000  0.37606000  1.0
  C  C87  1  0.92510000  0.19409000  0.62394000  1.0
  O  O88  1  0.94540000  0.37476000  0.40905000  1.0
  O  O89  1  0.05460000  0.62524000  0.59095000  1.0
  O  O90  1  0.12278000  0.33779000  0.30873000  1.0
  O  O91  1  0.87722000  0.66221000  0.69127000  1.0
  O  O92  1  0.37420000  0.00367000  0.60137000  1.0
  O  O93  1  0.62579000  0.99633000  0.39863000  1.0
  O  O94  1  0.43968000  0.76576000  0.59120000  1.0
  O  O95  1  0.56032000  0.23424000  0.40880000  1.0
  O  O96  1  0.53187000  0.44518000  0.59741000  1.0
  O  O97  1  0.46813000  0.55482000  0.40259000  1.0
  O  O98  1  0.35943000  0.50384000  0.69657000  1.0
  O  O99  1  0.64057000  0.49615000  0.30343000  1.0
  O  O100  1  0.12470000  0.92889000  0.45117000  1.0
  O  O101  1  0.87531000  0.07111000  0.54883000  1.0
  O  O102  1  0.12864000  0.68102000  0.38075000  1.0
  O  O103  1  0.87136000  0.31898000  0.61925000  1.0
  O  O104  1  0.22554000  0.23620000  0.51117000  1.0
  O  O105  1  0.77445000  0.76380000  0.48883000  1.0
