# generated using pymatgen
data_H16PbC8(N2Cl)2
_symmetry_space_group_name_H-M   'P 1'
_cell_length_a   8.09593000
_cell_length_b   8.87605000
_cell_length_c   8.87588000
_cell_angle_alpha   86.26500000
_cell_angle_beta   83.12760000
_cell_angle_gamma   83.12610000
_symmetry_Int_Tables_number   1
_chemical_formula_structural   H16PbC8(N2Cl)2
_chemical_formula_sum   'H32 Pb2 C16 N8 Cl4'
_cell_volume   627.84908323
_cell_formula_units_Z   2
loop_
 _symmetry_equiv_pos_site_id
 _symmetry_equiv_pos_as_xyz
  1  'x, y, z'
loop_
 _atom_site_type_symbol
 _atom_site_label
 _atom_site_symmetry_multiplicity
 _atom_site_fract_x
 _atom_site_fract_y
 _atom_site_fract_z
 _atom_site_occupancy
  H  H0  1  0.68967000  0.17615000  0.39476000  1.0
  H  H1  1  0.81036000  0.60525000  0.82386000  1.0
  H  H2  1  0.31032000  0.82390000  0.60526000  1.0
  H  H3  1  0.18971000  0.39473000  0.17610000  1.0
  H  H4  1  0.63109000  0.32231000  0.52383000  1.0
  H  H5  1  0.86892000  0.47619000  0.67765000  1.0
  H  H6  1  0.36891000  0.67768000  0.47618000  1.0
  H  H7  1  0.13107000  0.52382000  0.32233000  1.0
  H  H8  1  0.61728000  0.12902000  0.58772000  1.0
  H  H9  1  0.88270000  0.41230000  0.87100000  1.0
  H  H10  1  0.38266000  0.87102000  0.41236000  1.0
  H  H11  1  0.11732000  0.58766000  0.12896000  1.0
  H  H12  1  0.16451000  0.04062000  0.70805000  1.0
  H  H13  1  0.33547000  0.29193000  0.95934000  1.0
  H  H14  1  0.83547000  0.95927000  0.29194000  1.0
  H  H15  1  0.66456000  0.70800000  0.04062000  1.0
  H  H16  1  0.11021000  0.22937000  0.76379000  1.0
  H  H17  1  0.38983000  0.23626000  0.77064000  1.0
  H  H18  1  0.88978000  0.77071000  0.23619000  1.0
  H  H19  1  0.61025000  0.76388000  0.22939000  1.0
  H  H20  1  0.21898000  0.31057000  0.51270000  1.0
  H  H21  1  0.28101000  0.48731000  0.68941000  1.0
  H  H22  1  0.78103000  0.68946000  0.48729000  1.0
  H  H23  1  0.71899000  0.51272000  0.31049000  1.0
  H  H24  1  0.22831000  0.12592000  0.44478000  1.0
  H  H25  1  0.27170000  0.55523000  0.87409000  1.0
  H  H26  1  0.77169000  0.87410000  0.55528000  1.0
  H  H27  1  0.72832000  0.44468000  0.12591000  1.0
  H  H28  1  0.98041000  0.25349000  0.33995000  1.0
  H  H29  1  0.51955000  0.66007000  0.74652000  1.0
  H  H30  1  0.01955000  0.74652000  0.66012000  1.0
  H  H31  1  0.48041000  0.33988000  0.25351000  1.0
  Pb  Pb32  1  0.75009000  0.07055000  0.92931000  1.0
  Pb  Pb33  1  0.24993000  0.92935000  0.07046000  1.0
  C  C34  1  0.86592000  0.19357000  0.55273000  1.0
  C  C35  1  0.63409000  0.44728000  0.80645000  1.0
  C  C36  1  0.13406000  0.80647000  0.44729000  1.0
  C  C37  1  0.36593000  0.55270000  0.19358000  1.0
  C  C38  1  0.69137000  0.20513000  0.51289000  1.0
  C  C39  1  0.80862000  0.48713000  0.79487000  1.0
  C  C40  1  0.30861000  0.79487000  0.48713000  1.0
  C  C41  1  0.19135000  0.51287000  0.20512000  1.0
  C  C42  1  0.09467000  0.15003000  0.67769000  1.0
  C  C43  1  0.40534000  0.32235000  0.84998000  1.0
  C  C44  1  0.90535000  0.84995000  0.32236000  1.0
  C  C45  1  0.59466000  0.67775000  0.15003000  1.0
  C  C46  1  0.14983000  0.21103000  0.51421000  1.0
  C  C47  1  0.35016000  0.48582000  0.78894000  1.0
  C  C48  1  0.85017000  0.78896000  0.48586000  1.0
  C  C49  1  0.64984000  0.51422000  0.21099000  1.0
  N  N50  1  0.91477000  0.13419000  0.68100000  1.0
  N  N51  1  0.58525000  0.31897000  0.86576000  1.0
  N  N52  1  0.08522000  0.86573000  0.31899000  1.0
  N  N53  1  0.41475000  0.68099000  0.13422000  1.0
  N  N54  1  0.98777000  0.25207000  0.45474000  1.0
  N  N55  1  0.51223000  0.54527000  0.74796000  1.0
  N  N56  1  0.01222000  0.74796000  0.54532000  1.0
  N  N57  1  0.48780000  0.45468000  0.25205000  1.0
  Cl  Cl58  1  0.98234000  0.21167000  0.08576000  1.0
  Cl  Cl59  1  0.51765000  0.91424000  0.78837000  1.0
  Cl  Cl60  1  0.01765000  0.78837000  0.91423000  1.0
  Cl  Cl61  1  0.48235000  0.08577000  0.21168000  1.0
