# generated using pymatgen
data_ZnH17C24N5O4
_symmetry_space_group_name_H-M   'P 1'
_cell_length_a   21.54980000
_cell_length_b   21.56200000
_cell_length_c   21.96150000
_cell_angle_alpha   60.65580000
_cell_angle_beta   63.37060000
_cell_angle_gamma   89.99140000
_symmetry_Int_Tables_number   1
_chemical_formula_structural   ZnH17C24N5O4
_chemical_formula_sum   'Zn4 H68 C96 N20 O16'
_cell_volume   7629.65909316
_cell_formula_units_Z   4
loop_
 _symmetry_equiv_pos_site_id
 _symmetry_equiv_pos_as_xyz
  1  'x, y, z'
loop_
 _atom_site_type_symbol
 _atom_site_label
 _atom_site_symmetry_multiplicity
 _atom_site_fract_x
 _atom_site_fract_y
 _atom_site_fract_z
 _atom_site_occupancy
  Zn  Zn0  1  0.54058000  0.04394000  0.91094000  1.0
  Zn  Zn1  1  0.45837000  0.95411000  0.09085000  1.0
  Zn  Zn2  1  0.95945000  0.45654000  0.08690000  1.0
  Zn  Zn3  1  0.04101000  0.54411000  0.91165000  1.0
  H  H4  1  0.80993000  0.38717000  0.21716000  1.0
  H  H5  1  0.73550000  0.31731000  0.36816000  1.0
  H  H6  1  0.57207000  0.19347000  0.62415000  1.0
  H  H7  1  0.77205000  0.18814000  0.62607000  1.0
  H  H8  1  0.82035000  0.24854000  0.50219000  1.0
  H  H9  1  0.68077000  0.26019000  0.49758000  1.0
  H  H10  1  0.19026000  0.60517000  0.78244000  1.0
  H  H11  1  0.26462000  0.68679000  0.63154000  1.0
  H  H12  1  0.42799000  0.81568000  0.37650000  1.0
  H  H13  1  0.22789000  0.81546000  0.37488000  1.0
  H  H14  1  0.17997000  0.75151000  0.49754000  1.0
  H  H15  1  0.31913000  0.75723000  0.50318000  1.0
  H  H16  1  0.57666000  0.07438000  0.12994000  1.0
  H  H17  1  0.61212000  0.10500000  0.20670000  1.0
  H  H18  1  0.69530000  0.20350000  0.86995000  1.0
  H  H19  1  0.91818000  0.42678000  0.87158000  1.0
  H  H20  1  0.88412000  0.39491000  0.79467000  1.0
  H  H21  1  0.79950000  0.29747000  0.13154000  1.0
  H  H22  1  0.30390000  0.79375000  0.13024000  1.0
  H  H23  1  0.19848000  0.68623000  0.20562000  1.0
  H  H24  1  0.42347000  0.92619000  0.87027000  1.0
  H  H25  1  0.20150000  0.70400000  0.86692000  1.0
  H  H26  1  0.30522000  0.81255000  0.79171000  1.0
  H  H27  1  0.08068000  0.57236000  0.12672000  1.0
  H  H28  1  0.29891000  0.07142000  0.13220000  1.0
  H  H29  1  0.19490000  0.10528000  0.20676000  1.0
  H  H30  1  0.42068000  0.19826000  0.87221000  1.0
  H  H31  1  0.19977000  0.42506000  0.86614000  1.0
  H  H32  1  0.30502000  0.39260000  0.79185000  1.0
  H  H33  1  0.07805000  0.29849000  0.12600000  1.0
  H  H34  1  0.57893000  0.79617000  0.13174000  1.0
  H  H35  1  0.61319000  0.68761000  0.20768000  1.0
  H  H36  1  0.69686000  0.92806000  0.87165000  1.0
  H  H37  1  0.92201000  0.70508000  0.87109000  1.0
  H  H38  1  0.88537000  0.81188000  0.79475000  1.0
  H  H39  1  0.80319000  0.57300000  0.13075000  1.0
  H  H40  1  0.04152000  0.40749000  0.15153000  1.0
  H  H41  1  0.04428000  0.40751000  0.22844000  1.0
  H  H42  1  0.92148000  0.28042000  0.43727000  1.0
  H  H43  1  0.99397000  0.30708000  0.34596000  1.0
  H  H44  1  0.67960000  0.09134000  0.84424000  1.0
  H  H45  1  0.76083000  0.12562000  0.75422000  1.0
  H  H46  1  0.46326000  0.06294000  0.84343000  1.0
  H  H47  1  0.46432000  0.12164000  0.75341000  1.0
  H  H48  1  0.95809000  0.56027000  0.84785000  1.0
  H  H49  1  0.95625000  0.63670000  0.76931000  1.0
  H  H50  1  0.07904000  0.71807000  0.56221000  1.0
  H  H51  1  0.00732000  0.65174000  0.65268000  1.0
  H  H52  1  0.31966000  0.93703000  0.15733000  1.0
  H  H53  1  0.23884000  0.88319000  0.24766000  1.0
  H  H54  1  0.53621000  0.90349000  0.15761000  1.0
  H  H55  1  0.53485000  0.86971000  0.24793000  1.0
  H  H56  1  0.73167000  0.20064000  0.22629000  1.0
  H  H57  1  0.65600000  0.13234000  0.27581000  1.0
  H  H58  1  0.78576000  0.27803000  0.77439000  1.0
  H  H59  1  0.85389000  0.35431000  0.72520000  1.0
  H  H60  1  0.06032000  0.57551000  0.22284000  1.0
  H  H61  1  0.09250000  0.59046000  0.27301000  1.0
  H  H62  1  0.42053000  0.94860000  0.77422000  1.0
  H  H63  1  0.39841000  0.92212000  0.72395000  1.0
  H  H64  1  0.08130000  0.22567000  0.22258000  1.0
  H  H65  1  0.10240000  0.14834000  0.27353000  1.0
  H  H66  1  0.44110000  0.29542000  0.77620000  1.0
  H  H67  1  0.41172000  0.36391000  0.72533000  1.0
  H  H68  1  0.71119000  0.55047000  0.22622000  1.0
  H  H69  1  0.64338000  0.57746000  0.27603000  1.0
  H  H70  1  0.76430000  0.92527000  0.77656000  1.0
  H  H71  1  0.83971000  0.90648000  0.72670000  1.0
  C  C72  1  0.41502000  0.91396000  0.00028000  1.0
  C  C73  1  0.41350000  0.08320000  0.00141000  1.0
  C  C74  1  0.58462000  0.08519000  0.99972000  1.0
  C  C75  1  0.58525000  0.91482000  0.00059000  1.0
  C  C76  1  0.08776000  0.41617000  0.99487000  1.0
  C  C77  1  0.08783000  0.58568000  0.99687000  1.0
  C  C78  1  0.91400000  0.58476000  0.00191000  1.0
  C  C79  1  0.91093000  0.41323000  0.00399000  1.0
  C  C80  1  0.83471000  0.37020000  0.25445000  1.0
  C  C81  1  0.79425000  0.33200000  0.33803000  1.0
  C  C82  1  0.82861000  0.31075000  0.38433000  1.0
  C  C83  1  0.90489000  0.33145000  0.34078000  1.0
  C  C84  1  0.94308000  0.37083000  0.25388000  1.0
  C  C85  1  0.78838000  0.26652000  0.47284000  1.0
  C  C86  1  0.71574000  0.24385000  0.52322000  1.0
  C  C87  1  0.60205000  0.17622000  0.65582000  1.0
  C  C88  1  0.67776000  0.19753000  0.61210000  1.0
  C  C89  1  0.71328000  0.17298000  0.65617000  1.0
  C  C90  1  0.67275000  0.12921000  0.74156000  1.0
  C  C91  1  0.56390000  0.13049000  0.74153000  1.0
  C  C92  1  0.16548000  0.62539000  0.74517000  1.0
  C  C93  1  0.20589000  0.67095000  0.66171000  1.0
  C  C94  1  0.17141000  0.69569000  0.61554000  1.0
  C  C95  1  0.09524000  0.67271000  0.65885000  1.0
  C  C96  1  0.05704000  0.62542000  0.74569000  1.0
  C  C97  1  0.21170000  0.73984000  0.52718000  1.0
  C  C98  1  0.28437000  0.76698000  0.47727000  1.0
  C  C99  1  0.39799000  0.83073000  0.34484000  1.0
  C  C100  1  0.32235000  0.80937000  0.38852000  1.0
  C  C101  1  0.28664000  0.82969000  0.34466000  1.0
  C  C102  1  0.32695000  0.87121000  0.25938000  1.0
  C  C103  1  0.43600000  0.87068000  0.25919000  1.0
  C  C104  1  0.62161000  0.12104000  0.07341000  1.0
  C  C105  1  0.66694000  0.16618000  0.07511000  1.0
  C  C106  1  0.65663000  0.15224000  0.14998000  1.0
  C  C107  1  0.68999000  0.19451000  0.92561000  1.0
  C  C108  1  0.73629000  0.24149000  0.92417000  1.0
  C  C109  1  0.79552000  0.30404000  0.84876000  1.0
  C  C110  1  0.87363000  0.37981000  0.92824000  1.0
  C  C111  1  0.82866000  0.33448000  0.92629000  1.0
  C  C112  1  0.83942000  0.34788000  0.85143000  1.0
  C  C113  1  0.80584000  0.30530000  0.07596000  1.0
  C  C114  1  0.75952000  0.25870000  0.07712000  1.0
  C  C115  1  0.70062000  0.19601000  0.15259000  1.0
  C  C116  1  0.63328000  0.13475000  0.99954000  1.0
  C  C117  1  0.72511000  0.22732000  0.99969000  1.0
  C  C118  1  0.86242000  0.36523000  0.00230000  1.0
  C  C119  1  0.77070000  0.27306000  0.00156000  1.0
  C  C120  1  0.31100000  0.80407000  0.07335000  1.0
  C  C121  1  0.26461000  0.75758000  0.07411000  1.0
  C  C122  1  0.20629000  0.69637000  0.14843000  1.0
  C  C123  1  0.37801000  0.87931000  0.92555000  1.0
  C  C124  1  0.33354000  0.83420000  0.92319000  1.0
  C  C125  1  0.34374000  0.84804000  0.84720000  1.0
  C  C126  1  0.19379000  0.69399000  0.92390000  1.0
  C  C127  1  0.24013000  0.74051000  0.92314000  1.0
  C  C128  1  0.29783000  0.80211000  0.84883000  1.0
  C  C129  1  0.12559000  0.61988000  0.07155000  1.0
  C  C130  1  0.17060000  0.66443000  0.07394000  1.0
  C  C131  1  0.16014000  0.65084000  0.14991000  1.0
  C  C132  1  0.36676000  0.86457000  0.99984000  1.0
  C  C133  1  0.27573000  0.77260000  0.99824000  1.0
  C  C134  1  0.13703000  0.63447000  0.99722000  1.0
  C  C135  1  0.22875000  0.72572000  0.99900000  1.0
  C  C136  1  0.30683000  0.11793000  0.07488000  1.0
  C  C137  1  0.26066000  0.16394000  0.07530000  1.0
  C  C138  1  0.20279000  0.15188000  0.14930000  1.0
  C  C139  1  0.37583000  0.19122000  0.92710000  1.0
  C  C140  1  0.33106000  0.23837000  0.92439000  1.0
  C  C141  1  0.34233000  0.30087000  0.84810000  1.0
  C  C142  1  0.19208000  0.37861000  0.92333000  1.0
  C  C143  1  0.23809000  0.33252000  0.92322000  1.0
  C  C144  1  0.29663000  0.34539000  0.84919000  1.0
  C  C145  1  0.12375000  0.30645000  0.07106000  1.0
  C  C146  1  0.16805000  0.25876000  0.07407000  1.0
  C  C147  1  0.15738000  0.19678000  0.15037000  1.0
  C  C148  1  0.36392000  0.13164000  0.00162000  1.0
  C  C149  1  0.27268000  0.22504000  0.99915000  1.0
  C  C150  1  0.13578000  0.36596000  0.99636000  1.0
  C  C151  1  0.22615000  0.27164000  0.99941000  1.0
  C  C152  1  0.62368000  0.80649000  0.07478000  1.0
  C  C153  1  0.66898000  0.75962000  0.07615000  1.0
  C  C154  1  0.65822000  0.69792000  0.15073000  1.0
  C  C155  1  0.69086000  0.88021000  0.92695000  1.0
  C  C156  1  0.73769000  0.83521000  0.92524000  1.0
  C  C157  1  0.79650000  0.84809000  0.84957000  1.0
  C  C158  1  0.87671000  0.69463000  0.92780000  1.0
  C  C159  1  0.83112000  0.74126000  0.92634000  1.0
  C  C160  1  0.84094000  0.80215000  0.85172000  1.0
  C  C161  1  0.80844000  0.62006000  0.07544000  1.0
  C  C162  1  0.76184000  0.66525000  0.07718000  1.0
  C  C163  1  0.70226000  0.65156000  0.15290000  1.0
  C  C164  1  0.63435000  0.86590000  0.00108000  1.0
  C  C165  1  0.72698000  0.77403000  0.00051000  1.0
  C  C166  1  0.86530000  0.63445000  0.00149000  1.0
  C  C167  1  0.77289000  0.72673000  0.00190000  1.0
  N  N168  1  0.90818000  0.38998000  0.21262000  1.0
  N  N169  1  0.59879000  0.10785000  0.78404000  1.0
  N  N170  1  0.09201000  0.60324000  0.78687000  1.0
  N  N171  1  0.40092000  0.89144000  0.21684000  1.0
  N  N172  1  0.01724000  0.38493000  0.21291000  1.0
  N  N173  1  0.94724000  0.31688000  0.37614000  1.0
  N  N174  1  0.70647000  0.10498000  0.78537000  1.0
  N  N175  1  0.49032000  0.10834000  0.78472000  1.0
  N  N176  1  0.98307000  0.59904000  0.78649000  1.0
  N  N177  1  0.05277000  0.69294000  0.62347000  1.0
  N  N178  1  0.29282000  0.89144000  0.21593000  1.0
  N  N179  1  0.50959000  0.89093000  0.21610000  1.0
  N  N180  1  0.68807000  0.18338000  0.22606000  1.0
  N  N181  1  0.80493000  0.32043000  0.77508000  1.0
  N  N182  1  0.10509000  0.58970000  0.22304000  1.0
  N  N183  1  0.40162000  0.90572000  0.77404000  1.0
  N  N184  1  0.09959000  0.18218000  0.22321000  1.0
  N  N185  1  0.39757000  0.31270000  0.77526000  1.0
  N  N186  1  0.69255000  0.59360000  0.22628000  1.0
  N  N187  1  0.80846000  0.90865000  0.77612000  1.0
  O  O188  1  0.45393000  0.97719000  0.93358000  1.0
  O  O189  1  0.41442000  0.89047000  0.06600000  1.0
  O  O190  1  0.39235000  0.02049000  0.06804000  1.0
  O  O191  1  0.47313000  0.10720000  0.93551000  1.0
  O  O192  1  0.52526000  0.04289000  0.06545000  1.0
  O  O193  1  0.60659000  0.08886000  0.93289000  1.0
  O  O194  1  0.58578000  0.95650000  0.93470000  1.0
  O  O195  1  0.54574000  0.91135000  0.06709000  1.0
  O  O196  1  0.04429000  0.40905000  0.06258000  1.0
  O  O197  1  0.09308000  0.46214000  0.92713000  1.0
  O  O198  1  0.10624000  0.59462000  0.92864000  1.0
  O  O199  1  0.03137000  0.53885000  0.06508000  1.0
  O  O200  1  0.97027000  0.60556000  0.93396000  1.0
  O  O201  1  0.89505000  0.52526000  0.07033000  1.0
  O  O202  1  0.90566000  0.39091000  0.07198000  1.0
  O  O203  1  0.95482000  0.47345000  0.93659000  1.0
