# generated using pymatgen
data_CdH18C26(NO2)2
_symmetry_space_group_name_H-M   'P 1'
_cell_length_a   13.99660000
_cell_length_b   16.05500000
_cell_length_c   16.52490000
_cell_angle_alpha   72.90600000
_cell_angle_beta   64.99800000
_cell_angle_gamma   89.97990000
_symmetry_Int_Tables_number   1
_chemical_formula_structural   CdH18C26(NO2)2
_chemical_formula_sum   'Cd4 H72 C104 N8 O16'
_cell_volume   3183.69240250
_cell_formula_units_Z   4
loop_
 _symmetry_equiv_pos_site_id
 _symmetry_equiv_pos_as_xyz
  1  'x, y, z'
loop_
 _atom_site_type_symbol
 _atom_site_label
 _atom_site_symmetry_multiplicity
 _atom_site_fract_x
 _atom_site_fract_y
 _atom_site_fract_z
 _atom_site_occupancy
  Cd  Cd0  1  0.04712000  0.90791000  0.44472000  1.0
  Cd  Cd1  1  0.49234000  0.59223000  0.55515000  1.0
  Cd  Cd2  1  0.95288000  0.09208000  0.55529000  1.0
  Cd  Cd3  1  0.50765000  0.40777000  0.44485000  1.0
  H  H4  1  0.25538000  0.48280000  0.67639000  1.0
  H  H5  1  0.35889000  0.21834000  0.43628000  1.0
  H  H6  1  0.06892000  0.98243000  0.67663000  1.0
  H  H7  1  0.75456000  0.01839000  0.32138000  1.0
  H  H8  1  0.06533000  0.31086000  0.23939000  1.0
  H  H9  1  0.31710000  0.60219000  0.02680000  1.0
  H  H10  1  0.38599000  0.44827000  0.75961000  1.0
  H  H11  1  0.75230000  0.43622000  0.69477000  1.0
  H  H12  1  0.30518000  0.18932000  0.76059000  1.0
  H  H13  1  0.93467000  0.68914000  0.76061000  1.0
  H  H14  1  0.68484000  0.13335000  0.13545000  1.0
  H  H15  1  0.38617000  0.82306000  0.71873000  1.0
  H  H16  1  0.44634000  0.06402000  0.30506000  1.0
  H  H17  1  0.73581000  0.06001000  0.88101000  1.0
  H  H18  1  0.65611000  0.10281000  0.02655000  1.0
  H  H19  1  0.31516000  0.86665000  0.86455000  1.0
  H  H20  1  0.64111000  0.78166000  0.56371000  1.0
  H  H21  1  0.36361000  0.82559000  0.54365000  1.0
  H  H22  1  0.24543000  0.98160000  0.67861000  1.0
  H  H23  1  0.41196000  0.54460000  0.32954000  1.0
  H  H24  1  0.90750000  0.67448000  0.45601000  1.0
  H  H25  1  0.92314000  0.51822000  0.32162000  1.0
  H  H26  1  0.74462000  0.51720000  0.32360000  1.0
  H  H27  1  0.17956000  0.63292000  0.13600000  1.0
  H  H28  1  0.82096000  0.18115000  0.44151000  1.0
  H  H29  1  0.17533000  0.20870000  0.44418000  1.0
  H  H30  1  0.20871000  0.13909000  0.93625000  1.0
  H  H31  1  0.29548000  0.39827000  0.93284000  1.0
  H  H32  1  0.52316000  0.83209000  0.50446000  1.0
  H  H33  1  0.63639000  0.17442000  0.45634000  1.0
  H  H34  1  0.61944000  0.29096000  0.55608000  1.0
  H  H35  1  0.97203000  0.33200000  0.50479000  1.0
  H  H36  1  0.61383000  0.17695000  0.28126000  1.0
  H  H37  1  0.06263000  0.51620000  0.35414000  1.0
  H  H38  1  0.70451000  0.60174000  0.06715000  1.0
  H  H39  1  0.14492000  0.36121000  0.06366000  1.0
  H  H40  1  0.26227000  0.31886000  0.55881000  1.0
  H  H41  1  0.07686000  0.48178000  0.67837000  1.0
  H  H42  1  0.41734000  0.98364000  0.64609000  1.0
  H  H43  1  0.38057000  0.70904000  0.44392000  1.0
  H  H44  1  0.14512000  0.05185000  0.24058000  1.0
  H  H45  1  0.47684000  0.16791000  0.49553000  1.0
  H  H46  1  0.68289000  0.39781000  0.97320000  1.0
  H  H47  1  0.82467000  0.79130000  0.55581000  1.0
  H  H48  1  0.26420000  0.93998000  0.11900000  1.0
  H  H49  1  0.24771000  0.56379000  0.30524000  1.0
  H  H50  1  0.79509000  0.28154000  0.56400000  1.0
  H  H51  1  0.85488000  0.94815000  0.75942000  1.0
  H  H52  1  0.61672000  0.44022000  0.11900000  1.0
  H  H53  1  0.79127000  0.86092000  0.06376000  1.0
  H  H54  1  0.38328000  0.55978000  0.88100000  1.0
  H  H55  1  0.58267000  0.01637000  0.35391000  1.0
  H  H56  1  0.09250000  0.32552000  0.54399000  1.0
  H  H57  1  0.22815000  0.10186000  0.06734000  1.0
  H  H58  1  0.93108000  0.01757000  0.32336000  1.0
  H  H59  1  0.10461000  0.67697000  0.28156000  1.0
  H  H60  1  0.93737000  0.48380000  0.64587000  1.0
  H  H61  1  0.20492000  0.71846000  0.43600000  1.0
  H  H62  1  0.55366000  0.93598000  0.69493000  1.0
  H  H63  1  0.61399000  0.55173000  0.24038000  1.0
  H  H64  1  0.34388000  0.89719000  0.97346000  1.0
  H  H65  1  0.73771000  0.68113000  0.44120000  1.0
  H  H66  1  0.17905000  0.81885000  0.55849000  1.0
  H  H67  1  0.82045000  0.36707000  0.86400000  1.0
  H  H68  1  0.89540000  0.32302000  0.71844000  1.0
  H  H69  1  0.58804000  0.45539000  0.67048000  1.0
  H  H70  1  0.74228000  0.95526000  0.67053000  1.0
  H  H71  1  0.85508000  0.63879000  0.93635000  1.0
  H  H72  1  0.77185000  0.89815000  0.93265000  1.0
  H  H73  1  0.69480000  0.81068000  0.23942000  1.0
  H  H74  1  0.02798000  0.66799000  0.49521000  1.0
  H  H75  1  0.25772000  0.04474000  0.32947000  1.0
  C  C76  1  0.12591000  0.60074000  0.55606000  1.0
  C  C77  1  0.25506000  0.37158000  0.50326000  1.0
  C  C78  1  0.36784000  0.62679000  0.87867000  1.0
  C  C79  1  0.14662000  0.29363000  0.10231000  1.0
  C  C80  1  0.13084000  0.83791000  0.29560000  1.0
  C  C81  1  0.13543000  0.03362000  0.62464000  1.0
  C  C82  1  0.75931000  0.46608000  0.37562000  1.0
  C  C83  1  0.78619000  0.33453000  0.50971000  1.0
  C  C84  1  0.84448000  0.55464000  0.57868000  1.0
  C  C85  1  0.71481000  0.00195000  0.62495000  1.0
  C  C86  1  0.75244000  0.49221000  0.63800000  1.0
  C  C87  1  0.34466000  0.87607000  0.49407000  1.0
  C  C88  1  0.31044000  0.73744000  0.95677000  1.0
  C  C89  1  0.80503000  0.83988000  0.50530000  1.0
  C  C90  1  0.33910000  0.49785000  0.37515000  1.0
  C  C91  1  0.75837000  0.12841000  0.49707000  1.0
  C  C92  1  0.68935000  0.33965000  0.50561000  1.0
  C  C93  1  0.24913000  0.20662000  0.89770000  1.0
  C  C94  1  0.24756000  0.50779000  0.36200000  1.0
  C  C95  1  0.73307000  0.23793000  0.95639000  1.0
  C  C96  1  0.24652000  0.87290000  0.12146000  1.0
  C  C97  1  0.31066000  0.66035000  0.49439000  1.0
  C  C98  1  0.42278000  0.94555000  0.42112000  1.0
  C  C99  1  0.62973000  0.22444000  0.21283000  1.0
  C  C100  1  0.69790000  0.76568000  0.20042000  1.0
  C  C101  1  0.42596000  0.10703000  0.54755000  1.0
  C  C102  1  0.02699000  0.60711000  0.54724000  1.0
  C  C103  1  0.66825000  0.20050000  0.13147000  1.0
  C  C104  1  0.05248000  0.14882000  0.35692000  1.0
  C  C105  1  0.10128000  0.26586000  0.20043000  1.0
  C  C106  1  0.20001000  0.70013000  0.13188000  1.0
  C  C107  1  0.75459000  0.73513000  0.05205000  1.0
  C  C108  1  0.85338000  0.70638000  0.89769000  1.0
  C  C109  1  0.06024000  0.45462000  0.40630000  1.0
  C  C110  1  0.68955000  0.26256000  0.04323000  1.0
  C  C111  1  0.82090000  0.18891000  0.79126000  1.0
  C  C112  1  0.26693000  0.76207000  0.04361000  1.0
  C  C113  1  0.70445000  0.64790000  0.10418000  1.0
  C  C114  1  0.28519000  0.99805000  0.37504000  1.0
  C  C115  1  0.19324000  0.23534000  0.05211000  1.0
  C  C116  1  0.65194000  0.61976000  0.20223000  1.0
  C  C117  1  0.79999000  0.29986000  0.86812000  1.0
  C  C118  1  0.68174000  0.89937000  0.44364000  1.0
  C  C119  1  0.83909000  0.62408000  0.50571000  1.0
  C  C120  1  0.85860000  0.46619000  0.37528000  1.0
  C  C121  1  0.87410000  0.39926000  0.44393000  1.0
  C  C122  1  0.57722000  0.05445000  0.57888000  1.0
  C  C123  1  0.63216000  0.37321000  0.12133000  1.0
  C  C124  1  0.35248000  0.32145000  0.74852000  1.0
  C  C125  1  0.80675000  0.76466000  0.94789000  1.0
  C  C126  1  0.86458000  0.96638000  0.37535000  1.0
  C  C127  1  0.85460000  0.88010000  0.79763000  1.0
  C  C128  1  0.61011000  0.99199000  0.63818000  1.0
  C  C129  1  0.65534000  0.12394000  0.50592000  1.0
  C  C130  1  0.89871000  0.73414000  0.79958000  1.0
  C  C131  1  0.24069000  0.53392000  0.62438000  1.0
  C  C132  1  0.93976000  0.54538000  0.59371000  1.0
  C  C133  1  0.33175000  0.79950000  0.86853000  1.0
  C  C134  1  0.57327000  0.33776000  0.29567000  1.0
  C  C135  1  0.33024000  0.65088000  0.95983000  1.0
  C  C136  1  0.42673000  0.66224000  0.70433000  1.0
  C  C137  1  0.14541000  0.11990000  0.20237000  1.0
  C  C138  1  0.76565000  0.96636000  0.37498000  1.0
  C  C139  1  0.57404000  0.89297000  0.45244000  1.0
  C  C140  1  0.29553000  0.35211000  0.89581000  1.0
  C  C141  1  0.94752000  0.85117000  0.64309000  1.0
  C  C142  1  0.19497000  0.16012000  0.49470000  1.0
  C  C143  1  0.74493000  0.62841000  0.49675000  1.0
  C  C144  1  0.70409000  0.83469000  0.50943000  1.0
  C  C145  1  0.80887000  0.85195000  0.89571000  1.0
  C  C146  1  0.30208000  0.23432000  0.79959000  1.0
  C  C147  1  0.40966000  0.35130000  0.64317000  1.0
  C  C148  1  0.21382000  0.66547000  0.49029000  1.0
  C  C149  1  0.59033000  0.64869000  0.35683000  1.0
  C  C150  1  0.34805000  0.38024000  0.79776000  1.0
  C  C151  1  0.31826000  0.10063000  0.55636000  1.0
  C  C152  1  0.38990000  0.00801000  0.36181000  1.0
  C  C153  1  0.61214000  0.31120000  0.20863000  1.0
  C  C154  1  0.37028000  0.77557000  0.78717000  1.0
  C  C155  1  0.66975000  0.34913000  0.04017000  1.0
  C  C156  1  0.46690000  0.04526000  0.59395000  1.0
  C  C157  1  0.17912000  0.81108000  0.20875000  1.0
  C  C158  1  0.23436000  0.03363000  0.62501000  1.0
  C  C159  1  0.16091000  0.37592000  0.49430000  1.0
  C  C160  1  0.15723000  0.72430000  0.21311000  1.0
  C  C161  1  0.53310000  0.95475000  0.40604000  1.0
  C  C162  1  0.89944000  0.82131000  0.74844000  1.0
  C  C163  1  0.29591000  0.16531000  0.49056000  1.0
  C  C164  1  0.71002000  0.15136000  0.95958000  1.0
  C  C165  1  0.75347000  0.12709000  0.87855000  1.0
  C  C166  1  0.19113000  0.14805000  0.10429000  1.0
  C  C167  1  0.75085000  0.79339000  0.10231000  1.0
  C  C168  1  0.28998000  0.84865000  0.04042000  1.0
  C  C169  1  0.64751000  0.67854000  0.25148000  1.0
  C  C170  1  0.10056000  0.17869000  0.25156000  1.0
  C  C171  1  0.14140000  0.53380000  0.62472000  1.0
  C  C172  1  0.97302000  0.39288000  0.45276000  1.0
  C  C173  1  0.15552000  0.44536000  0.42133000  1.0
  C  C174  1  0.84278000  0.27569000  0.78689000  1.0
  C  C175  1  0.86918000  0.16208000  0.70441000  1.0
  C  C176  1  0.24163000  0.87159000  0.50293000  1.0
  C  C177  1  0.66090000  0.50215000  0.62486000  1.0
  C  C178  1  0.24540000  0.26488000  0.94796000  1.0
  C  C179  1  0.38786000  0.68880000  0.79137000  1.0
  N  N180  1  0.34340000  0.43077000  0.44447000  1.0
  N  N181  1  0.88434000  0.90453000  0.43945000  1.0
  N  N182  1  0.32436000  0.59577000  0.56025000  1.0
  N  N183  1  0.21184000  0.93085000  0.44424000  1.0
  N  N184  1  0.78816000  0.06916000  0.55575000  1.0
  N  N185  1  0.11567000  0.09547000  0.56054000  1.0
  N  N186  1  0.65659000  0.56923000  0.55554000  1.0
  N  N187  1  0.67564000  0.40424000  0.43975000  1.0
  O  O188  1  0.55069000  0.27986000  0.37510000  1.0
  O  O189  1  0.05049000  0.06796000  0.40173000  1.0
  O  O190  1  0.54764000  0.56786000  0.40165000  1.0
  O  O191  1  0.43549000  0.58096000  0.71408000  1.0
  O  O192  1  0.41513000  0.29638000  0.59978000  1.0
  O  O193  1  0.14924000  0.91924000  0.28568000  1.0
  O  O194  1  0.07395000  0.78016000  0.37510000  1.0
  O  O195  1  0.92604000  0.21984000  0.62490000  1.0
  O  O196  1  0.85079000  0.08075000  0.71433000  1.0
  O  O197  1  0.44931000  0.72014000  0.62490000  1.0
  O  O198  1  0.56450000  0.41904000  0.28592000  1.0
  O  O199  1  0.58487000  0.70361000  0.40023000  1.0
  O  O200  1  0.01439000  0.20366000  0.40034000  1.0
  O  O201  1  0.45234000  0.43214000  0.59835000  1.0
  O  O202  1  0.98560000  0.79633000  0.59967000  1.0
  O  O203  1  0.94951000  0.93204000  0.59827000  1.0
