# generated using pymatgen
data_CdH11C13N2O5
_symmetry_space_group_name_H-M   'P 1'
_cell_length_a   10.26540000
_cell_length_b   10.26510000
_cell_length_c   13.25820000
_cell_angle_alpha   74.86890000
_cell_angle_beta   74.86960000
_cell_angle_gamma   83.09150000
_symmetry_Int_Tables_number   1
_chemical_formula_structural   CdH11C13N2O5
_chemical_formula_sum   'Cd4 H44 C52 N8 O20'
_cell_volume   1299.85968250
_cell_formula_units_Z   4
loop_
 _symmetry_equiv_pos_site_id
 _symmetry_equiv_pos_as_xyz
  1  'x, y, z'
loop_
 _atom_site_type_symbol
 _atom_site_label
 _atom_site_symmetry_multiplicity
 _atom_site_fract_x
 _atom_site_fract_y
 _atom_site_fract_z
 _atom_site_occupancy
  Cd  Cd0  1  0.96734000  0.88956000  0.90272000  1.0
  Cd  Cd1  1  0.11044000  0.03264000  0.59728000  1.0
  Cd  Cd2  1  0.03266000  0.11045000  0.09727000  1.0
  Cd  Cd3  1  0.88956000  0.96735000  0.40272000  1.0
  H  H4  1  0.96242000  0.37940000  0.91446000  1.0
  H  H5  1  0.62061000  0.03757000  0.58553000  1.0
  H  H6  1  0.03758000  0.62061000  0.08553000  1.0
  H  H7  1  0.37939000  0.96242000  0.41447000  1.0
  H  H8  1  0.47847000  0.99343000  0.16086000  1.0
  H  H9  1  0.00657000  0.52153000  0.33914000  1.0
  H  H10  1  0.52153000  0.00657000  0.83914000  1.0
  H  H11  1  0.99342000  0.47848000  0.66087000  1.0
  H  H12  1  0.72709000  0.08957000  0.03762000  1.0
  H  H13  1  0.91044000  0.27290000  0.46237000  1.0
  H  H14  1  0.27291000  0.91044000  0.96237000  1.0
  H  H15  1  0.08956000  0.72710000  0.53763000  1.0
  H  H16  1  0.26631000  0.64466000  0.70306000  1.0
  H  H17  1  0.35535000  0.73369000  0.79695000  1.0
  H  H18  1  0.73370000  0.35534000  0.29693000  1.0
  H  H19  1  0.64465000  0.26631000  0.20306000  1.0
  H  H20  1  0.70225000  0.69685000  0.00418000  1.0
  H  H21  1  0.30313000  0.29774000  0.49584000  1.0
  H  H22  1  0.29775000  0.30315000  0.99582000  1.0
  H  H23  1  0.69687000  0.70226000  0.50416000  1.0
  H  H24  1  0.42490000  0.55001000  0.57978000  1.0
  H  H25  1  0.44999000  0.57510000  0.92023000  1.0
  H  H26  1  0.57511000  0.44999000  0.42021000  1.0
  H  H27  1  0.55000000  0.42489000  0.07976000  1.0
  H  H28  1  0.28329000  0.22791000  0.68266000  1.0
  H  H29  1  0.77209000  0.71671000  0.81735000  1.0
  H  H30  1  0.71672000  0.77209000  0.31734000  1.0
  H  H31  1  0.22791000  0.28327000  0.18266000  1.0
  H  H32  1  0.49441000  0.62860000  0.18086000  1.0
  H  H33  1  0.37140000  0.50558000  0.31915000  1.0
  H  H34  1  0.50559000  0.37141000  0.81914000  1.0
  H  H35  1  0.62860000  0.49442000  0.68085000  1.0
  H  H36  1  0.41114000  0.70790000  0.07747000  1.0
  H  H37  1  0.29210000  0.58885000  0.42255000  1.0
  H  H38  1  0.58886000  0.29210000  0.92254000  1.0
  H  H39  1  0.70790000  0.41115000  0.57746000  1.0
  H  H40  1  0.28363000  0.86794000  0.18333000  1.0
  H  H41  1  0.13206000  0.71637000  0.31668000  1.0
  H  H42  1  0.71637000  0.13206000  0.81667000  1.0
  H  H43  1  0.86794000  0.28363000  0.68333000  1.0
  H  H44  1  0.36911000  0.79965000  0.28705000  1.0
  H  H45  1  0.20035000  0.63089000  0.21296000  1.0
  H  H46  1  0.63089000  0.20036000  0.71295000  1.0
  H  H47  1  0.79965000  0.36911000  0.78705000  1.0
  C  C48  1  0.11130000  0.52069000  0.81670000  1.0
  C  C49  1  0.47932000  0.88870000  0.68330000  1.0
  C  C50  1  0.88871000  0.47932000  0.18329000  1.0
  C  C51  1  0.52068000  0.11130000  0.31670000  1.0
  C  C52  1  0.05417000  0.39531000  0.85035000  1.0
  C  C53  1  0.60470000  0.94582000  0.64965000  1.0
  C  C54  1  0.94583000  0.60470000  0.14965000  1.0
  C  C55  1  0.39530000  0.05418000  0.35035000  1.0
  C  C56  1  0.56072000  0.94767000  0.10950000  1.0
  C  C57  1  0.05234000  0.43927000  0.39050000  1.0
  C  C58  1  0.43928000  0.05234000  0.89050000  1.0
  C  C59  1  0.94767000  0.56074000  0.60950000  1.0
  C  C60  1  0.68321000  0.99476000  0.04772000  1.0
  C  C61  1  0.00524000  0.31678000  0.45228000  1.0
  C  C62  1  0.31679000  0.00525000  0.95228000  1.0
  C  C63  1  0.99476000  0.68321000  0.54771000  1.0
  C  C64  1  0.04500000  0.63362000  0.86747000  1.0
  C  C65  1  0.36638000  0.95499000  0.63253000  1.0
  C  C66  1  0.95500000  0.36638000  0.13252000  1.0
  C  C67  1  0.63362000  0.04500000  0.36748000  1.0
  C  C68  1  0.22751000  0.54336000  0.73229000  1.0
  C  C69  1  0.45665000  0.77249000  0.76772000  1.0
  C  C70  1  0.77249000  0.45665000  0.26770000  1.0
  C  C71  1  0.54334000  0.22751000  0.23229000  1.0
  C  C72  1  0.67461000  0.79190000  0.02756000  1.0
  C  C73  1  0.20809000  0.32538000  0.47245000  1.0
  C  C74  1  0.32539000  0.20811000  0.97244000  1.0
  C  C75  1  0.79191000  0.67462000  0.52755000  1.0
  C  C76  1  0.11557000  0.29067000  0.80148000  1.0
  C  C77  1  0.70933000  0.88443000  0.69852000  1.0
  C  C78  1  0.88444000  0.70933000  0.19852000  1.0
  C  C79  1  0.29067000  0.11555000  0.30148000  1.0
  C  C80  1  0.23401000  0.31066000  0.71891000  1.0
  C  C81  1  0.68934000  0.76599000  0.78110000  1.0
  C  C82  1  0.76600000  0.68934000  0.28109000  1.0
  C  C83  1  0.31066000  0.23400000  0.21891000  1.0
  C  C84  1  0.05374000  0.15701000  0.83893000  1.0
  C  C85  1  0.84299000  0.94626000  0.66107000  1.0
  C  C86  1  0.94626000  0.84299000  0.16107000  1.0
  C  C87  1  0.15701000  0.05373000  0.33894000  1.0
  C  C88  1  0.28774000  0.43807000  0.68395000  1.0
  C  C89  1  0.56193000  0.71226000  0.81606000  1.0
  C  C90  1  0.71227000  0.56193000  0.31605000  1.0
  C  C91  1  0.43806000  0.28774000  0.18394000  1.0
  C  C92  1  0.44845000  0.72525000  0.14316000  1.0
  C  C93  1  0.27475000  0.55155000  0.35685000  1.0
  C  C94  1  0.55155000  0.27476000  0.85684000  1.0
  C  C95  1  0.72525000  0.44845000  0.64316000  1.0
  C  C96  1  0.33152000  0.77462000  0.22423000  1.0
  C  C97  1  0.22538000  0.66848000  0.27578000  1.0
  C  C98  1  0.66847000  0.22538000  0.77577000  1.0
  C  C99  1  0.77462000  0.33153000  0.72422000  1.0
  N  N100  1  0.75256000  0.89685000  0.99652000  1.0
  N  N101  1  0.10315000  0.24742000  0.50349000  1.0
  N  N102  1  0.24744000  0.10316000  0.00348000  1.0
  N  N103  1  0.89685000  0.75257000  0.49651000  1.0
  N  N104  1  0.55706000  0.81926000  0.09582000  1.0
  N  N105  1  0.18073000  0.44292000  0.40419000  1.0
  N  N106  1  0.44294000  0.18074000  0.90418000  1.0
  N  N107  1  0.81927000  0.55707000  0.59582000  1.0
  O  O108  1  0.12218000  0.72562000  0.86440000  1.0
  O  O109  1  0.27439000  0.87781000  0.63560000  1.0
  O  O110  1  0.87782000  0.27439000  0.13559000  1.0
  O  O111  1  0.72560000  0.12219000  0.36441000  1.0
  O  O112  1  0.91932000  0.63605000  0.90790000  1.0
  O  O113  1  0.36396000  0.08068000  0.59210000  1.0
  O  O114  1  0.08069000  0.36396000  0.09209000  1.0
  O  O115  1  0.63604000  0.91931000  0.40790000  1.0
  O  O116  1  0.40168000  0.45569000  0.59964000  1.0
  O  O117  1  0.54430000  0.59833000  0.90038000  1.0
  O  O118  1  0.59833000  0.54431000  0.40036000  1.0
  O  O119  1  0.45568000  0.40166000  0.09962000  1.0
  O  O120  1  0.96547000  0.13045000  0.92839000  1.0
  O  O121  1  0.86955000  0.03453000  0.57161000  1.0
  O  O122  1  0.03453000  0.86956000  0.07160000  1.0
  O  O123  1  0.13044000  0.96547000  0.42840000  1.0
  O  O124  1  0.09033000  0.06983000  0.78166000  1.0
  O  O125  1  0.93016000  0.90967000  0.71835000  1.0
  O  O126  1  0.90967000  0.93016000  0.21834000  1.0
  O  O127  1  0.06984000  0.09032000  0.28166000  1.0
