# generated using pymatgen
data_Al4H33C50NO20
_symmetry_space_group_name_H-M   'P 1'
_cell_length_a   6.74052000
_cell_length_b   18.08310000
_cell_length_c   20.66920000
_cell_angle_alpha   72.45340000
_cell_angle_beta   86.54710000
_cell_angle_gamma   86.44370000
_symmetry_Int_Tables_number   1
_chemical_formula_structural   Al4H33C50NO20
_chemical_formula_sum   'Al4 H33 C50 N1 O20'
_cell_volume   2395.22829247
_cell_formula_units_Z   1
loop_
 _symmetry_equiv_pos_site_id
 _symmetry_equiv_pos_as_xyz
  1  'x, y, z'
loop_
 _atom_site_type_symbol
 _atom_site_label
 _atom_site_symmetry_multiplicity
 _atom_site_fract_x
 _atom_site_fract_y
 _atom_site_fract_z
 _atom_site_occupancy
  Al  Al0  1  0.09691000  0.50022000  0.50194000  1.0
  Al  Al1  1  0.59669000  0.50087000  0.50044000  1.0
  Al  Al2  1  0.64747000  0.99914000  0.99794000  1.0
  Al  Al3  1  0.14775000  0.99879000  0.99949000  1.0
  H  H4  1  0.63458000  0.14639000  0.27878000  1.0
  H  H5  1  0.69866000  0.30875000  0.23619000  1.0
  H  H6  1  0.98373000  0.36613000  0.17238000  1.0
  H  H7  1  0.96637000  0.36922000  0.25802000  1.0
  H  H8  1  0.13463000  0.42845000  0.19839000  1.0
  H  H9  1  0.46098000  0.40406000  0.10833000  1.0
  H  H10  1  0.57814000  0.32184000  0.08899000  1.0
  H  H11  1  0.31810000  0.34093000  0.08014000  1.0
  H  H12  1  0.62804000  0.90230000  0.63585000  1.0
  H  H13  1  0.76227000  0.84822000  0.58680000  1.0
  H  H14  1  0.52827000  0.81768000  0.62707000  1.0
  H  H15  1  0.37100000  0.71268000  0.71731000  1.0
  H  H16  1  0.24532000  0.63011000  0.71416000  1.0
  H  H17  1  0.24517000  0.71483000  0.64368000  1.0
  H  H18  1  0.11636000  0.59943000  0.86316000  1.0
  H  H19  1  0.22558000  0.68481000  0.86759000  1.0
  H  H20  1  0.99513000  0.65684000  0.91153000  1.0
  H  H21  1  0.61222000  0.62183000  0.87663000  1.0
  H  H22  1  0.51004000  0.61714000  0.80069000  1.0
  H  H23  1  0.73775000  0.56605000  0.82763000  1.0
  H  H24  1  0.37519000  0.79528000  0.77521000  1.0
  H  H25  1  0.49161000  0.78950000  0.85174000  1.0
  H  H26  1  0.50740000  0.87427000  0.78131000  1.0
  H  H27  1  0.29509000  0.09653000  0.39122000  1.0
  H  H28  1  0.43703000  0.16093000  0.41783000  1.0
  H  H29  1  0.17624000  0.17848000  0.41057000  1.0
  H  H30  1  0.90382000  0.19378000  0.30372000  1.0
  H  H31  1  0.92603000  0.19442000  0.21722000  1.0
  H  H32  1  0.02950000  0.11495000  0.28116000  1.0
  H  H33  1  0.33243000  0.60236000  0.48466000  1.0
  H  H34  1  0.86348000  0.40525000  0.49791000  1.0
  H  H35  1  0.41221000  0.89839000  0.00872000  1.0
  H  H36  1  0.88061000  0.09459000  0.00103000  1.0
  C  C37  1  0.37338000  0.42260000  0.42425000  1.0
  C  C38  1  0.34583000  0.39513000  0.60533000  1.0
  C  C39  1  0.81747000  0.57837000  0.57777000  1.0
  C  C40  1  0.85061000  0.60742000  0.39693000  1.0
  C  C41  1  0.85554000  0.66873000  0.33321000  1.0
  C  C42  1  0.86623000  0.72124000  0.27970000  1.0
  C  C43  1  0.87758000  0.77916000  0.22062000  1.0
  C  C44  1  0.88829000  0.83160000  0.16706000  1.0
  C  C45  1  0.77049000  0.79518000  0.69433000  1.0
  C  C46  1  0.98351000  0.81208000  0.71331000  1.0
  C  C47  1  0.93913000  0.87699000  0.87438000  1.0
  C  C48  1  0.80633000  0.62313000  0.62496000  1.0
  C  C49  1  0.69477000  0.77764000  0.77080000  1.0
  C  C50  1  0.90675000  0.79495000  0.79042000  1.0
  C  C51  1  0.76270000  0.68928000  0.78508000  1.0
  C  C52  1  0.83882000  0.70647000  0.70800000  1.0
  C  C53  1  0.97493000  0.70630000  0.80356000  1.0
  C  C54  1  0.05092000  0.72354000  0.72722000  1.0
  C  C55  1  0.93417000  0.83978000  0.83424000  1.0
  C  C56  1  0.81256000  0.66164000  0.66405000  1.0
  C  C57  1  0.52040000  0.19330000  0.26586000  1.0
  C  C58  1  0.34448000  0.20543000  0.31495000  1.0
  C  C59  1  0.38261000  0.37917000  0.37621000  1.0
  C  C60  1  0.36269000  0.12152000  0.12249000  1.0
  C  C61  1  0.55507000  0.28212000  0.24190000  1.0
  C  C62  1  0.37970000  0.29641000  0.29119000  1.0
  C  C63  1  0.40682000  0.29507000  0.18372000  1.0
  C  C64  1  0.37170000  0.20423000  0.20729000  1.0
  C  C65  1  0.22802000  0.30745000  0.23255000  1.0
  C  C66  1  0.19493000  0.21770000  0.25687000  1.0
  C  C67  1  0.38222000  0.34161000  0.33610000  1.0
  C  C68  1  0.36784000  0.15908000  0.16243000  1.0
  C  C69  1  0.35181000  0.33313000  0.66846000  1.0
  C  C70  1  0.36636000  0.27958000  0.72103000  1.0
  C  C71  1  0.38095000  0.22041000  0.77904000  1.0
  C  C72  1  0.39396000  0.16675000  0.83160000  1.0
  C  C73  1  0.39931000  0.10453000  0.89458000  1.0
  C  C74  1  0.37076000  0.07734000  0.07510000  1.0
  C  C75  1  0.89318000  0.89268000  0.10320000  1.0
  C  C76  1  0.92765000  0.92117000  0.92207000  1.0
  C  C77  1  0.09759000  0.87578000  0.67573000  1.0
  C  C78  1  0.06982000  0.37104000  0.21439000  1.0
  C  C79  1  0.44258000  0.34298000  0.11153000  1.0
  C  C80  1  0.66683000  0.84348000  0.63283000  1.0
  C  C81  1  0.23849000  0.69389000  0.69949000  1.0
  C  C82  1  0.08396000  0.65931000  0.86455000  1.0
  C  C83  1  0.64931000  0.62013000  0.82451000  1.0
  C  C84  1  0.50736000  0.81057000  0.79599000  1.0
  C  C85  1  0.31123000  0.15790000  0.38735000  1.0
  C  C86  1  0.00323000  0.17845000  0.26519000  1.0
  N  N87  1  0.19269000  0.92750000  0.64407000  1.0
  O  O88  1  0.51459000  0.41813000  0.57842000  1.0
  O  O89  1  0.19919000  0.43779000  0.44628000  1.0
  O  O90  1  0.01918000  0.58288000  0.42162000  1.0
  O  O91  1  0.17515000  0.41967000  0.58262000  1.0
  O  O92  1  0.99279000  0.56177000  0.55795000  1.0
  O  O93  1  0.53777000  0.44126000  0.44127000  1.0
  O  O94  1  0.34033000  0.54647000  0.49422000  1.0
  O  O95  1  0.65462000  0.56043000  0.55949000  1.0
  O  O96  1  0.67942000  0.58511000  0.42198000  1.0
  O  O97  1  0.85311000  0.45507000  0.50675000  1.0
  O  O98  1  0.20622000  0.05811000  0.05874000  1.0
  O  O99  1  0.57013000  0.07944000  0.91696000  1.0
  O  O100  1  0.75230000  0.93685000  0.94252000  1.0
  O  O101  1  0.54460000  0.06211000  0.05284000  1.0
  O  O102  1  0.72449000  0.91729000  0.07865000  1.0
  O  O103  1  0.23038000  0.08208000  0.92177000  1.0
  O  O104  1  0.40394000  0.95300000  0.00554000  1.0
  O  O105  1  0.06432000  0.91461000  0.07782000  1.0
  O  O106  1  0.09039000  0.93941000  0.94014000  1.0
  O  O107  1  0.89127000  0.04444000  0.99283000  1.0
