# generated using pymatgen
data_CdH32C36S4(NO)6
_symmetry_space_group_name_H-M   'P 1'
_cell_length_a   10.39190000
_cell_length_b   12.03790000
_cell_length_c   12.54490000
_cell_angle_alpha   65.92920000
_cell_angle_beta   73.55830000
_cell_angle_gamma   77.34820000
_symmetry_Int_Tables_number   1
_chemical_formula_structural   CdH32C36S4(NO)6
_chemical_formula_sum   'Cd1 H32 C36 S4 N6 O6'
_cell_volume   1364.61981993
_cell_formula_units_Z   1
loop_
 _symmetry_equiv_pos_site_id
 _symmetry_equiv_pos_as_xyz
  1  'x, y, z'
loop_
 _atom_site_type_symbol
 _atom_site_label
 _atom_site_symmetry_multiplicity
 _atom_site_fract_x
 _atom_site_fract_y
 _atom_site_fract_z
 _atom_site_occupancy
  Cd  Cd0  1  0.00000000  0.00000000  0.00000000  1.0
  H  H1  1  0.30289000  0.49953000  0.80881000  1.0
  H  H2  1  0.69711000  0.50047000  0.19119000  1.0
  H  H3  1  0.39171000  0.59367000  0.66666667  1.0
  H  H4  1  0.60830000  0.40633000  0.33333333  1.0
  H  H5  1  0.37091000  0.29224000  0.90609000  1.0
  H  H6  1  0.62909000  0.70776000  0.09391000  1.0
  H  H7  1  0.50076000  0.09647000  0.89489000  1.0
  H  H8  1  0.49924000  0.90353000  0.10510000  1.0
  H  H9  1  0.68332000  0.09705000  0.71852000  1.0
  H  H10  1  0.31667000  0.90296000  0.28147000  1.0
  H  H11  1  0.74164000  0.29661000  0.55446000  1.0
  H  H12  1  0.25835000  0.70339000  0.44554000  1.0
  H  H13  1  0.55450000  0.60167000  0.53593000  1.0
  H  H14  1  0.44550000  0.39833000  0.46407000  1.0
  H  H15  1  0.65804000  0.51319000  0.45265000  1.0
  H  H16  1  0.34196000  0.48682000  0.54736000  1.0
  H  H17  1  0.10468000  0.83353000  0.24922000  1.0
  H  H18  1  0.89532000  0.16647000  0.75077000  1.0
  H  H19  1  0.03136000  0.67107000  0.44727000  1.0
  H  H20  1  0.96864000  0.32893000  0.55272000  1.0
  H  H21  1  0.64721000  0.71910000  0.35148000  1.0
  H  H22  1  0.35279000  0.28090000  0.64852000  1.0
  H  H23  1  0.73724000  0.87597000  0.16053000  1.0
  H  H24  1  0.26276000  0.12403000  0.83946000  1.0
  H  H25  1  0.29893000  0.85173000  0.04411000  1.0
  H  H26  1  0.70107000  0.14828000  0.95589000  1.0
  H  H27  1  0.47556000  0.70100000  0.98119000  1.0
  H  H28  1  0.52444000  0.29900000  0.01882000  1.0
  H  H29  1  0.05719000  0.85308000  0.83165000  1.0
  H  H30  1  0.94282000  0.14692000  0.16836000  1.0
  H  H31  1  0.21954000  0.70168000  0.76098000  1.0
  H  H32  1  0.78046000  0.29831000  0.23903000  1.0
  C  C33  1  0.40355000  0.52069000  0.75286000  1.0
  C  C34  1  0.59645000  0.47931000  0.24714000  1.0
  C  C35  1  0.48599000  0.40601000  0.73884000  1.0
  C  C36  1  0.51402000  0.59398000  0.26117000  1.0
  C  C37  1  0.45410000  0.29334000  0.82968000  1.0
  C  C38  1  0.54590000  0.70666000  0.17032000  1.0
  C  C39  1  0.52512000  0.18318000  0.82281000  1.0
  C  C40  1  0.47488000  0.81681000  0.17719000  1.0
  C  C41  1  0.62847000  0.18380000  0.72307000  1.0
  C  C42  1  0.37153000  0.81620000  0.27692000  1.0
  C  C43  1  0.66076000  0.29530000  0.63256000  1.0
  C  C44  1  0.33923000  0.70470000  0.36744000  1.0
  C  C45  1  0.59215000  0.40739000  0.63938000  1.0
  C  C46  1  0.40785000  0.59262000  0.36062000  1.0
  C  C47  1  0.63371000  0.52413000  0.53916000  1.0
  C  C48  1  0.36629000  0.47587000  0.46084000  1.0
  C  C49  1  0.00421000  0.80461000  0.27596000  1.0
  C  C50  1  0.99579000  0.19539000  0.72403000  1.0
  C  C51  1  0.96231000  0.71533000  0.38678000  1.0
  C  C52  1  0.03768000  0.28468000  0.61321000  1.0
  C  C53  1  0.83267000  0.67899000  0.41750000  1.0
  C  C54  1  0.16733000  0.32101000  0.58250000  1.0
  C  C55  1  0.74964000  0.73937000  0.33456000  1.0
  C  C56  1  0.25035000  0.26064000  0.66544000  1.0
  C  C57  1  0.80020000  0.82834000  0.22599000  1.0
  C  C58  1  0.19980000  0.17166000  0.77400000  1.0
  C  C59  1  0.28579000  0.81564000  0.98150000  1.0
  C  C60  1  0.71421000  0.18436000  0.01850000  1.0
  C  C61  1  0.38389000  0.73142000  0.94633000  1.0
  C  C62  1  0.61611000  0.26857000  0.05368000  1.0
  C  C63  1  0.36238000  0.68529000  0.86698000  1.0
  C  C64  1  0.63762000  0.31469000  0.13303000  1.0
  C  C65  1  0.15088000  0.81646000  0.86330000  1.0
  C  C66  1  0.84912000  0.18354000  0.13671000  1.0
  C  C67  1  0.24282000  0.73102000  0.82403000  1.0
  C  C68  1  0.75718000  0.26897000  0.17599000  1.0
  S  S69  1  0.78659000  0.56158000  0.55513000  1.0
  S  S70  1  0.21341000  0.43842000  0.44486000  1.0
  S  S71  1  0.48592000  0.57534000  0.82986000  1.0
  S  S72  1  0.51408000  0.42464000  0.17016000  1.0
  N  N73  1  0.21496000  0.12221000  0.06817000  1.0
  N  N74  1  0.78504000  0.87780000  0.93182000  1.0
  N  N75  1  0.92534000  0.86025000  0.19529000  1.0
  N  N76  1  0.07465000  0.13975000  0.80470000  1.0
  N  N77  1  0.16989000  0.85779000  0.94171000  1.0
  N  N78  1  0.83012000  0.14222000  0.05830000  1.0
  O  O79  1  0.16646000  0.02157000  0.09211000  1.0
  O  O80  1  0.83355000  0.97844000  0.90788000  1.0
  O  O81  1  0.15642000  0.22333000  0.01044000  1.0
  O  O82  1  0.84357000  0.77668000  0.98955000  1.0
  O  O83  1  0.31936000  0.11430000  0.10360000  1.0
  O  O84  1  0.68064000  0.88571000  0.89640000  1.0
