# generated using pymatgen
data_AlH21C45(NO3)6
_symmetry_space_group_name_H-M   'P 1'
_cell_length_a   4.04604000
_cell_length_b   23.42730000
_cell_length_c   23.47400000
_cell_angle_alpha   60.17280000
_cell_angle_beta   88.12490000
_cell_angle_gamma   87.64130000
_symmetry_Int_Tables_number   1
_chemical_formula_structural   AlH21C45(NO3)6
_chemical_formula_sum   'Al1 H21 C45 N6 O18'
_cell_volume   1928.46711397
_cell_formula_units_Z   1
loop_
 _symmetry_equiv_pos_site_id
 _symmetry_equiv_pos_as_xyz
  1  'x, y, z'
loop_
 _atom_site_type_symbol
 _atom_site_label
 _atom_site_symmetry_multiplicity
 _atom_site_fract_x
 _atom_site_fract_y
 _atom_site_fract_z
 _atom_site_occupancy
  Al  Al0  1  0.87376000  0.50075000  0.50038000  1.0
  H  H1  1  0.51290000  0.33130000  0.66990000  1.0
  H  H2  1  0.57501000  0.21181000  0.74061000  1.0
  H  H3  1  0.34771000  0.97990000  0.85029000  1.0
  H  H4  1  0.37843000  0.74046000  0.18813000  1.0
  H  H5  1  0.76335000  0.76179000  0.11351000  1.0
  H  H6  1  0.81950000  0.82632000  0.99437000  1.0
  H  H7  1  0.60798000  0.88848000  0.90002000  1.0
  H  H8  1  0.51236000  0.49860000  0.33063000  1.0
  H  H9  1  0.58154000  0.54714000  0.21147000  1.0
  H  H10  1  0.35377000  0.67183000  0.97955000  1.0
  H  H11  1  0.27298000  0.57788000  0.73851000  1.0
  H  H12  1  0.71820000  0.62224000  0.76084000  1.0
  H  H13  1  0.79574000  0.67590000  0.82590000  1.0
  H  H14  1  0.57825000  0.71095000  0.88900000  1.0
  H  H15  1  0.52376000  0.66851000  0.50123000  1.0
  H  H16  1  0.57072000  0.73934000  0.55012000  1.0
  H  H17  1  0.29985000  0.85065000  0.67589000  1.0
  H  H18  1  0.39798000  0.18688000  0.57350000  1.0
  H  H19  1  0.78729000  0.11133000  0.62450000  1.0
  H  H20  1  0.84035000  0.99143000  0.67918000  1.0
  H  H21  1  0.58353000  0.89901000  0.71215000  1.0
  C  C22  1  0.39176000  0.40100000  0.54232000  1.0
  C  C23  1  0.35549000  0.54332000  0.55776000  1.0
  C  C24  1  0.38223000  0.55768000  0.40085000  1.0
  C  C25  1  0.48825000  0.29918000  0.64911000  1.0
  C  C26  1  0.52046000  0.23134000  0.68913000  1.0
  C  C27  1  0.41664000  0.07552000  0.76858000  1.0
  C  C28  1  0.44874000  0.00721000  0.80062000  1.0
  C  C29  1  0.38480000  0.65909000  0.28562000  1.0
  C  C30  1  0.41492000  0.68732000  0.21778000  1.0
  C  C31  1  0.66385000  0.74270000  0.08390000  1.0
  C  C32  1  0.69697000  0.77933000  0.01601000  1.0
  C  C33  1  0.42531000  0.32740000  0.58196000  1.0
  C  C34  1  0.48856000  0.18877000  0.66359000  1.0
  C  C35  1  0.52288000  0.11613000  0.70308000  1.0
  C  C36  1  0.59048000  0.97466000  0.76912000  1.0
  C  C37  1  0.60066000  0.90199000  0.80229000  1.0
  C  C38  1  0.60461000  0.86391000  0.87101000  1.0
  C  C39  1  0.48343000  0.55173000  0.29891000  1.0
  C  C40  1  0.51895000  0.57943000  0.23126000  1.0
  C  C41  1  0.41672000  0.65708000  0.07535000  1.0
  C  C42  1  0.44876000  0.69327000  0.00731000  1.0
  C  C43  1  0.30557000  0.55986000  0.65798000  1.0
  C  C44  1  0.33144000  0.59935000  0.68640000  1.0
  C  C45  1  0.61999000  0.67223000  0.74279000  1.0
  C  C46  1  0.66431000  0.70279000  0.77963000  1.0
  C  C47  1  0.41337000  0.59113000  0.32746000  1.0
  C  C48  1  0.48048000  0.64781000  0.18919000  1.0
  C  C49  1  0.51434000  0.68082000  0.11676000  1.0
  C  C50  1  0.58338000  0.75588000  0.97565000  1.0
  C  C51  1  0.59701000  0.79504000  0.90314000  1.0
  C  C52  1  0.58766000  0.76439000  0.86491000  1.0
  C  C53  1  0.46759000  0.64903000  0.55329000  1.0
  C  C54  1  0.49224000  0.68908000  0.58098000  1.0
  C  C55  1  0.35515000  0.76942000  0.65945000  1.0
  C  C56  1  0.39896000  0.80058000  0.69587000  1.0
  C  C57  1  0.40045000  0.28496000  0.55666000  1.0
  C  C58  1  0.42968000  0.21692000  0.59630000  1.0
  C  C59  1  0.68127000  0.08229000  0.67364000  1.0
  C  C60  1  0.71304000  0.01412000  0.70488000  1.0
  C  C61  1  0.37273000  0.58345000  0.59134000  1.0
  C  C62  1  0.42380000  0.66485000  0.64817000  1.0
  C  C63  1  0.45985000  0.70360000  0.68175000  1.0
  C  C64  1  0.55101000  0.76795000  0.75712000  1.0
  C  C65  1  0.58145000  0.80107000  0.79622000  1.0
  C  C66  1  0.59062000  0.86986000  0.76554000  1.0
  N  N67  1  0.19391000  0.49209000  0.70033000  1.0
  N  N68  1  0.32946000  0.31134000  0.48661000  1.0
  N  N69  1  0.30827000  0.70338000  0.31229000  1.0
  N  N70  1  0.17211000  0.80976000  0.59773000  1.0
  N  N71  1  0.24672000  0.10112000  0.80837000  1.0
  N  N72  1  0.25729000  0.59322000  0.09957000  1.0
  O  O73  1  0.60505000  0.56688000  0.43205000  1.0
  O  O74  1  0.62369000  0.43216000  0.50240000  1.0
  O  O75  1  0.59370000  0.50302000  0.56619000  1.0
  O  O76  1  0.14431000  0.51858000  0.42563000  1.0
  O  O77  1  0.11624000  0.55792000  0.51879000  1.0
  O  O78  1  0.14121000  0.42587000  0.55690000  1.0
  O  O79  1  0.13013000  0.46015000  0.67308000  1.0
  O  O80  1  0.16695000  0.47154000  0.76015000  1.0
  O  O81  1  0.21111000  0.36823000  0.45606000  1.0
  O  O82  1  0.38998000  0.27494000  0.46305000  1.0
  O  O83  1  0.16787000  0.67931000  0.36677000  1.0
  O  O84  1  0.38697000  0.76163000  0.27832000  1.0
  O  O85  1  0.00784000  0.78069000  0.57682000  1.0
  O  O86  1  0.18664000  0.87033000  0.57163000  1.0
  O  O87  1  0.04598000  0.14786000  0.78050000  1.0
  O  O88  1  0.31037000  0.07280000  0.86758000  1.0
  O  O89  1  0.06138000  0.57492000  0.14672000  1.0
  O  O90  1  0.32379000  0.56293000  0.06977000  1.0
