# generated using pymatgen
data_KH5C6NO3
_symmetry_space_group_name_H-M   'P 1'
_cell_length_a   3.73154000
_cell_length_b   7.91621000
_cell_length_c   26.54220000
_cell_angle_alpha   89.99900000
_cell_angle_beta   86.33190000
_cell_angle_gamma   89.99950000
_symmetry_Int_Tables_number   1
_chemical_formula_structural   KH5C6NO3
_chemical_formula_sum   'K4 H20 C24 N4 O12'
_cell_volume   782.44120593
_cell_formula_units_Z   4
loop_
 _symmetry_equiv_pos_site_id
 _symmetry_equiv_pos_as_xyz
  1  'x, y, z'
loop_
 _atom_site_type_symbol
 _atom_site_label
 _atom_site_symmetry_multiplicity
 _atom_site_fract_x
 _atom_site_fract_y
 _atom_site_fract_z
 _atom_site_occupancy
  K  K0  1  0.06814000  0.27431000  0.77739000  1.0
  K  K1  1  0.93195000  0.77430000  0.72262000  1.0
  K  K2  1  0.93187000  0.72571000  0.22261000  1.0
  K  K3  1  0.06811000  0.22571000  0.27738000  1.0
  H  H4  1  0.49128000  0.57182000  0.82625000  1.0
  H  H5  1  0.50874000  0.07182000  0.67375000  1.0
  H  H6  1  0.50874000  0.42818000  0.17375000  1.0
  H  H7  1  0.49126000  0.92818000  0.32625000  1.0
  H  H8  1  0.51770000  0.45511000  0.87401000  1.0
  H  H9  1  0.48230000  0.95512000  0.62600000  1.0
  H  H10  1  0.48231000  0.54489000  0.12600000  1.0
  H  H11  1  0.51770000  0.04490000  0.37401000  1.0
  H  H12  1  0.47983000  0.67111000  0.61968000  1.0
  H  H13  1  0.52016000  0.17109000  0.88032000  1.0
  H  H14  1  0.52014000  0.32890000  0.38032000  1.0
  H  H15  1  0.47984000  0.82890000  0.11967000  1.0
  H  H16  1  0.94747000  0.17609000  0.61683000  1.0
  H  H17  1  0.05253000  0.67609000  0.88317000  1.0
  H  H18  1  0.05247000  0.82392000  0.38317000  1.0
  H  H19  1  0.94749000  0.32391000  0.11682000  1.0
  H  H20  1  0.15613000  0.22993000  0.52533000  1.0
  H  H21  1  0.84383000  0.72993000  0.97467000  1.0
  H  H22  1  0.84383000  0.77007000  0.47467000  1.0
  H  H23  1  0.15614000  0.27006000  0.02532000  1.0
  C  C24  1  0.93485000  0.48078000  0.52631000  1.0
  C  C25  1  0.06515000  0.98077000  0.97369000  1.0
  C  C26  1  0.06515000  0.51923000  0.47369000  1.0
  C  C27  1  0.93486000  0.01922000  0.02631000  1.0
  C  C28  1  0.63418000  0.57195000  0.59964000  1.0
  C  C29  1  0.36584000  0.07194000  0.90036000  1.0
  C  C30  1  0.36580000  0.42806000  0.40036000  1.0
  C  C31  1  0.63416000  0.92805000  0.09964000  1.0
  C  C32  1  0.69477000  0.42016000  0.62495000  1.0
  C  C33  1  0.30525000  0.92013000  0.87506000  1.0
  C  C34  1  0.30520000  0.57986000  0.37506000  1.0
  C  C35  1  0.69477000  0.07985000  0.12494000  1.0
  C  C36  1  0.88692000  0.29407000  0.59792000  1.0
  C  C37  1  0.11310000  0.79406000  0.90208000  1.0
  C  C38  1  0.11306000  0.70593000  0.40208000  1.0
  C  C39  1  0.88691000  0.20592000  0.09792000  1.0
  C  C40  1  0.00433000  0.32326000  0.54798000  1.0
  C  C41  1  0.99566000  0.82325000  0.95202000  1.0
  C  C42  1  0.99565000  0.67673000  0.45202000  1.0
  C  C43  1  0.00434000  0.17673000  0.04797000  1.0
  C  C44  1  0.55800000  0.39670000  0.67904000  1.0
  C  C45  1  0.44206000  0.89672000  0.82096000  1.0
  C  C46  1  0.44199000  0.60330000  0.32096000  1.0
  C  C47  1  0.55799000  0.10329000  0.17903000  1.0
  N  N48  1  0.75152000  0.60396000  0.55205000  1.0
  N  N49  1  0.24848000  0.10394000  0.94795000  1.0
  N  N50  1  0.24847000  0.39606000  0.44795000  1.0
  N  N51  1  0.75152000  0.89604000  0.05205000  1.0
  O  O52  1  0.59848000  0.25128000  0.69911000  1.0
  O  O53  1  0.40160000  0.75127000  0.80089000  1.0
  O  O54  1  0.40153000  0.74874000  0.30089000  1.0
  O  O55  1  0.59847000  0.24872000  0.19911000  1.0
  O  O56  1  0.41395000  0.52142000  0.70244000  1.0
  O  O57  1  0.58605000  0.02142000  0.79756000  1.0
  O  O58  1  0.58604000  0.47859000  0.29756000  1.0
  O  O59  1  0.41395000  0.97858000  0.20244000  1.0
  O  O60  1  0.55802000  0.45461000  0.83751000  1.0
  O  O61  1  0.44200000  0.95461000  0.66249000  1.0
  O  O62  1  0.44199000  0.54539000  0.16249000  1.0
  O  O63  1  0.55802000  0.04539000  0.33751000  1.0
