# generated using pymatgen
data_CdH6C5N2O5
_symmetry_space_group_name_H-M   'P 1'
_cell_length_a   7.54454000
_cell_length_b   7.72553000
_cell_length_c   14.05540000
_cell_angle_alpha   90.00000000
_cell_angle_beta   90.00000000
_cell_angle_gamma   89.99990000
_symmetry_Int_Tables_number   1
_chemical_formula_structural   CdH6C5N2O5
_chemical_formula_sum   'Cd4 H24 C20 N8 O20'
_cell_volume   819.22700207
_cell_formula_units_Z   4
loop_
 _symmetry_equiv_pos_site_id
 _symmetry_equiv_pos_as_xyz
  1  'x, y, z'
loop_
 _atom_site_type_symbol
 _atom_site_label
 _atom_site_symmetry_multiplicity
 _atom_site_fract_x
 _atom_site_fract_y
 _atom_site_fract_z
 _atom_site_occupancy
  Cd  Cd0  1  0.75000000  0.99826000  0.32394000  1.0
  Cd  Cd1  1  0.75000000  0.49826000  0.17606000  1.0
  Cd  Cd2  1  0.25000000  0.50174000  0.82394000  1.0
  Cd  Cd3  1  0.25000000  0.00174000  0.67606000  1.0
  H  H4  1  0.09302000  0.95479000  0.25709000  1.0
  H  H5  1  0.09302000  0.45479000  0.24291000  1.0
  H  H6  1  0.40698000  0.95479000  0.25709000  1.0
  H  H7  1  0.59302000  0.54521000  0.75709000  1.0
  H  H8  1  0.90698000  0.04521000  0.74291000  1.0
  H  H9  1  0.90698000  0.54521000  0.75709000  1.0
  H  H10  1  0.59302000  0.04521000  0.74291000  1.0
  H  H11  1  0.40698000  0.45479000  0.24291000  1.0
  H  H12  1  0.09451000  0.92391000  0.37286000  1.0
  H  H13  1  0.09451000  0.42391000  0.12714000  1.0
  H  H14  1  0.40549000  0.92391000  0.37286000  1.0
  H  H15  1  0.59451000  0.57610000  0.87286000  1.0
  H  H16  1  0.90549000  0.07609000  0.62714000  1.0
  H  H17  1  0.90549000  0.57610000  0.87286000  1.0
  H  H18  1  0.59451000  0.07609000  0.62714000  1.0
  H  H19  1  0.40549000  0.42391000  0.12714000  1.0
  H  H20  1  0.09350000  0.12205000  0.32976000  1.0
  H  H21  1  0.09350000  0.62206000  0.17024000  1.0
  H  H22  1  0.40650000  0.12205000  0.32976000  1.0
  H  H23  1  0.59350000  0.37795000  0.82976000  1.0
  H  H24  1  0.90650000  0.87795000  0.67024000  1.0
  H  H25  1  0.90650000  0.37795000  0.82976000  1.0
  H  H26  1  0.59350000  0.87795000  0.67024000  1.0
  H  H27  1  0.40650000  0.62205000  0.17024000  1.0
  C  C28  1  0.75000000  0.61559000  0.40485000  1.0
  C  C29  1  0.75000000  0.11559000  0.09515000  1.0
  C  C30  1  0.25000000  0.88442000  0.90485000  1.0
  C  C31  1  0.25000000  0.38441000  0.59515000  1.0
  C  C32  1  0.75000000  0.72245000  0.49037000  1.0
  C  C33  1  0.75000000  0.22245000  0.00963000  1.0
  C  C34  1  0.25000000  0.77755000  0.99038000  1.0
  C  C35  1  0.25000000  0.27755000  0.50963000  1.0
  C  C36  1  0.75000000  0.60511000  0.57252000  1.0
  C  C37  1  0.75000000  0.10511000  0.92748000  1.0
  C  C38  1  0.25000000  0.89489000  0.07253000  1.0
  C  C39  1  0.25000000  0.39488000  0.42748000  1.0
  C  C40  1  0.75000000  0.42337000  0.53726000  1.0
  C  C41  1  0.75000000  0.92337000  0.96274000  1.0
  C  C42  1  0.25000000  0.07663000  0.03726000  1.0
  C  C43  1  0.25000000  0.57663000  0.46274000  1.0
  C  C44  1  0.75000000  0.43210000  0.43137000  1.0
  C  C45  1  0.75000000  0.93209000  0.06863000  1.0
  C  C46  1  0.25000000  0.06791000  0.93137000  1.0
  C  C47  1  0.25000000  0.56790000  0.56863000  1.0
  N  N48  1  0.04220000  0.00025000  0.32018000  1.0
  N  N49  1  0.04220000  0.50025000  0.17983000  1.0
  N  N50  1  0.45780000  0.00024000  0.32018000  1.0
  N  N51  1  0.54220000  0.49976000  0.82018000  1.0
  N  N52  1  0.95780000  0.99975000  0.67982000  1.0
  N  N53  1  0.95780000  0.49975000  0.82017000  1.0
  N  N54  1  0.54220000  0.99975000  0.67982000  1.0
  N  N55  1  0.45780000  0.50025000  0.17982000  1.0
  O  O56  1  0.75000000  0.67568000  0.32107000  1.0
  O  O57  1  0.75000000  0.17567000  0.17893000  1.0
  O  O58  1  0.25000000  0.82433000  0.82108000  1.0
  O  O59  1  0.25000000  0.32432000  0.67893000  1.0
  O  O60  1  0.75000000  0.88545000  0.49180000  1.0
  O  O61  1  0.75000000  0.38545000  0.00820000  1.0
  O  O62  1  0.25000000  0.61455000  0.99180000  1.0
  O  O63  1  0.25000000  0.11455000  0.50820000  1.0
  O  O64  1  0.75000000  0.65212000  0.65838000  1.0
  O  O65  1  0.75000000  0.15211000  0.84161000  1.0
  O  O66  1  0.25000000  0.84789000  0.15839000  1.0
  O  O67  1  0.25000000  0.34788000  0.34161000  1.0
  O  O68  1  0.75000000  0.29144000  0.58821000  1.0
  O  O69  1  0.75000000  0.79144000  0.91179000  1.0
  O  O70  1  0.25000000  0.20856000  0.08821000  1.0
  O  O71  1  0.25000000  0.70856000  0.41179000  1.0
  O  O72  1  0.75000000  0.31083000  0.37213000  1.0
  O  O73  1  0.75000000  0.81083000  0.12787000  1.0
  O  O74  1  0.25000000  0.18917000  0.87213000  1.0
  O  O75  1  0.25000000  0.68916000  0.62787000  1.0
