# generated using pymatgen
data_CdH9C9S2N3
_symmetry_space_group_name_H-M   'P 1'
_cell_length_a   5.76286000
_cell_length_b   13.03000000
_cell_length_c   15.90380000
_cell_angle_alpha   87.62050000
_cell_angle_beta   89.99910000
_cell_angle_gamma   89.99750000
_symmetry_Int_Tables_number   1
_chemical_formula_structural   CdH9C9S2N3
_chemical_formula_sum   'Cd4 H36 C36 S8 N12'
_cell_volume   1193.18767201
_cell_formula_units_Z   4
loop_
 _symmetry_equiv_pos_site_id
 _symmetry_equiv_pos_as_xyz
  1  'x, y, z'
loop_
 _atom_site_type_symbol
 _atom_site_label
 _atom_site_symmetry_multiplicity
 _atom_site_fract_x
 _atom_site_fract_y
 _atom_site_fract_z
 _atom_site_occupancy
  Cd  Cd0  1  0.60280000  0.45424000  0.62128000  1.0
  Cd  Cd1  1  0.10276000  0.04575000  0.87872000  1.0
  Cd  Cd2  1  0.39721000  0.54576000  0.37871000  1.0
  Cd  Cd3  1  0.89720000  0.95425000  0.12128000  1.0
  H  H4  1  0.81330000  0.61952000  0.74048000  1.0
  H  H5  1  0.31329000  0.88047000  0.75952000  1.0
  H  H6  1  0.18673000  0.38046000  0.25953000  1.0
  H  H7  1  0.68671000  0.11954000  0.24049000  1.0
  H  H8  1  0.74945000  0.70086000  0.87805000  1.0
  H  H9  1  0.24945000  0.79913000  0.62195000  1.0
  H  H10  1  0.25059000  0.29912000  0.12195000  1.0
  H  H11  1  0.75059000  0.20088000  0.37806000  1.0
  H  H12  1  0.11800000  0.52352000  0.90306000  1.0
  H  H13  1  0.61798000  0.97649000  0.59694000  1.0
  H  H14  1  0.88201000  0.47650000  0.09693000  1.0
  H  H15  1  0.38203000  0.02349000  0.40306000  1.0
  H  H16  1  0.20859000  0.44935000  0.76624000  1.0
  H  H17  1  0.70856000  0.05066000  0.73376000  1.0
  H  H18  1  0.79142000  0.55066000  0.23375000  1.0
  H  H19  1  0.29142000  0.94932000  0.26624000  1.0
  H  H20  1  0.54859000  0.65661000  0.02507000  1.0
  H  H21  1  0.04860000  0.84339000  0.47492000  1.0
  H  H22  1  0.45142000  0.34340000  0.97493000  1.0
  H  H23  1  0.95141000  0.15661000  0.52507000  1.0
  H  H24  1  0.36528000  0.74824000  0.97754000  1.0
  H  H25  1  0.86531000  0.75176000  0.52247000  1.0
  H  H26  1  0.63471000  0.25176000  0.02246000  1.0
  H  H27  1  0.13471000  0.24824000  0.47753000  1.0
  H  H28  1  0.17440000  0.65610000  0.10029000  1.0
  H  H29  1  0.67441000  0.84390000  0.39971000  1.0
  H  H30  1  0.82560000  0.34390000  0.89971000  1.0
  H  H31  1  0.32557000  0.15611000  0.60029000  1.0
  H  H32  1  0.20044000  0.53761000  0.04959000  1.0
  H  H33  1  0.70044000  0.96239000  0.45041000  1.0
  H  H34  1  0.79956000  0.46239000  0.95040000  1.0
  H  H35  1  0.29956000  0.03761000  0.54960000  1.0
  H  H36  1  0.01718000  0.63711000  0.00687000  1.0
  H  H37  1  0.51719000  0.86289000  0.49313000  1.0
  H  H38  1  0.98283000  0.36289000  0.99312000  1.0
  H  H39  1  0.48282000  0.13711000  0.50688000  1.0
  C  C40  1  0.09034000  0.33458000  0.64742000  1.0
  C  C41  1  0.59028000  0.16541000  0.85259000  1.0
  C  C42  1  0.90965000  0.66542000  0.35259000  1.0
  C  C43  1  0.40965000  0.83459000  0.14740000  1.0
  C  C44  1  0.09957000  0.58497000  0.57331000  1.0
  C  C45  1  0.59957000  0.91503000  0.92669000  1.0
  C  C46  1  0.90044000  0.41503000  0.42669000  1.0
  C  C47  1  0.40039000  0.08498000  0.07331000  1.0
  C  C48  1  0.66164000  0.60047000  0.77918000  1.0
  C  C49  1  0.16164000  0.89952000  0.72082000  1.0
  C  C50  1  0.33840000  0.39952000  0.22082000  1.0
  C  C51  1  0.83838000  0.10048000  0.27919000  1.0
  C  C52  1  0.62441000  0.64528000  0.85569000  1.0
  C  C53  1  0.12441000  0.85472000  0.64431000  1.0
  C  C54  1  0.37562000  0.35471000  0.14432000  1.0
  C  C55  1  0.87562000  0.14529000  0.35569000  1.0
  C  C56  1  0.42739000  0.61863000  0.90402000  1.0
  C  C57  1  0.92739000  0.88137000  0.59598000  1.0
  C  C58  1  0.57263000  0.38137000  0.09598000  1.0
  C  C59  1  0.07264000  0.11862000  0.40401000  1.0
  C  C60  1  0.27521000  0.54761000  0.86997000  1.0
  C  C61  1  0.77521000  0.95239000  0.63003000  1.0
  C  C62  1  0.72479000  0.45239000  0.13003000  1.0
  C  C63  1  0.22480000  0.04760000  0.36997000  1.0
  C  C64  1  0.32449000  0.50557000  0.79294000  1.0
  C  C65  1  0.82447000  0.99443000  0.70706000  1.0
  C  C66  1  0.67550000  0.49442000  0.20706000  1.0
  C  C67  1  0.17551000  0.00557000  0.29294000  1.0
  C  C68  1  0.38740000  0.66472000  0.98802000  1.0
  C  C69  1  0.88742000  0.83528000  0.51198000  1.0
  C  C70  1  0.61261000  0.33528000  0.01198000  1.0
  C  C71  1  0.11260000  0.16472000  0.48801000  1.0
  C  C72  1  0.18341000  0.62114000  0.03885000  1.0
  C  C73  1  0.68341000  0.87886000  0.46115000  1.0
  C  C74  1  0.81659000  0.37886000  0.96115000  1.0
  C  C75  1  0.31659000  0.12114000  0.53885000  1.0
  S  S76  1  0.84438000  0.29474000  0.68760000  1.0
  S  S77  1  0.34432000  0.20527000  0.81241000  1.0
  S  S78  1  0.15562000  0.70527000  0.31240000  1.0
  S  S79  1  0.65561000  0.79474000  0.18758000  1.0
  S  S80  1  0.35709000  0.62132000  0.54044000  1.0
  S  S81  1  0.85708000  0.87867000  0.95956000  1.0
  S  S82  1  0.64293000  0.37867000  0.45957000  1.0
  S  S83  1  0.14287000  0.12134000  0.04043000  1.0
  N  N84  1  0.26949000  0.36207000  0.61803000  1.0
  N  N85  1  0.76942000  0.13792000  0.88198000  1.0
  N  N86  1  0.73052000  0.63793000  0.38197000  1.0
  N  N87  1  0.23051000  0.86208000  0.11801000  1.0
  N  N88  1  0.91359000  0.56219000  0.59899000  1.0
  N  N89  1  0.41357000  0.93781000  0.90101000  1.0
  N  N90  1  0.08642000  0.43781000  0.40100000  1.0
  N  N91  1  0.58638000  0.06220000  0.09899000  1.0
  N  N92  1  0.51517000  0.53080000  0.74805000  1.0
  N  N93  1  0.01514000  0.96920000  0.75195000  1.0
  N  N94  1  0.48486000  0.46920000  0.25194000  1.0
  N  N95  1  0.98485000  0.03080000  0.24806000  1.0
