# generated using pymatgen
data_Zn2H24C41S2N2(O4F3)2
_symmetry_space_group_name_H-M   'P 1'
_cell_length_a   10.94450000
_cell_length_b   10.94520000
_cell_length_c   20.19620000
_cell_angle_alpha   78.23410000
_cell_angle_beta   88.99110000
_cell_angle_gamma   74.20880000
_symmetry_Int_Tables_number   1
_chemical_formula_structural   Zn2H24C41S2N2(O4F3)2
_chemical_formula_sum   'Zn4 H48 C82 S4 N4 O16 F12'
_cell_volume   2277.23555048
_cell_formula_units_Z   2
loop_
 _symmetry_equiv_pos_site_id
 _symmetry_equiv_pos_as_xyz
  1  'x, y, z'
loop_
 _atom_site_type_symbol
 _atom_site_label
 _atom_site_symmetry_multiplicity
 _atom_site_fract_x
 _atom_site_fract_y
 _atom_site_fract_z
 _atom_site_occupancy
  Zn  Zn0  1  0.65649000  0.67299000  0.22298000  1.0
  Zn  Zn1  1  0.34351000  0.32701000  0.77702000  1.0
  Zn  Zn2  1  0.64840000  0.72522000  0.07470000  1.0
  Zn  Zn3  1  0.35160000  0.27478000  0.92530000  1.0
  H  H4  1  0.24875000  0.77168000  0.04863000  1.0
  H  H5  1  0.75124000  0.22833000  0.95137000  1.0
  H  H6  1  0.66099000  0.28255000  0.24825000  1.0
  H  H7  1  0.33902000  0.71744000  0.75175000  1.0
  H  H8  1  0.64564000  0.34969000  0.03132000  1.0
  H  H9  1  0.35436000  0.65031000  0.96868000  1.0
  H  H10  1  0.05881000  0.61017000  0.26293000  1.0
  H  H11  1  0.94119000  0.38983000  0.73707000  1.0
  H  H12  1  0.28207000  0.63081000  0.26394000  1.0
  H  H13  1  0.71793000  0.36919000  0.73606000  1.0
  H  H14  1  0.02670000  0.74792000  0.04742000  1.0
  H  H15  1  0.97329000  0.25209000  0.95259000  1.0
  H  H16  1  0.62988000  0.12412000  0.03703000  1.0
  H  H17  1  0.37013000  0.87587000  0.96297000  1.0
  H  H18  1  0.88623000  0.26777000  0.38303000  1.0
  H  H19  1  0.11377000  0.73224000  0.61698000  1.0
  H  H20  1  0.64406000  0.05476000  0.25414000  1.0
  H  H21  1  0.35595000  0.94524000  0.74586000  1.0
  H  H22  1  0.50165000  0.63501000  0.35292000  1.0
  H  H23  1  0.49835000  0.36499000  0.64708000  1.0
  H  H24  1  0.86204000  0.46980000  0.29370000  1.0
  H  H25  1  0.13796000  0.53020000  0.70631000  1.0
  H  H26  1  0.51098000  0.44325000  0.44641000  1.0
  H  H27  1  0.48901000  0.55675000  0.55359000  1.0
  H  H28  1  0.67573000  0.58513000  0.96230000  1.0
  H  H29  1  0.32427000  0.41487000  0.03771000  1.0
  H  H30  1  0.76758000  0.07613000  0.40920000  1.0
  H  H31  1  0.23242000  0.92387000  0.59080000  1.0
  H  H32  1  0.76772000  0.67169000  0.73569000  1.0
  H  H33  1  0.23227000  0.32831000  0.26431000  1.0
  H  H34  1  0.49303000  0.08729000  0.62205000  1.0
  H  H35  1  0.50698000  0.91272000  0.37795000  1.0
  H  H36  1  0.53903000  0.94335000  0.58893000  1.0
  H  H37  1  0.46097000  0.05665000  0.41107000  1.0
  H  H38  1  0.49048000  0.09777000  0.53296000  1.0
  H  H39  1  0.50952000  0.90224000  0.46704000  1.0
  H  H40  1  0.67899000  0.02627000  0.84917000  1.0
  H  H41  1  0.32101000  0.97373000  0.15083000  1.0
  H  H42  1  0.95233000  0.93046000  0.68612000  1.0
  H  H43  1  0.04767000  0.06954000  0.31389000  1.0
  H  H44  1  0.90085000  0.09061000  0.63583000  1.0
  H  H45  1  0.09915000  0.90939000  0.36417000  1.0
  H  H46  1  0.94682000  0.95532000  0.59582000  1.0
  H  H47  1  0.05318000  0.04468000  0.40418000  1.0
  H  H48  1  0.64558000  0.96599000  0.97250000  1.0
  H  H49  1  0.35442000  0.03401000  0.02751000  1.0
  H  H50  1  0.70840000  0.62720000  0.83849000  1.0
  H  H51  1  0.29160000  0.37280000  0.16151000  1.0
  C  C52  1  0.20661000  0.73543000  0.09515000  1.0
  C  C53  1  0.79338000  0.26457000  0.90485000  1.0
  C  C54  1  0.03082000  0.67694000  0.15499000  1.0
  C  C55  1  0.96918000  0.32306000  0.84501000  1.0
  C  C56  1  0.65487000  0.24565000  0.20255000  1.0
  C  C57  1  0.34514000  0.75434000  0.79745000  1.0
  C  C58  1  0.64703000  0.28392000  0.07987000  1.0
  C  C59  1  0.35298000  0.71607000  0.92013000  1.0
  C  C60  1  0.66594000  0.46264000  0.13596000  1.0
  C  C61  1  0.33406000  0.53736000  0.86404000  1.0
  C  C62  1  0.63758000  0.07615000  0.14605000  1.0
  C  C63  1  0.36242000  0.92385000  0.85394000  1.0
  C  C64  1  0.65668000  0.32763000  0.13953000  1.0
  C  C65  1  0.34333000  0.67237000  0.86046000  1.0
  C  C66  1  0.10220000  0.64373000  0.21623000  1.0
  C  C67  1  0.89780000  0.35627000  0.78377000  1.0
  C  C68  1  0.22527000  0.65623000  0.21686000  1.0
  C  C69  1  0.77473000  0.34377000  0.78314000  1.0
  C  C70  1  0.08385000  0.72224000  0.09440000  1.0
  C  C71  1  0.91615000  0.27777000  0.90560000  1.0
  C  C72  1  0.89587000  0.67043000  0.15468000  1.0
  C  C73  1  0.10413000  0.32957000  0.84533000  1.0
  C  C74  1  0.63804000  0.15870000  0.08317000  1.0
  C  C75  1  0.36196000  0.84130000  0.91683000  1.0
  C  C76  1  0.41069000  0.71566000  0.15681000  1.0
  C  C77  1  0.58930000  0.28434000  0.84320000  1.0
  C  C78  1  0.27795000  0.70284000  0.15630000  1.0
  C  C79  1  0.72205000  0.29717000  0.84370000  1.0
  C  C80  1  0.63122000  0.94039000  0.14890000  1.0
  C  C81  1  0.36878000  0.05961000  0.85110000  1.0
  C  C82  1  0.79925000  0.34688000  0.37803000  1.0
  C  C83  1  0.20075000  0.65313000  0.62198000  1.0
  C  C84  1  0.64527000  0.12051000  0.20584000  1.0
  C  C85  1  0.35474000  0.87949000  0.79416000  1.0
  C  C86  1  0.58604000  0.55260000  0.36245000  1.0
  C  C87  1  0.41396000  0.44740000  0.63755000  1.0
  C  C88  1  0.69908000  0.33820000  0.42145000  1.0
  C  C89  1  0.30092000  0.66180000  0.57855000  1.0
  C  C90  1  0.78728000  0.45864000  0.32885000  1.0
  C  C91  1  0.21272000  0.54136000  0.67115000  1.0
  C  C92  1  0.74157000  0.99712000  0.51698000  1.0
  C  C93  1  0.25843000  0.00288000  0.48302000  1.0
  C  C94  1  0.59153000  0.44560000  0.41418000  1.0
  C  C95  1  0.40847000  0.55440000  0.58582000  1.0
  C  C96  1  0.78142000  0.86429000  0.52684000  1.0
  C  C97  1  0.21858000  0.13571000  0.47317000  1.0
  C  C98  1  0.67731000  0.68108000  0.93455000  1.0
  C  C99  1  0.32269000  0.31892000  0.06545000  1.0
  C  C100  1  0.76616000  0.83383000  0.65038000  1.0
  C  C101  1  0.23384000  0.16617000  0.34962000  1.0
  C  C102  1  0.71704000  0.86310000  0.76032000  1.0
  C  C103  1  0.28296000  0.13690000  0.23968000  1.0
  C  C104  1  0.74247000  0.09526000  0.45925000  1.0
  C  C105  1  0.25753000  0.90474000  0.54075000  1.0
  C  C106  1  0.70777000  0.21887000  0.47178000  1.0
  C  C107  1  0.29223000  0.78112000  0.52822000  1.0
  C  C108  1  0.79235000  0.65161000  0.50945000  1.0
  C  C109  1  0.20765000  0.34839000  0.49055000  1.0
  C  C110  1  0.75308000  0.77570000  0.71823000  1.0
  C  C111  1  0.24692000  0.22430000  0.28177000  1.0
  C  C112  1  0.82480000  0.78085000  0.47625000  1.0
  C  C113  1  0.17521000  0.21915000  0.52375000  1.0
  C  C114  1  0.68046000  0.05293000  0.57749000  1.0
  C  C115  1  0.31955000  0.94707000  0.42251000  1.0
  C  C116  1  0.76178000  0.97770000  0.64173000  1.0
  C  C117  1  0.23822000  0.02230000  0.35828000  1.0
  C  C118  1  0.54171000  0.04487000  0.58081000  1.0
  C  C119  1  0.45829000  0.95513000  0.41919000  1.0
  C  C120  1  0.67918000  0.92699000  0.87186000  1.0
  C  C121  1  0.32082000  0.07301000  0.12814000  1.0
  C  C122  1  0.69769000  0.83167000  0.83262000  1.0
  C  C123  1  0.30231000  0.16833000  0.16738000  1.0
  C  C124  1  0.89944000  0.98966000  0.63966000  1.0
  C  C125  1  0.10056000  0.01034000  0.36034000  1.0
  C  C126  1  0.78286000  0.78288000  0.59293000  1.0
  C  C127  1  0.21714000  0.21712000  0.40707000  1.0
  C  C128  1  0.80449000  0.64465000  0.58748000  1.0
  C  C129  1  0.19550000  0.35535000  0.41252000  1.0
  C  C130  1  0.66081000  0.89454000  0.94061000  1.0
  C  C131  1  0.33919000  0.10547000  0.05939000  1.0
  C  C132  1  0.69622000  0.70575000  0.86568000  1.0
  C  C133  1  0.30378000  0.29425000  0.13433000  1.0
  S  S134  1  0.67527000  0.22700000  0.55562000  1.0
  S  S135  1  0.32474000  0.77300000  0.44438000  1.0
  S  S136  1  0.69300000  0.02514000  0.71984000  1.0
  S  S137  1  0.30700000  0.97486000  0.28016000  1.0
  N  N138  1  0.68163000  0.55934000  0.32034000  1.0
  N  N139  1  0.31837000  0.44066000  0.67966000  1.0
  N  N140  1  0.66002000  0.77370000  0.97159000  1.0
  N  N141  1  0.33998000  0.22630000  0.02841000  1.0
  O  O142  1  0.66414000  0.53385000  0.07732000  1.0
  O  O143  1  0.33585000  0.46615000  0.92267000  1.0
  O  O144  1  0.63269000  0.86838000  0.20726000  1.0
  O  O145  1  0.36731000  0.13163000  0.79274000  1.0
  O  O146  1  0.83972000  0.68992000  0.09747000  1.0
  O  O147  1  0.16027000  0.31009000  0.90253000  1.0
  O  O148  1  0.67325000  0.49693000  0.19180000  1.0
  O  O149  1  0.32675000  0.50306000  0.80820000  1.0
  O  O150  1  0.62590000  0.90756000  0.09226000  1.0
  O  O151  1  0.37409000  0.09244000  0.90774000  1.0
  O  O152  1  0.45932000  0.74098000  0.09963000  1.0
  O  O153  1  0.54068000  0.25902000  0.90037000  1.0
  O  O154  1  0.84735000  0.64865000  0.21234000  1.0
  O  O155  1  0.15265000  0.35135000  0.78766000  1.0
  O  O156  1  0.46453000  0.69973000  0.21471000  1.0
  O  O157  1  0.53546000  0.30027000  0.78528000  1.0
  F  F158  1  0.71908000  0.58450000  0.62193000  1.0
  F  F159  1  0.28091000  0.41550000  0.37807000  1.0
  F  F160  1  0.95550000  0.75388000  0.46828000  1.0
  F  F161  1  0.04450000  0.24612000  0.53173000  1.0
  F  F162  1  0.92400000  0.56715000  0.61214000  1.0
  F  F163  1  0.07600000  0.43285000  0.38786000  1.0
  F  F164  1  0.76923000  0.83098000  0.41255000  1.0
  F  F165  1  0.23078000  0.16903000  0.58745000  1.0
  F  F166  1  0.86443000  0.54534000  0.48901000  1.0
  F  F167  1  0.13556000  0.45467000  0.51099000  1.0
  F  F168  1  0.66702000  0.66498000  0.49263000  1.0
  F  F169  1  0.33298000  0.33502000  0.50737000  1.0
