# generated using pymatgen
data_Hg3H20C28Br6(N4O)2
_symmetry_space_group_name_H-M   'P 1'
_cell_length_a   7.31193000
_cell_length_b   7.97530000
_cell_length_c   29.13510000
_cell_angle_alpha   92.22160000
_cell_angle_beta   89.99950000
_cell_angle_gamma   89.99950000
_symmetry_Int_Tables_number   1
_chemical_formula_structural   Hg3H20C28Br6(N4O)2
_chemical_formula_sum   'Hg6 H40 C56 Br12 N16 O4'
_cell_volume   1697.73153887
_cell_formula_units_Z   2
loop_
 _symmetry_equiv_pos_site_id
 _symmetry_equiv_pos_as_xyz
  1  'x, y, z'
loop_
 _atom_site_type_symbol
 _atom_site_label
 _atom_site_symmetry_multiplicity
 _atom_site_fract_x
 _atom_site_fract_y
 _atom_site_fract_z
 _atom_site_occupancy
  Hg  Hg0  1  0.50001000  0.00001000  0.00000000  1.0
  Hg  Hg1  1  0.00000000  0.00001000  0.50000000  1.0
  Hg  Hg2  1  0.81281000  0.67447000  0.74913000  1.0
  Hg  Hg3  1  0.31279000  0.32553000  0.75087000  1.0
  Hg  Hg4  1  0.18719000  0.32554000  0.25087000  1.0
  Hg  Hg5  1  0.68719000  0.67447000  0.24913000  1.0
  H  H6  1  0.40081000  0.66163000  0.82468000  1.0
  H  H7  1  0.90080000  0.33837000  0.67532000  1.0
  H  H8  1  0.59920000  0.33837000  0.17532000  1.0
  H  H9  1  0.09918000  0.66161000  0.32467000  1.0
  H  H10  1  0.37552000  0.88568000  0.88843000  1.0
  H  H11  1  0.87551000  0.11433000  0.61157000  1.0
  H  H12  1  0.62451000  0.11433000  0.11158000  1.0
  H  H13  1  0.12447000  0.88568000  0.38842000  1.0
  H  H14  1  0.63128000  0.56973000  0.97844000  1.0
  H  H15  1  0.13129000  0.43028000  0.52156000  1.0
  H  H16  1  0.36872000  0.43027000  0.02156000  1.0
  H  H17  1  0.86873000  0.56974000  0.47844000  1.0
  H  H18  1  0.71567000  0.01500000  0.80217000  1.0
  H  H19  1  0.21568000  0.98499000  0.69783000  1.0
  H  H20  1  0.28434000  0.98500000  0.19783000  1.0
  H  H21  1  0.78433000  0.01500000  0.30217000  1.0
  H  H22  1  0.98141000  0.49350000  0.81978000  1.0
  H  H23  1  0.48141000  0.50649000  0.68022000  1.0
  H  H24  1  0.01858000  0.50650000  0.18022000  1.0
  H  H25  1  0.51859000  0.49351000  0.31978000  1.0
  H  H26  1  0.11847000  0.34611000  0.88403000  1.0
  H  H27  1  0.61846000  0.65389000  0.61597000  1.0
  H  H28  1  0.88153000  0.65389000  0.11597000  1.0
  H  H29  1  0.38154000  0.34611000  0.38403000  1.0
  H  H30  1  0.13802000  0.48554000  0.96211000  1.0
  H  H31  1  0.63802000  0.51447000  0.53789000  1.0
  H  H32  1  0.86198000  0.51446000  0.03789000  1.0
  H  H33  1  0.36198000  0.48554000  0.46211000  1.0
  H  H34  1  0.02849000  0.77776000  0.97495000  1.0
  H  H35  1  0.52851000  0.22224000  0.52505000  1.0
  H  H36  1  0.97151000  0.22224000  0.02505000  1.0
  H  H37  1  0.47148000  0.77777000  0.47495000  1.0
  H  H38  1  0.87321000  0.02819000  0.94522000  1.0
  H  H39  1  0.37322000  0.97180000  0.55478000  1.0
  H  H40  1  0.12680000  0.97180000  0.05478000  1.0
  H  H41  1  0.62678000  0.02820000  0.44522000  1.0
  H  H42  1  0.64384000  0.25031000  0.85023000  1.0
  H  H43  1  0.14385000  0.74971000  0.64977000  1.0
  H  H44  1  0.35617000  0.74970000  0.14977000  1.0
  H  H45  1  0.85617000  0.25030000  0.35024000  1.0
  C  C46  1  0.45275000  0.64004000  0.85908000  1.0
  C  C47  1  0.95275000  0.35996000  0.64092000  1.0
  C  C48  1  0.54725000  0.35996000  0.14092000  1.0
  C  C49  1  0.04725000  0.64003000  0.35908000  1.0
  C  C50  1  0.43848000  0.76401000  0.89417000  1.0
  C  C51  1  0.93848000  0.23599000  0.60583000  1.0
  C  C52  1  0.56153000  0.23599000  0.10583000  1.0
  C  C53  1  0.06151000  0.76401000  0.39416000  1.0
  C  C54  1  0.57831000  0.59005000  0.94414000  1.0
  C  C55  1  0.07832000  0.40995000  0.55586000  1.0
  C  C56  1  0.42169000  0.40994000  0.05586000  1.0
  C  C57  1  0.92169000  0.59006000  0.44414000  1.0
  C  C58  1  0.59221000  0.46641000  0.90887000  1.0
  C  C59  1  0.09222000  0.53360000  0.59114000  1.0
  C  C60  1  0.40779000  0.53359000  0.09114000  1.0
  C  C61  1  0.90779000  0.46641000  0.40887000  1.0
  C  C62  1  0.68354000  0.30250000  0.91765000  1.0
  C  C63  1  0.18354000  0.69749000  0.58235000  1.0
  C  C64  1  0.31645000  0.69748000  0.08235000  1.0
  C  C65  1  0.81646000  0.30250000  0.41766000  1.0
  C  C66  1  0.78187000  0.04328000  0.87528000  1.0
  C  C67  1  0.28188000  0.95671000  0.62472000  1.0
  C  C68  1  0.21813000  0.95672000  0.12472000  1.0
  C  C69  1  0.71813000  0.04328000  0.37528000  1.0
  C  C70  1  0.77754000  0.95631000  0.83170000  1.0
  C  C71  1  0.27755000  0.04369000  0.66830000  1.0
  C  C72  1  0.22247000  0.04369000  0.16830000  1.0
  C  C73  1  0.72246000  0.95631000  0.33171000  1.0
  C  C74  1  0.92445000  0.72125000  0.86017000  1.0
  C  C75  1  0.42446000  0.27875000  0.63983000  1.0
  C  C76  1  0.07555000  0.27875000  0.13983000  1.0
  C  C77  1  0.57555000  0.72125000  0.36017000  1.0
  C  C78  1  0.99166000  0.55603000  0.85353000  1.0
  C  C79  1  0.49165000  0.44397000  0.64647000  1.0
  C  C80  1  0.00834000  0.44397000  0.14647000  1.0
  C  C81  1  0.50834000  0.55604000  0.35353000  1.0
  C  C82  1  0.06699000  0.47356000  0.88978000  1.0
  C  C83  1  0.56698000  0.52644000  0.61022000  1.0
  C  C84  1  0.93302000  0.52644000  0.11022000  1.0
  C  C85  1  0.43302000  0.47357000  0.38978000  1.0
  C  C86  1  0.07905000  0.55304000  0.93388000  1.0
  C  C87  1  0.57905000  0.44696000  0.56612000  1.0
  C  C88  1  0.92095000  0.44696000  0.06612000  1.0
  C  C89  1  0.42095000  0.55304000  0.43388000  1.0
  C  C90  1  0.01766000  0.71518000  0.94116000  1.0
  C  C91  1  0.51766000  0.28482000  0.55883000  1.0
  C  C92  1  0.98235000  0.28482000  0.05883000  1.0
  C  C93  1  0.48233000  0.71519000  0.44116000  1.0
  C  C94  1  0.93755000  0.80263000  0.90471000  1.0
  C  C95  1  0.43756000  0.19736000  0.59529000  1.0
  C  C96  1  0.06246000  0.19737000  0.09529000  1.0
  C  C97  1  0.56244000  0.80264000  0.40471000  1.0
  C  C98  1  0.86514000  0.96542000  0.91157000  1.0
  C  C99  1  0.36514000  0.03458000  0.58842000  1.0
  C  C100  1  0.13487000  0.03458000  0.08842000  1.0
  C  C101  1  0.63486000  0.96542000  0.41158000  1.0
  Br  Br102  1  0.73729000  0.85892000  0.04599000  1.0
  Br  Br103  1  0.23730000  0.14109000  0.45402000  1.0
  Br  Br104  1  0.26271000  0.14108000  0.95401000  1.0
  Br  Br105  1  0.76271000  0.85891000  0.54598000  1.0
  Br  Br106  1  0.76490000  0.90978000  0.69495000  1.0
  Br  Br107  1  0.26484000  0.09019000  0.80503000  1.0
  Br  Br108  1  0.23510000  0.09024000  0.30505000  1.0
  Br  Br109  1  0.73511000  0.90976000  0.19495000  1.0
  Br  Br110  1  0.72346000  0.36322000  0.75644000  1.0
  Br  Br111  1  0.22347000  0.63680000  0.74357000  1.0
  Br  Br112  1  0.27650000  0.63679000  0.24356000  1.0
  Br  Br113  1  0.77649000  0.36321000  0.25644000  1.0
  N  N114  1  0.53012000  0.49175000  0.86636000  1.0
  N  N115  1  0.03012000  0.50825000  0.63364000  1.0
  N  N116  1  0.46988000  0.50825000  0.13365000  1.0
  N  N117  1  0.96988000  0.49175000  0.36636000  1.0
  N  N118  1  0.50202000  0.73859000  0.93637000  1.0
  N  N119  1  0.00202000  0.26141000  0.56363000  1.0
  N  N120  1  0.49799000  0.26141000  0.06364000  1.0
  N  N121  1  0.99797000  0.73860000  0.43636000  1.0
  N  N122  1  0.70052000  0.20109000  0.87897000  1.0
  N  N123  1  0.20052000  0.79891000  0.62103000  1.0
  N  N124  1  0.29948000  0.79891000  0.12103000  1.0
  N  N125  1  0.79949000  0.20109000  0.37897000  1.0
  N  N126  1  0.84451000  0.80328000  0.82477000  1.0
  N  N127  1  0.34451000  0.19671000  0.67523000  1.0
  N  N128  1  0.15549000  0.19672000  0.17523000  1.0
  N  N129  1  0.65549000  0.80329000  0.32477000  1.0
  O  O130  1  0.73785000  0.26877000  0.95658000  1.0
  O  O131  1  0.23785000  0.73122000  0.54342000  1.0
  O  O132  1  0.26213000  0.73120000  0.04342000  1.0
  O  O133  1  0.76217000  0.26878000  0.45658000  1.0
