# generated using pymatgen
data_Mg3H16C26(NO5)2
_symmetry_space_group_name_H-M   'P 1'
_cell_length_a   11.01130000
_cell_length_b   15.06070000
_cell_length_c   15.06070000
_cell_angle_alpha   72.24750000
_cell_angle_beta   87.99080000
_cell_angle_gamma   87.99090000
_symmetry_Int_Tables_number   1
_chemical_formula_structural   Mg3H16C26(NO5)2
_chemical_formula_sum   'Mg6 H32 C52 N4 O20'
_cell_volume   2376.46187457
_cell_formula_units_Z   2
loop_
 _symmetry_equiv_pos_site_id
 _symmetry_equiv_pos_as_xyz
  1  'x, y, z'
loop_
 _atom_site_type_symbol
 _atom_site_label
 _atom_site_symmetry_multiplicity
 _atom_site_fract_x
 _atom_site_fract_y
 _atom_site_fract_z
 _atom_site_occupancy
  Mg  Mg0  1  0.98188000  0.58601000  0.53946000  1.0
  Mg  Mg1  1  0.51812000  0.46054000  0.41399000  1.0
  Mg  Mg2  1  0.01812000  0.41399000  0.46054000  1.0
  Mg  Mg3  1  0.48188000  0.53946000  0.58601000  1.0
  Mg  Mg4  1  0.75000000  0.57127000  0.42873000  1.0
  Mg  Mg5  1  0.25000000  0.42873000  0.57127000  1.0
  H  H6  1  0.96435000  0.58511000  0.35963000  1.0
  H  H7  1  0.53565000  0.64036000  0.41489000  1.0
  H  H8  1  0.03565000  0.41489000  0.64036000  1.0
  H  H9  1  0.46435000  0.35963000  0.58511000  1.0
  H  H10  1  0.68541000  0.54251000  0.82041000  1.0
  H  H11  1  0.81459000  0.17959000  0.45749000  1.0
  H  H12  1  0.31459000  0.45749000  0.17959000  1.0
  H  H13  1  0.18541000  0.82041000  0.54251000  1.0
  H  H14  1  0.04907000  0.59587000  0.89042000  1.0
  H  H15  1  0.45093000  0.10958000  0.40413000  1.0
  H  H16  1  0.95093000  0.40413000  0.10958000  1.0
  H  H17  1  0.54907000  0.89042000  0.59587000  1.0
  H  H18  1  0.11330000  0.60553000  0.72835000  1.0
  H  H19  1  0.38670000  0.27165000  0.39447000  1.0
  H  H20  1  0.88670000  0.39447000  0.27165000  1.0
  H  H21  1  0.61330000  0.72835000  0.60553000  1.0
  H  H22  1  0.68194000  0.45996000  0.97351000  1.0
  H  H23  1  0.81806000  0.02649000  0.54004000  1.0
  H  H24  1  0.31806000  0.54004000  0.02649000  1.0
  H  H25  1  0.18194000  0.97351000  0.45996000  1.0
  H  H26  1  0.60672000  0.45335000  0.13354000  1.0
  H  H27  1  0.89328000  0.86646000  0.54665000  1.0
  H  H28  1  0.39328000  0.54665000  0.86646000  1.0
  H  H29  1  0.10672000  0.13354000  0.45335000  1.0
  H  H30  1  0.86168000  0.65876000  0.14172000  1.0
  H  H31  1  0.63832000  0.85828000  0.34124000  1.0
  H  H32  1  0.13832000  0.34124000  0.85828000  1.0
  H  H33  1  0.36168000  0.14172000  0.65876000  1.0
  H  H34  1  0.93681000  0.66883000  0.98089000  1.0
  H  H35  1  0.56319000  0.01910000  0.33117000  1.0
  H  H36  1  0.06319000  0.33117000  0.01911000  1.0
  H  H37  1  0.43681000  0.98090000  0.66883000  1.0
  C  C38  1  0.82728000  0.55829000  0.71705000  1.0
  C  C39  1  0.67272000  0.28295000  0.44171000  1.0
  C  C40  1  0.17272000  0.44171000  0.28295000  1.0
  C  C41  1  0.32728000  0.71705000  0.55829000  1.0
  C  C42  1  0.78190000  0.55478000  0.80531000  1.0
  C  C43  1  0.71810000  0.19469000  0.44522000  1.0
  C  C44  1  0.21810000  0.44522000  0.19469000  1.0
  C  C45  1  0.28190000  0.80531000  0.55478000  1.0
  C  C46  1  0.86023000  0.56885000  0.87118000  1.0
  C  C47  1  0.63977000  0.12882000  0.43115000  1.0
  C  C48  1  0.13977000  0.43115000  0.12882000  1.0
  C  C49  1  0.36023000  0.87118000  0.56886000  1.0
  C  C50  1  0.98207000  0.58704000  0.84242000  1.0
  C  C51  1  0.51793000  0.15758000  0.41296000  1.0
  C  C52  1  0.01793000  0.41296000  0.15758000  1.0
  C  C53  1  0.48207000  0.84242000  0.58704000  1.0
  C  C54  1  0.01930000  0.59090000  0.75200000  1.0
  C  C55  1  0.48070000  0.24800000  0.40910000  1.0
  C  C56  1  0.98070000  0.40910000  0.24800000  1.0
  C  C57  1  0.51930000  0.75200000  0.59090000  1.0
  C  C58  1  0.74639000  0.54352000  0.64412000  1.0
  C  C59  1  0.75361000  0.35588000  0.45648000  1.0
  C  C60  1  0.25361000  0.45648000  0.35588000  1.0
  C  C61  1  0.24639000  0.64412000  0.54351000  1.0
  C  C62  1  0.81548000  0.56454000  0.96579000  1.0
  C  C63  1  0.68452000  0.03421000  0.43546000  1.0
  C  C64  1  0.18452000  0.43546000  0.03421000  1.0
  C  C65  1  0.31548000  0.96579000  0.56454000  1.0
  C  C66  1  0.72110000  0.50462000  0.00945000  1.0
  C  C67  1  0.77890000  0.99055000  0.49538000  1.0
  C  C68  1  0.27890000  0.49538000  0.99055000  1.0
  C  C69  1  0.22110000  0.00945000  0.50462000  1.0
  C  C70  1  0.67903000  0.50016000  0.09891000  1.0
  C  C71  1  0.82097000  0.90109000  0.49984000  1.0
  C  C72  1  0.32097000  0.49984000  0.90109000  1.0
  C  C73  1  0.17904000  0.09891000  0.50016000  1.0
  C  C74  1  0.73032000  0.55530000  0.14706000  1.0
  C  C75  1  0.76968000  0.85294000  0.44470000  1.0
  C  C76  1  0.26968000  0.44470000  0.85294000  1.0
  C  C77  1  0.23032000  0.14706000  0.55530000  1.0
  C  C78  1  0.82341000  0.61578000  0.10365000  1.0
  C  C79  1  0.67659000  0.89635000  0.38422000  1.0
  C  C80  1  0.17659000  0.38422000  0.89635000  1.0
  C  C81  1  0.32341000  0.10365000  0.61578000  1.0
  C  C82  1  0.86554000  0.62037000  0.01426000  1.0
  C  C83  1  0.63446000  0.98574000  0.37963000  1.0
  C  C84  1  0.13446000  0.37963000  0.98574000  1.0
  C  C85  1  0.36554000  0.01426000  0.62037000  1.0
  C  C86  1  0.68930000  0.54745000  0.24569000  1.0
  C  C87  1  0.81070000  0.75431000  0.45255000  1.0
  C  C88  1  0.31070000  0.45255000  0.75431000  1.0
  C  C89  1  0.18929000  0.24569000  0.54745000  1.0
  N  N90  1  0.94430000  0.57639000  0.68994000  1.0
  N  N91  1  0.55570000  0.31006000  0.42361000  1.0
  N  N92  1  0.05570000  0.42361000  0.31006000  1.0
  N  N93  1  0.44430000  0.68994000  0.57639000  1.0
  O  O94  1  0.80005000  0.54106000  0.56855000  1.0
  O  O95  1  0.69995000  0.43145000  0.45894000  1.0
  O  O96  1  0.19995000  0.45894000  0.43145000  1.0
  O  O97  1  0.30005000  0.56855000  0.54106000  1.0
  O  O98  1  0.63417000  0.53583000  0.66183000  1.0
  O  O99  1  0.86583000  0.33817000  0.46417000  1.0
  O  O100  1  0.36584000  0.46417000  0.33817000  1.0
  O  O101  1  0.13417000  0.66183000  0.53583000  1.0
  O  O102  1  0.59879000  0.49702000  0.27936000  1.0
  O  O103  1  0.90121000  0.72064000  0.50298000  1.0
  O  O104  1  0.40121000  0.50298000  0.72064000  1.0
  O  O105  1  0.09879000  0.27936000  0.49702000  1.0
  O  O106  1  0.75084000  0.59078000  0.28851000  1.0
  O  O107  1  0.74917000  0.71149000  0.40922000  1.0
  O  O108  1  0.24916000  0.40922000  0.71149000  1.0
  O  O109  1  0.25083000  0.28851000  0.59078000  1.0
  O  O110  1  0.94039000  0.54939000  0.42260000  1.0
  O  O111  1  0.55961000  0.57740000  0.45061000  1.0
  O  O112  1  0.05961000  0.45061000  0.57740000  1.0
  O  O113  1  0.44039000  0.42260000  0.54939000  1.0
