# generated using pymatgen
data_RbH5C5N2O5
_symmetry_space_group_name_H-M   'P 1'
_cell_length_a   5.03276000
_cell_length_b   7.88331000
_cell_length_c   18.87970000
_cell_angle_alpha   96.58470000
_cell_angle_beta   89.99960000
_cell_angle_gamma   90.00000000
_symmetry_Int_Tables_number   1
_chemical_formula_structural   RbH5C5N2O5
_chemical_formula_sum   'Rb4 H20 C20 N8 O20'
_cell_volume   744.10730192
_cell_formula_units_Z   4
loop_
 _symmetry_equiv_pos_site_id
 _symmetry_equiv_pos_as_xyz
  1  'x, y, z'
loop_
 _atom_site_type_symbol
 _atom_site_label
 _atom_site_symmetry_multiplicity
 _atom_site_fract_x
 _atom_site_fract_y
 _atom_site_fract_z
 _atom_site_occupancy
  Rb  Rb0  1  0.36003000  0.18929000  0.21764000  1.0
  Rb  Rb1  1  0.86003000  0.81071000  0.28236000  1.0
  Rb  Rb2  1  0.63997000  0.81071000  0.78236000  1.0
  Rb  Rb3  1  0.13997000  0.18928000  0.71764000  1.0
  H  H4  1  0.36231000  0.62158000  0.27590000  1.0
  H  H5  1  0.86231000  0.37841000  0.22410000  1.0
  H  H6  1  0.63770000  0.37842000  0.72410000  1.0
  H  H7  1  0.13770000  0.62158000  0.77590000  1.0
  H  H8  1  0.23591000  0.51332000  0.33725000  1.0
  H  H9  1  0.73592000  0.48668000  0.16275000  1.0
  H  H10  1  0.76409000  0.48669000  0.66275000  1.0
  H  H11  1  0.26409000  0.51331000  0.83725000  1.0
  H  H12  1  0.12910000  0.01289000  0.44301000  1.0
  H  H13  1  0.62911000  0.98712000  0.05699000  1.0
  H  H14  1  0.87088000  0.98712000  0.55699000  1.0
  H  H15  1  0.37089000  0.01288000  0.94301000  1.0
  H  H16  1  0.52345000  0.33746000  0.59214000  1.0
  H  H17  1  0.02346000  0.66254000  0.90786000  1.0
  H  H18  1  0.47654000  0.66255000  0.40786000  1.0
  H  H19  1  0.97654000  0.33745000  0.09213000  1.0
  H  H20  1  0.82452000  0.41758000  0.50691000  1.0
  H  H21  1  0.32453000  0.58242000  0.99310000  1.0
  H  H22  1  0.17547000  0.58243000  0.49310000  1.0
  H  H23  1  0.67547000  0.41757000  0.00690000  1.0
  C  C24  1  0.85043000  0.31981000  0.36464000  1.0
  C  C25  1  0.35042000  0.68019000  0.13537000  1.0
  C  C26  1  0.14957000  0.68020000  0.63537000  1.0
  C  C27  1  0.64957000  0.31979000  0.86463000  1.0
  C  C28  1  0.65768000  0.25761000  0.41764000  1.0
  C  C29  1  0.15768000  0.74240000  0.08237000  1.0
  C  C30  1  0.34233000  0.74240000  0.58237000  1.0
  C  C31  1  0.84232000  0.25759000  0.91763000  1.0
  C  C32  1  0.45417000  0.12854000  0.39904000  1.0
  C  C33  1  0.95417000  0.87147000  0.10097000  1.0
  C  C34  1  0.54584000  0.87147000  0.60097000  1.0
  C  C35  1  0.04584000  0.12852000  0.89903000  1.0
  C  C36  1  0.28835000  0.17774000  0.52311000  1.0
  C  C37  1  0.78835000  0.82227000  0.97689000  1.0
  C  C38  1  0.71165000  0.82227000  0.47690000  1.0
  C  C39  1  0.21166000  0.17772000  0.02310000  1.0
  C  C40  1  0.67095000  0.32625000  0.48775000  1.0
  C  C41  1  0.17096000  0.67375000  0.01226000  1.0
  C  C42  1  0.32904000  0.67377000  0.51226000  1.0
  C  C43  1  0.82903000  0.32623000  0.98774000  1.0
  N  N44  1  0.27934000  0.10271000  0.45443000  1.0
  N  N45  1  0.77935000  0.89729000  0.04557000  1.0
  N  N46  1  0.72065000  0.89730000  0.54558000  1.0
  N  N47  1  0.22065000  0.10270000  0.95442000  1.0
  N  N48  1  0.49694000  0.28796000  0.53870000  1.0
  N  N49  1  0.99695000  0.71204000  0.96130000  1.0
  N  N50  1  0.50306000  0.71206000  0.46130000  1.0
  N  N51  1  0.00305000  0.28795000  0.03869000  1.0
  O  O52  1  0.84092000  0.25424000  0.29984000  1.0
  O  O53  1  0.34091000  0.74577000  0.20016000  1.0
  O  O54  1  0.15909000  0.74576000  0.70016000  1.0
  O  O55  1  0.65910000  0.25423000  0.79983000  1.0
  O  O56  1  0.01141000  0.43645000  0.38941000  1.0
  O  O57  1  0.51140000  0.56355000  0.11059000  1.0
  O  O58  1  0.98858000  0.56357000  0.61059000  1.0
  O  O59  1  0.48858000  0.43643000  0.88941000  1.0
  O  O60  1  0.42053000  0.03780000  0.34133000  1.0
  O  O61  1  0.92053000  0.96220000  0.15867000  1.0
  O  O62  1  0.57947000  0.96220000  0.65868000  1.0
  O  O63  1  0.07946000  0.03779000  0.84132000  1.0
  O  O64  1  0.12204000  0.14579000  0.56880000  1.0
  O  O65  1  0.62206000  0.85421000  0.93121000  1.0
  O  O66  1  0.87795000  0.85422000  0.43121000  1.0
  O  O67  1  0.37794000  0.14578000  0.06878000  1.0
  O  O68  1  0.40100000  0.56886000  0.32003000  1.0
  O  O69  1  0.90100000  0.43113000  0.17997000  1.0
  O  O70  1  0.59900000  0.43115000  0.67997000  1.0
  O  O71  1  0.09900000  0.56885000  0.82003000  1.0
