# generated using pymatgen
data_MnH2C4O3
_symmetry_space_group_name_H-M   'P 1'
_cell_length_a   7.11050000
_cell_length_b   15.00200000
_cell_length_c   15.00290000
_cell_angle_alpha   117.53200000
_cell_angle_beta   99.09980000
_cell_angle_gamma   99.09100000
_symmetry_Int_Tables_number   1
_chemical_formula_structural   MnH2C4O3
_chemical_formula_sum   'Mn6 H12 C24 O18'
_cell_volume   1351.59210220
_cell_formula_units_Z   6
loop_
 _symmetry_equiv_pos_site_id
 _symmetry_equiv_pos_as_xyz
  1  'x, y, z'
loop_
 _atom_site_type_symbol
 _atom_site_label
 _atom_site_symmetry_multiplicity
 _atom_site_fract_x
 _atom_site_fract_y
 _atom_site_fract_z
 _atom_site_occupancy
  Mn  Mn0  1  0.97133000  0.26107000  0.58520000  1.0
  Mn  Mn1  1  0.38624000  0.41484000  0.67595000  1.0
  Mn  Mn2  1  0.71027000  0.32403000  0.73893000  1.0
  Mn  Mn3  1  0.02868000  0.73893000  0.41480000  1.0
  Mn  Mn4  1  0.61376000  0.58516000  0.32405000  1.0
  Mn  Mn5  1  0.28972000  0.67597000  0.26107000  1.0
  H  H6  1  0.64519000  0.47334000  0.25799000  1.0
  H  H7  1  0.38723000  0.74206000  0.21531000  1.0
  H  H8  1  0.17203000  0.78466000  0.52661000  1.0
  H  H9  1  0.35482000  0.52666000  0.74201000  1.0
  H  H10  1  0.61277000  0.25795000  0.78469000  1.0
  H  H11  1  0.82799000  0.21534000  0.47339000  1.0
  H  H12  1  0.30588000  0.44629000  0.46987000  1.0
  H  H13  1  0.83602000  0.53004000  0.97643000  1.0
  H  H14  1  0.85954000  0.02340000  0.55378000  1.0
  H  H15  1  0.69412000  0.55370000  0.53012000  1.0
  H  H16  1  0.16398000  0.46996000  0.02357000  1.0
  H  H17  1  0.14045000  0.97661000  0.44622000  1.0
  C  C18  1  0.76642000  0.43904000  0.61431000  1.0
  C  C19  1  0.15206000  0.38574000  0.82473000  1.0
  C  C20  1  0.32762000  0.17532000  0.56107000  1.0
  C  C21  1  0.23358000  0.56096000  0.38569000  1.0
  C  C22  1  0.84794000  0.61426000  0.17527000  1.0
  C  C23  1  0.67238000  0.82468000  0.43893000  1.0
  C  C24  1  0.88903000  0.46667000  0.55475000  1.0
  C  C25  1  0.33422000  0.44531000  0.91192000  1.0
  C  C26  1  0.42247000  0.08811000  0.53343000  1.0
  C  C27  1  0.11098000  0.53333000  0.44525000  1.0
  C  C28  1  0.66578000  0.55468000  0.08808000  1.0
  C  C29  1  0.57753000  0.91189000  0.46658000  1.0
  C  C30  1  0.06455000  0.43549000  0.53682000  1.0
  C  C31  1  0.52774000  0.46319000  0.89870000  1.0
  C  C32  1  0.62918000  0.10126000  0.56461000  1.0
  C  C33  1  0.93545000  0.56451000  0.46318000  1.0
  C  C34  1  0.47226000  0.53682000  0.10130000  1.0
  C  C35  1  0.37082000  0.89875000  0.43539000  1.0
  C  C36  1  0.17109000  0.46997000  0.48312000  1.0
  C  C37  1  0.68798000  0.51683000  0.98687000  1.0
  C  C38  1  0.70114000  0.01305000  0.53008000  1.0
  C  C39  1  0.82892000  0.53003000  0.51688000  1.0
  C  C40  1  0.31201000  0.48318000  0.01313000  1.0
  C  C41  1  0.29886000  0.98695000  0.46992000  1.0
  O  O42  1  0.60402000  0.46354000  0.61867000  1.0
  O  O43  1  0.98528000  0.38133000  0.84484000  1.0
  O  O44  1  0.14074000  0.15522000  0.53660000  1.0
  O  O45  1  0.39598000  0.53646000  0.38133000  1.0
  O  O46  1  0.01471000  0.61867000  0.15516000  1.0
  O  O47  1  0.85925000  0.84479000  0.46341000  1.0
  O  O48  1  0.83236000  0.39170000  0.66117000  1.0
  O  O49  1  0.17121000  0.33885000  0.73058000  1.0
  O  O50  1  0.44088000  0.26948000  0.60837000  1.0
  O  O51  1  0.16765000  0.60830000  0.33883000  1.0
  O  O52  1  0.82880000  0.66115000  0.26942000  1.0
  O  O53  1  0.55911000  0.73052000  0.39163000  1.0
  O  O54  1  0.13455000  0.37229000  0.56797000  1.0
  O  O55  1  0.56664000  0.43200000  0.80437000  1.0
  O  O56  1  0.76246000  0.19558000  0.62782000  1.0
  O  O57  1  0.86545000  0.62771000  0.43202000  1.0
  O  O58  1  0.43336000  0.56800000  0.19563000  1.0
  O  O59  1  0.23754000  0.80442000  0.37218000  1.0
