# generated using pymatgen
data_ZnH7C16Br2NO4
_symmetry_space_group_name_H-M   'P 1'
_cell_length_a   11.06120000
_cell_length_b   11.70900000
_cell_length_c   13.12930000
_cell_angle_alpha   90.59070000
_cell_angle_beta   91.20500000
_cell_angle_gamma   97.75310000
_symmetry_Int_Tables_number   1
_chemical_formula_structural   ZnH7C16Br2NO4
_chemical_formula_sum   'Zn2 H14 C32 Br4 N2 O8'
_cell_volume   1684.38360879
_cell_formula_units_Z   2
loop_
 _symmetry_equiv_pos_site_id
 _symmetry_equiv_pos_as_xyz
  1  'x, y, z'
loop_
 _atom_site_type_symbol
 _atom_site_label
 _atom_site_symmetry_multiplicity
 _atom_site_fract_x
 _atom_site_fract_y
 _atom_site_fract_z
 _atom_site_occupancy
  Zn  Zn0  1  0.48748000  0.38302000  0.48421000  1.0
  Zn  Zn1  1  0.52114000  0.61909000  0.51300000  1.0
  H  H2  1  0.14532000  0.67536000  0.52741000  1.0
  H  H3  1  0.05079000  0.09393000  0.47827000  1.0
  H  H4  1  0.75675000  0.29186000  0.41873000  1.0
  H  H5  1  0.55754000  0.64712000  0.82989000  1.0
  H  H6  1  0.44521000  0.28220000  0.80764000  1.0
  H  H7  1  0.58195000  0.74387000  0.00152000  1.0
  H  H8  1  0.43634000  0.26942000  0.99731000  1.0
  H  H9  1  0.46555000  0.36700000  0.16795000  1.0
  H  H10  1  0.58761000  0.21080000  0.58991000  1.0
  H  H11  1  0.66474000  0.02669000  0.66365000  1.0
  H  H12  1  0.33750000  0.96901000  0.33201000  1.0
  H  H13  1  0.65826000  0.81141000  0.64849000  1.0
  H  H14  1  0.41351000  0.78820000  0.40369000  1.0
  H  H15  1  0.18731000  0.27337000  0.52347000  1.0
  C  C16  1  0.50604000  0.53071000  0.30405000  1.0
  C  C17  1  0.54830000  0.65479000  0.14194000  1.0
  C  C18  1  0.48868000  0.44919000  0.12995000  1.0
  C  C19  1  0.26916000  0.50136000  0.50886000  1.0
  C  C20  1  0.49163000  0.45235000  0.02266000  1.0
  C  C21  1  0.52579000  0.56113000  0.97502000  1.0
  C  C22  1  0.53138000  0.56526000  0.86757000  1.0
  C  C23  1  0.46807000  0.35851000  0.85603000  1.0
  C  C24  1  0.46289000  0.35190000  0.96050000  1.0
  C  C25  1  0.60709000  0.97701000  0.60603000  1.0
  C  C26  1  0.60441000  0.85944000  0.59822000  1.0
  C  C27  1  0.05186000  0.38716000  0.49631000  1.0
  C  C28  1  0.46610000  0.84435000  0.46025000  1.0
  C  C29  1  0.46294000  0.96481000  0.46157000  1.0
  C  C30  1  0.53551000  0.03283000  0.53668000  1.0
  C  C31  1  0.50793000  0.47376000  0.69499000  1.0
  C  C32  1  0.53357000  0.15318000  0.53519000  1.0
  C  C33  1  0.39883000  0.13735000  0.39555000  1.0
  C  C34  1  0.39332000  0.01908000  0.39040000  1.0
  C  C35  1  0.73790000  0.49950000  0.49296000  1.0
  C  C36  1  0.09321000  0.27740000  0.50057000  1.0
  C  C37  1  0.01799000  0.17752000  0.47472000  1.0
  C  C38  1  0.13193000  0.49321000  0.51013000  1.0
  C  C39  1  0.89840000  0.18628000  0.43977000  1.0
  C  C40  1  0.85041000  0.28869000  0.44321000  1.0
  C  C41  1  0.92390000  0.39184000  0.47803000  1.0
  C  C42  1  0.08336000  0.59553000  0.51667000  1.0
  C  C43  1  0.95655000  0.59829000  0.51071000  1.0
  C  C44  1  0.87409000  0.49899000  0.49188000  1.0
  C  C45  1  0.50329000  0.46612000  0.80872000  1.0
  C  C46  1  0.51511000  0.54732000  0.19098000  1.0
  C  C47  1  0.55406000  0.66119000  0.03730000  1.0
  Br  Br48  1  0.59516000  0.79647000  0.21541000  1.0
  Br  Br49  1  0.30655000  0.21076000  0.30011000  1.0
  Br  Br50  1  0.80312000  0.05003000  0.38517000  1.0
  Br  Br51  1  0.91281000  0.74919000  0.53202000  1.0
  N  N52  1  0.46787000  0.20332000  0.46699000  1.0
  N  N53  1  0.53440000  0.79490000  0.52587000  1.0
  O  O54  1  0.52519000  0.43245000  0.33672000  1.0
  O  O55  1  0.47799000  0.61299000  0.35880000  1.0
  O  O56  1  0.31289000  0.41486000  0.47183000  1.0
  O  O57  1  0.33185000  0.59441000  0.54028000  1.0
  O  O58  1  0.46888000  0.38332000  0.64295000  1.0
  O  O59  1  0.55017000  0.57150000  0.65853000  1.0
  O  O60  1  0.67260000  0.40529000  0.51617000  1.0
  O  O61  1  0.69617000  0.59273000  0.47317000  1.0
