# generated using pymatgen
data_CdH6C9N3Cl2
_symmetry_space_group_name_H-M   'P 1'
_cell_length_a   7.16381000
_cell_length_b   8.56357000
_cell_length_c   9.05681000
_cell_angle_alpha   112.51600000
_cell_angle_beta   95.55660000
_cell_angle_gamma   95.05550000
_symmetry_Int_Tables_number   1
_chemical_formula_structural   CdH6C9N3Cl2
_chemical_formula_sum   'Cd2 H12 C18 N6 Cl4'
_cell_volume   506.09193466
_cell_formula_units_Z   2
loop_
 _symmetry_equiv_pos_site_id
 _symmetry_equiv_pos_as_xyz
  1  'x, y, z'
loop_
 _atom_site_type_symbol
 _atom_site_label
 _atom_site_symmetry_multiplicity
 _atom_site_fract_x
 _atom_site_fract_y
 _atom_site_fract_z
 _atom_site_occupancy
  Cd  Cd0  1  0.76831000  0.02369000  0.59157000  1.0
  Cd  Cd1  1  0.23169000  0.97632000  0.40843000  1.0
  H  H2  1  0.97572000  0.23498000  0.25410000  1.0
  H  H3  1  0.02428000  0.76502000  0.74591000  1.0
  H  H4  1  0.61902000  0.38893000  0.59119000  1.0
  H  H5  1  0.38098000  0.61106000  0.40881000  1.0
  H  H6  1  0.52447000  0.68407000  0.68927000  1.0
  H  H7  1  0.47553000  0.31592000  0.31072000  1.0
  H  H8  1  0.56359000  0.86586000  0.97962000  1.0
  H  H9  1  0.43641000  0.13414000  0.02037000  1.0
  H  H10  1  0.70276000  0.76898000  0.18655000  1.0
  H  H11  1  0.29724000  0.23102000  0.81344000  1.0
  H  H12  1  0.85546000  0.47331000  0.20254000  1.0
  H  H13  1  0.14453000  0.52669000  0.79746000  1.0
  C  C14  1  0.98555000  0.13136000  0.13921000  1.0
  C  C15  1  0.01446000  0.86865000  0.86080000  1.0
  C  C16  1  0.91904000  0.13277000  0.98828000  1.0
  C  C17  1  0.08096000  0.86723000  0.01173000  1.0
  C  C18  1  0.83734000  0.27289000  0.96511000  1.0
  C  C19  1  0.16266000  0.72711000  0.03489000  1.0
  C  C20  1  0.71381000  0.41655000  0.83581000  1.0
  C  C21  1  0.28619000  0.58345000  0.16419000  1.0
  C  C22  1  0.63677000  0.47189000  0.71907000  1.0
  C  C23  1  0.36323000  0.52810000  0.28093000  1.0
  C  C24  1  0.58453000  0.63439000  0.77474000  1.0
  C  C25  1  0.41546000  0.36560000  0.22526000  1.0
  C  C26  1  0.60768000  0.73924000  0.94141000  1.0
  C  C27  1  0.39232000  0.26075000  0.05858000  1.0
  C  C28  1  0.68521000  0.68687000  0.05882000  1.0
  C  C29  1  0.31480000  0.31313000  0.94118000  1.0
  C  C30  1  0.73896000  0.52341000  0.00290000  1.0
  C  C31  1  0.26105000  0.47659000  0.99710000  1.0
  N  N32  1  0.77559000  0.26384000  0.81775000  1.0
  N  N33  1  0.22441000  0.73616000  0.18226000  1.0
  N  N34  1  0.81850000  0.42878000  0.08047000  1.0
  N  N35  1  0.18150000  0.57123000  0.91953000  1.0
  N  N36  1  0.06559000  0.00091000  0.14910000  1.0
  N  N37  1  0.93442000  0.99909000  0.85090000  1.0
  Cl  Cl38  1  0.57961000  0.07059000  0.35572000  1.0
  Cl  Cl39  1  0.42040000  0.92941000  0.64427000  1.0
  Cl  Cl40  1  0.92087000  0.76267000  0.44728000  1.0
  Cl  Cl41  1  0.07912000  0.23733000  0.55272000  1.0
