# generated using pymatgen
data_Zn3H10(CN3)8
_symmetry_space_group_name_H-M   'P 1'
_cell_length_a   7.84660000
_cell_length_b   8.03939000
_cell_length_c   9.31504000
_cell_angle_alpha   71.53830000
_cell_angle_beta   81.16050000
_cell_angle_gamma   78.06680000
_symmetry_Int_Tables_number   1
_chemical_formula_structural   Zn3H10(CN3)8
_chemical_formula_sum   'Zn3 H10 C8 N24'
_cell_volume   542.85629186
_cell_formula_units_Z   1
loop_
 _symmetry_equiv_pos_site_id
 _symmetry_equiv_pos_as_xyz
  1  'x, y, z'
loop_
 _atom_site_type_symbol
 _atom_site_label
 _atom_site_symmetry_multiplicity
 _atom_site_fract_x
 _atom_site_fract_y
 _atom_site_fract_z
 _atom_site_occupancy
  Zn  Zn0  1  0.00000000  0.50000000  0.00000000  1.0
  Zn  Zn1  1  0.03315000  0.41238000  0.68100000  1.0
  Zn  Zn2  1  0.96685000  0.58762000  0.31900000  1.0
  H  H3  1  0.28692000  0.73328000  0.81331000  1.0
  H  H4  1  0.71308000  0.26672000  0.18669000  1.0
  H  H5  1  0.77352000  0.19176000  0.81908000  1.0
  H  H6  1  0.22648000  0.80824000  0.18092000  1.0
  H  H7  1  0.75585000  0.87042000  0.94186000  1.0
  H  H8  1  0.24415000  0.12958000  0.05814000  1.0
  H  H9  1  0.34831000  0.19310000  0.60937000  1.0
  H  H10  1  0.65169000  0.80690000  0.39063000  1.0
  H  H11  1  0.44410000  0.96955000  0.66973000  1.0
  H  H12  1  0.55590000  0.03045000  0.33027000  1.0
  C  C13  1  0.17118000  0.83504000  0.81347000  1.0
  C  C14  1  0.82882000  0.16496000  0.18653000  1.0
  C  C15  1  0.18380000  0.01809000  0.73914000  1.0
  C  C16  1  0.81620000  0.98191000  0.26086000  1.0
  C  C17  1  0.88800000  0.08920000  0.81569000  1.0
  C  C18  1  0.11200000  0.91080000  0.18431000  1.0
  C  C19  1  0.87809000  0.91206000  0.88484000  1.0
  C  C20  1  0.12191000  0.08794000  0.11516000  1.0
  N  N21  1  0.20009000  0.42223000  0.84028000  1.0
  N  N22  1  0.79991000  0.57777000  0.15972000  1.0
  N  N23  1  0.35354000  0.36771000  0.85815000  1.0
  N  N24  1  0.64646000  0.63229000  0.14185000  1.0
  N  N25  1  0.50006000  0.31485000  0.87768000  1.0
  N  N26  1  0.49994000  0.68515000  0.12232000  1.0
  N  N27  1  0.15493000  0.48543000  0.17799000  1.0
  N  N28  1  0.84507000  0.51458000  0.82201000  1.0
  N  N29  1  0.27477000  0.36873000  0.22567000  1.0
  N  N30  1  0.72523000  0.63127000  0.77433000  1.0
  N  N31  1  0.39065000  0.25787000  0.27046000  1.0
  N  N32  1  0.60935000  0.74213000  0.72954000  1.0
  N  N33  1  0.83270000  0.46490000  0.51010000  1.0
  N  N34  1  0.16730000  0.53510000  0.48990000  1.0
  N  N35  1  0.72393000  0.37551000  0.51425000  1.0
  N  N36  1  0.27607000  0.62449000  0.48575000  1.0
  N  N37  1  0.61989000  0.28871000  0.52219000  1.0
  N  N38  1  0.38012000  0.71129000  0.47781000  1.0
  N  N39  1  0.02248000  0.78547000  0.88480000  1.0
  N  N40  1  0.97752000  0.21453000  0.11520000  1.0
  N  N41  1  0.03940000  0.14344000  0.74498000  1.0
  N  N42  1  0.96060000  0.85656000  0.25502000  1.0
  N  N43  1  0.33552000  0.06524000  0.66753000  1.0
  N  N44  1  0.66448000  0.93477000  0.33247000  1.0
