# generated using pymatgen
data_ZnH12C12S(NO3)2
_symmetry_space_group_name_H-M   'P 1'
_cell_length_a   6.81294000
_cell_length_b   10.25850000
_cell_length_c   10.25860000
_cell_angle_alpha   86.42690000
_cell_angle_beta   78.78360000
_cell_angle_gamma   78.78320000
_symmetry_Int_Tables_number   1
_chemical_formula_structural   ZnH12C12S(NO3)2
_chemical_formula_sum   'Zn2 H24 C24 S2 N4 O12'
_cell_volume   689.62707216
_cell_formula_units_Z   2
loop_
 _symmetry_equiv_pos_site_id
 _symmetry_equiv_pos_as_xyz
  1  'x, y, z'
loop_
 _atom_site_type_symbol
 _atom_site_label
 _atom_site_symmetry_multiplicity
 _atom_site_fract_x
 _atom_site_fract_y
 _atom_site_fract_z
 _atom_site_occupancy
  Zn  Zn0  1  0.25000000  0.19612000  0.80388000  1.0
  Zn  Zn1  1  0.75000000  0.80388000  0.19612000  1.0
  H  H2  1  0.29234000  0.02510000  0.54795000  1.0
  H  H3  1  0.20766000  0.45205000  0.97490000  1.0
  H  H4  1  0.70766000  0.97490000  0.45205000  1.0
  H  H5  1  0.79235000  0.54795000  0.02510000  1.0
  H  H6  1  0.30814000  0.07580000  0.30383000  1.0
  H  H7  1  0.19186000  0.69618000  0.92420000  1.0
  H  H8  1  0.69186000  0.92420000  0.69617000  1.0
  H  H9  1  0.80815000  0.30383000  0.07580000  1.0
  H  H10  1  0.29384000  0.31183000  0.22098000  1.0
  H  H11  1  0.20616000  0.77902000  0.68817000  1.0
  H  H12  1  0.70617000  0.68817000  0.77902000  1.0
  H  H13  1  0.79384000  0.22098000  0.31183000  1.0
  H  H14  1  0.26360000  0.55694000  0.27717000  1.0
  H  H15  1  0.23639000  0.72283000  0.44307000  1.0
  H  H16  1  0.73640000  0.44306000  0.72283000  1.0
  H  H17  1  0.76360000  0.27717000  0.55693000  1.0
  H  H18  1  0.10359000  0.99061000  0.81234000  1.0
  H  H19  1  0.39640000  0.18766000  0.00939000  1.0
  H  H20  1  0.89641000  0.00939000  0.18766000  1.0
  H  H21  1  0.60360000  0.81234000  0.99061000  1.0
  H  H22  1  0.30090000  0.94091000  0.87526000  1.0
  H  H23  1  0.19909000  0.12474000  0.05909000  1.0
  H  H24  1  0.69910000  0.05909000  0.12474000  1.0
  H  H25  1  0.80090000  0.87526000  0.94091000  1.0
  C  C26  1  0.28584000  0.12650000  0.50780000  1.0
  C  C27  1  0.21415000  0.49220000  0.87350000  1.0
  C  C28  1  0.71416000  0.87350000  0.49220000  1.0
  C  C29  1  0.78585000  0.50780000  0.12650000  1.0
  C  C30  1  0.29583000  0.15585000  0.37138000  1.0
  C  C31  1  0.20417000  0.62862000  0.84415000  1.0
  C  C32  1  0.70417000  0.84415000  0.62862000  1.0
  C  C33  1  0.79583000  0.37138000  0.15584000  1.0
  C  C34  1  0.28756000  0.28653000  0.32643000  1.0
  C  C35  1  0.21244000  0.67358000  0.71346000  1.0
  C  C36  1  0.71244000  0.71346000  0.67358000  1.0
  C  C37  1  0.78757000  0.32642000  0.28654000  1.0
  C  C38  1  0.26894000  0.38770000  0.41779000  1.0
  C  C39  1  0.23105000  0.58221000  0.61231000  1.0
  C  C40  1  0.73106000  0.61230000  0.58221000  1.0
  C  C41  1  0.76894000  0.41778000  0.38769000  1.0
  C  C42  1  0.26011000  0.34815000  0.55346000  1.0
  C  C43  1  0.23988000  0.44654000  0.65185000  1.0
  C  C44  1  0.73989000  0.65185000  0.44654000  1.0
  C  C45  1  0.76011000  0.55346000  0.34815000  1.0
  C  C46  1  0.25857000  0.52559000  0.38118000  1.0
  C  C47  1  0.24143000  0.61882000  0.47441000  1.0
  C  C48  1  0.74143000  0.47441000  0.61882000  1.0
  C  C49  1  0.75857000  0.38118000  0.52559000  1.0
  S  S50  1  0.75000000  0.14236000  0.85764000  1.0
  S  S51  1  0.25000000  0.85764000  0.14236000  1.0
  N  N52  1  0.26923000  0.21989000  0.59583000  1.0
  N  N53  1  0.23076000  0.40417000  0.78011000  1.0
  N  N54  1  0.73077000  0.78011000  0.40416000  1.0
  N  N55  1  0.76924000  0.59583000  0.21989000  1.0
  O  O56  1  0.25330000  0.99402000  0.79829000  1.0
  O  O57  1  0.24670000  0.20171000  0.00598000  1.0
  O  O58  1  0.74670000  0.00597000  0.20171000  1.0
  O  O59  1  0.75331000  0.79829000  0.99402000  1.0
  O  O60  1  0.60142000  0.17056000  0.76679000  1.0
  O  O61  1  0.89857000  0.23321000  0.82945000  1.0
  O  O62  1  0.39858000  0.82945000  0.23321000  1.0
  O  O63  1  0.10143000  0.76679000  0.17056000  1.0
  O  O64  1  0.86292000  0.00074000  0.84186000  1.0
  O  O65  1  0.63707000  0.15814000  0.99927000  1.0
  O  O66  1  0.13708000  0.99926000  0.15814000  1.0
  O  O67  1  0.36293000  0.84186000  0.00073000  1.0
