# generated using pymatgen
data_CuH14C16S2(N2Cl)2
_symmetry_space_group_name_H-M   'P 1'
_cell_length_a   8.75701000
_cell_length_b   9.92769000
_cell_length_c   10.26410000
_cell_angle_alpha   89.99970000
_cell_angle_beta   81.27220000
_cell_angle_gamma   89.99990000
_symmetry_Int_Tables_number   1
_chemical_formula_structural   CuH14C16S2(N2Cl)2
_chemical_formula_sum   'Cu2 H28 C32 S4 N8 Cl4'
_cell_volume   881.99600602
_cell_formula_units_Z   2
loop_
 _symmetry_equiv_pos_site_id
 _symmetry_equiv_pos_as_xyz
  1  'x, y, z'
loop_
 _atom_site_type_symbol
 _atom_site_label
 _atom_site_symmetry_multiplicity
 _atom_site_fract_x
 _atom_site_fract_y
 _atom_site_fract_z
 _atom_site_occupancy
  Cu  Cu0  1  0.50000000  0.50000000  0.50000000  1.0
  Cu  Cu1  1  0.00000000  0.00000000  0.00000000  1.0
  H  H2  1  0.61650000  0.58860000  0.22906000  1.0
  H  H3  1  0.88350000  0.08860000  0.27094000  1.0
  H  H4  1  0.38350000  0.41140000  0.77094000  1.0
  H  H5  1  0.11651000  0.91140000  0.72906000  1.0
  H  H6  1  0.85476000  0.54486000  0.06407000  1.0
  H  H7  1  0.64524000  0.04486000  0.43593000  1.0
  H  H8  1  0.14524000  0.45514000  0.93593000  1.0
  H  H9  1  0.35476000  0.95514000  0.56407000  1.0
  H  H10  1  0.05975000  0.39186000  0.13783000  1.0
  H  H11  1  0.44025000  0.89186000  0.36217000  1.0
  H  H12  1  0.94025000  0.60814000  0.86217000  1.0
  H  H13  1  0.55975000  0.10814000  0.63783000  1.0
  H  H14  1  0.07099000  0.34067000  0.52994000  1.0
  H  H15  1  0.42901000  0.84067000  0.97006000  1.0
  H  H16  1  0.92901000  0.65933000  0.47006000  1.0
  H  H17  1  0.57099000  0.15933000  0.02994000  1.0
  H  H18  1  0.98771000  0.28554000  0.69227000  1.0
  H  H19  1  0.51229000  0.78554000  0.80773000  1.0
  H  H20  1  0.01229000  0.71446000  0.30773000  1.0
  H  H21  1  0.48771000  0.21446000  0.19227000  1.0
  H  H22  1  0.16464000  0.17454000  0.37497000  1.0
  H  H23  1  0.33536000  0.67454000  0.12503000  1.0
  H  H24  1  0.83536000  0.82547000  0.62503000  1.0
  H  H25  1  0.66464000  0.32547000  0.87497000  1.0
  H  H26  1  0.81784000  0.06460000  0.70003000  1.0
  H  H27  1  0.68216000  0.56460000  0.79997000  1.0
  H  H28  1  0.18216000  0.93540000  0.29997000  1.0
  H  H29  1  0.31784000  0.43540000  0.20003000  1.0
  C  C30  1  0.71194000  0.52801000  0.25342000  1.0
  C  C31  1  0.78805000  0.02801000  0.24657000  1.0
  C  C32  1  0.28806000  0.47198000  0.74658000  1.0
  C  C33  1  0.21195000  0.97199000  0.75342000  1.0
  C  C34  1  0.84326000  0.50319000  0.16271000  1.0
  C  C35  1  0.65674000  0.00319000  0.33729000  1.0
  C  C36  1  0.15674000  0.49681000  0.83729000  1.0
  C  C37  1  0.34326000  0.99681000  0.66271000  1.0
  C  C38  1  0.95594000  0.42154000  0.20439000  1.0
  C  C39  1  0.54406000  0.92154000  0.29561000  1.0
  C  C40  1  0.04406000  0.57846000  0.79561000  1.0
  C  C41  1  0.45594000  0.07846000  0.70439000  1.0
  C  C42  1  0.81593000  0.40531000  0.41049000  1.0
  C  C43  1  0.68406000  0.90531000  0.08951000  1.0
  C  C44  1  0.18407000  0.59468000  0.58951000  1.0
  C  C45  1  0.31593000  0.09469000  0.91049000  1.0
  C  C46  1  0.98003000  0.27918000  0.58632000  1.0
  C  C47  1  0.51996000  0.77918000  0.91368000  1.0
  C  C48  1  0.01996000  0.72082000  0.41368000  1.0
  C  C49  1  0.48004000  0.22082000  0.08632000  1.0
  C  C50  1  0.98902000  0.13544000  0.54092000  1.0
  C  C51  1  0.51098000  0.63544000  0.95908000  1.0
  C  C52  1  0.01098000  0.86456000  0.45908000  1.0
  C  C53  1  0.48902000  0.36456000  0.04092000  1.0
  C  C54  1  0.09259000  0.09757000  0.42919000  1.0
  C  C55  1  0.40741000  0.59757000  0.07081000  1.0
  C  C56  1  0.90741000  0.90244000  0.57081000  1.0
  C  C57  1  0.59259000  0.40243000  0.92919000  1.0
  C  C58  1  0.89638000  0.03656000  0.61115000  1.0
  C  C59  1  0.60362000  0.53656000  0.88885000  1.0
  C  C60  1  0.10362000  0.96345000  0.38885000  1.0
  C  C61  1  0.39637000  0.46344000  0.11115000  1.0
  S  S62  1  0.79441000  0.35927000  0.57619000  1.0
  S  S63  1  0.70558000  0.85927000  0.92381000  1.0
  S  S64  1  0.20559000  0.64073000  0.42382000  1.0
  S  S65  1  0.29441000  0.14072000  0.07618000  1.0
  N  N66  1  0.69645000  0.47695000  0.37587000  1.0
  N  N67  1  0.80355000  0.97695000  0.12413000  1.0
  N  N68  1  0.30355000  0.52305000  0.62413000  1.0
  N  N69  1  0.19645000  0.02305000  0.87587000  1.0
  N  N70  1  0.94399000  0.37428000  0.32772000  1.0
  N  N71  1  0.55601000  0.87428000  0.17228000  1.0
  N  N72  1  0.05601000  0.62572000  0.67228000  1.0
  N  N73  1  0.44399000  0.12572000  0.82772000  1.0
  Cl  Cl74  1  0.42352000  0.29267000  0.44433000  1.0
  Cl  Cl75  1  0.07648000  0.79267000  0.05567000  1.0
  Cl  Cl76  1  0.57648000  0.70733000  0.55567000  1.0
  Cl  Cl77  1  0.92352000  0.20733000  0.94433000  1.0
