# generated using pymatgen
data_AlH13C18N2O7
_symmetry_space_group_name_H-M   'P 1'
_cell_length_a   6.75502000
_cell_length_b   23.65360000
_cell_length_c   27.78430000
_cell_angle_alpha   85.46820000
_cell_angle_beta   89.99880000
_cell_angle_gamma   89.99910000
_symmetry_Int_Tables_number   1
_chemical_formula_structural   AlH13C18N2O7
_chemical_formula_sum   'Al4 H52 C72 N8 O28'
_cell_volume   4425.51132747
_cell_formula_units_Z   4
loop_
 _symmetry_equiv_pos_site_id
 _symmetry_equiv_pos_as_xyz
  1  'x, y, z'
loop_
 _atom_site_type_symbol
 _atom_site_label
 _atom_site_symmetry_multiplicity
 _atom_site_fract_x
 _atom_site_fract_y
 _atom_site_fract_z
 _atom_site_occupancy
  Al  Al0  1  0.24688000  0.75190000  0.74802000  1.0
  Al  Al1  1  0.74201000  0.24889000  0.25114000  1.0
  Al  Al2  1  0.74687000  0.74811000  0.75199000  1.0
  Al  Al3  1  0.24200000  0.25112000  0.24886000  1.0
  H  H4  1  0.70299000  0.39223000  0.44570000  1.0
  H  H5  1  0.28174000  0.60556000  0.55611000  1.0
  H  H6  1  0.20304000  0.10775000  0.05432000  1.0
  H  H7  1  0.78177000  0.89444000  0.94389000  1.0
  H  H8  1  0.32366000  0.42882000  0.06348000  1.0
  H  H9  1  0.69933000  0.56578000  0.93936000  1.0
  H  H10  1  0.82365000  0.07119000  0.43651000  1.0
  H  H11  1  0.19935000  0.93422000  0.56062000  1.0
  H  H12  1  0.29992000  0.35758000  0.13237000  1.0
  H  H13  1  0.70054000  0.63400000  0.86808000  1.0
  H  H14  1  0.79987000  0.14242000  0.36761000  1.0
  H  H15  1  0.20053000  0.86599000  0.63191000  1.0
  H  H16  1  0.58713000  0.45650000  0.16399000  1.0
  H  H17  1  0.69409000  0.40297000  0.20594000  1.0
  H  H18  1  0.43618000  0.39994000  0.19004000  1.0
  H  H19  1  0.44605000  0.69054000  0.92757000  1.0
  H  H20  1  0.29740000  0.72685000  0.88084000  1.0
  H  H21  1  0.55376000  0.71371000  0.87010000  1.0
  H  H22  1  0.08714000  0.04351000  0.33599000  1.0
  H  H23  1  0.19408000  0.09705000  0.29405000  1.0
  H  H24  1  0.93617000  0.10006000  0.30996000  1.0
  H  H25  1  0.94606000  0.80947000  0.57243000  1.0
  H  H26  1  0.79741000  0.77315000  0.61916000  1.0
  H  H27  1  0.05379000  0.78629000  0.62990000  1.0
  H  H28  1  0.57883000  0.36149000  0.02185000  1.0
  H  H29  1  0.72556000  0.41021000  0.98361000  1.0
  H  H30  1  0.46903000  0.42494000  0.99385000  1.0
  H  H31  1  0.43842000  0.51555000  0.87026000  1.0
  H  H32  1  0.30271000  0.47075000  0.91426000  1.0
  H  H33  1  0.55983000  0.48567000  0.92378000  1.0
  H  H34  1  0.07879000  0.13850000  0.47814000  1.0
  H  H35  1  0.22553000  0.08979000  0.51639000  1.0
  H  H36  1  0.96901000  0.07504000  0.50615000  1.0
  H  H37  1  0.93842000  0.98445000  0.62974000  1.0
  H  H38  1  0.80271000  0.02925000  0.58574000  1.0
  H  H39  1  0.05985000  0.01433000  0.57622000  1.0
  H  H40  1  0.70015000  0.32842000  0.37777000  1.0
  H  H41  1  0.28637000  0.66849000  0.62464000  1.0
  H  H42  1  0.20018000  0.17157000  0.12224000  1.0
  H  H43  1  0.78639000  0.83151000  0.87535000  1.0
  H  H44  1  0.28972000  0.44850000  0.40413000  1.0
  H  H45  1  0.69809000  0.54777000  0.59883000  1.0
  H  H46  1  0.78980000  0.05150000  0.09586000  1.0
  H  H47  1  0.19811000  0.95223000  0.90119000  1.0
  H  H48  1  0.29048000  0.38130000  0.33866000  1.0
  H  H49  1  0.69896000  0.61401000  0.66505000  1.0
  H  H50  1  0.79058000  0.11871000  0.16133000  1.0
  H  H51  1  0.19894000  0.88600000  0.83495000  1.0
  H  H52  1  0.48385000  0.68041000  0.77527000  1.0
  H  H53  1  0.49895000  0.32081000  0.22962000  1.0
  H  H54  1  0.98387000  0.81960000  0.72473000  1.0
  H  H55  1  0.99896000  0.17919000  0.27037000  1.0
  C  C56  1  0.49671000  0.81785000  0.81054000  1.0
  C  C57  1  0.49265000  0.18628000  0.18626000  1.0
  C  C58  1  0.99672000  0.68216000  0.68946000  1.0
  C  C59  1  0.99263000  0.31372000  0.31375000  1.0
  C  C60  1  0.50375000  0.81629000  0.67915000  1.0
  C  C61  1  0.48718000  0.17912000  0.31760000  1.0
  C  C62  1  0.00373000  0.68371000  0.82085000  1.0
  C  C63  1  0.98721000  0.32089000  0.18241000  1.0
  C  C64  1  0.17900000  0.41512000  0.07689000  1.0
  C  C65  1  0.83901000  0.57918000  0.92278000  1.0
  C  C66  1  0.67900000  0.08488000  0.42311000  1.0
  C  C67  1  0.33903000  0.92081000  0.57721000  1.0
  C  C68  1  0.16595000  0.37688000  0.11704000  1.0
  C  C69  1  0.83999000  0.61943000  0.88388000  1.0
  C  C70  1  0.66592000  0.12313000  0.38295000  1.0
  C  C71  1  0.34000000  0.88057000  0.61612000  1.0
  C  C72  1  0.98386000  0.36223000  0.13897000  1.0
  C  C73  1  0.01667000  0.64183000  0.86380000  1.0
  C  C74  1  0.48382000  0.13777000  0.36103000  1.0
  C  C75  1  0.51667000  0.85817000  0.63621000  1.0
  C  C76  1  0.80890000  0.38577000  0.11772000  1.0
  C  C77  1  0.19833000  0.62133000  0.88375000  1.0
  C  C78  1  0.30889000  0.11422000  0.38228000  1.0
  C  C79  1  0.69832000  0.87868000  0.61624000  1.0
  C  C80  1  0.82031000  0.41975000  0.07387000  1.0
  C  C81  1  0.19764000  0.57589000  0.91965000  1.0
  C  C82  1  0.32032000  0.08024000  0.42613000  1.0
  C  C83  1  0.69767000  0.92411000  0.58034000  1.0
  C  C84  1  0.00587000  0.43688000  0.05401000  1.0
  C  C85  1  0.01833000  0.55538000  0.94066000  1.0
  C  C86  1  0.50588000  0.06312000  0.44599000  1.0
  C  C87  1  0.51836000  0.94462000  0.55934000  1.0
  C  C88  1  0.01410000  0.47640000  0.01309000  1.0
  C  C89  1  0.01950000  0.51242000  0.97907000  1.0
  C  C90  1  0.51411000  0.02360000  0.48690000  1.0
  C  C91  1  0.51951000  0.98756000  0.52092000  1.0
  C  C92  1  0.82891000  0.35449000  0.38437000  1.0
  C  C93  1  0.15767000  0.64234000  0.61815000  1.0
  C  C94  1  0.32890000  0.14551000  0.11564000  1.0
  C  C95  1  0.65768000  0.85767000  0.88185000  1.0
  C  C96  1  0.83023000  0.39010000  0.42182000  1.0
  C  C97  1  0.15557000  0.60717000  0.58039000  1.0
  C  C98  1  0.33023000  0.10989000  0.07819000  1.0
  C  C99  1  0.65560000  0.89283000  0.91961000  1.0
  C  C100  1  0.99622000  0.42448000  0.42896000  1.0
  C  C101  1  0.99027000  0.57243000  0.57356000  1.0
  C  C102  1  0.49623000  0.07552000  0.07104000  1.0
  C  C103  1  0.49030000  0.92757000  0.92645000  1.0
  C  C104  1  0.16229000  0.42153000  0.39863000  1.0
  C  C105  1  0.82521000  0.57486000  0.60426000  1.0
  C  C106  1  0.66232000  0.07847000  0.10136000  1.0
  C  C107  1  0.32524000  0.92514000  0.89575000  1.0
  C  C108  1  0.16230000  0.38465000  0.36209000  1.0
  C  C109  1  0.82595000  0.61128000  0.64115000  1.0
  C  C110  1  0.66232000  0.11536000  0.13790000  1.0
  C  C111  1  0.32595000  0.88873000  0.85886000  1.0
  C  C112  1  0.99493000  0.35147000  0.35438000  1.0
  C  C113  1  0.99308000  0.64458000  0.64874000  1.0
  C  C114  1  0.49492000  0.14853000  0.14562000  1.0
  C  C115  1  0.49308000  0.85542000  0.85126000  1.0
  C  C116  1  0.99158000  0.53322000  0.53502000  1.0
  C  C117  1  0.99512000  0.46361000  0.46756000  1.0
  C  C118  1  0.49158000  0.96678000  0.96499000  1.0
  C  C119  1  0.49514000  0.03639000  0.03245000  1.0
  C  C120  1  0.58524000  0.41123000  0.17677000  1.0
  C  C121  1  0.42000000  0.69702000  0.88839000  1.0
  C  C122  1  0.08523000  0.08877000  0.32323000  1.0
  C  C123  1  0.92001000  0.80299000  0.61160000  1.0
  C  C124  1  0.60428000  0.40646000  0.01010000  1.0
  C  C125  1  0.42023000  0.50293000  0.90901000  1.0
  C  C126  1  0.10425000  0.09353000  0.48990000  1.0
  C  C127  1  0.92024000  0.99707000  0.59099000  1.0
  N  N128  1  0.14576000  0.50137000  0.46888000  1.0
  N  N129  1  0.84161000  0.49525000  0.53389000  1.0
  N  N130  1  0.64578000  0.99862000  0.03112000  1.0
  N  N131  1  0.34164000  0.00474000  0.96613000  1.0
  N  N132  1  0.14399000  0.53669000  0.50315000  1.0
  N  N133  1  0.84345000  0.45986000  0.49964000  1.0
  N  N134  1  0.64400000  0.96329000  0.99685000  1.0
  N  N135  1  0.34348000  0.04012000  0.00037000  1.0
  O  O136  1  0.66406000  0.79871000  0.69904000  1.0
  O  O137  1  0.32347000  0.19640000  0.29926000  1.0
  O  O138  1  0.16407000  0.70129000  0.80095000  1.0
  O  O139  1  0.82349000  0.30363000  0.20077000  1.0
  O  O140  1  0.33030000  0.80632000  0.79199000  1.0
  O  O141  1  0.66000000  0.19836000  0.20393000  1.0
  O  O142  1  0.83035000  0.69369000  0.70801000  1.0
  O  O143  1  0.15995000  0.30166000  0.29606000  1.0
  O  O144  1  0.33061000  0.80164000  0.69404000  1.0
  O  O145  1  0.65781000  0.19480000  0.30180000  1.0
  O  O146  1  0.83063000  0.69836000  0.80596000  1.0
  O  O147  1  0.15784000  0.30519000  0.19820000  1.0
  O  O148  1  0.16622000  0.69932000  0.70218000  1.0
  O  O149  1  0.82329000  0.29773000  0.29985000  1.0
  O  O150  1  0.66621000  0.80068000  0.79783000  1.0
  O  O151  1  0.32334000  0.20227000  0.20016000  1.0
  O  O152  1  0.49450000  0.71506000  0.75419000  1.0
  O  O153  1  0.49331000  0.28458000  0.24850000  1.0
  O  O154  1  0.99450000  0.78494000  0.74581000  1.0
  O  O155  1  0.99332000  0.21543000  0.25150000  1.0
  O  O156  1  0.62421000  0.37668000  0.13744000  1.0
  O  O157  1  0.37864000  0.64315000  0.86916000  1.0
  O  O158  1  0.12420000  0.12331000  0.36257000  1.0
  O  O159  1  0.87863000  0.85686000  0.63084000  1.0
  O  O160  1  0.64875000  0.43815000  0.05105000  1.0
  O  O161  1  0.37379000  0.55155000  0.93514000  1.0
  O  O162  1  0.14877000  0.06184000  0.44895000  1.0
  O  O163  1  0.87381000  0.94845000  0.56486000  1.0
