# generated using pymatgen
data_ZnH6C14(NO3)4
_symmetry_space_group_name_H-M   'P 1'
_cell_length_a   11.16460000
_cell_length_b   11.16460000
_cell_length_c   11.53070000
_cell_angle_alpha   89.99980000
_cell_angle_beta   90.00010000
_cell_angle_gamma   60.00000000
_symmetry_Int_Tables_number   1
_chemical_formula_structural   ZnH6C14(NO3)4
_chemical_formula_sum   'Zn3 H18 C42 N12 O36'
_cell_volume   1244.72278842
_cell_formula_units_Z   3
loop_
 _symmetry_equiv_pos_site_id
 _symmetry_equiv_pos_as_xyz
  1  'x, y, z'
loop_
 _atom_site_type_symbol
 _atom_site_label
 _atom_site_symmetry_multiplicity
 _atom_site_fract_x
 _atom_site_fract_y
 _atom_site_fract_z
 _atom_site_occupancy
  Zn  Zn0  1  0.99999000  0.94907000  0.16668000  1.0
  Zn  Zn1  1  0.94906000  0.05093000  0.83333000  1.0
  Zn  Zn2  1  0.05094000  0.00000000  0.50000000  1.0
  H  H3  1  0.29290000  0.12791000  0.42574000  1.0
  H  H4  1  0.12791000  0.57918000  0.09241000  1.0
  H  H5  1  0.57918000  0.29291000  0.75906000  1.0
  H  H6  1  0.70709000  0.42082000  0.90759000  1.0
  H  H7  1  0.87209000  0.70709000  0.24095000  1.0
  H  H8  1  0.42081000  0.87209000  0.57426000  1.0
  H  H9  1  0.68045000  0.00925000  0.25357000  1.0
  H  H10  1  0.00926000  0.31029000  0.92024000  1.0
  H  H11  1  0.31029000  0.68046000  0.58689000  1.0
  H  H12  1  0.31955000  0.68971000  0.07976000  1.0
  H  H13  1  0.99075000  0.31955000  0.41311000  1.0
  H  H14  1  0.68970000  0.99075000  0.74643000  1.0
  H  H15  1  0.40184000  0.88199000  0.11421000  1.0
  H  H16  1  0.88200000  0.71616000  0.78088000  1.0
  H  H17  1  0.71617000  0.40185000  0.44753000  1.0
  H  H18  1  0.59816000  0.28383000  0.21912000  1.0
  H  H19  1  0.11801000  0.59816000  0.55247000  1.0
  H  H20  1  0.28383000  0.11801000  0.88579000  1.0
  C  C21  1  0.33411000  0.00331000  0.27167000  1.0
  C  C22  1  0.00330000  0.66259000  0.93834000  1.0
  C  C23  1  0.66258000  0.33412000  0.60500000  1.0
  C  C24  1  0.66588000  0.33742000  0.06166000  1.0
  C  C25  1  0.99669000  0.66589000  0.39501000  1.0
  C  C26  1  0.33742000  0.99669000  0.72833000  1.0
  C  C27  1  0.36459000  0.07487000  0.35500000  1.0
  C  C28  1  0.07487000  0.56053000  0.02167000  1.0
  C  C29  1  0.56054000  0.36459000  0.68832000  1.0
  C  C30  1  0.63540000  0.43947000  0.97833000  1.0
  C  C31  1  0.92512000  0.63542000  0.31168000  1.0
  C  C32  1  0.43946000  0.92513000  0.64500000  1.0
  C  C33  1  0.48798000  0.07676000  0.34591000  1.0
  C  C34  1  0.07677000  0.43525000  0.01258000  1.0
  C  C35  1  0.43525000  0.48799000  0.67923000  1.0
  C  C36  1  0.51202000  0.56474000  0.98742000  1.0
  C  C37  1  0.92323000  0.51202000  0.32077000  1.0
  C  C38  1  0.56474000  0.92324000  0.65409000  1.0
  C  C39  1  0.58365000  0.00820000  0.25829000  1.0
  C  C40  1  0.00821000  0.40814000  0.92496000  1.0
  C  C41  1  0.40814000  0.58365000  0.59161000  1.0
  C  C42  1  0.41635000  0.59185000  0.07504000  1.0
  C  C43  1  0.99179000  0.41635000  0.40839000  1.0
  C  C44  1  0.59185000  0.99180000  0.74171000  1.0
  C  C45  1  0.54938000  0.93823000  0.17697000  1.0
  C  C46  1  0.93824000  0.51238000  0.84363000  1.0
  C  C47  1  0.51238000  0.54939000  0.51029000  1.0
  C  C48  1  0.45061000  0.48762000  0.15637000  1.0
  C  C49  1  0.06178000  0.45061000  0.48971000  1.0
  C  C50  1  0.48762000  0.06177000  0.82304000  1.0
  C  C51  1  0.42632000  0.93529000  0.18088000  1.0
  C  C52  1  0.93530000  0.63838000  0.84754000  1.0
  C  C53  1  0.63839000  0.42632000  0.51420000  1.0
  C  C54  1  0.57367000  0.36162000  0.15246000  1.0
  C  C55  1  0.06471000  0.57368000  0.48580000  1.0
  C  C56  1  0.36161000  0.06471000  0.81913000  1.0
  C  C57  1  0.20154000  0.00047000  0.27994000  1.0
  C  C58  1  0.00047000  0.79798000  0.94662000  1.0
  C  C59  1  0.79799000  0.20155000  0.61327000  1.0
  C  C60  1  0.79845000  0.20201000  0.05339000  1.0
  C  C61  1  0.99953000  0.79846000  0.38674000  1.0
  C  C62  1  0.20202000  0.99952000  0.72006000  1.0
  N  N63  1  0.52165000  0.15115000  0.43359000  1.0
  N  N64  1  0.15116000  0.32720000  0.10027000  1.0
  N  N65  1  0.32720000  0.52164000  0.76692000  1.0
  N  N66  1  0.47835000  0.67281000  0.89973000  1.0
  N  N67  1  0.84885000  0.47836000  0.23308000  1.0
  N  N68  1  0.67279000  0.84885000  0.56640000  1.0
  N  N69  1  0.64688000  0.86828000  0.08141000  1.0
  N  N70  1  0.86829000  0.48483000  0.74808000  1.0
  N  N71  1  0.48483000  0.64689000  0.41473000  1.0
  N  N72  1  0.35311000  0.51517000  0.25193000  1.0
  N  N73  1  0.13172000  0.35312000  0.58527000  1.0
  N  N74  1  0.51517000  0.13171000  0.91859000  1.0
  O  O75  1  0.17455000  0.94389000  0.19570000  1.0
  O  O76  1  0.94389000  0.88156000  0.86237000  1.0
  O  O77  1  0.88157000  0.17456000  0.52902000  1.0
  O  O78  1  0.82543000  0.11844000  0.13764000  1.0
  O  O79  1  0.05612000  0.82545000  0.47099000  1.0
  O  O80  1  0.11843000  0.05612000  0.80431000  1.0
  O  O81  1  0.12575000  0.05630000  0.36822000  1.0
  O  O82  1  0.05628000  0.81796000  0.03490000  1.0
  O  O83  1  0.81794000  0.12577000  0.70153000  1.0
  O  O84  1  0.87424000  0.18204000  0.96511000  1.0
  O  O85  1  0.94370000  0.87425000  0.29847000  1.0
  O  O86  1  0.18205000  0.94370000  0.63179000  1.0
  O  O87  1  0.43732000  0.21049000  0.51300000  1.0
  O  O88  1  0.21049000  0.35219000  0.17966000  1.0
  O  O89  1  0.35219000  0.43732000  0.84632000  1.0
  O  O90  1  0.56268000  0.64781000  0.82033000  1.0
  O  O91  1  0.78952000  0.56268000  0.15368000  1.0
  O  O92  1  0.64781000  0.78952000  0.48701000  1.0
  O  O93  1  0.63370000  0.14812000  0.42373000  1.0
  O  O94  1  0.14812000  0.21817000  0.09040000  1.0
  O  O95  1  0.21818000  0.63370000  0.75705000  1.0
  O  O96  1  0.36629000  0.78182000  0.90960000  1.0
  O  O97  1  0.85189000  0.36629000  0.24294000  1.0
  O  O98  1  0.78183000  0.85188000  0.57627000  1.0
  O  O99  1  0.75992000  0.86428000  0.08556000  1.0
  O  O100  1  0.86427000  0.37581000  0.75223000  1.0
  O  O101  1  0.37580000  0.75993000  0.41889000  1.0
  O  O102  1  0.24007000  0.62420000  0.24777000  1.0
  O  O103  1  0.13573000  0.24007000  0.58111000  1.0
  O  O104  1  0.62421000  0.13572000  0.91444000  1.0
  O  O105  1  0.61056000  0.81952000  0.00129000  1.0
  O  O106  1  0.81952000  0.56991000  0.66795000  1.0
  O  O107  1  0.56992000  0.61057000  0.33461000  1.0
  O  O108  1  0.38943000  0.43009000  0.33205000  1.0
  O  O109  1  0.18049000  0.38943000  0.66539000  1.0
  O  O110  1  0.43009000  0.18048000  0.99871000  1.0
