# generated using pymatgen
data_Zn3H26C28S2(N3O2)6
_symmetry_space_group_name_H-M   'P 1'
_cell_length_a   8.89409000
_cell_length_b   11.82640000
_cell_length_c   12.41830000
_cell_angle_alpha   78.78500000
_cell_angle_beta   77.58260000
_cell_angle_gamma   76.04500000
_symmetry_Int_Tables_number   1
_chemical_formula_structural   Zn3H26C28S2(N3O2)6
_chemical_formula_sum   'Zn3 H26 C28 S2 N18 O12'
_cell_volume   1223.91316299
_cell_formula_units_Z   1
loop_
 _symmetry_equiv_pos_site_id
 _symmetry_equiv_pos_as_xyz
  1  'x, y, z'
loop_
 _atom_site_type_symbol
 _atom_site_label
 _atom_site_symmetry_multiplicity
 _atom_site_fract_x
 _atom_site_fract_y
 _atom_site_fract_z
 _atom_site_occupancy
  Zn  Zn0  1  0.27954000  0.74123000  0.89972000  1.0
  Zn  Zn1  1  0.72045000  0.25878000  0.10028000  1.0
  Zn  Zn2  1  0.00000000  0.00000000  0.00000000  1.0
  H  H3  1  0.03058000  0.38657000  0.25501000  1.0
  H  H4  1  0.88656000  0.51538000  0.24416000  1.0
  H  H5  1  0.00964000  0.59769000  0.04124000  1.0
  H  H6  1  0.44125000  0.61869000  0.11581000  1.0
  H  H7  1  0.76466000  0.65122000  0.30757000  1.0
  H  H8  1  0.70998000  0.73219000  0.41865000  1.0
  H  H9  1  0.83531000  0.79062000  0.13246000  1.0
  H  H10  1  0.10275000  0.96892000  0.25593000  1.0
  H  H11  1  0.11366000  0.25882000  0.35295000  1.0
  H  H12  1  0.17579000  0.20884000  0.48057000  1.0
  H  H13  1  0.33457000  0.26693000  0.18522000  1.0
  H  H14  1  0.68222000  0.30491000  0.35125000  1.0
  H  H15  1  0.32943000  0.07355000  0.01101000  1.0
  H  H16  1  0.96943000  0.61343000  0.74498000  1.0
  H  H17  1  0.11345000  0.48462000  0.75583000  1.0
  H  H18  1  0.99037000  0.40232000  0.95875000  1.0
  H  H19  1  0.55875000  0.38132000  0.88419000  1.0
  H  H20  1  0.23534000  0.34878000  0.69242000  1.0
  H  H21  1  0.29001000  0.26780000  0.58135000  1.0
  H  H22  1  0.16471000  0.20937000  0.86753000  1.0
  H  H23  1  0.89723000  0.03109000  0.74410000  1.0
  H  H24  1  0.88633000  0.74118000  0.64705000  1.0
  H  H25  1  0.82420000  0.79116000  0.51943000  1.0
  H  H26  1  0.66541000  0.73312000  0.81476000  1.0
  H  H27  1  0.31780000  0.69500000  0.64877000  1.0
  H  H28  1  0.67056000  0.92645000  0.98900000  1.0
  C  C29  1  0.99894000  0.48896000  0.38924000  1.0
  C  C30  1  0.91294000  0.59136000  0.43359000  1.0
  C  C31  1  0.08475000  0.39658000  0.45620000  1.0
  C  C32  1  0.00121000  0.47815000  0.26967000  1.0
  C  C33  1  0.10803000  0.58747000  0.08445000  1.0
  C  C34  1  0.32692000  0.59716000  0.12492000  1.0
  C  C35  1  0.81232000  0.68768000  0.36449000  1.0
  C  C36  1  0.89559000  0.81840000  0.18675000  1.0
  C  C37  1  0.03283000  0.90648000  0.25154000  1.0
  C  C38  1  0.17148000  0.28292000  0.41214000  1.0
  C  C39  1  0.39621000  0.27873000  0.24762000  1.0
  C  C40  1  0.56954000  0.29916000  0.33495000  1.0
  C  C41  1  0.38754000  0.89007000  0.97744000  1.0
  C  C42  1  0.42562000  0.99761000  0.99928000  1.0
  C  C43  1  0.00106000  0.51104000  0.61075000  1.0
  C  C44  1  0.08705000  0.40864000  0.56642000  1.0
  C  C45  1  0.91525000  0.60342000  0.54380000  1.0
  C  C46  1  0.99880000  0.52185000  0.73032000  1.0
  C  C47  1  0.89197000  0.41254000  0.91554000  1.0
  C  C48  1  0.67308000  0.40285000  0.87507000  1.0
  C  C49  1  0.18767000  0.31232000  0.63551000  1.0
  C  C50  1  0.10442000  0.18160000  0.81325000  1.0
  C  C51  1  0.96715000  0.09353000  0.74848000  1.0
  C  C52  1  0.82851000  0.71708000  0.58785000  1.0
  C  C53  1  0.60378000  0.72129000  0.75237000  1.0
  C  C54  1  0.43048000  0.70079000  0.66507000  1.0
  C  C55  1  0.61246000  0.10993000  0.02256000  1.0
  C  C56  1  0.57438000  0.00240000  0.00073000  1.0
  S  S57  1  0.93701000  0.78737000  0.86493000  1.0
  S  S58  1  0.06300000  0.21264000  0.13507000  1.0
  N  N59  1  0.24129000  0.62618000  0.04043000  1.0
  N  N60  1  0.11500000  0.53906000  0.19074000  1.0
  N  N61  1  0.25392000  0.54345000  0.21797000  1.0
  N  N62  1  0.98135000  0.90153000  0.15664000  1.0
  N  N63  1  0.89728000  0.77514000  0.29470000  1.0
  N  N64  1  0.98386000  0.83024000  0.33793000  1.0
  N  N65  1  0.54770000  0.28610000  0.23260000  1.0
  N  N66  1  0.33249000  0.28676000  0.35472000  1.0
  N  N67  1  0.44072000  0.30034000  0.41159000  1.0
  N  N68  1  0.75871000  0.37383000  0.95957000  1.0
  N  N69  1  0.88500000  0.46094000  0.80925000  1.0
  N  N70  1  0.74608000  0.45656000  0.78203000  1.0
  N  N71  1  0.01865000  0.09848000  0.84337000  1.0
  N  N72  1  0.10272000  0.22486000  0.70531000  1.0
  N  N73  1  0.01611000  0.16977000  0.66209000  1.0
  N  N74  1  0.45231000  0.71390000  0.76740000  1.0
  N  N75  1  0.66751000  0.71323000  0.64528000  1.0
  N  N76  1  0.55929000  0.69961000  0.58842000  1.0
  O  O77  1  0.11065000  0.75027000  0.81408000  1.0
  O  O78  1  0.92791000  0.86149000  0.95245000  1.0
  O  O79  1  0.87566000  0.68053000  0.91879000  1.0
  O  O80  1  0.85269000  0.85455000  0.77521000  1.0
  O  O81  1  0.25110000  0.90232000  0.94660000  1.0
  O  O82  1  0.48178000  0.79236000  0.98308000  1.0
  O  O83  1  0.88935000  0.24976000  0.18591000  1.0
  O  O84  1  0.07209000  0.13851000  0.04755000  1.0
  O  O85  1  0.12435000  0.31947000  0.08120000  1.0
  O  O86  1  0.14730000  0.14546000  0.22479000  1.0
  O  O87  1  0.74890000  0.09768000  0.05340000  1.0
  O  O88  1  0.51823000  0.20765000  0.01692000  1.0
