# generated using pymatgen
data_Hf3H10(C9O8)2
_symmetry_space_group_name_H-M   'P 1'
_cell_length_a   12.87450000
_cell_length_b   15.05370000
_cell_length_c   15.08910000
_cell_angle_alpha   90.02310000
_cell_angle_beta   89.90190000
_cell_angle_gamma   89.94670000
_symmetry_Int_Tables_number   1
_chemical_formula_structural   Hf3H10(C9O8)2
_chemical_formula_sum   'Hf6 H20 C36 O32'
_cell_volume   2924.39548784
_cell_formula_units_Z   2
loop_
 _symmetry_equiv_pos_site_id
 _symmetry_equiv_pos_as_xyz
  1  'x, y, z'
loop_
 _atom_site_type_symbol
 _atom_site_label
 _atom_site_symmetry_multiplicity
 _atom_site_fract_x
 _atom_site_fract_y
 _atom_site_fract_z
 _atom_site_occupancy
  Hf  Hf0  1  0.00705000  0.98872000  0.83611000  1.0
  Hf  Hf1  1  0.00737000  0.83188000  0.00696000  1.0
  Hf  Hf2  1  0.00969000  0.16536000  0.98882000  1.0
  Hf  Hf3  1  0.00365000  0.00651000  0.16132000  1.0
  Hf  Hf4  1  0.81286000  0.99863000  0.99723000  1.0
  Hf  Hf5  1  0.20052000  0.99704000  0.99861000  1.0
  H  H6  1  0.15592000  0.86057000  0.86757000  1.0
  H  H7  1  0.85558000  0.87005000  0.13383000  1.0
  H  H8  1  0.15607000  0.13268000  0.12863000  1.0
  H  H9  1  0.86996000  0.13496000  0.85676000  1.0
  H  H10  1  0.95391000  0.71094000  0.13309000  1.0
  H  H11  1  0.00601000  0.82408000  0.19949000  1.0
  H  H12  1  0.95190000  0.13006000  0.27725000  1.0
  H  H13  1  0.00425000  0.20077000  0.16961000  1.0
  H  H14  1  0.05338000  0.28832000  0.87264000  1.0
  H  H15  1  0.95013000  0.07037000  0.67674000  1.0
  H  H16  1  0.95441000  0.86518000  0.71898000  1.0
  H  H17  1  0.00320000  0.79666000  0.82553000  1.0
  H  H18  1  0.93958000  0.27563000  0.11408000  1.0
  H  H19  1  0.07313000  0.07698000  0.69166000  1.0
  H  H20  1  0.93568000  0.72129000  0.87949000  1.0
  H  H21  1  0.07325000  0.87931000  0.27262000  1.0
  H  H22  1  0.69930000  0.99835000  0.49560000  1.0
  H  H23  1  0.31375000  0.99802000  0.49895000  1.0
  H  H24  1  0.69900000  0.49717000  0.99905000  1.0
  H  H25  1  0.31302000  0.49717000  0.99734000  1.0
  C  C26  1  0.75787000  0.98700000  0.78910000  1.0
  C  C27  1  0.25421000  0.78975000  0.00722000  1.0
  C  C28  1  0.75663000  0.79009000  0.99701000  1.0
  C  C29  1  0.25887000  0.00167000  0.79193000  1.0
  C  C30  1  0.25904000  0.20241000  0.98811000  1.0
  C  C31  1  0.75628000  0.00964000  0.20431000  1.0
  C  C32  1  0.25409000  0.99365000  0.20602000  1.0
  C  C33  1  0.75427000  0.20260000  0.00261000  1.0
  C  C34  1  0.56275000  0.99691000  0.57828000  1.0
  C  C35  1  0.45194000  0.99839000  0.57921000  1.0
  C  C36  1  0.39837000  0.99818000  0.49832000  1.0
  C  C37  1  0.45032000  0.99825000  0.41647000  1.0
  C  C38  1  0.56113000  0.00002000  0.41558000  1.0
  C  C39  1  0.61470000  0.99843000  0.49650000  1.0
  C  C40  1  0.56129000  0.57870000  0.99890000  1.0
  C  C41  1  0.45041000  0.57867000  0.99969000  1.0
  C  C42  1  0.39764000  0.49714000  0.99773000  1.0
  C  C43  1  0.45079000  0.41575000  0.99635000  1.0
  C  C44  1  0.56156000  0.41577000  0.99832000  1.0
  C  C45  1  0.61437000  0.49722000  0.99883000  1.0
  C  C46  1  0.39297000  0.33622000  0.99306000  1.0
  C  C47  1  0.33663000  0.27141000  0.98936000  1.0
  C  C48  1  0.67618000  0.27141000  0.00234000  1.0
  C  C49  1  0.61969000  0.33628000  0.99995000  1.0
  C  C50  1  0.39121000  0.65765000  0.00264000  1.0
  C  C51  1  0.33188000  0.72062000  0.00606000  1.0
  C  C52  1  0.67891000  0.72126000  0.99656000  1.0
  C  C53  1  0.62024000  0.65781000  0.99802000  1.0
  C  C54  1  0.39058000  0.99640000  0.33807000  1.0
  C  C55  1  0.33147000  0.99387000  0.27518000  1.0
  C  C56  1  0.61961000  0.00364000  0.33637000  1.0
  C  C57  1  0.67847000  0.00794000  0.27324000  1.0
  C  C58  1  0.33635000  0.00255000  0.72278000  1.0
  C  C59  1  0.39392000  0.00015000  0.65869000  1.0
  C  C60  1  0.68047000  0.98942000  0.72017000  1.0
  C  C61  1  0.62219000  0.99362000  0.65679000  1.0
  O  O62  1  0.85207000  0.98355000  0.76104000  1.0
  O  O63  1  0.72818000  0.98953000  0.86914000  1.0
  O  O64  1  0.16045000  0.76273000  0.00841000  1.0
  O  O65  1  0.28543000  0.87024000  0.00558000  1.0
  O  O66  1  0.85086000  0.76196000  0.99623000  1.0
  O  O67  1  0.72672000  0.87057000  0.99941000  1.0
  O  O68  1  0.16480000  0.00682000  0.76465000  1.0
  O  O69  1  0.28877000  0.99400000  0.87170000  1.0
  O  O70  1  0.01124000  0.87025000  0.76098000  1.0
  O  O71  1  0.00449000  0.08699000  0.71847000  1.0
  O  O72  1  0.00195000  0.75250000  0.88045000  1.0
  O  O73  1  0.00334000  0.75884000  0.12522000  1.0
  O  O74  1  0.92443000  0.92614000  0.93206000  1.0
  O  O75  1  0.11502000  0.89931000  0.90550000  1.0
  O  O76  1  0.16576000  0.23047000  0.98365000  1.0
  O  O77  1  0.28907000  0.12175000  0.99279000  1.0
  O  O78  1  0.85005000  0.01372000  0.23194000  1.0
  O  O79  1  0.72594000  0.00557000  0.12414000  1.0
  O  O80  1  0.15994000  0.99010000  0.23282000  1.0
  O  O81  1  0.28549000  0.99844000  0.12615000  1.0
  O  O82  1  0.84693000  0.22966000  0.01234000  1.0
  O  O83  1  0.72478000  0.12226000  0.99149000  1.0
  O  O84  1  0.00641000  0.24494000  0.11564000  1.0
  O  O85  1  0.99437000  0.25210000  0.88950000  1.0
  O  O86  1  0.00841000  0.12486000  0.23478000  1.0
  O  O87  1  0.00623000  0.87946000  0.24253000  1.0
  O  O88  1  0.11464000  0.09518000  0.09007000  1.0
  O  O89  1  0.92457000  0.06801000  0.06116000  1.0
  O  O90  1  0.09113000  0.06395000  0.92616000  1.0
  O  O91  1  0.89668000  0.90787000  0.09538000  1.0
  O  O92  1  0.90341000  0.09187000  0.89535000  1.0
  O  O93  1  0.08748000  0.93094000  0.06831000  1.0
