# generated using pymatgen
data_NiH20C24(NO3)2
_symmetry_space_group_name_H-M   'P 1'
_cell_length_a   7.48642000
_cell_length_b   10.76750000
_cell_length_c   14.24360000
_cell_angle_alpha   106.81000000
_cell_angle_beta   95.74250000
_cell_angle_gamma   105.15800000
_symmetry_Int_Tables_number   1
_chemical_formula_structural   NiH20C24(NO3)2
_chemical_formula_sum   'Ni2 H40 C48 N4 O12'
_cell_volume   1041.52182253
_cell_formula_units_Z   2
loop_
 _symmetry_equiv_pos_site_id
 _symmetry_equiv_pos_as_xyz
  1  'x, y, z'
loop_
 _atom_site_type_symbol
 _atom_site_label
 _atom_site_symmetry_multiplicity
 _atom_site_fract_x
 _atom_site_fract_y
 _atom_site_fract_z
 _atom_site_occupancy
  Ni  Ni0  1  0.29280000  0.06583000  0.27112000  1.0
  Ni  Ni1  1  0.70720000  0.93417000  0.72888000  1.0
  H  H2  1  0.29799000  0.63743000  0.16693000  1.0
  H  H3  1  0.70200000  0.36255000  0.83307000  1.0
  H  H4  1  0.94917000  0.31231000  0.07664000  1.0
  H  H5  1  0.05080000  0.68768000  0.92336000  1.0
  H  H6  1  0.60881000  0.29656000  0.06534000  1.0
  H  H7  1  0.39116000  0.70343000  0.93467000  1.0
  H  H8  1  0.51224000  0.50604000  0.11907000  1.0
  H  H9  1  0.48775000  0.49397000  0.88094000  1.0
  H  H10  1  0.75921000  0.73340000  0.18269000  1.0
  H  H11  1  0.24078000  0.26660000  0.81731000  1.0
  H  H12  1  0.30649000  0.43059000  0.35740000  1.0
  H  H13  1  0.69352000  0.56941000  0.64260000  1.0
  H  H14  1  0.27165000  0.66320000  0.41729000  1.0
  H  H15  1  0.72837000  0.33681000  0.58271000  1.0
  H  H16  1  0.95285000  0.69234000  0.42413000  1.0
  H  H17  1  0.04716000  0.30767000  0.57587000  1.0
  H  H18  1  0.66909000  0.48668000  0.37022000  1.0
  H  H19  1  0.33093000  0.51333000  0.62978000  1.0
  H  H20  1  0.21976000  0.86339000  0.37558000  1.0
  H  H21  1  0.78019000  0.13660000  0.62442000  1.0
  H  H22  1  0.21817000  0.87065000  0.55127000  1.0
  H  H23  1  0.78178000  0.12935000  0.44873000  1.0
  H  H24  1  0.31475000  0.09622000  0.68711000  1.0
  H  H25  1  0.68527000  0.90379000  0.31289000  1.0
  H  H26  1  0.39181000  0.30886000  0.63809000  1.0
  H  H27  1  0.60827000  0.69115000  0.36191000  1.0
  H  H28  1  0.37995000  0.28443000  0.45705000  1.0
  H  H29  1  0.62010000  0.71556000  0.54295000  1.0
  H  H30  1  0.25207000  0.26617000  0.18385000  1.0
  H  H31  1  0.74791000  0.73383000  0.81615000  1.0
  H  H32  1  0.21683000  0.28395000  0.01270000  1.0
  H  H33  1  0.78315000  0.71606000  0.98730000  1.0
  H  H34  1  0.21941000  0.08379000  0.86745000  1.0
  H  H35  1  0.78056000  0.91622000  0.13255000  1.0
  H  H36  1  0.27103000  0.88057000  0.90249000  1.0
  H  H37  1  0.72897000  0.11945000  0.09750000  1.0
  H  H38  1  0.30908000  0.87960000  0.07965000  1.0
  H  H39  1  0.69093000  0.12041000  0.92034000  1.0
  H  H40  1  0.89545000  0.13960000  0.27846000  1.0
  H  H41  1  0.10457000  0.86041000  0.72155000  1.0
  C  C42  1  0.13998000  0.78444000  0.19999000  1.0
  C  C43  1  0.86002000  0.21555000  0.80000000  1.0
  C  C44  1  0.99098000  0.65149000  0.16396000  1.0
  C  C45  1  0.00901000  0.34850000  0.83603000  1.0
  C  C46  1  0.04449000  0.53055000  0.13452000  1.0
  C  C47  1  0.95550000  0.46944000  0.86548000  1.0
  C  C48  1  0.90487000  0.40342000  0.09916000  1.0
  C  C49  1  0.09511000  0.59657000  0.90084000  1.0
  C  C50  1  0.71628000  0.39583000  0.09349000  1.0
  C  C51  1  0.28369000  0.60417000  0.90652000  1.0
  C  C52  1  0.66100000  0.51398000  0.12362000  1.0
  C  C53  1  0.33899000  0.48602000  0.87638000  1.0
  C  C54  1  0.79847000  0.64018000  0.15848000  1.0
  C  C55  1  0.20152000  0.35981000  0.84151000  1.0
  C  C56  1  0.66070000  0.22219000  0.30181000  1.0
  C  C57  1  0.33930000  0.77781000  0.69819000  1.0
  C  C58  1  0.82659000  0.34528000  0.33436000  1.0
  C  C59  1  0.17342000  0.65472000  0.66564000  1.0
  C  C60  1  0.00878000  0.32969000  0.33106000  1.0
  C  C61  1  0.99123000  0.67032000  0.66895000  1.0
  C  C62  1  0.16821000  0.44512000  0.36124000  1.0
  C  C63  1  0.83180000  0.55489000  0.63876000  1.0
  C  C64  1  0.14685000  0.57407000  0.39432000  1.0
  C  C65  1  0.85317000  0.42593000  0.60568000  1.0
  C  C66  1  0.96801000  0.59082000  0.39814000  1.0
  C  C67  1  0.03200000  0.40919000  0.60186000  1.0
  C  C68  1  0.80995000  0.47687000  0.36835000  1.0
  C  C69  1  0.19006000  0.52314000  0.63165000  1.0
  C  C70  1  0.25438000  0.95987000  0.43545000  1.0
  C  C71  1  0.74560000  0.04013000  0.56455000  1.0
  C  C72  1  0.25490000  0.96501000  0.53394000  1.0
  C  C73  1  0.74508000  0.03499000  0.46606000  1.0
  C  C74  1  0.30619000  0.09087000  0.60930000  1.0
  C  C75  1  0.69383000  0.90913000  0.39071000  1.0
  C  C76  1  0.35128000  0.20801000  0.58199000  1.0
  C  C77  1  0.64878000  0.79199000  0.41801000  1.0
  C  C78  1  0.34538000  0.19582000  0.48170000  1.0
  C  C79  1  0.65466000  0.80417000  0.51830000  1.0
  C  C80  1  0.25402000  0.18290000  0.11933000  1.0
  C  C81  1  0.74596000  0.81710000  0.88067000  1.0
  C  C82  1  0.23327000  0.19111000  0.02342000  1.0
  C  C83  1  0.76672000  0.80889000  0.97658000  1.0
  C  C84  1  0.23656000  0.08098000  0.94348000  1.0
  C  C85  1  0.76343000  0.91903000  0.05652000  1.0
  C  C86  1  0.26330000  0.96688000  0.96281000  1.0
  C  C87  1  0.73669000  0.03314000  0.03718000  1.0
  C  C88  1  0.28363000  0.96497000  0.06033000  1.0
  C  C89  1  0.71637000  0.03504000  0.93966000  1.0
  N  N90  1  0.29945000  0.07336000  0.40888000  1.0
  N  N91  1  0.70055000  0.92663000  0.59112000  1.0
  N  N92  1  0.27707000  0.07089000  0.13736000  1.0
  N  N93  1  0.72293000  0.92911000  0.86263000  1.0
  O  O94  1  0.08883000  0.89418000  0.22512000  1.0
  O  O95  1  0.91118000  0.10582000  0.77487000  1.0
  O  O96  1  0.31261000  0.78804000  0.20606000  1.0
  O  O97  1  0.68739000  0.21194000  0.79392000  1.0
  O  O98  1  0.22661000  0.53470000  0.13968000  1.0
  O  O99  1  0.77337000  0.46528000  0.86032000  1.0
  O  O100  1  0.49712000  0.23739000  0.31364000  1.0
  O  O101  1  0.50289000  0.76261000  0.68635000  1.0
  O  O102  1  0.68256000  0.10567000  0.26442000  1.0
  O  O103  1  0.31745000  0.89434000  0.73558000  1.0
  O  O104  1  0.03130000  0.20478000  0.29935000  1.0
  O  O105  1  0.96871000  0.79522000  0.70066000  1.0
