# generated using pymatgen
data_CuH9C9N3O5
_symmetry_space_group_name_H-M   'P 1'
_cell_length_a   7.57828000
_cell_length_b   8.75549000
_cell_length_c   19.04190000
_cell_angle_alpha   94.65690000
_cell_angle_beta   96.72280000
_cell_angle_gamma   112.80800000
_symmetry_Int_Tables_number   1
_chemical_formula_structural   CuH9C9N3O5
_chemical_formula_sum   'Cu4 H36 C36 N12 O20'
_cell_volume   1145.55259473
_cell_formula_units_Z   4
loop_
 _symmetry_equiv_pos_site_id
 _symmetry_equiv_pos_as_xyz
  1  'x, y, z'
loop_
 _atom_site_type_symbol
 _atom_site_label
 _atom_site_symmetry_multiplicity
 _atom_site_fract_x
 _atom_site_fract_y
 _atom_site_fract_z
 _atom_site_occupancy
  Cu  Cu0  1  0.32732000  0.14498000  0.16069000  1.0
  Cu  Cu1  1  0.99695000  0.28982000  0.34254000  1.0
  Cu  Cu2  1  0.67268000  0.85502000  0.83931000  1.0
  Cu  Cu3  1  0.00305000  0.71018000  0.65746000  1.0
  H  H4  1  0.98894000  0.67191000  0.00810000  1.0
  H  H5  1  0.20599000  0.64126000  0.02279000  1.0
  H  H6  1  0.09695000  0.68608000  0.13572000  1.0
  H  H7  1  0.09484000  0.48032000  0.12272000  1.0
  H  H8  1  0.40262000  0.48035000  0.09015000  1.0
  H  H9  1  0.79224000  0.26306000  0.15583000  1.0
  H  H10  1  0.33391000  0.84960000  0.52049000  1.0
  H  H11  1  0.54350000  0.84104000  0.49270000  1.0
  H  H12  1  0.27419000  0.73100000  0.39253000  1.0
  H  H13  1  0.45594000  0.91899000  0.37401000  1.0
  H  H14  1  0.81283000  0.96659000  0.41948000  1.0
  H  H15  1  0.34750000  0.15581000  0.34535000  1.0
  H  H16  1  0.98453000  0.73297000  0.25945000  1.0
  H  H17  1  0.31084000  0.69231000  0.24028000  1.0
  H  H18  1  0.14505000  0.13645000  0.03822000  1.0
  H  H19  1  0.01930000  0.13505000  0.10477000  1.0
  H  H20  1  0.67941000  0.23657000  0.36004000  1.0
  H  H21  1  0.64411000  0.10296000  0.29266000  1.0
  H  H22  1  0.01106000  0.32809000  0.99190000  1.0
  H  H23  1  0.79401000  0.35874000  0.97721000  1.0
  H  H24  1  0.90305000  0.31392000  0.86428000  1.0
  H  H25  1  0.90516000  0.51968000  0.87728000  1.0
  H  H26  1  0.59738000  0.51965000  0.90985000  1.0
  H  H27  1  0.20776000  0.73694000  0.84417000  1.0
  H  H28  1  0.66609000  0.15040000  0.47951000  1.0
  H  H29  1  0.45650000  0.15896000  0.50730000  1.0
  H  H30  1  0.72581000  0.26899000  0.60747000  1.0
  H  H31  1  0.54405000  0.08101000  0.62599000  1.0
  H  H32  1  0.18717000  0.03341000  0.58052000  1.0
  H  H33  1  0.65250000  0.84419000  0.65465000  1.0
  H  H34  1  0.01547000  0.26703000  0.74055000  1.0
  H  H35  1  0.68916000  0.30770000  0.75972000  1.0
  H  H36  1  0.85495000  0.86355000  0.96178000  1.0
  H  H37  1  0.98070000  0.86495000  0.89523000  1.0
  H  H38  1  0.32059000  0.76343000  0.63996000  1.0
  H  H39  1  0.35589000  0.89704000  0.70734000  1.0
  C  C40  1  0.04989000  0.58273000  0.02476000  1.0
  C  C41  1  0.02943000  0.56352000  0.10246000  1.0
  C  C42  1  0.53420000  0.45965000  0.10144000  1.0
  C  C43  1  0.72938000  0.34666000  0.13598000  1.0
  C  C44  1  0.44521000  0.90624000  0.48720000  1.0
  C  C45  1  0.34878000  0.86649000  0.40907000  1.0
  C  C46  1  0.95425000  0.98108000  0.40788000  1.0
  C  C47  1  0.22522000  0.08014000  0.36906000  1.0
  C  C48  1  0.50859000  0.58478000  0.27835000  1.0
  C  C49  1  0.70120000  0.59815000  0.28480000  1.0
  C  C50  1  0.83629000  0.72412000  0.25509000  1.0
  C  C51  1  0.78574000  0.83733000  0.21863000  1.0
  C  C52  1  0.59399000  0.82607000  0.21365000  1.0
  C  C53  1  0.45970000  0.70196000  0.24475000  1.0
  C  C54  1  0.34061000  0.43832000  0.29541000  1.0
  C  C55  1  0.75726000  0.47638000  0.32196000  1.0
  C  C56  1  0.93111000  0.96135000  0.18263000  1.0
  C  C57  1  0.51024000  0.93140000  0.17395000  1.0
  C  C58  1  0.95011000  0.41727000  0.97524000  1.0
  C  C59  1  0.97057000  0.43648000  0.89754000  1.0
  C  C60  1  0.46581000  0.54035000  0.89856000  1.0
  C  C61  1  0.27061000  0.65334000  0.86402000  1.0
  C  C62  1  0.55479000  0.09375000  0.51280000  1.0
  C  C63  1  0.65122000  0.13351000  0.59093000  1.0
  C  C64  1  0.04574000  0.01891000  0.59212000  1.0
  C  C65  1  0.77478000  0.91986000  0.63094000  1.0
  C  C66  1  0.49141000  0.41523000  0.72166000  1.0
  C  C67  1  0.29880000  0.40185000  0.71520000  1.0
  C  C68  1  0.16371000  0.27588000  0.74491000  1.0
  C  C69  1  0.21426000  0.16267000  0.78137000  1.0
  C  C70  1  0.40602000  0.17393000  0.78635000  1.0
  C  C71  1  0.54031000  0.29805000  0.75525000  1.0
  C  C72  1  0.65940000  0.56169000  0.70459000  1.0
  C  C73  1  0.24274000  0.52362000  0.67804000  1.0
  C  C74  1  0.06889000  0.03865000  0.81737000  1.0
  C  C75  1  0.48976000  0.06860000  0.82605000  1.0
  N  N76  1  0.82552000  0.48863000  0.11047000  1.0
  N  N77  1  0.70414000  0.56219000  0.08793000  1.0
  N  N78  1  0.54303000  0.32486000  0.13111000  1.0
  N  N79  1  0.20706000  0.94057000  0.39738000  1.0
  N  N80  1  0.03592000  0.87631000  0.42297000  1.0
  N  N81  1  0.06599000  0.10931000  0.37480000  1.0
  N  N82  1  0.17448000  0.51137000  0.88953000  1.0
  N  N83  1  0.29586000  0.43781000  0.91207000  1.0
  N  N84  1  0.45697000  0.67514000  0.86889000  1.0
  N  N85  1  0.79294000  0.05943000  0.60262000  1.0
  N  N86  1  0.96407000  0.12368000  0.57702000  1.0
  N  N87  1  0.93401000  0.89069000  0.62520000  1.0
  O  O88  1  0.27097000  0.30587000  0.25173000  1.0
  O  O89  1  0.26355000  0.46337000  0.34951000  1.0
  O  O90  1  0.91141000  0.45960000  0.30717000  1.0
  O  O91  1  0.64859000  0.39529000  0.36365000  1.0
  O  O92  1  0.10147000  0.96074000  0.18761000  1.0
  O  O93  1  0.87495000  0.05694000  0.14790000  1.0
  O  O94  1  0.50759000  0.05868000  0.21463000  1.0
  O  O95  1  0.43107000  0.88581000  0.11093000  1.0
  O  O96  1  0.14906000  0.19515000  0.08444000  1.0
  O  O97  1  0.71716000  0.13930000  0.34337000  1.0
  O  O98  1  0.72904000  0.69413000  0.74828000  1.0
  O  O99  1  0.73645000  0.53664000  0.65050000  1.0
  O  O100  1  0.08858000  0.54039000  0.69283000  1.0
  O  O101  1  0.35141000  0.60471000  0.63635000  1.0
  O  O102  1  0.89853000  0.03926000  0.81239000  1.0
  O  O103  1  0.12505000  0.94306000  0.85210000  1.0
  O  O104  1  0.49241000  0.94132000  0.78537000  1.0
  O  O105  1  0.56893000  0.11419000  0.88907000  1.0
  O  O106  1  0.85094000  0.80485000  0.91556000  1.0
  O  O107  1  0.28284000  0.86069000  0.65663000  1.0
