# generated using pymatgen
data_Cu3H8C16(N3O)4
_symmetry_space_group_name_H-M   'P 1'
_cell_length_a   11.16840000
_cell_length_b   11.20150000
_cell_length_c   13.47067618
_cell_angle_alpha   114.51645647
_cell_angle_beta   114.37887261
_cell_angle_gamma   90.04060000
_symmetry_Int_Tables_number   1
_chemical_formula_structural   Cu3H8C16(N3O)4
_chemical_formula_sum   'Cu6 H16 C32 N24 O8'
_cell_volume   1366.16300700
_cell_formula_units_Z   2
loop_
 _symmetry_equiv_pos_site_id
 _symmetry_equiv_pos_as_xyz
  1  'x, y, z'
loop_
 _atom_site_type_symbol
 _atom_site_label
 _atom_site_symmetry_multiplicity
 _atom_site_fract_x
 _atom_site_fract_y
 _atom_site_fract_z
 _atom_site_occupancy
  Cu  Cu0  1  0.11006000  0.11005000  0.21940000  1.0
  Cu  Cu1  1  0.89039000  0.89037000  0.78035000  1.0
  Cu  Cu2  1  0.64022000  0.14029000  0.28018000  1.0
  Cu  Cu3  1  0.85978000  0.36020000  0.71952000  1.0
  Cu  Cu4  1  0.24989000  0.74983000  0.49978000  1.0
  Cu  Cu5  1  0.50006000  0.50007000  0.00034000  1.0
  H  H6  1  0.53100000  0.77700000  0.61994000  1.0
  H  H7  1  0.64006000  0.67626000  0.66141000  1.0
  H  H8  1  0.08884000  0.84285000  0.62007000  1.0
  H  H9  1  0.02131000  0.98510000  0.66169000  1.0
  H  H10  1  0.22276000  0.91076000  0.38005000  1.0
  H  H11  1  0.32393000  0.97861000  0.33871000  1.0
  H  H12  1  0.15746000  0.46914000  0.37985000  1.0
  H  H13  1  0.01504000  0.36014000  0.33858000  1.0
  H  H14  1  0.21918000  0.40729000  0.88014000  1.0
  H  H15  1  0.11006000  0.26486000  0.83830000  1.0
  H  H16  1  0.66097000  0.47275000  0.88008000  1.0
  H  H17  1  0.72829000  0.57341000  0.83819000  1.0
  H  H18  1  0.52743000  0.78057000  0.12000000  1.0
  H  H19  1  0.42646000  0.88972000  0.16146000  1.0
  H  H20  1  0.59234000  0.33939000  0.12034000  1.0
  H  H21  1  0.73474000  0.27185000  0.16182000  1.0
  C  C22  1  0.47213000  0.44444000  0.49946000  1.0
  C  C23  1  0.59540000  0.42069000  0.56543000  1.0
  C  C24  1  0.36640000  0.33578000  0.40710000  1.0
  C  C25  1  0.44813000  0.57797000  0.52517000  1.0
  C  C26  1  0.02747000  0.05501000  0.49952000  1.0
  C  C27  1  0.97028000  0.14496000  0.56563000  1.0
  C  C28  1  0.04088000  0.07135000  0.40703000  1.0
  C  C29  1  0.07708000  0.94715000  0.52518000  1.0
  C  C30  1  0.55599000  0.97272000  0.50055000  1.0
  C  C31  1  0.57981000  0.03007000  0.43459000  1.0
  C  C32  1  0.66471000  0.95931000  0.59282000  1.0
  C  C33  1  0.42217000  0.92277000  0.47478000  1.0
  C  C34  1  0.94447000  0.52774000  0.50049000  1.0
  C  C35  1  0.85487000  0.40454000  0.43453000  1.0
  C  C36  1  0.92801000  0.63348000  0.59286000  1.0
  C  C37  1  0.05255000  0.55188000  0.47462000  1.0
  C  C38  1  0.27777000  0.19494000  0.00054000  1.0
  C  C39  1  0.15459000  0.10509000  0.93446000  1.0
  C  C40  1  0.38353000  0.17848000  0.09278000  1.0
  C  C41  1  0.30182000  0.30295000  0.97496000  1.0
  C  C42  1  0.72260000  0.80530000  0.00053000  1.0
  C  C43  1  0.77991000  0.82908000  0.93439000  1.0
  C  C44  1  0.70915000  0.91411000  0.09287000  1.0
  C  C45  1  0.67297000  0.67182000  0.97498000  1.0
  C  C46  1  0.19417000  0.72213000  0.99949000  1.0
  C  C47  1  0.17040000  0.84538000  0.06535000  1.0
  C  C48  1  0.08545000  0.61646000  0.90718000  1.0
  C  C49  1  0.32798000  0.69802000  0.02528000  1.0
  C  C50  1  0.80516000  0.27722000  0.99953000  1.0
  C  C51  1  0.89487000  0.21999000  0.06543000  1.0
  C  C52  1  0.82166000  0.29063000  0.90709000  1.0
  C  C53  1  0.69716000  0.32721000  0.02542000  1.0
  N  N54  1  0.54473000  0.68557000  0.61689000  1.0
  N  N55  1  0.69883000  0.40223000  0.62345000  1.0
  N  N56  1  0.27527000  0.24734000  0.32926000  1.0
  N  N57  1  0.07214000  0.93125000  0.61704000  1.0
  N  N58  1  0.92483000  0.22174000  0.62358000  1.0
  N  N59  1  0.05415000  0.08226000  0.32915000  1.0
  N  N60  1  0.31448000  0.92776000  0.38316000  1.0
  N  N61  1  0.59808000  0.07560000  0.37650000  1.0
  N  N62  1  0.75305000  0.94586000  0.67063000  1.0
  N  N63  1  0.06883000  0.45535000  0.38295000  1.0
  N  N64  1  0.77851000  0.30110000  0.37640000  1.0
  N  N65  1  0.91760000  0.72495000  0.67070000  1.0
  N  N66  1  0.20538000  0.31887000  0.88315000  1.0
  N  N67  1  0.05119000  0.02851000  0.87636000  1.0
  N  N68  1  0.47485000  0.16790000  0.17053000  1.0
  N  N69  1  0.67769000  0.56417000  0.88305000  1.0
  N  N70  1  0.82544000  0.84789000  0.87641000  1.0
  N  N71  1  0.69575000  0.00283000  0.17058000  1.0
  N  N72  1  0.43575000  0.79450000  0.11691000  1.0
  N  N73  1  0.15212000  0.94894000  0.12333000  1.0
  N  N74  1  0.99707000  0.52527000  0.82938000  1.0
  N  N75  1  0.68095000  0.32252000  0.11725000  1.0
  N  N76  1  0.97147000  0.17458000  0.12331000  1.0
  N  N77  1  0.83225000  0.30416000  0.82921000  1.0
  O  O78  1  0.33170000  0.59124000  0.45919000  1.0
  O  O79  1  0.12758000  0.86785000  0.45908000  1.0
  O  O80  1  0.40878000  0.87200000  0.54056000  1.0
  O  O81  1  0.13151000  0.66833000  0.54040000  1.0
  O  O82  1  0.41818000  0.38231000  0.04113000  1.0
  O  O83  1  0.62264000  0.65861000  0.04126000  1.0
  O  O84  1  0.34130000  0.58159000  0.95946000  1.0
  O  O85  1  0.61812000  0.37773000  0.95949000  1.0
