# generated using pymatgen
data_CuH5(C3N)2
_symmetry_space_group_name_H-M   'P 1'
_cell_length_a   7.62804000
_cell_length_b   9.18622000
_cell_length_c   9.72694000
_cell_angle_alpha   118.16600000
_cell_angle_beta   89.99960000
_cell_angle_gamma   89.99870000
_symmetry_Int_Tables_number   1
_chemical_formula_structural   CuH5(C3N)2
_chemical_formula_sum   'Cu4 H20 C24 N8'
_cell_volume   600.88256005
_cell_formula_units_Z   4
loop_
 _symmetry_equiv_pos_site_id
 _symmetry_equiv_pos_as_xyz
  1  'x, y, z'
loop_
 _atom_site_type_symbol
 _atom_site_label
 _atom_site_symmetry_multiplicity
 _atom_site_fract_x
 _atom_site_fract_y
 _atom_site_fract_z
 _atom_site_occupancy
  Cu  Cu0  1  0.82833000  0.57792000  0.59864000  1.0
  Cu  Cu1  1  0.32833000  0.42209000  0.40138000  1.0
  Cu  Cu2  1  0.82871000  0.97926000  0.40123000  1.0
  Cu  Cu3  1  0.32871000  0.02075000  0.59878000  1.0
  H  H4  1  0.54117000  0.51852000  0.70848000  1.0
  H  H5  1  0.04117000  0.48149000  0.29152000  1.0
  H  H6  1  0.54139000  0.81078000  0.29189000  1.0
  H  H7  1  0.04138000  0.18920000  0.70811000  1.0
  H  H8  1  0.28971000  0.49020000  0.85403000  1.0
  H  H9  1  0.78970000  0.50980000  0.14599000  1.0
  H  H10  1  0.28987000  0.63681000  0.14689000  1.0
  H  H11  1  0.78985000  0.36317000  0.85313000  1.0
  H  H12  1  0.23043000  0.85292000  0.88735000  1.0
  H  H13  1  0.73045000  0.14709000  0.11263000  1.0
  H  H14  1  0.23088000  0.96503000  0.11210000  1.0
  H  H15  1  0.73090000  0.03497000  0.88789000  1.0
  H  H16  1  0.07105000  0.85640000  0.75528000  1.0
  H  H17  1  0.57107000  0.14360000  0.24471000  1.0
  H  H18  1  0.07173000  0.10115000  0.24406000  1.0
  H  H19  1  0.57176000  0.89886000  0.75593000  1.0
  H  H20  1  0.15210000  0.66666667  0.73084000  1.0
  H  H21  1  0.65208000  0.33333333  0.26915000  1.0
  H  H22  1  0.15225000  0.93603000  0.26899000  1.0
  H  H23  1  0.65227000  0.06397000  0.73099000  1.0
  C  C24  1  0.82720000  0.20686000  0.48926000  1.0
  C  C25  1  0.32725000  0.79314000  0.51075000  1.0
  C  C26  1  0.82694000  0.71751000  0.51057000  1.0
  C  C27  1  0.32695000  0.28249000  0.48943000  1.0
  C  C28  1  0.96599000  0.78296000  0.91644000  1.0
  C  C29  1  0.46598000  0.21705000  0.08357000  1.0
  C  C30  1  0.96611000  0.86656000  0.08336000  1.0
  C  C31  1  0.46612000  0.13344000  0.91663000  1.0
  C  C32  1  0.68592000  0.68111000  0.91697000  1.0
  C  C33  1  0.18592000  0.31889000  0.08304000  1.0
  C  C34  1  0.68606000  0.76435000  0.08320000  1.0
  C  C35  1  0.18605000  0.23566000  0.91682000  1.0
  C  C36  1  0.54017000  0.58325000  0.83577000  1.0
  C  C37  1  0.04017000  0.41675000  0.16423000  1.0
  C  C38  1  0.54037000  0.74799000  0.16460000  1.0
  C  C39  1  0.04035000  0.25200000  0.83541000  1.0
  C  C40  1  0.40016000  0.56786000  0.91782000  1.0
  C  C41  1  0.90014000  0.43214000  0.08218000  1.0
  C  C42  1  0.40025000  0.65049000  0.08278000  1.0
  C  C43  1  0.90023000  0.34949000  0.91722000  1.0
  C  C44  1  0.11386000  0.79138000  0.81982000  1.0
  C  C45  1  0.61387000  0.20863000  0.18017000  1.0
  C  C46  1  0.11425000  0.97149000  0.17979000  1.0
  C  C47  1  0.61427000  0.02852000  0.82021000  1.0
  N  N48  1  0.82810000  0.69252000  0.83670000  1.0
  N  N49  1  0.32809000  0.30748000  0.16330000  1.0
  N  N50  1  0.82829000  0.85597000  0.16323000  1.0
  N  N51  1  0.32831000  0.14402000  0.83678000  1.0
  N  N52  1  0.83309000  0.34980000  0.53191000  1.0
  N  N53  1  0.33310000  0.65020000  0.46809000  1.0
  N  N54  1  0.83307000  0.81788000  0.46800000  1.0
  N  N55  1  0.33307000  0.18212000  0.53199000  1.0
