# generated using pymatgen
data_NaH5C5N6O
_symmetry_space_group_name_H-M   'P 1'
_cell_length_a   6.62779000
_cell_length_b   7.22231000
_cell_length_c   16.65690000
_cell_angle_alpha   88.51180000
_cell_angle_beta   88.26710000
_cell_angle_gamma   77.18450000
_symmetry_Int_Tables_number   1
_chemical_formula_structural   NaH5C5N6O
_chemical_formula_sum   'Na4 H20 C20 N24 O4'
_cell_volume   776.96233070
_cell_formula_units_Z   4
loop_
 _symmetry_equiv_pos_site_id
 _symmetry_equiv_pos_as_xyz
  1  'x, y, z'
loop_
 _atom_site_type_symbol
 _atom_site_label
 _atom_site_symmetry_multiplicity
 _atom_site_fract_x
 _atom_site_fract_y
 _atom_site_fract_z
 _atom_site_occupancy
  Na  Na0  1  0.20323000  0.27089000  0.70177000  1.0
  Na  Na1  1  0.79676000  0.72911000  0.29823000  1.0
  Na  Na2  1  0.55160000  0.39269000  0.86501000  1.0
  Na  Na3  1  0.44840000  0.60731000  0.13499000  1.0
  H  H4  1  0.30659000  0.88754000  0.76298000  1.0
  H  H5  1  0.69342000  0.11246000  0.23702000  1.0
  H  H6  1  0.19209000  0.87853000  0.68145000  1.0
  H  H7  1  0.80791000  0.12147000  0.31855000  1.0
  H  H8  1  0.21139000  0.21695000  0.87089000  1.0
  H  H9  1  0.78861000  0.78305000  0.12911000  1.0
  H  H10  1  0.09900000  0.43631000  0.85640000  1.0
  H  H11  1  0.90100000  0.56369000  0.14360000  1.0
  H  H12  1  0.42473000  0.18707000  0.50353000  1.0
  H  H13  1  0.57527000  0.81293000  0.49647000  1.0
  H  H14  1  0.30707000  0.12898000  0.36564000  1.0
  H  H15  1  0.69292000  0.87102000  0.63436000  1.0
  H  H16  1  0.69327000  0.29798000  0.44625000  1.0
  H  H17  1  0.30672000  0.70202000  0.55374000  1.0
  H  H18  1  0.77548000  0.02119000  0.73741000  1.0
  H  H19  1  0.22452000  0.97881000  0.26259000  1.0
  H  H20  1  0.91651000  0.66533000  0.74450000  1.0
  H  H21  1  0.08349000  0.33468000  0.25550000  1.0
  H  H22  1  0.87985000  0.68091000  0.99363000  1.0
  H  H23  1  0.12016000  0.31908000  0.00637000  1.0
  C  C24  1  0.26129000  0.20424000  0.49061000  1.0
  C  C25  1  0.73870000  0.79576000  0.50940000  1.0
  C  C26  1  0.19436000  0.17504000  0.41432000  1.0
  C  C27  1  0.80563000  0.82496000  0.58568000  1.0
  C  C28  1  0.85788000  0.26521000  0.45911000  1.0
  C  C29  1  0.14212000  0.73479000  0.54089000  1.0
  C  C30  1  0.92517000  0.28847000  0.53683000  1.0
  C  C31  1  0.07482000  0.71153000  0.46317000  1.0
  C  C32  1  0.77877000  0.34315000  0.60369000  1.0
  C  C33  1  0.22122000  0.65685000  0.39631000  1.0
  C  C34  1  0.79690000  0.94424000  0.79481000  1.0
  C  C35  1  0.20310000  0.05576000  0.20519000  1.0
  C  C36  1  0.87572000  0.74844000  0.79861000  1.0
  C  C37  1  0.12428000  0.25157000  0.20139000  1.0
  C  C38  1  0.85602000  0.75664000  0.93599000  1.0
  C  C39  1  0.14399000  0.24336000  0.06400000  1.0
  C  C40  1  0.77677000  0.95385000  0.93214000  1.0
  C  C41  1  0.22324000  0.04614000  0.06786000  1.0
  C  C42  1  0.72337000  0.06719000  0.00404000  1.0
  C  C43  1  0.27663000  0.93281000  0.99596000  1.0
  N  N44  1  0.12852000  0.25793000  0.55213000  1.0
  N  N45  1  0.87148000  0.74206000  0.44787000  1.0
  N  N46  1  0.99144000  0.20548000  0.39853000  1.0
  N  N47  1  0.00856000  0.79453000  0.60147000  1.0
  N  N48  1  0.83315000  0.37127000  0.67930000  1.0
  N  N49  1  0.16685000  0.62873000  0.32070000  1.0
  N  N50  1  0.65423000  0.41221000  0.72142000  1.0
  N  N51  1  0.34577000  0.58779000  0.27858000  1.0
  N  N52  1  0.49839000  0.40881000  0.67298000  1.0
  N  N53  1  0.50161000  0.59119000  0.32702000  1.0
  N  N54  1  0.57246000  0.36575000  0.59850000  1.0
  N  N55  1  0.42753000  0.63425000  0.40150000  1.0
  N  N56  1  0.74658000  0.04710000  0.86077000  1.0
  N  N57  1  0.25343000  0.95290000  0.13923000  1.0
  N  N58  1  0.90497000  0.65496000  0.86949000  1.0
  N  N59  1  0.09503000  0.34504000  0.13051000  1.0
  N  N60  1  0.63966000  0.25539000  0.00266000  1.0
  N  N61  1  0.36035000  0.74461000  0.99734000  1.0
  N  N62  1  0.61197000  0.30290000  0.08007000  1.0
  N  N63  1  0.38804000  0.69710000  0.91993000  1.0
  N  N64  1  0.67716000  0.15029000  0.12642000  1.0
  N  N65  1  0.32285000  0.84970000  0.87358000  1.0
  N  N66  1  0.74823000  0.99991000  0.08013000  1.0
  N  N67  1  0.25178000  0.00008000  0.91988000  1.0
  O  O68  1  0.29214000  0.93933000  0.70706000  1.0
  O  O69  1  0.70787000  0.06067000  0.29294000  1.0
  O  O70  1  0.21858000  0.33491000  0.83878000  1.0
  O  O71  1  0.78142000  0.66509000  0.16122000  1.0
