# generated using pymatgen
data_CuH14C16(NO2)2
_symmetry_space_group_name_H-M   'P 1'
_cell_length_a   10.12780000
_cell_length_b   10.82050000
_cell_length_c   11.04800000
_cell_angle_alpha   86.20550000
_cell_angle_beta   81.39370000
_cell_angle_gamma   62.37400000
_symmetry_Int_Tables_number   1
_chemical_formula_structural   CuH14C16(NO2)2
_chemical_formula_sum   'Cu2 H28 C32 N4 O8'
_cell_volume   1060.60991107
_cell_formula_units_Z   2
loop_
 _symmetry_equiv_pos_site_id
 _symmetry_equiv_pos_as_xyz
  1  'x, y, z'
loop_
 _atom_site_type_symbol
 _atom_site_label
 _atom_site_symmetry_multiplicity
 _atom_site_fract_x
 _atom_site_fract_y
 _atom_site_fract_z
 _atom_site_occupancy
  Cu  Cu0  1  0.44460000  0.41958000  0.12317000  1.0
  Cu  Cu1  1  0.55539000  0.58042000  0.87683000  1.0
  H  H2  1  0.72841000  0.37880000  0.18781000  1.0
  H  H3  1  0.27159000  0.62119000  0.81219000  1.0
  H  H4  1  0.81865000  0.47332000  0.34105000  1.0
  H  H5  1  0.18135000  0.52668000  0.65895000  1.0
  H  H6  1  0.62734000  0.65930000  0.48733000  1.0
  H  H7  1  0.37266000  0.34070000  0.51267000  1.0
  H  H8  1  0.35288000  0.74961000  0.46851000  1.0
  H  H9  1  0.64712000  0.25039000  0.53149000  1.0
  H  H10  1  0.28239000  0.64302000  0.30836000  1.0
  H  H11  1  0.71761000  0.35698000  0.69164000  1.0
  H  H12  1  0.58746000  0.19758000  0.93822000  1.0
  H  H13  1  0.41254000  0.80242000  0.06179000  1.0
  H  H14  1  0.50393000  0.07522000  0.80464000  1.0
  H  H15  1  0.49606000  0.92478000  0.19536000  1.0
  H  H16  1  0.22680000  0.14703000  0.82121000  1.0
  H  H17  1  0.77320000  0.85298000  0.17879000  1.0
  H  H18  1  0.04847000  0.33170000  0.97021000  1.0
  H  H19  1  0.95153000  0.66830000  0.02979000  1.0
  H  H20  1  0.15238000  0.44502000  0.09840000  1.0
  H  H21  1  0.84762000  0.55498000  0.90160000  1.0
  H  H22  1  0.66500000  0.02450000  0.33976000  1.0
  H  H23  1  0.33500000  0.97550000  0.66024000  1.0
  H  H24  1  0.34680000  0.13094000  0.48294000  1.0
  H  H25  1  0.65320000  0.86906000  0.51706000  1.0
  H  H26  1  0.23215000  0.82534000  0.91844000  1.0
  H  H27  1  0.76785000  0.17466000  0.08156000  1.0
  H  H28  1  0.95392000  0.93000000  0.11596000  1.0
  H  H29  1  0.04608000  0.07000000  0.88404000  1.0
  C  C30  1  0.65015000  0.46124000  0.25188000  1.0
  C  C31  1  0.34985000  0.53876000  0.74812000  1.0
  C  C32  1  0.69870000  0.51422000  0.33725000  1.0
  C  C33  1  0.30130000  0.48578000  0.66275000  1.0
  C  C34  1  0.59189000  0.61893000  0.41738000  1.0
  C  C35  1  0.40811000  0.38107000  0.58262000  1.0
  C  C36  1  0.43991000  0.66788000  0.40777000  1.0
  C  C37  1  0.56009000  0.33212000  0.59223000  1.0
  C  C38  1  0.39925000  0.61009000  0.31994000  1.0
  C  C39  1  0.60075000  0.38991000  0.68006000  1.0
  C  C40  1  0.46935000  0.22388000  0.94152000  1.0
  C  C41  1  0.53065000  0.77612000  0.05848000  1.0
  C  C42  1  0.42196000  0.15648000  0.86828000  1.0
  C  C43  1  0.57804000  0.84352000  0.13173000  1.0
  C  C44  1  0.26875000  0.19598000  0.87795000  1.0
  C  C45  1  0.73125000  0.80402000  0.12205000  1.0
  C  C46  1  0.16836000  0.29994000  0.96144000  1.0
  C  C47  1  0.83164000  0.70006000  0.03856000  1.0
  C  C48  1  0.22400000  0.36293000  0.03144000  1.0
  C  C49  1  0.77600000  0.63707000  0.96856000  1.0
  C  C50  1  0.47131000  0.22022000  0.29233000  1.0
  C  C51  1  0.52869000  0.77978000  0.70767000  1.0
  C  C52  1  0.54476000  0.09153000  0.36527000  1.0
  C  C53  1  0.45524000  0.90847000  0.63473000  1.0
  C  C54  1  0.46705000  0.06001000  0.46193000  1.0
  C  C55  1  0.53295000  0.93999000  0.53807000  1.0
  C  C56  1  0.20885000  0.69024000  0.07095000  1.0
  C  C57  1  0.79115000  0.30976000  0.92904000  1.0
  C  C58  1  0.15721000  0.82183000  0.99928000  1.0
  C  C59  1  0.84279000  0.17817000  0.00072000  1.0
  C  C60  1  0.02539000  0.93547000  0.03334000  1.0
  C  C61  1  0.97462000  0.06453000  0.96666000  1.0
  N  N62  1  0.50330000  0.50835000  0.24373000  1.0
  N  N63  1  0.49670000  0.49165000  0.75627000  1.0
  N  N64  1  0.37183000  0.32591000  0.02018000  1.0
  N  N65  1  0.62817000  0.67409000  0.97982000  1.0
  O  O66  1  0.56072000  0.23526000  0.20116000  1.0
  O  O67  1  0.43928000  0.76474000  0.79884000  1.0
  O  O68  1  0.33604000  0.30601000  0.32032000  1.0
  O  O69  1  0.66396000  0.69399000  0.67968000  1.0
  O  O70  1  0.34786000  0.59901000  0.03380000  1.0
  O  O71  1  0.65215000  0.40099000  0.96620000  1.0
  O  O72  1  0.12572000  0.67141000  0.15787000  1.0
  O  O73  1  0.87428000  0.32859000  0.84213000  1.0
