# generated using pymatgen
data_TbH7C8SO7
_symmetry_space_group_name_H-M   'P 1'
_cell_length_a   7.71414000
_cell_length_b   9.82017000
_cell_length_c   14.28620000
_cell_angle_alpha   90.00000000
_cell_angle_beta   90.00010000
_cell_angle_gamma   102.35300000
_symmetry_Int_Tables_number   1
_chemical_formula_structural   TbH7C8SO7
_chemical_formula_sum   'Tb4 H28 C32 S4 O28'
_cell_volume   1057.18327416
_cell_formula_units_Z   4
loop_
 _symmetry_equiv_pos_site_id
 _symmetry_equiv_pos_as_xyz
  1  'x, y, z'
loop_
 _atom_site_type_symbol
 _atom_site_label
 _atom_site_symmetry_multiplicity
 _atom_site_fract_x
 _atom_site_fract_y
 _atom_site_fract_z
 _atom_site_occupancy
  Tb  Tb0  1  0.59927000  0.09560000  0.11361000  1.0
  Tb  Tb1  1  0.90073000  0.90441000  0.61361000  1.0
  Tb  Tb2  1  0.40072000  0.90441000  0.88639000  1.0
  Tb  Tb3  1  0.09928000  0.09559000  0.38639000  1.0
  H  H4  1  0.64373000  0.49474000  0.12778000  1.0
  H  H5  1  0.85627000  0.50526000  0.62778000  1.0
  H  H6  1  0.35627000  0.50526000  0.87222000  1.0
  H  H7  1  0.14373000  0.49474000  0.37222000  1.0
  H  H8  1  0.83016000  0.73682000  0.19678000  1.0
  H  H9  1  0.66983000  0.26318000  0.69678000  1.0
  H  H10  1  0.16985000  0.26318000  0.80321000  1.0
  H  H11  1  0.33015000  0.73682000  0.30322000  1.0
  H  H12  1  0.99454000  0.79265000  0.00902000  1.0
  H  H13  1  0.50545000  0.20735000  0.50902000  1.0
  H  H14  1  0.00544000  0.20735000  0.99098000  1.0
  H  H15  1  0.49456000  0.79265000  0.49099000  1.0
  H  H16  1  0.81569000  0.74973000  0.92594000  1.0
  H  H17  1  0.68429000  0.25026000  0.42594000  1.0
  H  H18  1  0.18429000  0.25026000  0.07406000  1.0
  H  H19  1  0.31572000  0.74974000  0.57407000  1.0
  H  H20  1  0.78922000  0.68397000  0.04109000  1.0
  H  H21  1  0.71076000  0.31604000  0.54108000  1.0
  H  H22  1  0.21076000  0.31603000  0.95892000  1.0
  H  H23  1  0.28925000  0.68397000  0.45892000  1.0
  H  H24  1  0.52587000  0.00705000  0.32037000  1.0
  H  H25  1  0.97413000  0.99295000  0.82037000  1.0
  H  H26  1  0.47413000  0.99296000  0.67964000  1.0
  H  H27  1  0.02586000  0.00704000  0.17963000  1.0
  H  H28  1  0.72071000  0.10770000  0.30887000  1.0
  H  H29  1  0.77929000  0.89231000  0.80887000  1.0
  H  H30  1  0.27929000  0.89231000  0.69113000  1.0
  H  H31  1  0.22071000  0.10769000  0.19112000  1.0
  C  C32  1  0.43324000  0.30629000  0.25977000  1.0
  C  C33  1  0.06677000  0.69371000  0.75977000  1.0
  C  C34  1  0.56675000  0.69371000  0.74023000  1.0
  C  C35  1  0.93324000  0.30628000  0.24023000  1.0
  C  C36  1  0.55345000  0.44344000  0.26978000  1.0
  C  C37  1  0.94656000  0.55656000  0.76978000  1.0
  C  C38  1  0.44656000  0.55656000  0.73022000  1.0
  C  C39  1  0.05345000  0.44344000  0.23022000  1.0
  C  C40  1  0.64735000  0.52756000  0.20065000  1.0
  C  C41  1  0.85266000  0.47243000  0.70065000  1.0
  C  C42  1  0.35266000  0.47243000  0.79935000  1.0
  C  C43  1  0.14735000  0.52757000  0.29935000  1.0
  C  C44  1  0.74607000  0.65404000  0.23668000  1.0
  C  C45  1  0.75393000  0.34595000  0.73668000  1.0
  C  C46  1  0.25394000  0.34595000  0.76332000  1.0
  C  C47  1  0.24607000  0.65405000  0.26332000  1.0
  C  C48  1  0.72837000  0.66404000  0.33296000  1.0
  C  C49  1  0.77164000  0.33596000  0.83296000  1.0
  C  C50  1  0.27164000  0.33596000  0.66704000  1.0
  C  C51  1  0.22837000  0.66404000  0.16704000  1.0
  C  C52  1  0.82034000  0.77911000  0.39374000  1.0
  C  C53  1  0.67965000  0.22089000  0.89374000  1.0
  C  C54  1  0.17966000  0.22089000  0.60626000  1.0
  C  C55  1  0.32033000  0.77911000  0.10626000  1.0
  C  C56  1  0.77812000  0.89638000  0.03105000  1.0
  C  C57  1  0.72188000  0.10362000  0.53105000  1.0
  C  C58  1  0.22186000  0.10362000  0.96895000  1.0
  C  C59  1  0.27814000  0.89639000  0.46896000  1.0
  C  C60  1  0.85088000  0.77517000  0.99892000  1.0
  C  C61  1  0.64911000  0.22483000  0.49892000  1.0
  C  C62  1  0.14911000  0.22483000  0.00108000  1.0
  C  C63  1  0.35090000  0.77517000  0.50109000  1.0
  S  S64  1  0.58747000  0.52009000  0.37868000  1.0
  S  S65  1  0.91255000  0.47990000  0.87868000  1.0
  S  S66  1  0.41254000  0.47990000  0.62132000  1.0
  S  S67  1  0.08747000  0.52010000  0.12132000  1.0
  O  O68  1  0.42985000  0.24113000  0.18116000  1.0
  O  O69  1  0.07015000  0.75886000  0.68116000  1.0
  O  O70  1  0.57014000  0.75887000  0.81884000  1.0
  O  O71  1  0.92986000  0.24113000  0.31884000  1.0
  O  O72  1  0.33759000  0.25946000  0.32965000  1.0
  O  O73  1  0.16242000  0.74053000  0.82964000  1.0
  O  O74  1  0.66241000  0.74054000  0.67036000  1.0
  O  O75  1  0.83759000  0.25946000  0.17035000  1.0
  O  O76  1  0.92072000  0.88097000  0.35256000  1.0
  O  O77  1  0.57927000  0.11903000  0.85256000  1.0
  O  O78  1  0.07928000  0.11903000  0.64743000  1.0
  O  O79  1  0.42072000  0.88098000  0.14743000  1.0
  O  O80  1  0.79294000  0.76712000  0.48201000  1.0
  O  O81  1  0.70705000  0.23289000  0.98202000  1.0
  O  O82  1  0.20706000  0.23289000  0.51798000  1.0
  O  O83  1  0.29293000  0.76711000  0.01799000  1.0
  O  O84  1  0.83911000  0.96732000  0.10324000  1.0
  O  O85  1  0.66090000  0.03269000  0.60325000  1.0
  O  O86  1  0.16088000  0.03268000  0.89676000  1.0
  O  O87  1  0.33912000  0.96732000  0.39676000  1.0
  O  O88  1  0.64684000  0.92879000  0.98755000  1.0
  O  O89  1  0.85316000  0.07122000  0.48756000  1.0
  O  O90  1  0.35314000  0.07122000  0.01244000  1.0
  O  O91  1  0.14686000  0.92879000  0.51245000  1.0
  O  O92  1  0.62145000  0.04685000  0.27584000  1.0
  O  O93  1  0.87854000  0.95315000  0.77584000  1.0
  O  O94  1  0.37854000  0.95316000  0.72416000  1.0
  O  O95  1  0.12146000  0.04684000  0.22415000  1.0
