# generated using pymatgen
data_ZnH8(C5O4)2
_symmetry_space_group_name_H-M   'P 1'
_cell_length_a   5.89209000
_cell_length_b   8.21634000
_cell_length_c   11.89480000
_cell_angle_alpha   100.00600000
_cell_angle_beta   89.99090000
_cell_angle_gamma   111.01300000
_symmetry_Int_Tables_number   1
_chemical_formula_structural   ZnH8(C5O4)2
_chemical_formula_sum   'Zn2 H16 C20 O16'
_cell_volume   528.16262380
_cell_formula_units_Z   2
loop_
 _symmetry_equiv_pos_site_id
 _symmetry_equiv_pos_as_xyz
  1  'x, y, z'
loop_
 _atom_site_type_symbol
 _atom_site_label
 _atom_site_symmetry_multiplicity
 _atom_site_fract_x
 _atom_site_fract_y
 _atom_site_fract_z
 _atom_site_occupancy
  Zn  Zn0  1  0.83610000  0.00001000  0.75003000  1.0
  Zn  Zn1  1  0.16392000  0.00000000  0.24997000  1.0
  H  H2  1  0.96617000  0.72845000  0.88980000  1.0
  H  H3  1  0.23773000  0.27155000  0.61022000  1.0
  H  H4  1  0.03382000  0.27154000  0.11022000  1.0
  H  H5  1  0.76226000  0.72845000  0.38978000  1.0
  H  H6  1  0.50094000  0.55004000  0.79693000  1.0
  H  H7  1  0.95080000  0.44998000  0.70300000  1.0
  H  H8  1  0.49908000  0.44997000  0.20309000  1.0
  H  H9  1  0.04916000  0.55000000  0.29698000  1.0
  H  H10  1  0.66456000  0.92216000  0.94374000  1.0
  H  H11  1  0.74240000  0.07789000  0.55634000  1.0
  H  H12  1  0.33548000  0.07786000  0.05626000  1.0
  H  H13  1  0.25756000  0.92209000  0.44366000  1.0
  H  H14  1  0.46873000  0.97268000  0.88068000  1.0
  H  H15  1  0.49595000  0.02723000  0.61932000  1.0
  H  H16  1  0.53130000  0.02733000  0.11933000  1.0
  H  H17  1  0.50403000  0.97273000  0.38068000  1.0
  C  C18  1  0.28726000  0.19595000  0.87028000  1.0
  C  C19  1  0.09126000  0.80400000  0.62968000  1.0
  C  C20  1  0.71274000  0.80403000  0.12971000  1.0
  C  C21  1  0.90870000  0.19599000  0.37032000  1.0
  C  C22  1  0.51933000  0.34548000  0.88959000  1.0
  C  C23  1  0.17377000  0.65457000  0.61039000  1.0
  C  C24  1  0.48071000  0.65452000  0.11041000  1.0
  C  C25  1  0.82620000  0.34543000  0.38961000  1.0
  C  C26  1  0.84377000  0.59853000  0.90092000  1.0
  C  C27  1  0.24510000  0.40148000  0.59901000  1.0
  C  C28  1  0.15628000  0.40152000  0.09907000  1.0
  C  C29  1  0.75488000  0.59852000  0.40099000  1.0
  C  C30  1  0.89519000  0.48975000  0.96546000  1.0
  C  C31  1  0.40541000  0.51032000  0.53453000  1.0
  C  C32  1  0.10482000  0.51024000  0.03455000  1.0
  C  C33  1  0.59458000  0.48970000  0.46547000  1.0
  C  C34  1  0.60284000  0.50543000  0.85237000  1.0
  C  C35  1  0.09729000  0.49460000  0.64754000  1.0
  C  C36  1  0.39719000  0.49459000  0.14763000  1.0
  C  C37  1  0.90268000  0.50539000  0.35245000  1.0
  O  O38  1  0.12077000  0.21428000  0.80974000  1.0
  O  O39  1  0.90634000  0.78572000  0.69017000  1.0
  O  O40  1  0.87925000  0.78573000  0.19025000  1.0
  O  O41  1  0.09365000  0.21428000  0.30983000  1.0
  O  O42  1  0.25855000  0.05604000  0.91122000  1.0
  O  O43  1  0.20244000  0.94396000  0.58878000  1.0
  O  O44  1  0.74147000  0.94396000  0.08878000  1.0
  O  O45  1  0.79752000  0.05604000  0.41121000  1.0
  O  O46  1  0.69953000  0.33444000  0.95896000  1.0
  O  O47  1  0.36505000  0.66559000  0.54104000  1.0
  O  O48  1  0.30051000  0.66555000  0.04104000  1.0
  O  O49  1  0.63492000  0.33441000  0.45896000  1.0
  O  O50  1  0.59703000  0.91828000  0.86590000  1.0
  O  O51  1  0.67863000  0.08170000  0.63417000  1.0
  O  O52  1  0.40301000  0.08173000  0.13411000  1.0
  O  O53  1  0.32135000  0.91828000  0.36583000  1.0
