# generated using pymatgen
data_BaH20C18S2N8O9
_symmetry_space_group_name_H-M   'P 1'
_cell_length_a   9.47549000
_cell_length_b   10.00170000
_cell_length_c   14.41790000
_cell_angle_alpha   110.27300000
_cell_angle_beta   94.10970000
_cell_angle_gamma   90.01150000
_symmetry_Int_Tables_number   1
_chemical_formula_structural   BaH20C18S2N8O9
_chemical_formula_sum   'Ba2 H40 C36 S4 N16 O18'
_cell_volume   1278.00021333
_cell_formula_units_Z   2
loop_
 _symmetry_equiv_pos_site_id
 _symmetry_equiv_pos_as_xyz
  1  'x, y, z'
loop_
 _atom_site_type_symbol
 _atom_site_label
 _atom_site_symmetry_multiplicity
 _atom_site_fract_x
 _atom_site_fract_y
 _atom_site_fract_z
 _atom_site_occupancy
  Ba  Ba0  1  0.74995000  0.95878000  0.99999000  1.0
  Ba  Ba1  1  0.25004000  0.04123000  0.00001000  1.0
  H  H2  1  0.35871000  0.96695000  0.23192000  1.0
  H  H3  1  0.14138000  0.73459000  0.76820000  1.0
  H  H4  1  0.64128000  0.03306000  0.76809000  1.0
  H  H5  1  0.85861000  0.26539000  0.23180000  1.0
  H  H6  1  0.92018000  0.68284000  0.85280000  1.0
  H  H7  1  0.57964000  0.82998000  0.14713000  1.0
  H  H8  1  0.07979000  0.31716000  0.14718000  1.0
  H  H9  1  0.42033000  0.17002000  0.85286000  1.0
  H  H10  1  0.79493000  0.58904000  0.86405000  1.0
  H  H11  1  0.70498000  0.72511000  0.13605000  1.0
  H  H12  1  0.20504000  0.41095000  0.13593000  1.0
  H  H13  1  0.29499000  0.27489000  0.86393000  1.0
  H  H14  1  0.72129000  0.33685000  0.05201000  1.0
  H  H15  1  0.77894000  0.28433000  0.94702000  1.0
  H  H16  1  0.27876000  0.66318000  0.94804000  1.0
  H  H17  1  0.22109000  0.71573000  0.05303000  1.0
  H  H18  1  0.33547000  0.14213000  0.38650000  1.0
  H  H19  1  0.16464000  0.75585000  0.61373000  1.0
  H  H20  1  0.66454000  0.85789000  0.61350000  1.0
  H  H21  1  0.83536000  0.24414000  0.38627000  1.0
  H  H22  1  0.45078000  0.27248000  0.55427000  1.0
  H  H23  1  0.04940000  0.71873000  0.44596000  1.0
  H  H24  1  0.54923000  0.72754000  0.44573000  1.0
  H  H25  1  0.95061000  0.28127000  0.55404000  1.0
  H  H26  1  0.82849000  0.03271000  0.47263000  1.0
  H  H27  1  0.67182000  0.55971000  0.52727000  1.0
  H  H28  1  0.17150000  0.96727000  0.52737000  1.0
  H  H29  1  0.32818000  0.44028000  0.47272000  1.0
  H  H30  1  0.71246000  0.90104000  0.30900000  1.0
  H  H31  1  0.78781000  0.59114000  0.69082000  1.0
  H  H32  1  0.28753000  0.09895000  0.69101000  1.0
  H  H33  1  0.21218000  0.40884000  0.30917000  1.0
  H  H34  1  0.09019000  0.98396000  0.73459000  1.0
  H  H35  1  0.40995000  0.24948000  0.26546000  1.0
  H  H36  1  0.90982000  0.01604000  0.26541000  1.0
  H  H37  1  0.59004000  0.75052000  0.73454000  1.0
  H  H38  1  0.04046000  0.16327000  0.79058000  1.0
  H  H39  1  0.45951000  0.37298000  0.20954000  1.0
  H  H40  1  0.95954000  0.83673000  0.20942000  1.0
  H  H41  1  0.54048000  0.62702000  0.79046000  1.0
  C  C42  1  0.51624000  0.01201000  0.33650000  1.0
  C  C43  1  0.98398000  0.67511000  0.66353000  1.0
  C  C44  1  0.48377000  0.98799000  0.66350000  1.0
  C  C45  1  0.01602000  0.32487000  0.33646000  1.0
  C  C46  1  0.44386000  0.11943000  0.40563000  1.0
  C  C47  1  0.05627000  0.71386000  0.59451000  1.0
  C  C48  1  0.55614000  0.88058000  0.59437000  1.0
  C  C49  1  0.94373000  0.28613000  0.40549000  1.0
  C  C50  1  0.50779000  0.19227000  0.49960000  1.0
  C  C51  1  0.99236000  0.69289000  0.50054000  1.0
  C  C52  1  0.49222000  0.80774000  0.50040000  1.0
  C  C53  1  0.00764000  0.30711000  0.49946000  1.0
  C  C54  1  0.64570000  0.16124000  0.52555000  1.0
  C  C55  1  0.85453000  0.63566000  0.47450000  1.0
  C  C56  1  0.35430000  0.83876000  0.47445000  1.0
  C  C57  1  0.14547000  0.36433000  0.52549000  1.0
  C  C58  1  0.71989000  0.05747000  0.45579000  1.0
  C  C59  1  0.78040000  0.60132000  0.54417000  1.0
  C  C60  1  0.28011000  0.94252000  0.54420000  1.0
  C  C61  1  0.21960000  0.39866000  0.45583000  1.0
  C  C62  1  0.65534000  0.98320000  0.36237000  1.0
  C  C63  1  0.84498000  0.62021000  0.63755000  1.0
  C  C64  1  0.34466000  0.01680000  0.63763000  1.0
  C  C65  1  0.15502000  0.37978000  0.36244000  1.0
  C  C66  1  0.99926000  0.05360000  0.75364000  1.0
  C  C67  1  0.50087000  0.30017000  0.24640000  1.0
  C  C68  1  0.00074000  0.94640000  0.24635000  1.0
  C  C69  1  0.49913000  0.69983000  0.75360000  1.0
  C  C70  1  0.91436000  0.00945000  0.82489000  1.0
  C  C71  1  0.58567000  0.18499000  0.17505000  1.0
  C  C72  1  0.08564000  0.99054000  0.17511000  1.0
  C  C73  1  0.41432000  0.81501000  0.82495000  1.0
  C  C74  1  0.80865000  0.19207000  0.67953000  1.0
  C  C75  1  0.69141000  0.51279000  0.32061000  1.0
  C  C76  1  0.19136000  0.80794000  0.32047000  1.0
  C  C77  1  0.30859000  0.48720000  0.67939000  1.0
  S  S78  1  0.90562000  0.03956000  0.63777000  1.0
  S  S79  1  0.59448000  0.40183000  0.36229000  1.0
  S  S80  1  0.09439000  0.96044000  0.36223000  1.0
  S  S81  1  0.40552000  0.59816000  0.63770000  1.0
  N  N82  1  0.70599000  0.23260000  0.62378000  1.0
  N  N83  1  0.79418000  0.60900000  0.37630000  1.0
  N  N84  1  0.29402000  0.76740000  0.37622000  1.0
  N  N85  1  0.20582000  0.39100000  0.62369000  1.0
  N  N86  1  0.65501000  0.35928000  0.68252000  1.0
  N  N87  1  0.84507000  0.67703000  0.31755000  1.0
  N  N88  1  0.34500000  0.64073000  0.31748000  1.0
  N  N89  1  0.15493000  0.32296000  0.68244000  1.0
  N  N90  1  0.72424000  0.39075000  0.76875000  1.0
  N  N91  1  0.77567000  0.62241000  0.23137000  1.0
  N  N92  1  0.27577000  0.60925000  0.23125000  1.0
  N  N93  1  0.22433000  0.37758000  0.76863000  1.0
  N  N94  1  0.81981000  0.29090000  0.77073000  1.0
  N  N95  1  0.68010000  0.52059000  0.22944000  1.0
  N  N96  1  0.18019000  0.70910000  0.22927000  1.0
  N  N97  1  0.31990000  0.47940000  0.77055000  1.0
  O  O98  1  0.78295000  0.97662000  0.80623000  1.0
  O  O99  1  0.71709000  0.17076000  0.19361000  1.0
  O  O100  1  0.21704000  0.02339000  0.19377000  1.0
  O  O101  1  0.28289000  0.82921000  0.80640000  1.0
  O  O102  1  0.98503000  0.00820000  0.90230000  1.0
  O  O103  1  0.51497000  0.10652000  0.09760000  1.0
  O  O104  1  0.01498000  0.99178000  0.09769000  1.0
  O  O105  1  0.48502000  0.89350000  0.90238000  1.0
  O  O106  1  0.45622000  0.93299000  0.24573000  1.0
  O  O107  1  0.04395000  0.68662000  0.75429000  1.0
  O  O108  1  0.54377000  0.06702000  0.75428000  1.0
  O  O109  1  0.95604000  0.31337000  0.24571000  1.0
  O  O110  1  0.83914000  0.68492000  0.89225000  1.0
  O  O111  1  0.66067000  0.79259000  0.10769000  1.0
  O  O112  1  0.16083000  0.31507000  0.10774000  1.0
  O  O113  1  0.33930000  0.20741000  0.89229000  1.0
  O  O114  1  0.75008000  0.25203000  0.99954000  1.0
  O  O115  1  0.25003000  0.74802000  0.00052000  1.0
