# generated using pymatgen
data_NaH22C17S(NO2)3
_symmetry_space_group_name_H-M   'P 1'
_cell_length_a   8.42433000
_cell_length_b   8.68667000
_cell_length_c   13.63660000
_cell_angle_alpha   100.90300000
_cell_angle_beta   101.32800000
_cell_angle_gamma   101.11500000
_symmetry_Int_Tables_number   1
_chemical_formula_structural   NaH22C17S(NO2)3
_chemical_formula_sum   'Na2 H44 C34 S2 N6 O12'
_cell_volume   933.01432054
_cell_formula_units_Z   2
loop_
 _symmetry_equiv_pos_site_id
 _symmetry_equiv_pos_as_xyz
  1  'x, y, z'
loop_
 _atom_site_type_symbol
 _atom_site_label
 _atom_site_symmetry_multiplicity
 _atom_site_fract_x
 _atom_site_fract_y
 _atom_site_fract_z
 _atom_site_occupancy
  Na  Na0  1  0.21079000  0.03389000  0.96612000  1.0
  Na  Na1  1  0.78921000  0.96611000  0.03388000  1.0
  H  H2  1  0.80353000  0.35800000  0.91891000  1.0
  H  H3  1  0.19647000  0.64200000  0.08109000  1.0
  H  H4  1  0.58697000  0.18125000  0.53948000  1.0
  H  H5  1  0.41303000  0.81875000  0.46052000  1.0
  H  H6  1  0.52256000  0.42468000  0.63658000  1.0
  H  H7  1  0.47744000  0.57532000  0.36342000  1.0
  H  H8  1  0.86039000  0.91519000  0.36323000  1.0
  H  H9  1  0.13961000  0.08481000  0.63677000  1.0
  H  H10  1  0.89872000  0.66411000  0.26939000  1.0
  H  H11  1  0.10128000  0.33589000  0.73061000  1.0
  H  H12  1  0.76172000  0.43012000  0.50620000  1.0
  H  H13  1  0.23828000  0.56988000  0.49380000  1.0
  H  H14  1  0.72898000  0.68776000  0.60007000  1.0
  H  H15  1  0.27102000  0.31224000  0.39993000  1.0
  H  H16  1  0.86562000  0.24890000  0.44303000  1.0
  H  H17  1  0.13438000  0.75110000  0.55697000  1.0
  H  H18  1  0.87178000  0.14476000  0.32041000  1.0
  H  H19  1  0.12821000  0.85523000  0.67959000  1.0
  H  H20  1  0.60783000  0.05549000  0.37397000  1.0
  H  H21  1  0.39217000  0.94451000  0.62603000  1.0
  H  H22  1  0.56054000  0.24601000  0.36899000  1.0
  H  H23  1  0.43945000  0.75399000  0.63101000  1.0
  H  H24  1  0.99969000  0.27698000  0.23846000  1.0
  H  H25  1  0.00031000  0.72301000  0.76155000  1.0
  H  H26  1  0.04214000  0.48999000  0.26276000  1.0
  H  H27  1  0.95786000  0.51001000  0.73724000  1.0
  H  H28  1  0.76316000  0.46444000  0.13979000  1.0
  H  H29  1  0.23684000  0.53556000  0.86021000  1.0
  H  H30  1  0.91100000  0.37971000  0.08353000  1.0
  H  H31  1  0.08900000  0.62029000  0.91647000  1.0
  H  H32  1  0.72642000  0.65260000  0.87836000  1.0
  H  H33  1  0.27358000  0.34740000  0.12164000  1.0
  H  H34  1  0.56597000  0.52070000  0.91014000  1.0
  H  H35  1  0.43402000  0.47929000  0.08986000  1.0
  H  H36  1  0.52236000  0.59642000  0.79752000  1.0
  H  H37  1  0.47763000  0.40357000  0.20248000  1.0
  H  H38  1  0.43587000  0.09840000  0.20989000  1.0
  H  H39  1  0.56413000  0.90160000  0.79011000  1.0
  H  H40  1  0.65406000  0.18565000  0.15022000  1.0
  H  H41  1  0.34594000  0.81435000  0.84978000  1.0
  H  H42  1  0.55144000  0.19559000  0.98825000  1.0
  H  H43  1  0.44856000  0.80441000  0.01175000  1.0
  H  H44  1  0.46084000  0.11296000  0.87178000  1.0
  H  H45  1  0.53916000  0.88703000  0.12822000  1.0
  C  C46  1  0.65752000  0.40970000  0.78492000  1.0
  C  C47  1  0.34248000  0.59029000  0.21508000  1.0
  C  C48  1  0.75506000  0.32108000  0.83571000  1.0
  C  C49  1  0.24494000  0.67892000  0.16429000  1.0
  C  C50  1  0.78791000  0.18311000  0.78151000  1.0
  C  C51  1  0.21209000  0.81689000  0.21849000  1.0
  C  C52  1  0.72884000  0.13104000  0.67346000  1.0
  C  C53  1  0.27116000  0.86896000  0.32654000  1.0
  C  C54  1  0.63703000  0.22349000  0.62237000  1.0
  C  C55  1  0.36297000  0.77651000  0.37763000  1.0
  C  C56  1  0.60054000  0.35904000  0.67758000  1.0
  C  C57  1  0.39945000  0.64096000  0.32242000  1.0
  C  C58  1  0.78864000  0.81914000  0.48715000  1.0
  C  C59  1  0.21137000  0.18086000  0.51285000  1.0
  C  C60  1  0.83744000  0.80811000  0.39366000  1.0
  C  C61  1  0.16256000  0.19189000  0.60634000  1.0
  C  C62  1  0.86046000  0.66523000  0.34099000  1.0
  C  C63  1  0.13954000  0.33477000  0.65901000  1.0
  C  C64  1  0.83258000  0.52307000  0.37865000  1.0
  C  C65  1  0.16741000  0.47694000  0.62135000  1.0
  C  C66  1  0.78174000  0.53483000  0.47320000  1.0
  C  C67  1  0.21827000  0.46517000  0.52680000  1.0
  C  C68  1  0.76276000  0.67939000  0.52637000  1.0
  C  C69  1  0.23725000  0.32061000  0.47363000  1.0
  C  C70  1  0.81244000  0.23127000  0.36005000  1.0
  C  C71  1  0.18756000  0.76873000  0.63995000  1.0
  C  C72  1  0.62609000  0.15772000  0.33716000  1.0
  C  C73  1  0.37391000  0.84227000  0.66284000  1.0
  C  C74  1  0.94117000  0.37985000  0.24305000  1.0
  C  C75  1  0.05883000  0.62015000  0.75695000  1.0
  C  C76  1  0.83059000  0.36746000  0.13739000  1.0
  C  C77  1  0.16941000  0.63253000  0.86262000  1.0
  C  C78  1  0.61537000  0.55227000  0.84579000  1.0
  C  C79  1  0.38463000  0.44773000  0.15421000  1.0
  S  S80  1  0.89404000  0.06376000  0.85061000  1.0
  S  S81  1  0.10596000  0.93624000  0.14939000  1.0
  N  N82  1  0.75222000  0.98219000  0.62599000  1.0
  N  N83  1  0.24778000  0.01781000  0.37401000  1.0
  N  N84  1  0.77225000  0.97011000  0.53480000  1.0
  N  N85  1  0.22775000  0.02990000  0.46520000  1.0
  N  N86  1  0.85547000  0.38101000  0.32659000  1.0
  N  N87  1  0.14453000  0.61899000  0.67341000  1.0
  O  O88  1  0.96505000  0.16059000  0.95727000  1.0
  O  O89  1  0.03495000  0.83941000  0.04272000  1.0
  O  O90  1  0.76135000  0.92179000  0.84913000  1.0
  O  O91  1  0.23865000  0.07822000  0.15087000  1.0
  O  O92  1  0.02382000  0.01975000  0.80134000  1.0
  O  O93  1  0.97618000  0.98025000  0.19866000  1.0
  O  O94  1  0.55783000  0.10222000  0.22764000  1.0
  O  O95  1  0.44217000  0.89778000  0.77236000  1.0
  O  O96  1  0.71389000  0.21324000  0.09654000  1.0
  O  O97  1  0.28611000  0.78676000  0.90346000  1.0
  O  O98  1  0.44613000  0.17699000  0.93525000  1.0
  O  O99  1  0.55387000  0.82301000  0.06475000  1.0
