# generated using pymatgen
data_MnH24C28(N7O2)2
_symmetry_space_group_name_H-M   'P 1'
_cell_length_a   7.30746000
_cell_length_b   7.56579000
_cell_length_c   14.32180000
_cell_angle_alpha   100.25500000
_cell_angle_beta   93.22600000
_cell_angle_gamma   115.72000000
_symmetry_Int_Tables_number   1
_chemical_formula_structural   MnH24C28(N7O2)2
_chemical_formula_sum   'Mn1 H24 C28 N14 O4'
_cell_volume   693.95300623
_cell_formula_units_Z   1
loop_
 _symmetry_equiv_pos_site_id
 _symmetry_equiv_pos_as_xyz
  1  'x, y, z'
loop_
 _atom_site_type_symbol
 _atom_site_label
 _atom_site_symmetry_multiplicity
 _atom_site_fract_x
 _atom_site_fract_y
 _atom_site_fract_z
 _atom_site_occupancy
  Mn  Mn0  1  0.00000000  0.00000000  0.00003000  1.0
  H  H1  1  0.17651000  0.49963000  0.33856000  1.0
  H  H2  1  0.82350000  0.50037000  0.66144000  1.0
  H  H3  1  0.08592000  0.56297000  0.44377000  1.0
  H  H4  1  0.91408000  0.43703000  0.55622000  1.0
  H  H5  1  0.05287000  0.27378000  0.20587000  1.0
  H  H6  1  0.94713000  0.72622000  0.79412000  1.0
  H  H7  1  0.89728000  0.88100000  0.40470000  1.0
  H  H8  1  0.10273000  0.11900000  0.59530000  1.0
  H  H9  1  0.85796000  0.60185000  0.26926000  1.0
  H  H10  1  0.14204000  0.39815000  0.73074000  1.0
  H  H11  1  0.92149000  0.67831000  0.10710000  1.0
  H  H12  1  0.07850000  0.32168000  0.89290000  1.0
  H  H13  1  0.59390000  0.64911000  0.46568000  1.0
  H  H14  1  0.40610000  0.35089000  0.53432000  1.0
  H  H15  1  0.68994000  0.91402000  0.50268000  1.0
  H  H16  1  0.31007000  0.08598000  0.49731000  1.0
  H  H17  1  0.68730000  0.15148000  0.58407000  1.0
  H  H18  1  0.31271000  0.84853000  0.41593000  1.0
  H  H19  1  0.40945000  0.75013000  0.76892000  1.0
  H  H20  1  0.59055000  0.24987000  0.23108000  1.0
  H  H21  1  0.44060000  0.05130000  0.89046000  1.0
  H  H22  1  0.55940000  0.94870000  0.10953000  1.0
  H  H23  1  0.60569000  0.39136000  0.85166000  1.0
  H  H24  1  0.39432000  0.60863000  0.14834000  1.0
  C  C25  1  0.46648000  0.26848000  0.04327000  1.0
  C  C26  1  0.53351000  0.73153000  0.95674000  1.0
  C  C27  1  0.77624000  0.26272000  0.03876000  1.0
  C  C28  1  0.22376000  0.73727000  0.96125000  1.0
  C  C29  1  0.01259000  0.12887000  0.22416000  1.0
  C  C30  1  0.98742000  0.87113000  0.77583000  1.0
  C  C31  1  0.97782000  0.09940000  0.31663000  1.0
  C  C32  1  0.02218000  0.90060000  0.68337000  1.0
  C  C33  1  0.92159000  0.90712000  0.33320000  1.0
  C  C34  1  0.07842000  0.09289000  0.66679000  1.0
  C  C35  1  0.90234000  0.75293000  0.25829000  1.0
  C  C36  1  0.09767000  0.24708000  0.74171000  1.0
  C  C37  1  0.93855000  0.79419000  0.16850000  1.0
  C  C38  1  0.06144000  0.20580000  0.83150000  1.0
  C  C39  1  0.98557000  0.26007000  0.39718000  1.0
  C  C40  1  0.01444000  0.73993000  0.60282000  1.0
  C  C41  1  0.63163000  0.12209000  0.65151000  1.0
  C  C42  1  0.36837000  0.87791000  0.34849000  1.0
  C  C43  1  0.54523000  0.92673000  0.66712000  1.0
  C  C44  1  0.45477000  0.07327000  0.33288000  1.0
  C  C45  1  0.47709000  0.90089000  0.75514000  1.0
  C  C46  1  0.52291000  0.09911000  0.24485000  1.0
  C  C47  1  0.49679000  0.06767000  0.82228000  1.0
  C  C48  1  0.50321000  0.93233000  0.17772000  1.0
  C  C49  1  0.58599000  0.25673000  0.80026000  1.0
  C  C50  1  0.41401000  0.74327000  0.19974000  1.0
  C  C51  1  0.52207000  0.74554000  0.59512000  1.0
  C  C52  1  0.47793000  0.25446000  0.40487000  1.0
  N  N53  1  0.28545000  0.20078000  0.03217000  1.0
  N  N54  1  0.71454000  0.79922000  0.96786000  1.0
  N  N55  1  0.66575000  0.35621000  0.05792000  1.0
  N  N56  1  0.33424000  0.64380000  0.94208000  1.0
  N  N57  1  0.89258000  0.19372000  0.02530000  1.0
  N  N58  1  0.10740000  0.80628000  0.97473000  1.0
  N  N59  1  0.99085000  0.97819000  0.15135000  1.0
  N  N60  1  0.00914000  0.02180000  0.84864000  1.0
  N  N61  1  0.08529000  0.45125000  0.39040000  1.0
  N  N62  1  0.91472000  0.54875000  0.60960000  1.0
  N  N63  1  0.65300000  0.28422000  0.71613000  1.0
  N  N64  1  0.34700000  0.71578000  0.28387000  1.0
  N  N65  1  0.60725000  0.77427000  0.51498000  1.0
  N  N66  1  0.39275000  0.22573000  0.48502000  1.0
  O  O67  1  0.89448000  0.20955000  0.46749000  1.0
  O  O68  1  0.10552000  0.79045000  0.53250000  1.0
  O  O69  1  0.42595000  0.57407000  0.61197000  1.0
  O  O70  1  0.57405000  0.42593000  0.38803000  1.0
