# generated using pymatgen
data_NdH20C24N11
_symmetry_space_group_name_H-M   'P 1'
_cell_length_a   10.25690000
_cell_length_b   10.65480000
_cell_length_c   12.70200000
_cell_angle_alpha   72.34860000
_cell_angle_beta   84.91910000
_cell_angle_gamma   78.89690000
_symmetry_Int_Tables_number   1
_chemical_formula_structural   NdH20C24N11
_chemical_formula_sum   'Nd2 H40 C48 N22'
_cell_volume   1297.35050114
_cell_formula_units_Z   2
loop_
 _symmetry_equiv_pos_site_id
 _symmetry_equiv_pos_as_xyz
  1  'x, y, z'
loop_
 _atom_site_type_symbol
 _atom_site_label
 _atom_site_symmetry_multiplicity
 _atom_site_fract_x
 _atom_site_fract_y
 _atom_site_fract_z
 _atom_site_occupancy
  Nd  Nd0  1  0.75113000  0.99584000  0.51838000  1.0
  Nd  Nd1  1  0.24887000  0.00415000  0.48161000  1.0
  H  H2  1  0.62716000  0.51163000  0.37616000  1.0
  H  H3  1  0.37281000  0.48839000  0.62383000  1.0
  H  H4  1  0.43711000  0.68500000  0.28797000  1.0
  H  H5  1  0.56285000  0.31500000  0.71203000  1.0
  H  H6  1  0.22193000  0.62541000  0.26699000  1.0
  H  H7  1  0.77804000  0.37457000  0.73303000  1.0
  H  H8  1  0.18895000  0.38682000  0.32825000  1.0
  H  H9  1  0.81104000  0.61315000  0.67177000  1.0
  H  H10  1  0.70074000  0.22482000  0.20772000  1.0
  H  H11  1  0.29926000  0.77519000  0.79229000  1.0
  H  H12  1  0.76219000  0.34082000  0.01218000  1.0
  H  H13  1  0.23781000  0.65918000  0.98783000  1.0
  H  H14  1  0.57483000  0.15022000  0.63941000  1.0
  H  H15  1  0.42519000  0.84978000  0.36059000  1.0
  H  H16  1  0.52801000  0.01732000  0.72372000  1.0
  H  H17  1  0.47200000  0.98269000  0.27627000  1.0
  H  H18  1  0.99129000  0.37978000  0.95739000  1.0
  H  H19  1  0.00872000  0.62022000  0.04262000  1.0
  H  H20  1  0.94242000  0.15295000  0.60414000  1.0
  H  H21  1  0.05758000  0.84705000  0.39586000  1.0
  H  H22  1  0.79105000  0.24097000  0.57915000  1.0
  H  H23  1  0.20895000  0.75903000  0.42085000  1.0
  H  H24  1  0.17017000  0.30661000  0.09497000  1.0
  H  H25  1  0.82982000  0.69340000  0.90503000  1.0
  H  H26  1  0.66666667  0.75071000  0.11784000  1.0
  H  H27  1  0.33333333  0.24928000  0.88215000  1.0
  H  H28  1  0.80725000  0.52329000  0.15798000  1.0
  H  H29  1  0.19278000  0.47670000  0.84202000  1.0
  H  H30  1  0.96212000  0.44022000  0.31102000  1.0
  H  H31  1  0.03790000  0.55978000  0.68897000  1.0
  H  H32  1  0.98489000  0.57992000  0.43273000  1.0
  H  H33  1  0.01513000  0.42007000  0.56727000  1.0
  H  H34  1  0.56370000  0.98794000  0.91032000  1.0
  H  H35  1  0.43630000  0.01206000  0.08968000  1.0
  H  H36  1  0.71150000  0.00696000  0.05011000  1.0
  H  H37  1  0.28851000  0.99303000  0.94988000  1.0
  H  H38  1  0.92208000  0.09353000  0.98705000  1.0
  H  H39  1  0.07792000  0.90647000  0.01295000  1.0
  H  H40  1  0.98753000  0.15865000  0.78765000  1.0
  H  H41  1  0.01247000  0.84136000  0.21234000  1.0
  C  C42  1  0.51446000  0.35071000  0.39908000  1.0
  C  C43  1  0.48553000  0.64930000  0.60092000  1.0
  C  C44  1  0.53278000  0.48470000  0.36631000  1.0
  C  C45  1  0.46719000  0.51532000  0.63369000  1.0
  C  C46  1  0.42576000  0.58030000  0.31875000  1.0
  C  C47  1  0.57421000  0.41971000  0.68125000  1.0
  C  C48  1  0.30240000  0.54598000  0.30560000  1.0
  C  C49  1  0.69758000  0.45402000  0.69441000  1.0
  C  C50  1  0.28275000  0.41432000  0.33881000  1.0
  C  C51  1  0.71723000  0.58568000  0.66121000  1.0
  C  C52  1  0.39121000  0.31594000  0.38513000  1.0
  C  C53  1  0.60878000  0.68406000  0.61488000  1.0
  C  C54  1  0.90249000  0.20145000  0.26102000  1.0
  C  C55  1  0.09751000  0.79856000  0.73898000  1.0
  C  C56  1  0.80139000  0.24352000  0.18355000  1.0
  C  C57  1  0.19861000  0.75649000  0.81645000  1.0
  C  C58  1  0.83688000  0.30771000  0.07542000  1.0
  C  C59  1  0.16312000  0.69230000  0.92458000  1.0
  C  C60  1  0.96863000  0.33008000  0.04375000  1.0
  C  C61  1  0.03137000  0.66993000  0.95625000  1.0
  C  C62  1  0.06896000  0.28975000  0.11946000  1.0
  C  C63  1  0.93104000  0.71026000  0.88054000  1.0
  C  C64  1  0.03447000  0.22483000  0.22953000  1.0
  C  C65  1  0.96553000  0.77517000  0.77047000  1.0
  C  C66  1  0.74462000  0.79167000  0.25619000  1.0
  C  C67  1  0.25539000  0.20833000  0.74380000  1.0
  C  C68  1  0.73443000  0.71388000  0.18631000  1.0
  C  C69  1  0.26558000  0.28611000  0.81369000  1.0
  C  C70  1  0.81347000  0.58816000  0.20859000  1.0
  C  C71  1  0.18655000  0.41184000  0.79140000  1.0
  C  C72  1  0.90240000  0.53983000  0.29727000  1.0
  C  C73  1  0.09761000  0.46017000  0.70272000  1.0
  C  C74  1  0.91460000  0.61571000  0.36616000  1.0
  C  C75  1  0.08542000  0.38427000  0.63383000  1.0
  C  C76  1  0.83355000  0.74254000  0.34541000  1.0
  C  C77  1  0.16646000  0.25744000  0.65460000  1.0
  C  C78  1  0.69176000  0.06528000  0.77210000  1.0
  C  C79  1  0.30824000  0.93472000  0.22790000  1.0
  C  C80  1  0.65686000  0.02549000  0.88471000  1.0
  C  C81  1  0.34315000  0.97451000  0.11529000  1.0
  C  C82  1  0.73968000  0.03533000  0.96236000  1.0
  C  C83  1  0.26032000  0.96467000  0.03764000  1.0
  C  C84  1  0.85823000  0.08355000  0.92717000  1.0
  C  C85  1  0.14177000  0.91645000  0.07283000  1.0
  C  C86  1  0.89468000  0.12134000  0.81490000  1.0
  C  C87  1  0.10532000  0.87867000  0.18510000  1.0
  C  C88  1  0.81151000  0.11339000  0.73678000  1.0
  C  C89  1  0.18849000  0.88662000  0.26321000  1.0
  N  N90  1  0.59813000  0.23336000  0.44555000  1.0
  N  N91  1  0.40187000  0.76665000  0.55445000  1.0
  N  N92  1  0.52915000  0.13535000  0.45754000  1.0
  N  N93  1  0.47086000  0.86465000  0.54245000  1.0
  N  N94  1  0.40556000  0.17912000  0.42322000  1.0
  N  N95  1  0.59445000  0.82088000  0.57679000  1.0
  N  N96  1  0.90191000  0.13451000  0.37206000  1.0
  N  N97  1  0.09809000  0.86549000  0.62794000  1.0
  N  N98  1  0.02469000  0.12075000  0.40468000  1.0
  N  N99  1  0.97531000  0.87924000  0.59532000  1.0
  N  N100  1  0.10764000  0.17248000  0.32298000  1.0
  N  N101  1  0.89236000  0.82752000  0.67703000  1.0
  N  N102  1  0.68054000  0.91731000  0.25683000  1.0
  N  N103  1  0.31947000  0.08268000  0.74317000  1.0
  N  N104  1  0.72906000  0.94159000  0.34043000  1.0
  N  N105  1  0.27095000  0.05840000  0.65956000  1.0
  N  N106  1  0.82130000  0.84060000  0.39597000  1.0
  N  N107  1  0.17870000  0.15939000  0.60403000  1.0
  N  N108  1  0.61133000  0.05662000  0.68940000  1.0
  N  N109  1  0.38867000  0.94338000  0.31059000  1.0
  N  N110  1  0.84324000  0.14913000  0.62000000  1.0
  N  N111  1  0.15677000  0.85086000  0.38000000  1.0
