# generated using pymatgen
data_CaH10C6(N4O3)2
_symmetry_space_group_name_H-M   'P 1'
_cell_length_a   7.24322000
_cell_length_b   9.32559000
_cell_length_c   9.99372000
_cell_angle_alpha   106.90200000
_cell_angle_beta   89.99970000
_cell_angle_gamma   89.99980000
_symmetry_Int_Tables_number   1
_chemical_formula_structural   CaH10C6(N4O3)2
_chemical_formula_sum   'Ca2 H20 C12 N16 O12'
_cell_volume   645.88901415
_cell_formula_units_Z   2
loop_
 _symmetry_equiv_pos_site_id
 _symmetry_equiv_pos_as_xyz
  1  'x, y, z'
loop_
 _atom_site_type_symbol
 _atom_site_label
 _atom_site_symmetry_multiplicity
 _atom_site_fract_x
 _atom_site_fract_y
 _atom_site_fract_z
 _atom_site_occupancy
  Ca  Ca0  1  0.50000000  0.50000000  0.00000000  1.0
  Ca  Ca1  1  0.00000000  0.50000000  0.50000000  1.0
  H  H2  1  0.59166000  0.34248000  0.34455000  1.0
  H  H3  1  0.09166000  0.65752000  0.15545000  1.0
  H  H4  1  0.40834000  0.65752000  0.65545000  1.0
  H  H5  1  0.90834000  0.34248000  0.84455000  1.0
  H  H6  1  0.42982000  0.16081000  0.62815000  1.0
  H  H7  1  0.92982000  0.83919000  0.87186000  1.0
  H  H8  1  0.57018000  0.83919000  0.37185000  1.0
  H  H9  1  0.07018000  0.16081000  0.12814000  1.0
  H  H10  1  0.62990000  0.25886000  0.59943000  1.0
  H  H11  1  0.12990000  0.74114000  0.90057000  1.0
  H  H12  1  0.37010000  0.74114000  0.40057000  1.0
  H  H13  1  0.87010000  0.25886000  0.09943000  1.0
  H  H14  1  0.39304000  0.84868000  0.10194000  1.0
  H  H15  1  0.89305000  0.15133000  0.39806000  1.0
  H  H16  1  0.60696000  0.15132000  0.89806000  1.0
  H  H17  1  0.10696000  0.84867000  0.60194000  1.0
  H  H18  1  0.47741000  0.80230000  0.95040000  1.0
  H  H19  1  0.97742000  0.19770000  0.54960000  1.0
  H  H20  1  0.52259000  0.19770000  0.04960000  1.0
  H  H21  1  0.02258000  0.80230000  0.45040000  1.0
  C  C22  1  0.51080000  0.24044000  0.32710000  1.0
  C  C23  1  0.01080000  0.75956000  0.17290000  1.0
  C  C24  1  0.48920000  0.75955000  0.67290000  1.0
  C  C25  1  0.98920000  0.24044000  0.82710000  1.0
  C  C26  1  0.48102000  0.24373000  0.57910000  1.0
  C  C27  1  0.98101000  0.75627000  0.92090000  1.0
  C  C28  1  0.51899000  0.75627000  0.42090000  1.0
  C  C29  1  0.01899000  0.24373000  0.07910000  1.0
  C  C30  1  0.38370000  0.39409000  0.64294000  1.0
  C  C31  1  0.88368000  0.60592000  0.85707000  1.0
  C  C32  1  0.61630000  0.60591000  0.35705000  1.0
  C  C33  1  0.11631000  0.39408000  0.14293000  1.0
  N  N34  1  0.45417000  0.18347000  0.42932000  1.0
  N  N35  1  0.95417000  0.81653000  0.07068000  1.0
  N  N36  1  0.54583000  0.81653000  0.57068000  1.0
  N  N37  1  0.04582000  0.18347000  0.92932000  1.0
  N  N38  1  0.35835000  0.05654000  0.37140000  1.0
  N  N39  1  0.85835000  0.94346000  0.12860000  1.0
  N  N40  1  0.64165000  0.94346000  0.62860000  1.0
  N  N41  1  0.14165000  0.05654000  0.87140000  1.0
  N  N42  1  0.35945000  0.03749000  0.23687000  1.0
  N  N43  1  0.85945000  0.96251000  0.26314000  1.0
  N  N44  1  0.64055000  0.96251000  0.76313000  1.0
  N  N45  1  0.14055000  0.03749000  0.73686000  1.0
  N  N46  1  0.45291000  0.15059000  0.20587000  1.0
  N  N47  1  0.95291000  0.84941000  0.29413000  1.0
  N  N48  1  0.54709000  0.84941000  0.79413000  1.0
  N  N49  1  0.04709000  0.15059000  0.70587000  1.0
  O  O50  1  0.40720000  0.45136000  0.77224000  1.0
  O  O51  1  0.90719000  0.54864000  0.72776000  1.0
  O  O52  1  0.59280000  0.54864000  0.22776000  1.0
  O  O53  1  0.09280000  0.45136000  0.27224000  1.0
  O  O54  1  0.29270000  0.45121000  0.56313000  1.0
  O  O55  1  0.79271000  0.54880000  0.93687000  1.0
  O  O56  1  0.70730000  0.54879000  0.43687000  1.0
  O  O57  1  0.20729000  0.45120000  0.06313000  1.0
  O  O58  1  0.42661000  0.76006000  0.02378000  1.0
  O  O59  1  0.92661000  0.23995000  0.47622000  1.0
  O  O60  1  0.57339000  0.23994000  0.97622000  1.0
  O  O61  1  0.07339000  0.76005000  0.52378000  1.0
