# generated using pymatgen
data_CuH12C22(NO4)2
_symmetry_space_group_name_H-M   'P 1'
_cell_length_a   8.90613000
_cell_length_b   8.90614000
_cell_length_c   12.20280000
_cell_angle_alpha   96.21270000
_cell_angle_beta   96.21280000
_cell_angle_gamma   107.18400000
_symmetry_Int_Tables_number   1
_chemical_formula_structural   CuH12C22(NO4)2
_chemical_formula_sum   'Cu2 H24 C44 N4 O16'
_cell_volume   909.20876191
_cell_formula_units_Z   2
loop_
 _symmetry_equiv_pos_site_id
 _symmetry_equiv_pos_as_xyz
  1  'x, y, z'
loop_
 _atom_site_type_symbol
 _atom_site_label
 _atom_site_symmetry_multiplicity
 _atom_site_fract_x
 _atom_site_fract_y
 _atom_site_fract_z
 _atom_site_occupancy
  Cu  Cu0  1  0.54210000  0.45790000  0.25000000  1.0
  Cu  Cu1  1  0.45790000  0.54211000  0.75000000  1.0
  H  H2  1  0.08543000  0.53712000  0.20306000  1.0
  H  H3  1  0.53712000  0.08543000  0.70305000  1.0
  H  H4  1  0.91457000  0.46288000  0.79695000  1.0
  H  H5  1  0.46288000  0.91457000  0.29694000  1.0
  H  H6  1  0.66892000  0.51941000  0.50748000  1.0
  H  H7  1  0.51941000  0.66892000  0.00748000  1.0
  H  H8  1  0.33108000  0.48059000  0.49252000  1.0
  H  H9  1  0.48059000  0.33108000  0.99252000  1.0
  H  H10  1  0.83743000  0.40208000  0.62477000  1.0
  H  H11  1  0.40208000  0.83743000  0.12477000  1.0
  H  H12  1  0.16256000  0.59792000  0.37523000  1.0
  H  H13  1  0.59792000  0.16257000  0.87523000  1.0
  H  H14  1  0.96537000  0.21450000  0.53370000  1.0
  H  H15  1  0.21451000  0.96537000  0.03370000  1.0
  H  H16  1  0.03463000  0.78550000  0.46630000  1.0
  H  H17  1  0.78550000  0.03463000  0.96631000  1.0
  H  H18  1  0.00091000  0.06475000  0.35315000  1.0
  H  H19  1  0.06475000  0.00091000  0.85315000  1.0
  H  H20  1  0.99909000  0.93525000  0.64685000  1.0
  H  H21  1  0.93525000  0.99909000  0.14685000  1.0
  H  H22  1  0.14738000  0.26863000  0.68994000  1.0
  H  H23  1  0.26863000  0.14739000  0.18993000  1.0
  H  H24  1  0.85261000  0.73137000  0.31007000  1.0
  H  H25  1  0.73137000  0.85262000  0.81006000  1.0
  C  C26  1  0.24143000  0.37334000  0.09898000  1.0
  C  C27  1  0.37335000  0.24143000  0.59898000  1.0
  C  C28  1  0.75857000  0.62666000  0.90102000  1.0
  C  C29  1  0.62666000  0.75857000  0.40102000  1.0
  C  C30  1  0.11952000  0.43829000  0.04286000  1.0
  C  C31  1  0.43829000  0.11952000  0.54286000  1.0
  C  C32  1  0.88048000  0.56171000  0.95714000  1.0
  C  C33  1  0.56171000  0.88048000  0.45714000  1.0
  C  C34  1  0.04851000  0.52118000  0.11351000  1.0
  C  C35  1  0.52118000  0.04851000  0.61351000  1.0
  C  C36  1  0.95149000  0.47882000  0.88649000  1.0
  C  C37  1  0.47882000  0.95149000  0.38649000  1.0
  C  C38  1  0.07065000  0.41741000  0.92711000  1.0
  C  C39  1  0.41741000  0.07065000  0.42711000  1.0
  C  C40  1  0.92935000  0.58259000  0.07289000  1.0
  C  C41  1  0.58259000  0.92935000  0.57289000  1.0
  C  C42  1  0.15313000  0.34406000  0.84697000  1.0
  C  C43  1  0.34407000  0.15313000  0.34696000  1.0
  C  C44  1  0.84687000  0.65594000  0.15304000  1.0
  C  C45  1  0.65594000  0.84687000  0.65303000  1.0
  C  C46  1  0.72166000  0.43506000  0.46932000  1.0
  C  C47  1  0.43507000  0.72166000  0.96932000  1.0
  C  C48  1  0.27834000  0.56493000  0.53068000  1.0
  C  C49  1  0.56494000  0.27834000  0.03068000  1.0
  C  C50  1  0.81856000  0.36907000  0.53476000  1.0
  C  C51  1  0.36907000  0.81856000  0.03476000  1.0
  C  C52  1  0.18143000  0.63093000  0.46524000  1.0
  C  C53  1  0.63093000  0.18144000  0.96524000  1.0
  C  C54  1  0.88764000  0.26466000  0.48491000  1.0
  C  C55  1  0.26467000  0.88764000  0.98491000  1.0
  C  C56  1  0.11236000  0.73534000  0.51509000  1.0
  C  C57  1  0.73534000  0.11236000  0.01509000  1.0
  C  C58  1  0.85727000  0.22253000  0.36784000  1.0
  C  C59  1  0.22253000  0.85727000  0.86784000  1.0
  C  C60  1  0.14273000  0.77747000  0.63216000  1.0
  C  C61  1  0.77747000  0.14272000  0.13216000  1.0
  C  C62  1  0.75405000  0.28975000  0.30873000  1.0
  C  C63  1  0.28975000  0.75405000  0.80873000  1.0
  C  C64  1  0.24595000  0.71025000  0.69127000  1.0
  C  C65  1  0.71025000  0.24595000  0.19127000  1.0
  C  C66  1  0.92156000  0.11567000  0.30670000  1.0
  C  C67  1  0.11567000  0.92156000  0.80670000  1.0
  C  C68  1  0.07844000  0.88433000  0.69330000  1.0
  C  C69  1  0.88433000  0.07844000  0.19330000  1.0
  N  N70  1  0.69071000  0.39594000  0.35893000  1.0
  N  N71  1  0.39594000  0.69071000  0.85893000  1.0
  N  N72  1  0.30929000  0.60406000  0.64107000  1.0
  N  N73  1  0.60406000  0.30929000  0.14107000  1.0
  O  O74  1  0.36723000  0.48186000  0.14810000  1.0
  O  O75  1  0.48186000  0.36723000  0.64810000  1.0
  O  O76  1  0.63277000  0.51814000  0.85190000  1.0
  O  O77  1  0.51814000  0.63277000  0.35190000  1.0
  O  O78  1  0.20556000  0.22557000  0.09957000  1.0
  O  O79  1  0.22557000  0.20556000  0.59957000  1.0
  O  O80  1  0.79444000  0.77443000  0.90043000  1.0
  O  O81  1  0.77443000  0.79444000  0.40043000  1.0
  O  O82  1  0.07572000  0.30316000  0.74342000  1.0
  O  O83  1  0.30316000  0.07573000  0.24342000  1.0
  O  O84  1  0.92427000  0.69684000  0.25658000  1.0
  O  O85  1  0.69684000  0.92428000  0.75658000  1.0
  O  O86  1  0.28593000  0.33071000  0.87397000  1.0
  O  O87  1  0.33071000  0.28594000  0.37396000  1.0
  O  O88  1  0.71406000  0.66929000  0.12604000  1.0
  O  O89  1  0.66929000  0.71407000  0.62603000  1.0
