# generated using pymatgen
data_AlH5C10ClO5
_symmetry_space_group_name_H-M   'P 1'
_cell_length_a   6.60581000
_cell_length_b   11.03250000
_cell_length_c   11.03402449
_cell_angle_alpha   91.77200098
_cell_angle_beta   105.84065687
_cell_angle_gamma   106.60600000
_symmetry_Int_Tables_number   1
_chemical_formula_structural   AlH5C10ClO5
_chemical_formula_sum   'Al2 H10 C20 Cl2 O10'
_cell_volume   736.14798478
_cell_formula_units_Z   2
loop_
 _symmetry_equiv_pos_site_id
 _symmetry_equiv_pos_as_xyz
  1  'x, y, z'
loop_
 _atom_site_type_symbol
 _atom_site_label
 _atom_site_symmetry_multiplicity
 _atom_site_fract_x
 _atom_site_fract_y
 _atom_site_fract_z
 _atom_site_occupancy
  Al  Al0  1  0.00127000  0.49627000  0.49962000  1.0
  Al  Al1  1  0.49987000  0.49546000  0.49716000  1.0
  H  H2  1  0.64224000  0.41134000  0.34451000  1.0
  H  H3  1  0.36189000  0.56486000  0.65567000  1.0
  H  H4  1  0.40194000  0.11541000  0.56064000  1.0
  H  H5  1  0.59787000  0.87720000  0.43573000  1.0
  H  H6  1  0.27378000  0.87813000  0.56711000  1.0
  H  H7  1  0.72646000  0.11424000  0.42907000  1.0
  H  H8  1  0.46927000  0.68060000  0.24427000  1.0
  H  H9  1  0.69527000  0.82920000  0.13563000  1.0
  H  H10  1  0.20724000  0.67832000  0.77533000  1.0
  H  H11  1  0.56257000  0.82866000  0.90035000  1.0
  C  C12  1  0.14075000  0.50525000  0.27378000  1.0
  C  C13  1  0.14579000  0.26776000  0.48999000  1.0
  C  C14  1  0.85825000  0.48908000  0.72409000  1.0
  C  C15  1  0.85399000  0.72449000  0.50656000  1.0
  C  C16  1  0.07087000  0.12739000  0.49419000  1.0
  C  C17  1  0.92902000  0.86473000  0.50201000  1.0
  C  C18  1  0.22662000  0.06192000  0.53327000  1.0
  C  C19  1  0.77334000  0.93029000  0.46266000  1.0
  C  C20  1  0.15590000  0.93106000  0.53715000  1.0
  C  C21  1  0.84407000  0.06114000  0.45889000  1.0
  C  C22  1  0.06943000  0.50268000  0.13223000  1.0
  C  C23  1  0.20654000  0.58852000  0.07184000  1.0
  C  C24  1  0.86926000  0.41746000  0.06136000  1.0
  C  C25  1  0.41151000  0.67827000  0.14161000  1.0
  C  C26  1  0.53794000  0.76158000  0.08063000  1.0
  C  C27  1  0.92819000  0.49547000  0.86596000  1.0
  C  C28  1  0.79830000  0.41313000  0.92688000  1.0
  C  C29  1  0.13317000  0.58595000  0.93656000  1.0
  C  C30  1  0.26509000  0.67564000  0.87730000  1.0
  C  C31  1  0.46355000  0.76093000  0.94770000  1.0
  Cl  Cl32  1  0.55506000  0.30140000  0.84092000  1.0
  Cl  Cl33  1  0.70713000  0.30962000  0.13314000  1.0
  O  O34  1  0.01656000  0.53250000  0.33279000  1.0
  O  O35  1  0.35211000  0.32121000  0.50942000  1.0
  O  O36  1  0.67979000  0.51284000  0.67099000  1.0
  O  O37  1  0.00277000  0.66895000  0.53600000  1.0
  O  O38  1  0.98832000  0.46393000  0.66806000  1.0
  O  O39  1  0.64662000  0.67009000  0.48196000  1.0
  O  O40  1  0.31913000  0.47988000  0.32395000  1.0
  O  O41  1  0.99739000  0.32368000  0.46584000  1.0
  O  O42  1  0.69622000  0.44106000  0.43461000  1.0
  O  O43  1  0.30752000  0.55174000  0.56362000  1.0
