# generated using pymatgen
data_CuH18C18S(N3O2)2
_symmetry_space_group_name_H-M   'P 1'
_cell_length_a   8.72191000
_cell_length_b   9.69155000
_cell_length_c   12.95430000
_cell_angle_alpha   99.08580000
_cell_angle_beta   99.50910000
_cell_angle_gamma   90.04900000
_symmetry_Int_Tables_number   1
_chemical_formula_structural   CuH18C18S(N3O2)2
_chemical_formula_sum   'Cu2 H36 C36 S2 N12 O8'
_cell_volume   1066.00708955
_cell_formula_units_Z   2
loop_
 _symmetry_equiv_pos_site_id
 _symmetry_equiv_pos_as_xyz
  1  'x, y, z'
loop_
 _atom_site_type_symbol
 _atom_site_label
 _atom_site_symmetry_multiplicity
 _atom_site_fract_x
 _atom_site_fract_y
 _atom_site_fract_z
 _atom_site_occupancy
  Cu  Cu0  1  0.00000000  0.00000000  0.00000000  1.0
  Cu  Cu1  1  0.00000000  0.00000000  0.50000000  1.0
  H  H2  1  0.65868000  0.30273000  0.80958000  1.0
  H  H3  1  0.34132000  0.69727000  0.19041000  1.0
  H  H4  1  0.16170000  0.32581000  0.79603000  1.0
  H  H5  1  0.83831000  0.67419000  0.20396000  1.0
  H  H6  1  0.41515000  0.65138000  0.70003000  1.0
  H  H7  1  0.58486000  0.34862000  0.29996000  1.0
  H  H8  1  0.77794000  0.45403000  0.71501000  1.0
  H  H9  1  0.22206000  0.54597000  0.28499000  1.0
  H  H10  1  0.68560000  0.60670000  0.67480000  1.0
  H  H11  1  0.31440000  0.39330000  0.32519000  1.0
  H  H12  1  0.80479000  0.82820000  0.77761000  1.0
  H  H13  1  0.19521000  0.17180000  0.22239000  1.0
  H  H14  1  0.98537000  0.70886000  0.07336000  1.0
  H  H15  1  0.01462000  0.29113000  0.92664000  1.0
  H  H16  1  0.82647000  0.47883000  0.94018000  1.0
  H  H17  1  0.17352000  0.52117000  0.05982000  1.0
  H  H18  1  0.30120000  0.15069000  0.88524000  1.0
  H  H19  1  0.69880000  0.84931000  0.11475000  1.0
  H  H20  1  0.39616000  0.07760000  0.78092000  1.0
  H  H21  1  0.60385000  0.92240000  0.21908000  1.0
  H  H22  1  0.69076000  0.03791000  0.81924000  1.0
  H  H23  1  0.30925000  0.96209000  0.18076000  1.0
  H  H24  1  0.77094000  0.14641000  0.15271000  1.0
  H  H25  1  0.22905000  0.85359000  0.84729000  1.0
  H  H26  1  0.47513000  0.23290000  0.07236000  1.0
  H  H27  1  0.52486000  0.76710000  0.92764000  1.0
  H  H28  1  0.02721000  0.48579000  0.69926000  1.0
  H  H29  1  0.97279000  0.51422000  0.30075000  1.0
  H  H30  1  0.09559000  0.63888000  0.78976000  1.0
  H  H31  1  0.90441000  0.36112000  0.21024000  1.0
  H  H32  1  0.03624000  0.84453000  0.70419000  1.0
  H  H33  1  0.96376000  0.15547000  0.29581000  1.0
  H  H34  1  0.13863000  0.71373000  0.39688000  1.0
  H  H35  1  0.86137000  0.28627000  0.60312000  1.0
  H  H36  1  0.19545000  0.49487000  0.51495000  1.0
  H  H37  1  0.80456000  0.50513000  0.48506000  1.0
  C  C38  1  0.55190000  0.48406000  0.75583000  1.0
  C  C39  1  0.44810000  0.51594000  0.24417000  1.0
  C  C40  1  0.55014000  0.35823000  0.79561000  1.0
  C  C41  1  0.44986000  0.64177000  0.20438000  1.0
  C  C42  1  0.41059000  0.30201000  0.81246000  1.0
  C  C43  1  0.58941000  0.69799000  0.18753000  1.0
  C  C44  1  0.27243000  0.37138000  0.78748000  1.0
  C  C45  1  0.72757000  0.62862000  0.21251000  1.0
  C  C46  1  0.41367000  0.55401000  0.73242000  1.0
  C  C47  1  0.58633000  0.44599000  0.26758000  1.0
  C  C48  1  0.27337000  0.49682000  0.74715000  1.0
  C  C49  1  0.72664000  0.50318000  0.25284000  1.0
  C  C50  1  0.70386000  0.54147000  0.73753000  1.0
  C  C51  1  0.29614000  0.45853000  0.26247000  1.0
  C  C52  1  0.83209000  0.76581000  0.84098000  1.0
  C  C53  1  0.16791000  0.23419000  0.15902000  1.0
  C  C54  1  0.92407000  0.69798000  0.99216000  1.0
  C  C55  1  0.07592000  0.30202000  0.00784000  1.0
  C  C56  1  0.84617000  0.58466000  0.92749000  1.0
  C  C57  1  0.15382000  0.41534000  0.07251000  1.0
  C  C58  1  0.40509000  0.16199000  0.84940000  1.0
  C  C59  1  0.59492000  0.83802000  0.15059000  1.0
  C  C60  1  0.67417000  0.07606000  0.90027000  1.0
  C  C61  1  0.32583000  0.92394000  0.09973000  1.0
  C  C62  1  0.71139000  0.14005000  0.07187000  1.0
  C  C63  1  0.28860000  0.85996000  0.92814000  1.0
  C  C64  1  0.56476000  0.18052000  0.03347000  1.0
  C  C65  1  0.43523000  0.81948000  0.96654000  1.0
  C  C66  1  0.12066000  0.56640000  0.72061000  1.0
  C  C67  1  0.87935000  0.43360000  0.27939000  1.0
  C  C68  1  0.06971000  0.78033000  0.63541000  1.0
  C  C69  1  0.93028000  0.21967000  0.36459000  1.0
  C  C70  1  0.12596000  0.70746000  0.47798000  1.0
  C  C71  1  0.87403000  0.29255000  0.52202000  1.0
  C  C72  1  0.15356000  0.59924000  0.53477000  1.0
  C  C73  1  0.84645000  0.40076000  0.46524000  1.0
  S  S74  1  0.06001000  0.90482000  0.26803000  1.0
  S  S75  1  0.93999000  0.09518000  0.73197000  1.0
  N  N76  1  0.78912000  0.62909000  0.83255000  1.0
  N  N77  1  0.21088000  0.37091000  0.16744000  1.0
  N  N78  1  0.91390000  0.80939000  0.93716000  1.0
  N  N79  1  0.08609000  0.19061000  0.06284000  1.0
  N  N80  1  0.54269000  0.13827000  0.92498000  1.0
  N  N81  1  0.45731000  0.86174000  0.07502000  1.0
  N  N82  1  0.77842000  0.07552000  0.98805000  1.0
  N  N83  1  0.22157000  0.92448000  0.01196000  1.0
  N  N84  1  0.11680000  0.64688000  0.63406000  1.0
  N  N85  1  0.88320000  0.35312000  0.36594000  1.0
  N  N86  1  0.07320000  0.81955000  0.54162000  1.0
  N  N87  1  0.92679000  0.18045000  0.45838000  1.0
  O  O88  1  0.96883000  0.95898000  0.17571000  1.0
  O  O89  1  0.03117000  0.04101000  0.82429000  1.0
  O  O90  1  0.19870000  0.99577000  0.31478000  1.0
  O  O91  1  0.80130000  0.00423000  0.68521000  1.0
  O  O92  1  0.95166000  0.90730000  0.34995000  1.0
  O  O93  1  0.04835000  0.09271000  0.65005000  1.0
  O  O94  1  0.10211000  0.75725000  0.23617000  1.0
  O  O95  1  0.89789000  0.24275000  0.76383000  1.0
