# generated using pymatgen
data_AlH7C14O6F
_symmetry_space_group_name_H-M   'P 1'
_cell_length_a   6.65333000
_cell_length_b   11.02309847
_cell_length_c   17.68910000
_cell_angle_alpha   89.99883133
_cell_angle_beta   82.05530000
_cell_angle_gamma   73.37809131
_symmetry_Int_Tables_number   1
_chemical_formula_structural   AlH7C14O6F
_chemical_formula_sum   'Al2 H14 C28 O12 F2'
_cell_volume   1230.11383968
_cell_formula_units_Z   2
loop_
 _symmetry_equiv_pos_site_id
 _symmetry_equiv_pos_as_xyz
  1  'x, y, z'
loop_
 _atom_site_type_symbol
 _atom_site_label
 _atom_site_symmetry_multiplicity
 _atom_site_fract_x
 _atom_site_fract_y
 _atom_site_fract_z
 _atom_site_occupancy
  Al  Al0  1  0.00230000  0.50524000  0.49770000  1.0
  Al  Al1  1  0.50299000  0.50631000  0.49767000  1.0
  H  H2  1  0.34327000  0.36538000  0.43958000  1.0
  H  H3  1  0.66586000  0.66190000  0.52659000  1.0
  H  H4  1  0.88933000  0.44187000  0.71867000  1.0
  H  H5  1  0.81574000  0.42538000  0.86000000  1.0
  H  H6  1  0.35533000  0.56014000  0.88421000  1.0
  H  H7  1  0.64633000  0.44682000  0.11190000  1.0
  H  H8  1  0.14141000  0.53642000  0.27529000  1.0
  H  H9  1  0.22840000  0.53670000  0.13363000  1.0
  H  H10  1  0.52945000  0.23596000  0.60371000  1.0
  H  H11  1  0.79249000  0.76573000  0.60019000  1.0
  H  H12  1  0.35158000  0.89320000  0.44979000  1.0
  H  H13  1  0.22899000  0.12997000  0.45872000  1.0
  H  H14  1  0.24251000  0.21199000  0.68220000  1.0
  H  H15  1  0.48276000  0.77799000  0.67816000  1.0
  C  C16  1  0.85752000  0.27955000  0.51378000  1.0
  C  C17  1  0.80388000  0.49812000  0.35900000  1.0
  C  C18  1  0.13867000  0.73409000  0.49794000  1.0
  C  C19  1  0.20438000  0.50848000  0.63661000  1.0
  C  C20  1  0.16730000  0.50222000  0.72148000  1.0
  C  C21  1  0.99274000  0.46401000  0.75594000  1.0
  C  C22  1  0.95030000  0.45644000  0.83447000  1.0
  C  C23  1  0.08040000  0.49070000  0.88226000  1.0
  C  C24  1  0.25452000  0.53068000  0.84889000  1.0
  C  C25  1  0.29490000  0.53492000  0.77016000  1.0
  C  C26  1  0.03454000  0.48858000  0.96260000  1.0
  C  C27  1  0.99248000  0.48991000  0.03202000  1.0
  C  C28  1  0.94363000  0.49251000  0.11249000  1.0
  C  C29  1  0.75535000  0.46863000  0.14669000  1.0
  C  C30  1  0.70974000  0.47153000  0.22565000  1.0
  C  C31  1  0.84548000  0.49651000  0.27378000  1.0
  C  C32  1  0.03354000  0.51900000  0.23844000  1.0
  C  C33  1  0.08245000  0.51831000  0.15971000  1.0
  C  C34  1  0.92349000  0.13962000  0.52000000  1.0
  C  C35  1  0.78728000  0.07186000  0.55773000  1.0
  C  C36  1  0.12652000  0.07551000  0.48481000  1.0
  C  C37  1  0.58794000  0.13280000  0.60143000  1.0
  C  C38  1  0.46667000  0.06525000  0.64197000  1.0
  C  C39  1  0.06329000  0.87367000  0.51193000  1.0
  C  C40  1  0.19568000  0.94314000  0.48018000  1.0
  C  C41  1  0.86094000  0.93539000  0.55486000  1.0
  C  C42  1  0.73407000  0.86847000  0.59797000  1.0
  C  C43  1  0.54178000  0.92999000  0.64065000  1.0
  O  O44  1  0.00001000  0.33566000  0.51586000  1.0
  O  O45  1  0.61589000  0.50906000  0.39100000  1.0
  O  O46  1  0.33589000  0.67964000  0.49767000  1.0
  O  O47  1  0.04207000  0.52090000  0.60333000  1.0
  O  O48  1  0.00276000  0.67748000  0.48613000  1.0
  O  O49  1  0.39124000  0.50013000  0.60470000  1.0
  O  O50  1  0.66709000  0.33434000  0.50372000  1.0
  O  O51  1  0.96484000  0.48821000  0.39287000  1.0
  O  O52  1  0.29251000  0.44670000  0.46717000  1.0
  O  O53  1  0.71089000  0.56997000  0.52820000  1.0
  O  O54  1  0.27627000  0.12021000  0.68576000  1.0
  O  O55  1  0.41663000  0.86946000  0.68356000  1.0
  F  F56  1  0.46203000  0.57725000  0.74112000  1.0
  F  F57  1  0.52796000  0.44522000  0.25514000  1.0
