# generated using pymatgen
data_MnH14C5O8
_symmetry_space_group_name_H-M   'P 1'
_cell_length_a   6.91469000
_cell_length_b   7.43802000
_cell_length_c   21.06730000
_cell_angle_alpha   85.39490000
_cell_angle_beta   81.18240000
_cell_angle_gamma   62.30790000
_symmetry_Int_Tables_number   1
_chemical_formula_structural   MnH14C5O8
_chemical_formula_sum   'Mn4 H56 C20 O32'
_cell_volume   948.02583610
_cell_formula_units_Z   4
loop_
 _symmetry_equiv_pos_site_id
 _symmetry_equiv_pos_as_xyz
  1  'x, y, z'
loop_
 _atom_site_type_symbol
 _atom_site_label
 _atom_site_symmetry_multiplicity
 _atom_site_fract_x
 _atom_site_fract_y
 _atom_site_fract_z
 _atom_site_occupancy
  Mn  Mn0  1  0.73302000  0.60881000  0.68339000  1.0
  Mn  Mn1  1  0.02470000  0.88892000  0.81632000  1.0
  Mn  Mn2  1  0.26699000  0.39119000  0.31661000  1.0
  Mn  Mn3  1  0.97530000  0.11108000  0.18368000  1.0
  H  H4  1  0.46567000  0.66569000  0.90704000  1.0
  H  H5  1  0.04099000  0.83306000  0.59088000  1.0
  H  H6  1  0.53432000  0.33431000  0.09296000  1.0
  H  H7  1  0.95902000  0.16694000  0.40912000  1.0
  H  H8  1  0.71279000  0.43756000  0.90853000  1.0
  H  H9  1  0.06037000  0.06129000  0.59100000  1.0
  H  H10  1  0.28720000  0.56245000  0.09147000  1.0
  H  H11  1  0.93964000  0.93871000  0.40900000  1.0
  H  H12  1  0.66297000  0.85889000  0.93386000  1.0
  H  H13  1  0.45763000  0.64078000  0.56632000  1.0
  H  H14  1  0.33702000  0.14112000  0.06614000  1.0
  H  H15  1  0.54237000  0.35922000  0.43368000  1.0
  H  H16  1  0.90364000  0.62822000  0.93697000  1.0
  H  H17  1  0.46932000  0.87184000  0.56437000  1.0
  H  H18  1  0.09635000  0.37178000  0.06302000  1.0
  H  H19  1  0.53068000  0.12816000  0.43563000  1.0
  H  H20  1  0.47077000  0.74469000  0.02750000  1.0
  H  H21  1  0.24429000  0.75570000  0.47144000  1.0
  H  H22  1  0.52923000  0.25531000  0.97251000  1.0
  H  H23  1  0.75571000  0.24430000  0.52856000  1.0
  H  H24  1  0.70904000  0.51149000  0.03021000  1.0
  H  H25  1  0.25221000  0.98858000  0.46958000  1.0
  H  H26  1  0.29095000  0.48851000  0.96979000  1.0
  H  H27  1  0.74779000  0.01142000  0.53042000  1.0
  H  H28  1  0.63063000  0.30469000  0.64985000  1.0
  H  H29  1  0.58665000  0.19324000  0.84946000  1.0
  H  H30  1  0.36938000  0.69531000  0.35015000  1.0
  H  H31  1  0.41336000  0.80676000  0.15054000  1.0
  H  H32  1  0.84350000  0.19217000  0.68674000  1.0
  H  H33  1  0.72147000  0.30580000  0.81233000  1.0
  H  H34  1  0.15651000  0.80783000  0.31326000  1.0
  H  H35  1  0.27853000  0.69420000  0.18767000  1.0
  H  H36  1  0.20937000  0.39691000  0.66797000  1.0
  H  H37  1  0.27503000  0.10077000  0.83220000  1.0
  H  H38  1  0.79063000  0.60309000  0.33203000  1.0
  H  H39  1  0.72497000  0.89923000  0.16780000  1.0
  H  H40  1  0.13183000  0.51649000  0.73410000  1.0
  H  H41  1  0.37963000  0.97931000  0.76636000  1.0
  H  H42  1  0.86817000  0.48350000  0.26590000  1.0
  H  H43  1  0.62037000  0.02069000  0.23364000  1.0
  H  H44  1  0.56519000  0.03597000  0.66537000  1.0
  H  H45  1  0.27000000  0.46237000  0.83430000  1.0
  H  H46  1  0.43482000  0.96402000  0.33463000  1.0
  H  H47  1  0.73000000  0.53763000  0.16570000  1.0
  H  H48  1  0.76196000  0.94150000  0.70771000  1.0
  H  H49  1  0.41186000  0.55717000  0.79150000  1.0
  H  H50  1  0.23804000  0.05850000  0.29229000  1.0
  H  H51  1  0.58814000  0.44283000  0.20850000  1.0
  H  H52  1  0.79158000  0.64260000  0.54399000  1.0
  H  H53  1  0.97817000  0.85646000  0.95613000  1.0
  H  H54  1  0.20842000  0.35740000  0.45601000  1.0
  H  H55  1  0.02183000  0.14354000  0.04387000  1.0
  H  H56  1  0.01834000  0.51673000  0.57062000  1.0
  H  H57  1  0.10463000  0.98261000  0.92981000  1.0
  H  H58  1  0.98167000  0.48327000  0.42938000  1.0
  H  H59  1  0.89536000  0.01740000  0.07019000  1.0
  C  C60  1  0.71398000  0.63782000  0.83039000  1.0
  C  C61  1  0.18378000  0.85912000  0.66926000  1.0
  C  C62  1  0.28602000  0.36218000  0.16961000  1.0
  C  C63  1  0.81622000  0.14088000  0.33074000  1.0
  C  C64  1  0.64668000  0.60242000  0.90015000  1.0
  C  C65  1  0.15111000  0.89629000  0.59910000  1.0
  C  C66  1  0.35331000  0.39758000  0.09985000  1.0
  C  C67  1  0.84889000  0.10371000  0.40090000  1.0
  C  C68  1  0.72307000  0.69678000  0.94569000  1.0
  C  C69  1  0.36691000  0.80295000  0.55454000  1.0
  C  C70  1  0.27692000  0.30322000  0.05431000  1.0
  C  C71  1  0.63309000  0.19705000  0.44546000  1.0
  C  C72  1  0.65183000  0.67248000  0.01633000  1.0
  C  C73  1  0.34192000  0.82755000  0.48353000  1.0
  C  C74  1  0.34817000  0.32752000  0.98367000  1.0
  C  C75  1  0.65808000  0.17245000  0.51647000  1.0
  C  C76  1  0.73586000  0.76483000  0.06023000  1.0
  C  C77  1  0.56105000  0.73499000  0.44038000  1.0
  C  C78  1  0.26413000  0.23517000  0.93977000  1.0
  C  C79  1  0.43895000  0.26501000  0.55962000  1.0
  O  O80  1  0.67295000  0.54734000  0.78780000  1.0
  O  O81  1  0.01025000  0.94906000  0.71122000  1.0
  O  O82  1  0.32704000  0.45266000  0.21220000  1.0
  O  O83  1  0.98976000  0.05094000  0.28878000  1.0
  O  O84  1  0.80362000  0.75095000  0.81505000  1.0
  O  O85  1  0.37068000  0.74505000  0.68544000  1.0
  O  O86  1  0.19638000  0.24906000  0.18495000  1.0
  O  O87  1  0.62933000  0.25494000  0.31456000  1.0
  O  O88  1  0.85385000  0.84797000  0.03610000  1.0
  O  O89  1  0.73839000  0.65035000  0.46515000  1.0
  O  O90  1  0.14614000  0.15203000  0.96390000  1.0
  O  O91  1  0.26161000  0.34965000  0.53485000  1.0
  O  O92  1  0.68116000  0.75558000  0.12132000  1.0
  O  O93  1  0.55738000  0.74519000  0.37914000  1.0
  O  O94  1  0.31885000  0.24442000  0.87868000  1.0
  O  O95  1  0.44262000  0.25481000  0.62086000  1.0
  O  O96  1  0.74472000  0.32414000  0.66762000  1.0
  O  O97  1  0.73629000  0.17364000  0.83121000  1.0
  O  O98  1  0.25529000  0.67586000  0.33239000  1.0
  O  O99  1  0.26371000  0.82636000  0.16879000  1.0
  O  O100  1  0.07708000  0.48491000  0.69816000  1.0
  O  O101  1  0.26151000  0.00926000  0.80265000  1.0
  O  O102  1  0.92292000  0.51509000  0.30184000  1.0
  O  O103  1  0.73849000  0.99074000  0.19735000  1.0
  O  O104  1  0.62912000  0.93239000  0.69923000  1.0
  O  O105  1  0.26210000  0.56612000  0.80049000  1.0
  O  O106  1  0.37088000  0.06761000  0.30077000  1.0
  O  O107  1  0.73790000  0.43387000  0.19951000  1.0
  O  O108  1  0.86489000  0.62724000  0.58262000  1.0
  O  O109  1  0.07400000  0.87111000  0.91797000  1.0
  O  O110  1  0.13512000  0.37276000  0.41738000  1.0
  O  O111  1  0.92600000  0.12889000  0.08203000  1.0
