# generated using pymatgen
data_AgH24C34N2O4F3
_symmetry_space_group_name_H-M   'P 1'
_cell_length_a   10.35690000
_cell_length_b   13.19410000
_cell_length_c   14.43910000
_cell_angle_alpha   71.05170000
_cell_angle_beta   86.00080000
_cell_angle_gamma   75.49610000
_symmetry_Int_Tables_number   1
_chemical_formula_structural   AgH24C34N2O4F3
_chemical_formula_sum   'Ag2 H48 C68 N4 O8 F6'
_cell_volume   1806.56540098
_cell_formula_units_Z   2
loop_
 _symmetry_equiv_pos_site_id
 _symmetry_equiv_pos_as_xyz
  1  'x, y, z'
loop_
 _atom_site_type_symbol
 _atom_site_label
 _atom_site_symmetry_multiplicity
 _atom_site_fract_x
 _atom_site_fract_y
 _atom_site_fract_z
 _atom_site_occupancy
  Ag  Ag0  1  0.08292000  0.09010000  0.46520000  1.0
  Ag  Ag1  1  0.91708000  0.90990000  0.53479000  1.0
  H  H2  1  0.99882000  0.06269000  0.67800000  1.0
  H  H3  1  0.00118000  0.93731000  0.32199000  1.0
  H  H4  1  0.80085000  0.13646000  0.76950000  1.0
  H  H5  1  0.19915000  0.86354000  0.23050000  1.0
  H  H6  1  0.60184000  0.27048000  0.67269000  1.0
  H  H7  1  0.39817000  0.72952000  0.32731000  1.0
  H  H8  1  0.82176000  0.25980000  0.41042000  1.0
  H  H9  1  0.17824000  0.74020000  0.58957000  1.0
  H  H10  1  0.55972000  0.32195000  0.41455000  1.0
  H  H11  1  0.44028000  0.67805000  0.58545000  1.0
  H  H12  1  0.49219000  0.37174000  0.51370000  1.0
  H  H13  1  0.50781000  0.62826000  0.48630000  1.0
  H  H14  1  0.39834000  0.44872000  0.34247000  1.0
  H  H15  1  0.60166000  0.55128000  0.65753000  1.0
  H  H16  1  0.29134000  0.58328000  0.19070000  1.0
  H  H17  1  0.70866000  0.41672000  0.80930000  1.0
  H  H18  1  0.28732000  0.75097000  0.04775000  1.0
  H  H19  1  0.71269000  0.24903000  0.95225000  1.0
  H  H20  1  0.38803000  0.90530000  0.95473000  1.0
  H  H21  1  0.61197000  0.09470000  0.04527000  1.0
  H  H22  1  0.60130000  0.92120000  0.01389000  1.0
  H  H23  1  0.39870000  0.07881000  0.98612000  1.0
  H  H24  1  0.71067000  0.78515000  0.16632000  1.0
  H  H25  1  0.28933000  0.21485000  0.83368000  1.0
  H  H26  1  0.79344000  0.45368000  0.25091000  1.0
  H  H27  1  0.20656000  0.54632000  0.74909000  1.0
  H  H28  1  0.00768000  0.32201000  0.25268000  1.0
  H  H29  1  0.99232000  0.67799000  0.74733000  1.0
  H  H30  1  0.21246000  0.33887000  0.32438000  1.0
  H  H31  1  0.78754000  0.66113000  0.67562000  1.0
  H  H32  1  0.19474000  0.48991000  0.39704000  1.0
  H  H33  1  0.80526000  0.51009000  0.60296000  1.0
  H  H34  1  0.06145000  0.64789000  0.44057000  1.0
  H  H35  1  0.93855000  0.35211000  0.55943000  1.0
  H  H36  1  0.84645000  0.77847000  0.44395000  1.0
  H  H37  1  0.15355000  0.22153000  0.55605000  1.0
  H  H38  1  0.68577000  0.90672000  0.38043000  1.0
  H  H39  1  0.31423000  0.09328000  0.61957000  1.0
  H  H40  1  0.59684000  0.84147000  0.48403000  1.0
  H  H41  1  0.40316000  0.15853000  0.51597000  1.0
  H  H42  1  0.54395000  0.97526000  0.20990000  1.0
  H  H43  1  0.45605000  0.02474000  0.79010000  1.0
  H  H44  1  0.33184000  0.11330000  0.13703000  1.0
  H  H45  1  0.66816000  0.88669000  0.86297000  1.0
  H  H46  1  0.14532000  0.15509000  0.24987000  1.0
  H  H47  1  0.85468000  0.84491000  0.75013000  1.0
  H  H48  1  0.37147000  0.94921000  0.49532000  1.0
  H  H49  1  0.62853000  0.05079000  0.50468000  1.0
  C  C50  1  0.19070000  0.87858000  0.68499000  1.0
  C  C51  1  0.80929000  0.12142000  0.31501000  1.0
  C  C52  1  0.31275000  0.79400000  0.74818000  1.0
  C  C53  1  0.68724000  0.20601000  0.25183000  1.0
  C  C54  1  0.91195000  0.12463000  0.64020000  1.0
  C  C55  1  0.08805000  0.87537000  0.35980000  1.0
  C  C56  1  0.80156000  0.16492000  0.68975000  1.0
  C  C57  1  0.19844000  0.83509000  0.31025000  1.0
  C  C58  1  0.69157000  0.24049000  0.63612000  1.0
  C  C59  1  0.30843000  0.75951000  0.36387000  1.0
  C  C60  1  0.69620000  0.27573000  0.53404000  1.0
  C  C61  1  0.30381000  0.72427000  0.46595000  1.0
  C  C62  1  0.81170000  0.23317000  0.48981000  1.0
  C  C63  1  0.18830000  0.76683000  0.51019000  1.0
  C  C64  1  0.58199000  0.35575000  0.47037000  1.0
  C  C65  1  0.41801000  0.64424000  0.52963000  1.0
  C  C66  1  0.56163000  0.52697000  0.33726000  1.0
  C  C67  1  0.43837000  0.47303000  0.66274000  1.0
  C  C68  1  0.44361000  0.51585000  0.30175000  1.0
  C  C69  1  0.55639000  0.48415000  0.69825000  1.0
  C  C70  1  0.38385000  0.59135000  0.21628000  1.0
  C  C71  1  0.61615000  0.40864000  0.78372000  1.0
  C  C72  1  0.43943000  0.68042000  0.16184000  1.0
  C  C73  1  0.56058000  0.31958000  0.83815000  1.0
  C  C74  1  0.37884000  0.75983000  0.07413000  1.0
  C  C75  1  0.62117000  0.24017000  0.92587000  1.0
  C  C76  1  0.43528000  0.84553000  0.02231000  1.0
  C  C77  1  0.56472000  0.15447000  0.97769000  1.0
  C  C78  1  0.55609000  0.85410000  0.05583000  1.0
  C  C79  1  0.44392000  0.14590000  0.94417000  1.0
  C  C80  1  0.61724000  0.77867000  0.14092000  1.0
  C  C81  1  0.38276000  0.22133000  0.85908000  1.0
  C  C82  1  0.56043000  0.69062000  0.19723000  1.0
  C  C83  1  0.43957000  0.30938000  0.80277000  1.0
  C  C84  1  0.62033000  0.61342000  0.28669000  1.0
  C  C85  1  0.37967000  0.38658000  0.71331000  1.0
  C  C86  1  0.74317000  0.62354000  0.32661000  1.0
  C  C87  1  0.25683000  0.37646000  0.67339000  1.0
  C  C88  1  0.86791000  0.54812000  0.32408000  1.0
  C  C89  1  0.13209000  0.45188000  0.67592000  1.0
  C  C90  1  0.88107000  0.46188000  0.28278000  1.0
  C  C91  1  0.11894000  0.53811000  0.71722000  1.0
  C  C92  1  0.00234000  0.38850000  0.28314000  1.0
  C  C93  1  0.99767000  0.61150000  0.71686000  1.0
  C  C94  1  0.11743000  0.39810000  0.32398000  1.0
  C  C95  1  0.88257000  0.60190000  0.67602000  1.0
  C  C96  1  0.10825000  0.48161000  0.36366000  1.0
  C  C97  1  0.89175000  0.51839000  0.63634000  1.0
  C  C98  1  0.98489000  0.55813000  0.36470000  1.0
  C  C99  1  0.01510000  0.44187000  0.63531000  1.0
  C  C100  1  0.97329000  0.64277000  0.40694000  1.0
  C  C101  1  0.02671000  0.35723000  0.59306000  1.0
  C  C102  1  0.85273000  0.71571000  0.40887000  1.0
  C  C103  1  0.14727000  0.28429000  0.59113000  1.0
  C  C104  1  0.73751000  0.70638000  0.36828000  1.0
  C  C105  1  0.26249000  0.29362000  0.63172000  1.0
  C  C106  1  0.60089000  0.86846000  0.40331000  1.0
  C  C107  1  0.39911000  0.13154000  0.59669000  1.0
  C  C108  1  0.47519000  0.95145000  0.35833000  1.0
  C  C109  1  0.52482000  0.04855000  0.64167000  1.0
  C  C110  1  0.46245000  0.99889000  0.25651000  1.0
  C  C111  1  0.53756000  0.00111000  0.74349000  1.0
  C  C112  1  0.34472000  0.07436000  0.21592000  1.0
  C  C113  1  0.65527000  0.92564000  0.78408000  1.0
  C  C114  1  0.24159000  0.10005000  0.27785000  1.0
  C  C115  1  0.75841000  0.89995000  0.72215000  1.0
  C  C116  1  0.36831000  0.98316000  0.41543000  1.0
  C  C117  1  0.63170000  0.01684000  0.58456000  1.0
  N  N118  1  0.91644000  0.15818000  0.54143000  1.0
  N  N119  1  0.08356000  0.84181000  0.45857000  1.0
  N  N120  1  0.25350000  0.05565000  0.37604000  1.0
  N  N121  1  0.74651000  0.94435000  0.62396000  1.0
  O  O122  1  0.22069000  0.96228000  0.62405000  1.0
  O  O123  1  0.77933000  0.03771000  0.37594000  1.0
  O  O124  1  0.08032000  0.85409000  0.70380000  1.0
  O  O125  1  0.91968000  0.14593000  0.29619000  1.0
  O  O126  1  0.62375000  0.45654000  0.42304000  1.0
  O  O127  1  0.37624000  0.54345000  0.57696000  1.0
  O  O128  1  0.61375000  0.77559000  0.36854000  1.0
  O  O129  1  0.38625000  0.22441000  0.63146000  1.0
  F  F130  1  0.33179000  0.82367000  0.82794000  1.0
  F  F131  1  0.66820000  0.17635000  0.17206000  1.0
  F  F132  1  0.29787000  0.68851000  0.78262000  1.0
  F  F133  1  0.70210000  0.31151000  0.21740000  1.0
  F  F134  1  0.43009000  0.78997000  0.69708000  1.0
  F  F135  1  0.56990000  0.21002000  0.30294000  1.0
