# generated using pymatgen
data_CdH8C9O8
_symmetry_space_group_name_H-M   'P 1'
_cell_length_a   5.66796000
_cell_length_b   9.84043000
_cell_length_c   19.76640000
_cell_angle_alpha   89.99990000
_cell_angle_beta   89.99950000
_cell_angle_gamma   88.99030000
_symmetry_Int_Tables_number   1
_chemical_formula_structural   CdH8C9O8
_chemical_formula_sum   'Cd4 H32 C36 O32'
_cell_volume   1102.30300882
_cell_formula_units_Z   4
loop_
 _symmetry_equiv_pos_site_id
 _symmetry_equiv_pos_as_xyz
  1  'x, y, z'
loop_
 _atom_site_type_symbol
 _atom_site_label
 _atom_site_symmetry_multiplicity
 _atom_site_fract_x
 _atom_site_fract_y
 _atom_site_fract_z
 _atom_site_occupancy
  Cd  Cd0  1  0.25878000  0.76403000  0.29403000  1.0
  Cd  Cd1  1  0.24123000  0.73596000  0.79403000  1.0
  Cd  Cd2  1  0.74122000  0.23597000  0.70596000  1.0
  Cd  Cd3  1  0.75877000  0.26403000  0.20597000  1.0
  H  H4  1  0.80212000  0.86801000  0.13209000  1.0
  H  H5  1  0.69791000  0.63199000  0.63209000  1.0
  H  H6  1  0.19788000  0.13199000  0.86791000  1.0
  H  H7  1  0.30209000  0.36802000  0.36792000  1.0
  H  H8  1  0.04143000  0.86674000  0.02732000  1.0
  H  H9  1  0.45859000  0.63326000  0.52732000  1.0
  H  H10  1  0.95857000  0.13326000  0.97268000  1.0
  H  H11  1  0.54140000  0.36675000  0.47268000  1.0
  H  H12  1  0.78265000  0.82571000  0.30979000  1.0
  H  H13  1  0.71736000  0.67428000  0.80979000  1.0
  H  H14  1  0.21735000  0.17429000  0.69021000  1.0
  H  H15  1  0.28264000  0.32571000  0.19021000  1.0
  H  H16  1  0.89902000  0.95969000  0.28121000  1.0
  H  H17  1  0.60098000  0.54030000  0.78121000  1.0
  H  H18  1  0.10097000  0.04031000  0.71879000  1.0
  H  H19  1  0.39902000  0.45970000  0.21879000  1.0
  H  H20  1  0.49078000  0.01365000  0.32919000  1.0
  H  H21  1  0.00922000  0.48634000  0.82919000  1.0
  H  H22  1  0.50920000  0.98635000  0.67081000  1.0
  H  H23  1  0.99079000  0.51365000  0.17081000  1.0
  H  H24  1  0.24825000  0.05393000  0.29117000  1.0
  H  H25  1  0.25175000  0.44606000  0.79117000  1.0
  H  H26  1  0.75173000  0.94607000  0.70883000  1.0
  H  H27  1  0.74826000  0.55393000  0.20883000  1.0
  H  H28  1  0.99280000  0.53369000  0.29205000  1.0
  H  H29  1  0.50718000  0.96631000  0.79205000  1.0
  H  H30  1  0.00720000  0.46631000  0.70795000  1.0
  H  H31  1  0.49280000  0.03368000  0.20795000  1.0
  H  H32  1  0.90262000  0.61843000  0.35467000  1.0
  H  H33  1  0.59737000  0.88157000  0.85467000  1.0
  H  H34  1  0.09737000  0.38157000  0.64532000  1.0
  H  H35  1  0.40262000  0.11842000  0.14533000  1.0
  C  C36  1  0.58260000  0.70235000  0.10050000  1.0
  C  C37  1  0.91742000  0.79765000  0.60050000  1.0
  C  C38  1  0.41741000  0.29764000  0.89950000  1.0
  C  C39  1  0.08259000  0.20236000  0.39950000  1.0
  C  C40  1  0.76557000  0.79497000  0.09222000  1.0
  C  C41  1  0.73446000  0.70503000  0.59223000  1.0
  C  C42  1  0.23444000  0.20503000  0.90778000  1.0
  C  C43  1  0.26556000  0.29498000  0.40778000  1.0
  C  C44  1  0.89942000  0.79421000  0.03321000  1.0
  C  C45  1  0.60060000  0.70579000  0.53321000  1.0
  C  C46  1  0.10057000  0.20580000  0.96679000  1.0
  C  C47  1  0.39940000  0.29422000  0.46679000  1.0
  C  C48  1  0.85544000  0.70089000  0.98145000  1.0
  C  C49  1  0.64456000  0.79912000  0.48145000  1.0
  C  C50  1  0.14456000  0.29912000  0.01855000  1.0
  C  C51  1  0.35544000  0.20089000  0.51855000  1.0
  C  C52  1  0.68213000  0.60205000  0.99112000  1.0
  C  C53  1  0.81785000  0.89796000  0.49112000  1.0
  C  C54  1  0.31786000  0.39796000  0.00888000  1.0
  C  C55  1  0.18213000  0.10205000  0.50888000  1.0
  C  C56  1  0.54238000  0.60460000  0.05023000  1.0
  C  C57  1  0.95762000  0.89541000  0.55023000  1.0
  C  C58  1  0.45762000  0.39540000  0.94977000  1.0
  C  C59  1  0.04236000  0.10460000  0.44977000  1.0
  C  C60  1  0.65142000  0.49237000  0.94139000  1.0
  C  C61  1  0.84859000  0.00763000  0.44140000  1.0
  C  C62  1  0.34859000  0.50763000  0.05860000  1.0
  C  C63  1  0.15142000  0.99238000  0.55860000  1.0
  C  C64  1  0.44077000  0.71286000  0.16460000  1.0
  C  C65  1  0.05924000  0.78713000  0.66460000  1.0
  C  C66  1  0.55924000  0.28713000  0.83540000  1.0
  C  C67  1  0.94074000  0.21287000  0.33540000  1.0
  C  C68  1  0.99273000  0.71495000  0.91683000  1.0
  C  C69  1  0.50727000  0.78504000  0.41683000  1.0
  C  C70  1  0.00728000  0.28504000  0.08317000  1.0
  C  C71  1  0.49272000  0.21496000  0.58317000  1.0
  O  O72  1  0.49872000  0.63314000  0.21467000  1.0
  O  O73  1  0.00129000  0.86685000  0.71467000  1.0
  O  O74  1  0.50130000  0.36684000  0.78533000  1.0
  O  O75  1  0.99872000  0.13314000  0.28533000  1.0
  O  O76  1  0.28846000  0.80543000  0.17085000  1.0
  O  O77  1  0.21154000  0.69458000  0.67085000  1.0
  O  O78  1  0.71155000  0.19457000  0.82916000  1.0
  O  O79  1  0.78845000  0.30543000  0.32915000  1.0
  O  O80  1  0.88486000  0.76905000  0.86568000  1.0
  O  O81  1  0.61514000  0.73095000  0.36568000  1.0
  O  O82  1  0.11515000  0.23095000  0.13433000  1.0
  O  O83  1  0.38484000  0.26906000  0.63432000  1.0
  O  O84  1  0.20804000  0.68190000  0.91594000  1.0
  O  O85  1  0.29197000  0.81809000  0.41595000  1.0
  O  O86  1  0.79196000  0.31810000  0.08406000  1.0
  O  O87  1  0.70805000  0.18191000  0.58405000  1.0
  O  O88  1  0.79219000  0.47748000  0.89345000  1.0
  O  O89  1  0.70781000  0.02250000  0.39345000  1.0
  O  O90  1  0.20782000  0.52251000  0.10655000  1.0
  O  O91  1  0.29218000  0.97750000  0.60655000  1.0
  O  O92  1  0.88838000  0.86064000  0.27402000  1.0
  O  O93  1  0.61163000  0.63935000  0.77402000  1.0
  O  O94  1  0.11162000  0.13936000  0.72598000  1.0
  O  O95  1  0.38837000  0.36065000  0.22598000  1.0
  O  O96  1  0.39440000  0.99356000  0.28904000  1.0
  O  O97  1  0.10560000  0.50644000  0.78904000  1.0
  O  O98  1  0.60558000  0.00645000  0.71095000  1.0
  O  O99  1  0.89442000  0.49356000  0.21096000  1.0
  O  O100  1  0.04780000  0.58211000  0.33324000  1.0
  O  O101  1  0.45219000  0.91789000  0.83324000  1.0
  O  O102  1  0.95219000  0.41789000  0.66676000  1.0
  O  O103  1  0.54781000  0.08210000  0.16676000  1.0
