# generated using pymatgen
data_Zn2H16C23IN8O
_symmetry_space_group_name_H-M   'P 1'
_cell_length_a   14.67090000
_cell_length_b   14.82710000
_cell_length_c   15.38702855
_cell_angle_alpha   107.83604895
_cell_angle_beta   112.82090040
_cell_angle_gamma   105.71000000
_symmetry_Int_Tables_number   1
_chemical_formula_structural   Zn2H16C23IN8O
_chemical_formula_sum   'Zn4 H32 C46 I2 N16 O2'
_cell_volume   2631.47549841
_cell_formula_units_Z   2
loop_
 _symmetry_equiv_pos_site_id
 _symmetry_equiv_pos_as_xyz
  1  'x, y, z'
loop_
 _atom_site_type_symbol
 _atom_site_label
 _atom_site_symmetry_multiplicity
 _atom_site_fract_x
 _atom_site_fract_y
 _atom_site_fract_z
 _atom_site_occupancy
  Zn  Zn0  1  0.93283000  0.52555000  0.38020000  1.0
  Zn  Zn1  1  0.83381000  0.36471000  0.50685000  1.0
  Zn  Zn2  1  0.10867000  0.48925000  0.62362000  1.0
  Zn  Zn3  1  0.17343000  0.64038000  0.50633000  1.0
  H  H4  1  0.73652000  0.35816000  0.14179000  1.0
  H  H5  1  0.85412000  0.62301000  0.02105000  1.0
  H  H6  1  0.97052000  0.77345000  0.97901000  1.0
  H  H7  1  0.38866000  0.36409000  0.26713000  1.0
  H  H8  1  0.55319000  0.05632000  0.14768000  1.0
  H  H9  1  0.21110000  0.26339000  0.35995000  1.0
  H  H10  1  0.52981000  0.92634000  0.88597000  1.0
  H  H11  1  0.55845000  0.16651000  0.36662000  1.0
  H  H12  1  0.16985000  0.16857000  0.74689000  1.0
  H  H13  1  0.18347000  0.00742000  0.72600000  1.0
  H  H14  1  0.92089000  0.02908000  0.58997000  1.0
  H  H15  1  0.93289000  0.89689000  0.63367000  1.0
  H  H16  1  0.13174000  0.30545000  0.47861000  1.0
  H  H17  1  0.41614000  0.80414000  0.68134000  1.0
  H  H18  1  0.81393000  0.14409000  0.52126000  1.0
  H  H19  1  0.85191000  0.67687000  0.51766000  1.0
  H  H20  1  0.23265000  0.73003000  0.34121000  1.0
  H  H21  1  0.16629000  0.66410000  0.84485000  1.0
  H  H22  1  0.17046000  0.31685000  0.70683000  1.0
  H  H23  1  0.20866000  0.85270000  0.68930000  1.0
  H  H24  1  0.87574000  0.57389000  0.17209000  1.0
  H  H25  1  0.81227000  0.49227000  0.69483000  1.0
  H  H26  1  0.08056000  0.45677000  0.27529000  1.0
  H  H27  1  0.08098000  0.51315000  0.06458000  1.0
  H  H28  1  0.31709000  0.65730000  0.85351000  1.0
  H  H29  1  0.72574000  0.16373000  0.30108000  1.0
  H  H30  1  0.54293000  0.46669000  0.45406000  1.0
  H  H31  1  0.87946000  0.46413000  0.88563000  1.0
  H  H32  1  0.17131000  0.82202000  0.15511000  1.0
  H  H33  1  0.19749000  0.66515000  0.02082000  1.0
  H  H34  1  0.26785000  0.39068000  0.16254000  1.0
  H  H35  1  0.39998000  0.93755000  0.09049000  1.0
  C  C36  1  0.74378000  0.32570000  0.19718000  1.0
  C  C37  1  0.02670000  0.80751000  0.62529000  1.0
  C  C38  1  0.99475000  0.19185000  0.62433000  1.0
  C  C39  1  0.05207000  0.65979000  0.21796000  1.0
  C  C40  1  0.99448000  0.59675000  0.81547000  1.0
  C  C41  1  0.05613000  0.57007000  0.04303000  1.0
  C  C42  1  0.12091000  0.65454000  0.02119000  1.0
  C  C43  1  0.57420000  0.24902000  0.39802000  1.0
  C  C44  1  0.94460000  0.54359000  0.94667000  1.0
  C  C45  1  0.10645000  0.74196000  0.09527000  1.0
  C  C46  1  0.00946000  0.62639000  0.92213000  1.0
  C  C47  1  0.04138000  0.65782000  0.11856000  1.0
  C  C48  1  0.99505000  0.71515000  0.99765000  1.0
  C  C49  1  0.93039000  0.63123000  0.02041000  1.0
  C  C50  1  0.33257000  0.30681000  0.27646000  1.0
  C  C51  1  0.55166000  0.03751000  0.07220000  1.0
  C  C52  1  0.38055000  0.25128000  0.31719000  1.0
  C  C53  1  0.62010000  0.12374000  0.07680000  1.0
  C  C54  1  0.23465000  0.32311000  0.26012000  1.0
  C  C55  1  0.47612000  0.92768000  0.99364000  1.0
  C  C56  1  0.11264000  0.35284000  0.43890000  1.0
  C  C57  1  0.37791000  0.75218000  0.70678000  1.0
  C  C58  1  0.18529000  0.30769000  0.31796000  1.0
  C  C59  1  0.12368000  0.35536000  0.35155000  1.0
  C  C60  1  0.47250000  0.87687000  0.89991000  1.0
  C  C61  1  0.09174000  0.09666000  0.70057000  1.0
  C  C62  1  0.10023000  0.00154000  0.69939000  1.0
  C  C63  1  0.99892000  0.10127000  0.63906000  1.0
  C  C64  1  0.01647000  0.90492000  0.65762000  1.0
  C  C65  1  0.39945000  0.77378000  0.81071000  1.0
  C  C66  1  0.90026000  0.20035000  0.56282000  1.0
  C  C67  1  0.94033000  0.70519000  0.55066000  1.0
  C  C68  1  0.14583000  0.68962000  0.31439000  1.0
  C  C69  1  0.07836000  0.61418000  0.79120000  1.0
  C  C70  1  0.08193000  0.28856000  0.65866000  1.0
  C  C71  1  0.12243000  0.79505000  0.63864000  1.0
  C  C72  1  0.96380000  0.60982000  0.22838000  1.0
  C  C73  1  0.89787000  0.52686000  0.71596000  1.0
  C  C74  1  0.08779000  0.43088000  0.33525000  1.0
  C  C75  1  0.32545000  0.67742000  0.79425000  1.0
  C  C76  1  0.73909000  0.22702000  0.27913000  1.0
  C  C77  1  0.56830000  0.40360000  0.44252000  1.0
  C  C78  1  0.69651000  0.22011000  0.17651000  1.0
  C  C79  1  0.49895000  0.29292000  0.37788000  1.0
  C  C80  1  0.21084000  0.37701000  0.19386000  1.0
  C  C81  1  0.40082000  0.87862000  0.02508000  1.0
  I  I82  1  0.28547000  0.10724000  0.30804000  1.0
  I  I83  1  0.62499000  0.13196000  0.94313000  1.0
  N  N84  1  0.80644000  0.38913000  0.30326000  1.0
  N  N85  1  0.98187000  0.63920000  0.51961000  1.0
  N  N86  1  0.92883000  0.29374000  0.56094000  1.0
  N  N87  1  0.11472000  0.65884000  0.37665000  1.0
  N  N88  1  0.03495000  0.55707000  0.68547000  1.0
  N  N89  1  0.04186000  0.34822000  0.62055000  1.0
  N  N90  1  0.09423000  0.69501000  0.57448000  1.0
  N  N91  1  0.67748000  0.32836000  0.46749000  1.0
  N  N92  1  0.00151000  0.60892000  0.32280000  1.0
  N  N93  1  0.92332000  0.50319000  0.63904000  1.0
  N  N94  1  0.06366000  0.47325000  0.41067000  1.0
  N  N95  1  0.26318000  0.60806000  0.69074000  1.0
  N  N96  1  0.80423000  0.32786000  0.35412000  1.0
  N  N97  1  0.67383000  0.42446000  0.49517000  1.0
  N  N98  1  0.07850000  0.42318000  0.47367000  1.0
  N  N99  1  0.29502000  0.65490000  0.63508000  1.0
  O  O100  1  0.13703000  0.40524000  0.16992000  1.0
  O  O101  1  0.34152000  0.78402000  0.98760000  1.0
