# generated using pymatgen
data_ZnH9C12Br2N3O4
_symmetry_space_group_name_H-M   'P 1'
_cell_length_a   7.88893000
_cell_length_b   9.23944000
_cell_length_c   17.51960000
_cell_angle_alpha   85.50010000
_cell_angle_beta   79.49800000
_cell_angle_gamma   89.85510000
_symmetry_Int_Tables_number   1
_chemical_formula_structural   ZnH9C12Br2N3O4
_chemical_formula_sum   'Zn2 H18 C24 Br4 N6 O8'
_cell_volume   1251.63915204
_cell_formula_units_Z   2
loop_
 _symmetry_equiv_pos_site_id
 _symmetry_equiv_pos_as_xyz
  1  'x, y, z'
loop_
 _atom_site_type_symbol
 _atom_site_label
 _atom_site_symmetry_multiplicity
 _atom_site_fract_x
 _atom_site_fract_y
 _atom_site_fract_z
 _atom_site_occupancy
  Zn  Zn0  1  0.34240000  0.47322000  0.51297000  1.0
  Zn  Zn1  1  0.67721000  0.47491000  0.48028000  1.0
  H  H2  1  0.59147000  0.66698000  0.98125000  1.0
  H  H3  1  0.46105000  0.35105000  0.00996000  1.0
  H  H4  1  0.21656000  0.37835000  0.96787000  1.0
  H  H5  1  0.12023000  0.13117000  0.97847000  1.0
  H  H6  1  0.35025000  0.13149000  0.96935000  1.0
  H  H7  1  0.25408000  0.10673000  0.88704000  1.0
  H  H8  1  0.76326000  0.38054000  0.03195000  1.0
  H  H9  1  0.74196000  0.11604000  0.13522000  1.0
  H  H10  1  0.73995000  0.14316000  0.03428000  1.0
  H  H11  1  0.54736000  0.16531000  0.10310000  1.0
  H  H12  1  0.78769000  0.26075000  0.21384000  1.0
  H  H13  1  0.51855000  0.11415000  0.25428000  1.0
  H  H14  1  0.46973000  0.22415000  0.33404000  1.0
  H  H15  1  0.65046000  0.10806000  0.32755000  1.0
  H  H16  1  0.14460000  0.29180000  0.81616000  1.0
  H  H17  1  0.13599000  0.13142000  0.72061000  1.0
  H  H18  1  0.34261000  0.19139000  0.66984000  1.0
  H  H19  1  0.15895000  0.29779000  0.66060000  1.0
  C  C20  1  0.50447000  0.75107000  0.50098000  1.0
  C  C21  1  0.50924000  0.19546000  0.49244000  1.0
  C  C22  1  0.50698000  0.90742000  0.49867000  1.0
  C  C23  1  0.50808000  0.03906000  0.49562000  1.0
  C  C24  1  0.51464000  0.44048000  0.64424000  1.0
  C  C25  1  0.51452000  0.50582000  0.34781000  1.0
  C  C26  1  0.52438000  0.42863000  0.72888000  1.0
  C  C27  1  0.51923000  0.51946000  0.26112000  1.0
  C  C28  1  0.66576000  0.48995000  0.75553000  1.0
  C  C29  1  0.44958000  0.64104000  0.22557000  1.0
  C  C30  1  0.66504000  0.49963000  0.83471000  1.0
  C  C31  1  0.46733000  0.65739000  0.14449000  1.0
  C  C32  1  0.52098000  0.44764000  0.89100000  1.0
  C  C33  1  0.55179000  0.55202000  0.09774000  1.0
  C  C34  1  0.38476000  0.38002000  0.86561000  1.0
  C  C35  1  0.63016000  0.43301000  0.13365000  1.0
  C  C36  1  0.38374000  0.36788000  0.78480000  1.0
  C  C37  1  0.60976000  0.41480000  0.21588000  1.0
  C  C38  1  0.51093000  0.45065000  0.97528000  1.0
  C  C39  1  0.55438000  0.56247000  0.01334000  1.0
  C  C40  1  0.24192000  0.16490000  0.94002000  1.0
  C  C41  1  0.68823000  0.18341000  0.09110000  1.0
  C  C42  1  0.57585000  0.17961000  0.29357000  1.0
  C  C43  1  0.21904000  0.22765000  0.70161000  1.0
  Br  Br44  1  0.36778000  0.81909000  0.09484000  1.0
  Br  Br45  1  0.86849000  0.56208000  0.86843000  1.0
  Br  Br46  1  0.85681000  0.57565000  0.68367000  1.0
  Br  Br47  1  0.34134000  0.78505000  0.28899000  1.0
  N  N48  1  0.95397000  0.47367000  0.47760000  1.0
  N  N49  1  0.06753000  0.47033000  0.50680000  1.0
  N  N50  1  0.23896000  0.32232000  0.91932000  1.0
  N  N51  1  0.73696000  0.33756000  0.08820000  1.0
  N  N52  1  0.68728000  0.29816000  0.25197000  1.0
  N  N53  1  0.24279000  0.29866000  0.76938000  1.0
  O  O54  1  0.36034000  0.69226000  0.49732000  1.0
  O  O55  1  0.65124000  0.25976000  0.46338000  1.0
  O  O56  1  0.64558000  0.68705000  0.50607000  1.0
  O  O57  1  0.36610000  0.25408000  0.51941000  1.0
  O  O58  1  0.37311000  0.48493000  0.62526000  1.0
  O  O59  1  0.65489000  0.53404000  0.36999000  1.0
  O  O60  1  0.64742000  0.40710000  0.59555000  1.0
  O  O61  1  0.37305000  0.46649000  0.39206000  1.0
