# generated using pymatgen
data_MnH10C16(NO2)2
_symmetry_space_group_name_H-M   'P 1'
_cell_length_a   8.19725000
_cell_length_b   8.30036000
_cell_length_c   10.49960000
_cell_angle_alpha   74.54170000
_cell_angle_beta   84.26110000
_cell_angle_gamma   72.87300000
_symmetry_Int_Tables_number   1
_chemical_formula_structural   MnH10C16(NO2)2
_chemical_formula_sum   'Mn2 H20 C32 N4 O8'
_cell_volume   657.83712186
_cell_formula_units_Z   2
loop_
 _symmetry_equiv_pos_site_id
 _symmetry_equiv_pos_as_xyz
  1  'x, y, z'
loop_
 _atom_site_type_symbol
 _atom_site_label
 _atom_site_symmetry_multiplicity
 _atom_site_fract_x
 _atom_site_fract_y
 _atom_site_fract_z
 _atom_site_occupancy
  Mn  Mn0  1  0.23990000  0.54135000  0.87425000  1.0
  Mn  Mn1  1  0.76008000  0.45864000  0.12576000  1.0
  H  H2  1  0.07997000  0.20293000  0.94090000  1.0
  H  H3  1  0.92003000  0.79706000  0.05909000  1.0
  H  H4  1  0.02692000  0.00011000  0.82019000  1.0
  H  H5  1  0.97308000  0.99989000  0.17980000  1.0
  H  H6  1  0.06853000  0.06461000  0.57557000  1.0
  H  H7  1  0.93148000  0.93540000  0.42441000  1.0
  H  H8  1  0.15326000  0.25604000  0.36770000  1.0
  H  H9  1  0.84675000  0.74397000  0.63229000  1.0
  H  H10  1  0.27184000  0.50307000  0.25674000  1.0
  H  H11  1  0.72818000  0.49694000  0.74326000  1.0
  H  H12  1  0.38239000  0.74458000  0.27463000  1.0
  H  H13  1  0.61762000  0.25542000  0.72538000  1.0
  H  H14  1  0.43643000  0.92413000  0.41752000  1.0
  H  H15  1  0.56358000  0.07587000  0.58249000  1.0
  H  H16  1  0.38795000  0.82966000  0.66434000  1.0
  H  H17  1  0.61205000  0.17034000  0.33567000  1.0
  H  H18  1  0.25959000  0.01238000  0.19297000  1.0
  H  H19  1  0.74040000  0.98763000  0.80704000  1.0
  H  H20  1  0.54998000  0.98652000  0.12606000  1.0
  H  H21  1  0.45001000  0.01348000  0.87396000  1.0
  C  C22  1  0.10602000  0.22258000  0.83495000  1.0
  C  C23  1  0.89397000  0.77742000  0.16505000  1.0
  C  C24  1  0.07105000  0.11206000  0.76703000  1.0
  C  C25  1  0.92896000  0.88793000  0.23296000  1.0
  C  C26  1  0.09696000  0.14599000  0.63167000  1.0
  C  C27  1  0.90304000  0.85402000  0.36831000  1.0
  C  C28  1  0.16062000  0.28751000  0.56504000  1.0
  C  C29  1  0.83938000  0.71250000  0.43496000  1.0
  C  C30  1  0.18741000  0.33273000  0.42491000  1.0
  C  C31  1  0.81261000  0.66728000  0.57508000  1.0
  C  C32  1  0.25128000  0.46954000  0.36374000  1.0
  C  C33  1  0.74875000  0.53046000  0.63626000  1.0
  C  C34  1  0.29081000  0.57249000  0.43954000  1.0
  C  C35  1  0.70921000  0.42751000  0.56047000  1.0
  C  C36  1  0.35584000  0.71580000  0.38104000  1.0
  C  C37  1  0.64418000  0.28420000  0.61897000  1.0
  C  C38  1  0.38752000  0.81213000  0.45995000  1.0
  C  C39  1  0.61250000  0.18787000  0.54006000  1.0
  C  C40  1  0.36028000  0.76107000  0.59743000  1.0
  C  C41  1  0.63973000  0.23893000  0.40257000  1.0
  C  C42  1  0.19775000  0.38789000  0.64310000  1.0
  C  C43  1  0.80225000  0.61211000  0.35690000  1.0
  C  C44  1  0.26458000  0.53245000  0.57898000  1.0
  C  C45  1  0.73543000  0.46755000  0.42102000  1.0
  C  C46  1  0.15140000  0.29143000  0.12312000  1.0
  C  C47  1  0.84859000  0.70857000  0.87688000  1.0
  C  C48  1  0.29529000  0.13025000  0.14203000  1.0
  C  C49  1  0.70470000  0.86975000  0.85797000  1.0
  C  C50  1  0.45916000  0.11611000  0.10253000  1.0
  C  C51  1  0.54082000  0.88389000  0.89747000  1.0
  C  C52  1  0.54074000  0.25693000  0.03353000  1.0
  C  C53  1  0.45925000  0.74307000  0.96647000  1.0
  N  N54  1  0.16987000  0.35495000  0.77600000  1.0
  N  N55  1  0.83013000  0.64505000  0.22399000  1.0
  N  N56  1  0.30116000  0.62532000  0.65552000  1.0
  N  N57  1  0.69884000  0.37468000  0.34449000  1.0
  O  O58  1  0.17704000  0.43919000  0.06929000  1.0
  O  O59  1  0.82294000  0.56081000  0.93071000  1.0
  O  O60  1  0.00481000  0.26973000  0.16473000  1.0
  O  O61  1  0.99518000  0.73027000  0.83527000  1.0
  O  O62  1  0.49743000  0.34834000  0.91821000  1.0
  O  O63  1  0.50256000  0.65164000  0.08179000  1.0
  O  O64  1  0.66005000  0.26366000  0.09950000  1.0
  O  O65  1  0.33993000  0.73634000  0.90050000  1.0
