# generated using pymatgen
data_AlH12(C7O2)3
_symmetry_space_group_name_H-M   'P 1'
_cell_length_a   3.95766000
_cell_length_b   24.57102153
_cell_length_c   24.57190000
_cell_angle_alpha   60.00845264
_cell_angle_beta   89.99980000
_cell_angle_gamma   89.99919991
_symmetry_Int_Tables_number   1
_chemical_formula_structural   AlH12(C7O2)3
_chemical_formula_sum   'Al2 H24 C42 O12'
_cell_volume   2069.51247814
_cell_formula_units_Z   2
loop_
 _symmetry_equiv_pos_site_id
 _symmetry_equiv_pos_as_xyz
  1  'x, y, z'
loop_
 _atom_site_type_symbol
 _atom_site_label
 _atom_site_symmetry_multiplicity
 _atom_site_fract_x
 _atom_site_fract_y
 _atom_site_fract_z
 _atom_site_occupancy
  Al  Al0  1  1.00000000  0.49999000  0.00003000  1.0
  Al  Al1  1  0.00008000  0.16668000  0.66666000  1.0
  H  H2  1  0.74091000  0.33488000  0.17356000  1.0
  H  H3  1  0.72572000  0.27492000  0.29076000  1.0
  H  H4  1  0.74095000  0.33179000  0.49308000  1.0
  H  H5  1  0.72578000  0.39171000  0.37588000  1.0
  H  H6  1  0.25913000  0.17507000  0.49315000  1.0
  H  H7  1  0.27390000  0.23231000  0.37595000  1.0
  H  H8  1  0.25917000  0.49158000  0.17354000  1.0
  H  H9  1  0.27383000  0.43430000  0.29075000  1.0
  H  H10  1  0.74082000  0.49154000  0.83490000  1.0
  H  H11  1  0.72476000  0.43427000  0.77495000  1.0
  H  H12  1  0.74074000  0.17517000  0.83177000  1.0
  H  H13  1  0.72484000  0.23242000  0.89174000  1.0
  H  H14  1  0.25898000  0.33178000  0.67504000  1.0
  H  H15  1  0.27291000  0.39176000  0.73230000  1.0
  H  H16  1  0.25881000  0.33490000  0.99163000  1.0
  H  H17  1  0.27284000  0.27494000  0.93435000  1.0
  H  H18  1  0.74111000  0.67346000  0.99165000  1.0
  H  H19  1  0.72719000  0.79070000  0.93437000  1.0
  H  H20  1  0.74110000  0.99316000  0.67505000  1.0
  H  H21  1  0.72708000  0.87592000  0.73235000  1.0
  H  H22  1  0.25941000  0.99309000  0.83176000  1.0
  H  H23  1  0.27520000  0.87587000  0.89174000  1.0
  H  H24  1  0.25930000  0.67358000  0.83490000  1.0
  H  H25  1  0.27523000  0.79081000  0.77495000  1.0
  C  C26  1  0.50004000  0.59682000  0.95162000  1.0
  C  C27  1  0.49999000  0.45157000  0.09685000  1.0
  C  C28  1  0.49991000  0.45160000  0.95157000  1.0
  C  C29  1  0.50001000  0.21510000  0.56983000  1.0
  C  C30  1  0.50004000  0.21509000  0.71507000  1.0
  C  C31  1  0.50003000  0.06984000  0.71505000  1.0
  C  C32  1  0.50002000  0.41669000  0.16663000  1.0
  C  C33  1  0.49999000  0.24997000  0.50004000  1.0
  C  C34  1  0.63293000  0.35573000  0.19971000  1.0
  C  C35  1  0.62454000  0.32256000  0.26502000  1.0
  C  C36  1  0.63301000  0.31093000  0.46692000  1.0
  C  C37  1  0.62456000  0.34409000  0.40162000  1.0
  C  C38  1  0.36701000  0.22209000  0.46696000  1.0
  C  C39  1  0.37492000  0.25426000  0.40165000  1.0
  C  C40  1  0.36699000  0.44455000  0.19972000  1.0
  C  C41  1  0.37485000  0.41238000  0.26503000  1.0
  C  C42  1  0.49972000  0.35065000  0.29867000  1.0
  C  C43  1  0.49972000  0.31599000  0.36799000  1.0
  C  C44  1  0.49959000  0.41670000  0.91663333  1.0
  C  C45  1  0.49977000  0.24998000  0.74997000  1.0
  C  C46  1  0.63253000  0.44455000  0.85573000  1.0
  C  C47  1  0.62357000  0.41238000  0.82258000  1.0
  C  C48  1  0.63250000  0.22215000  0.81093000  1.0
  C  C49  1  0.62362000  0.25431000  0.84410000  1.0
  C  C50  1  0.36653000  0.31093000  0.72208000  1.0
  C  C51  1  0.37394000  0.34411000  0.75422000  1.0
  C  C52  1  0.36637000  0.35574000  0.94460000  1.0
  C  C53  1  0.37390000  0.32259000  0.91242000  1.0
  C  C54  1  0.49824000  0.35068000  0.85065000  1.0
  C  C55  1  0.49831000  0.31602000  0.81598000  1.0
  C  C56  1  0.50034000  0.66660000  0.91674000  1.0
  C  C57  1  0.50049000  0.00006000  0.74995000  1.0
  C  C58  1  0.63372000  0.69966000  0.94461000  1.0
  C  C59  1  0.62597000  0.76498000  0.91245000  1.0
  C  C60  1  0.63375000  0.96695000  0.72211000  1.0
  C  C61  1  0.62582000  0.90163000  0.75426000  1.0
  C  C62  1  0.36773000  0.96696000  0.81091000  1.0
  C  C63  1  0.37626000  0.90164000  0.84409000  1.0
  C  C64  1  0.36769000  0.69973000  0.85575000  1.0
  C  C65  1  0.37634000  0.76505000  0.82259000  1.0
  C  C66  1  0.50183000  0.79866000  0.85068000  1.0
  C  C67  1  0.50181000  0.86799000  0.81604000  1.0
  O  O68  1  0.26503000  0.43922000  0.99178000  1.0
  O  O69  1  0.26499000  0.56906000  0.93920000  1.0
  O  O70  1  0.26502000  0.49177000  0.06903000  1.0
  O  O71  1  0.73511000  0.49174000  0.93922000  1.0
  O  O72  1  0.73507000  0.43921000  0.06905000  1.0
  O  O73  1  0.73504000  0.56899000  0.99179000  1.0
  O  O74  1  0.26507000  0.09763000  0.72746000  1.0
  O  O75  1  0.26512000  0.17490000  0.59763000  1.0
  O  O76  1  0.26517000  0.22745000  0.67487000  1.0
  O  O77  1  0.73512000  0.09765000  0.67488000  1.0
  O  O78  1  0.73514000  0.17493000  0.72745000  1.0
  O  O79  1  0.73511000  0.22747000  0.59762000  1.0
