# generated using pymatgen
data_YH8C6NO7
_symmetry_space_group_name_H-M   'P 1'
_cell_length_a   6.59311000
_cell_length_b   6.77913000
_cell_length_c   19.50990000
_cell_angle_alpha   93.03730000
_cell_angle_beta   89.99980000
_cell_angle_gamma   90.00000000
_symmetry_Int_Tables_number   1
_chemical_formula_structural   YH8C6NO7
_chemical_formula_sum   'Y4 H32 C24 N4 O28'
_cell_volume   870.78075868
_cell_formula_units_Z   4
loop_
 _symmetry_equiv_pos_site_id
 _symmetry_equiv_pos_as_xyz
  1  'x, y, z'
loop_
 _atom_site_type_symbol
 _atom_site_label
 _atom_site_symmetry_multiplicity
 _atom_site_fract_x
 _atom_site_fract_y
 _atom_site_fract_z
 _atom_site_occupancy
  Y  Y0  1  0.25922000  0.23148000  0.10211000  1.0
  Y  Y1  1  0.75921000  0.26852000  0.39789000  1.0
  Y  Y2  1  0.74078000  0.76852000  0.89789000  1.0
  Y  Y3  1  0.24078000  0.73148000  0.60211000  1.0
  H  H4  1  0.18322000  0.72467000  0.20536000  1.0
  H  H5  1  0.68322000  0.77534000  0.29464000  1.0
  H  H6  1  0.81678000  0.27534000  0.79464000  1.0
  H  H7  1  0.31678000  0.22466000  0.70536000  1.0
  H  H8  1  0.98497000  0.80921000  0.15495000  1.0
  H  H9  1  0.48498000  0.69079000  0.34506000  1.0
  H  H10  1  0.01503000  0.19079000  0.84505000  1.0
  H  H11  1  0.51502000  0.30921000  0.65494000  1.0
  H  H12  1  0.82365000  0.50212000  0.24918000  1.0
  H  H13  1  0.32365000  0.99788000  0.25082000  1.0
  H  H14  1  0.17635000  0.49788000  0.75082000  1.0
  H  H15  1  0.67635000  0.00212000  0.74918000  1.0
  H  H16  1  0.08915000  0.50710000  0.26359000  1.0
  H  H17  1  0.58915000  0.99291000  0.23641000  1.0
  H  H18  1  0.91085000  0.49290000  0.73641000  1.0
  H  H19  1  0.41084000  0.00709000  0.76359000  1.0
  H  H20  1  0.83639000  0.58078000  0.07409000  1.0
  H  H21  1  0.33639000  0.91922000  0.42591000  1.0
  H  H22  1  0.16361000  0.41922000  0.92591000  1.0
  H  H23  1  0.66361000  0.08078000  0.57409000  1.0
  H  H24  1  0.68983000  0.53432000  0.14751000  1.0
  H  H25  1  0.18982000  0.96568000  0.35249000  1.0
  H  H26  1  0.31018000  0.46568000  0.85249000  1.0
  H  H27  1  0.81017000  0.03432000  0.64751000  1.0
  H  H28  1  0.20829000  0.04492000  0.96661000  1.0
  H  H29  1  0.70829000  0.45509000  0.53339000  1.0
  H  H30  1  0.79171000  0.95508000  0.03339000  1.0
  H  H31  1  0.29171000  0.54491000  0.46661000  1.0
  H  H32  1  0.42197000  0.14980000  0.96151000  1.0
  H  H33  1  0.92197000  0.35020000  0.53849000  1.0
  H  H34  1  0.57803000  0.85020000  0.03849000  1.0
  H  H35  1  0.07803000  0.64980000  0.46151000  1.0
  C  C36  1  0.25430000  0.70998000  0.10012000  1.0
  C  C37  1  0.75430000  0.79002000  0.39988000  1.0
  C  C38  1  0.74570000  0.29003000  0.89988000  1.0
  C  C39  1  0.24570000  0.20997000  0.60012000  1.0
  C  C40  1  0.09967000  0.69259000  0.15737000  1.0
  C  C41  1  0.59967000  0.80741000  0.34263000  1.0
  C  C42  1  0.90033000  0.30741000  0.84263000  1.0
  C  C43  1  0.40033000  0.19259000  0.65736000  1.0
  C  C44  1  0.96976000  0.44308000  0.22995000  1.0
  C  C45  1  0.46976000  0.05692000  0.27006000  1.0
  C  C46  1  0.03024000  0.55692000  0.77005000  1.0
  C  C47  1  0.53024000  0.94308000  0.72994000  1.0
  C  C48  1  0.97724000  0.22175000  0.23912000  1.0
  C  C49  1  0.47725000  0.27826000  0.26090000  1.0
  C  C50  1  0.02276000  0.77825000  0.76088000  1.0
  C  C51  1  0.52275000  0.72175000  0.73910000  1.0
  C  C52  1  0.78011000  0.27867000  0.08462000  1.0
  C  C53  1  0.28010000  0.22132000  0.41538000  1.0
  C  C54  1  0.21990000  0.72133000  0.91538000  1.0
  C  C55  1  0.71990000  0.77867000  0.58462000  1.0
  C  C56  1  0.82222000  0.48296000  0.11715000  1.0
  C  C57  1  0.32222000  0.01704000  0.38286000  1.0
  C  C58  1  0.17778000  0.51704000  0.88285000  1.0
  C  C59  1  0.67778000  0.98296000  0.61714000  1.0
  N  N60  1  0.01031000  0.49400000  0.15878000  1.0
  N  N61  1  0.51031000  0.00600000  0.34122000  1.0
  N  N62  1  0.98969000  0.50600000  0.84122000  1.0
  N  N63  1  0.48969000  0.99400000  0.65878000  1.0
  O  O64  1  0.31073000  0.55274000  0.06746000  1.0
  O  O65  1  0.81072000  0.94727000  0.43255000  1.0
  O  O66  1  0.68927000  0.44727000  0.93254000  1.0
  O  O67  1  0.18928000  0.05273000  0.56745000  1.0
  O  O68  1  0.32698000  0.88080000  0.09030000  1.0
  O  O69  1  0.82697000  0.61921000  0.40971000  1.0
  O  O70  1  0.67303000  0.11921000  0.90970000  1.0
  O  O71  1  0.17302000  0.38079000  0.59029000  1.0
  O  O72  1  0.05602000  0.11293000  0.19149000  1.0
  O  O73  1  0.55601000  0.38706000  0.30851000  1.0
  O  O74  1  0.94398000  0.88708000  0.80851000  1.0
  O  O75  1  0.44399000  0.61294000  0.69150000  1.0
  O  O76  1  0.91210000  0.15769000  0.29495000  1.0
  O  O77  1  0.41208000  0.34232000  0.20505000  1.0
  O  O78  1  0.08790000  0.84231000  0.70505000  1.0
  O  O79  1  0.58791000  0.65768000  0.79495000  1.0
  O  O80  1  0.93048000  0.18002000  0.05907000  1.0
  O  O81  1  0.43047000  0.31997000  0.44094000  1.0
  O  O82  1  0.06952000  0.81998000  0.94093000  1.0
  O  O83  1  0.56952000  0.68003000  0.55906000  1.0
  O  O84  1  0.60111000  0.21462000  0.08150000  1.0
  O  O85  1  0.10110000  0.28537000  0.41850000  1.0
  O  O86  1  0.39890000  0.78538000  0.91850000  1.0
  O  O87  1  0.89890000  0.71463000  0.58150000  1.0
  O  O88  1  0.28433000  0.16646000  0.98143000  1.0
  O  O89  1  0.78432000  0.33354000  0.51857000  1.0
  O  O90  1  0.71567000  0.83354000  0.01857000  1.0
  O  O91  1  0.21568000  0.66646000  0.48143000  1.0
