# generated using pymatgen
data_ZnH14C21S2(NO2)2
_symmetry_space_group_name_H-M   'P 1'
_cell_length_a   14.64140000
_cell_length_b   14.66770000
_cell_length_c   29.13780000
_cell_angle_alpha   100.80300000
_cell_angle_beta   100.72600000
_cell_angle_gamma   90.38860000
_symmetry_Int_Tables_number   1
_chemical_formula_structural   ZnH14C21S2(NO2)2
_chemical_formula_sum   'Zn8 H112 C168 S16 N16 O32'
_cell_volume   6033.58705133
_cell_formula_units_Z   8
loop_
 _symmetry_equiv_pos_site_id
 _symmetry_equiv_pos_as_xyz
  1  'x, y, z'
loop_
 _atom_site_type_symbol
 _atom_site_label
 _atom_site_symmetry_multiplicity
 _atom_site_fract_x
 _atom_site_fract_y
 _atom_site_fract_z
 _atom_site_occupancy
  Zn  Zn0  1  0.68794000  0.40358000  0.24279000  1.0
  Zn  Zn1  1  0.31206000  0.59642000  0.75721000  1.0
  Zn  Zn2  1  0.23049000  0.94312000  0.34261000  1.0
  Zn  Zn3  1  0.76951000  0.05688000  0.65739000  1.0
  Zn  Zn4  1  0.72715000  0.37708000  0.34039000  1.0
  Zn  Zn5  1  0.27285000  0.62292000  0.65961000  1.0
  Zn  Zn6  1  0.18687000  0.84129000  0.24636000  1.0
  Zn  Zn7  1  0.81314000  0.15871000  0.75364000  1.0
  H  H8  1  0.99151000  0.60565000  0.65383000  1.0
  H  H9  1  0.00849000  0.39435000  0.34617000  1.0
  H  H10  1  0.71246000  0.52477000  0.41722000  1.0
  H  H11  1  0.28754000  0.47523000  0.58278000  1.0
  H  H12  1  0.67733000  0.26043000  0.15820000  1.0
  H  H13  1  0.32266000  0.73957000  0.84180000  1.0
  H  H14  1  0.18741000  0.65587000  0.17752000  1.0
  H  H15  1  0.81259000  0.34412000  0.82248000  1.0
  H  H16  1  0.92126000  0.62421000  0.40121000  1.0
  H  H17  1  0.07874000  0.37579000  0.59879000  1.0
  H  H18  1  0.04556000  0.76165000  0.40459000  1.0
  H  H19  1  0.95443000  0.23835000  0.59541000  1.0
  H  H20  1  0.81461000  0.26245000  0.41533000  1.0
  H  H21  1  0.18539000  0.73755000  0.58467000  1.0
  H  H22  1  0.76190000  0.56890000  0.50608000  1.0
  H  H23  1  0.23810000  0.43110000  0.49392000  1.0
  H  H24  1  0.50033000  0.08007000  0.66079000  1.0
  H  H25  1  0.49967000  0.91994000  0.33921000  1.0
  H  H26  1  0.63056000  0.24217000  0.06933000  1.0
  H  H27  1  0.36944000  0.75783000  0.93067000  1.0
  H  H28  1  0.85416000  0.16299000  0.18583000  1.0
  H  H29  1  0.14584000  0.83702000  0.81417000  1.0
  H  H30  1  0.86810000  0.29481000  0.50391000  1.0
  H  H31  1  0.13190000  0.70519000  0.49609000  1.0
  H  H32  1  0.56906000  0.61924000  0.39707000  1.0
  H  H33  1  0.43094000  0.38076000  0.60293000  1.0
  H  H34  1  0.44494000  0.75231000  0.39827000  1.0
  H  H35  1  0.55507000  0.24769000  0.60173000  1.0
  H  H36  1  0.15556000  0.73738000  0.92252000  1.0
  H  H37  1  0.84444000  0.26262000  0.07748000  1.0
  H  H38  1  0.14682000  0.60025000  0.08931000  1.0
  H  H39  1  0.85318000  0.39974000  0.91069000  1.0
  H  H40  1  0.27428000  0.93212000  0.51845000  1.0
  H  H41  1  0.72572000  0.06788000  0.48155000  1.0
  H  H42  1  0.79607000  0.39367000  0.66467000  1.0
  H  H43  1  0.20393000  0.60634000  0.33533000  1.0
  H  H44  1  0.22951000  0.87609000  0.42998000  1.0
  H  H45  1  0.77048000  0.12392000  0.57002000  1.0
  H  H46  1  0.98280000  0.03444000  0.18682000  1.0
  H  H47  1  0.01721000  0.96557000  0.81317000  1.0
  H  H48  1  0.66109000  0.38897000  0.92004000  1.0
  H  H49  1  0.33891000  0.61103000  0.07996000  1.0
  H  H50  1  0.25865000  0.24661000  0.65337000  1.0
  H  H51  1  0.74135000  0.75339000  0.34663000  1.0
  H  H52  1  0.30186000  0.13096000  0.40294000  1.0
  H  H53  1  0.69814000  0.86904000  0.59706000  1.0
  H  H54  1  0.39599000  0.27699000  0.93148000  1.0
  H  H55  1  0.60401000  0.72301000  0.06851000  1.0
  H  H56  1  0.11309000  0.92318000  0.16581000  1.0
  H  H57  1  0.88691000  0.07682000  0.83419000  1.0
  H  H58  1  0.35099000  0.28663000  0.00513000  1.0
  H  H59  1  0.64901000  0.71337000  0.99487000  1.0
  H  H60  1  0.44211000  0.26580000  0.05106000  1.0
  H  H61  1  0.55789000  0.73420000  0.94894000  1.0
  H  H62  1  0.40307000  0.37928000  0.05160000  1.0
  H  H63  1  0.59692000  0.62072000  0.94840000  1.0
  H  H64  1  0.95328000  0.55441000  0.52151000  1.0
  H  H65  1  0.04673000  0.44559000  0.47850000  1.0
  H  H66  1  0.93919000  0.65685000  0.56249000  1.0
  H  H67  1  0.06082000  0.34315000  0.43752000  1.0
  H  H68  1  0.03784000  0.59064000  0.57441000  1.0
  H  H69  1  0.96216000  0.40937000  0.42559000  1.0
  H  H70  1  0.34673000  0.19906000  0.49021000  1.0
  H  H71  1  0.65327000  0.80094000  0.50979000  1.0
  H  H72  1  0.07058000  0.87965000  0.07662000  1.0
  H  H73  1  0.92943000  0.12034000  0.92338000  1.0
  H  H74  1  0.38595000  0.99779000  0.18363000  1.0
  H  H75  1  0.61405000  0.00221000  0.81637000  1.0
  H  H76  1  0.77003000  0.45804000  0.98734000  1.0
  H  H77  1  0.22997000  0.54196000  0.01266000  1.0
  H  H78  1  0.71372000  0.52565000  0.03028000  1.0
  H  H79  1  0.28628000  0.47435000  0.96972000  1.0
  H  H80  1  0.76803000  0.42332000  0.04227000  1.0
  H  H81  1  0.23197000  0.57668000  0.95773000  1.0
  H  H82  1  0.72027000  0.31033000  0.53447000  1.0
  H  H83  1  0.27973000  0.68967000  0.46553000  1.0
  H  H84  1  0.74712000  0.27057000  0.58952000  1.0
  H  H85  1  0.25287000  0.72943000  0.41048000  1.0
  H  H86  1  0.66315000  0.35424000  0.58202000  1.0
  H  H87  1  0.33685000  0.64577000  0.41798000  1.0
  H  H88  1  0.50843000  0.13371000  0.18229000  1.0
  H  H89  1  0.49156000  0.86629000  0.81771000  1.0
  H  H90  1  0.95761000  0.64296000  0.06901000  1.0
  H  H91  1  0.04239000  0.35704000  0.93099000  1.0
  H  H92  1  0.86671000  0.63224000  0.01844000  1.0
  H  H93  1  0.13329000  0.36776000  0.98156000  1.0
  H  H94  1  0.93758000  0.53742000  0.02701000  1.0
  H  H95  1  0.06242000  0.46258000  0.97300000  1.0
  H  H96  1  0.46265000  0.98504000  0.53000000  1.0
  H  H97  1  0.53735000  0.01496000  0.47001000  1.0
  H  H98  1  0.55374000  0.04136000  0.57602000  1.0
  H  H99  1  0.44626000  0.95864000  0.42398000  1.0
  H  H100  1  0.49150000  0.94489000  0.58461000  1.0
  H  H101  1  0.50850000  0.05511000  0.41539000  1.0
  H  H102  1  0.25483000  0.82074000  0.98700000  1.0
  H  H103  1  0.74517000  0.17926000  0.01300000  1.0
  H  H104  1  0.19933000  0.87442000  0.03361000  1.0
  H  H105  1  0.80066000  0.12558000  0.96639000  1.0
  H  H106  1  0.26887000  0.77850000  0.04105000  1.0
  H  H107  1  0.73113000  0.22150000  0.95895000  1.0
  H  H108  1  0.92161000  0.57224000  0.93573000  1.0
  H  H109  1  0.07839000  0.42776000  0.06427000  1.0
  H  H110  1  0.63580000  0.54288000  0.17758000  1.0
  H  H111  1  0.36420000  0.45712000  0.82242000  1.0
  H  H112  1  0.58890000  0.53733000  0.09052000  1.0
  H  H113  1  0.41109000  0.46267000  0.90947000  1.0
  H  H114  1  0.17846000  0.17061000  0.52202000  1.0
  H  H115  1  0.82154000  0.82939000  0.47798000  1.0
  H  H116  1  0.13579000  0.19801000  0.57600000  1.0
  H  H117  1  0.86421000  0.80199000  0.42400000  1.0
  H  H118  1  0.20553000  0.28072000  0.56007000  1.0
  H  H119  1  0.79447000  0.71928000  0.43993000  1.0
  C  C120  1  0.31426000  0.07078000  0.51174000  1.0
  C  C121  1  0.68574000  0.92922000  0.48826000  1.0
  C  C122  1  0.38148000  0.16538000  0.66288000  1.0
  C  C123  1  0.61852000  0.83463000  0.33711000  1.0
  C  C124  1  0.91349000  0.53061000  0.58719000  1.0
  C  C125  1  0.08651000  0.46939000  0.41281000  1.0
  C  C126  1  0.93775000  0.55185000  0.63667000  1.0
  C  C127  1  0.06226000  0.44815000  0.36333000  1.0
  C  C128  1  0.74721000  0.47650000  0.43829000  1.0
  C  C129  1  0.25280000  0.52350000  0.56171000  1.0
  C  C130  1  0.89525000  0.50397000  0.66507000  1.0
  C  C131  1  0.10475000  0.49604000  0.33493000  1.0
  C  C132  1  0.32055000  0.75973000  0.31167000  1.0
  C  C133  1  0.67946000  0.24028000  0.68833000  1.0
  C  C134  1  0.40733000  0.19642000  0.71430000  1.0
  C  C135  1  0.59267000  0.80358000  0.28569000  1.0
  C  C136  1  0.09603000  0.02302000  0.27647000  1.0
  C  C137  1  0.90397000  0.97698000  0.72353000  1.0
  C  C138  1  0.65714000  0.31941000  0.14122000  1.0
  C  C139  1  0.34286000  0.68059000  0.85878000  1.0
  C  C140  1  0.90211000  0.20280000  0.26216000  1.0
  C  C141  1  0.09789000  0.79721000  0.73784000  1.0
  C  C142  1  0.16109000  0.70288000  0.15367000  1.0
  C  C143  1  0.83891000  0.29711000  0.84633000  1.0
  C  C144  1  0.93630000  0.65063000  0.37083000  1.0
  C  C145  1  0.06370000  0.34937000  0.62917000  1.0
  C  C146  1  0.59491000  0.24439000  0.27202000  1.0
  C  C147  1  0.40509000  0.75562000  0.72798000  1.0
  C  C148  1  0.07517000  0.80026000  0.31567000  1.0
  C  C149  1  0.92483000  0.19974000  0.68433000  1.0
  C  C150  1  0.00776000  0.73760000  0.32763000  1.0
  C  C151  1  0.99224000  0.26240000  0.67237000  1.0
  C  C152  1  0.89201000  0.61320000  0.32467000  1.0
  C  C153  1  0.10799000  0.38680000  0.67533000  1.0
  C  C154  1  0.33915000  0.10576000  0.56386000  1.0
  C  C155  1  0.66085000  0.89424000  0.43614000  1.0
  C  C156  1  0.83905000  0.27737000  0.27496000  1.0
  C  C157  1  0.16095000  0.72264000  0.72504000  1.0
  C  C158  1  0.00166000  0.72253000  0.37257000  1.0
  C  C159  1  0.99834000  0.27747000  0.62743000  1.0
  C  C160  1  0.34449000  0.98245000  0.27422000  1.0
  C  C161  1  0.65551000  0.01755000  0.72578000  1.0
  C  C162  1  0.57522000  0.37611000  0.01977000  1.0
  C  C163  1  0.42478000  0.62389000  0.98023000  1.0
  C  C164  1  0.41812000  0.07242000  0.59068000  1.0
  C  C165  1  0.58188000  0.92758000  0.40932000  1.0
  C  C166  1  0.80337000  0.32903000  0.43707000  1.0
  C  C167  1  0.19663000  0.67097000  0.56293000  1.0
  C  C168  1  0.77495000  0.50006000  0.48736000  1.0
  C  C169  1  0.22506000  0.49995000  0.51264000  1.0
  C  C170  1  0.82180000  0.53534000  0.31040000  1.0
  C  C171  1  0.17820000  0.46466000  0.68960000  1.0
  C  C172  1  0.51074000  0.57524000  0.32191000  1.0
  C  C173  1  0.48927000  0.42476000  0.67809000  1.0
  C  C174  1  0.81851000  0.43488000  0.51281000  1.0
  C  C175  1  0.18149000  0.56513000  0.48719000  1.0
  C  C176  1  0.43852000  0.10349000  0.63984000  1.0
  C  C177  1  0.56148000  0.89652000  0.36016000  1.0
  C  C178  1  0.52742000  0.32609000  0.92028000  1.0
  C  C179  1  0.47258000  0.67391000  0.07972000  1.0
  C  C180  1  0.50165000  0.29440000  0.86872000  1.0
  C  C181  1  0.49834000  0.70559000  0.13128000  1.0
  C  C182  1  0.02107000  0.08503000  0.26297000  1.0
  C  C183  1  0.97894000  0.91497000  0.73703000  1.0
  C  C184  1  0.92283000  0.52865000  0.71665000  1.0
  C  C185  1  0.07717000  0.47135000  0.28335000  1.0
  C  C186  1  0.49510000  0.22540000  0.78504000  1.0
  C  C187  1  0.50490000  0.77459000  0.21496000  1.0
  C  C188  1  0.39424000  0.69547000  0.32362000  1.0
  C  C189  1  0.60577000  0.30453000  0.67638000  1.0
  C  C190  1  0.63125000  0.31022000  0.09223000  1.0
  C  C191  1  0.36875000  0.68978000  0.90777000  1.0
  C  C192  1  0.90261000  0.15143000  0.21714000  1.0
  C  C193  1  0.09740000  0.84857000  0.78286000  1.0
  C  C194  1  0.57478000  0.50183000  0.30831000  1.0
  C  C195  1  0.42522000  0.49817000  0.69169000  1.0
  C  C196  1  0.83291000  0.34767000  0.48622000  1.0
  C  C197  1  0.16709000  0.65233000  0.51378000  1.0
  C  C198  1  0.51682000  0.62958000  0.36688000  1.0
  C  C199  1  0.48318000  0.37042000  0.63312000  1.0
  C  C200  1  0.41253000  0.04147000  0.26038000  1.0
  C  C201  1  0.58747000  0.95853000  0.73962000  1.0
  C  C202  1  0.10613000  0.73607000  0.07529000  1.0
  C  C203  1  0.89387000  0.26393000  0.92471000  1.0
  C  C204  1  0.84636000  0.45780000  0.56537000  1.0
  C  C205  1  0.15364000  0.54221000  0.43463000  1.0
  C  C206  1  0.41279000  0.26073000  0.79819000  1.0
  C  C207  1  0.58721000  0.73926000  0.20181000  1.0
  C  C208  1  0.45121000  0.69917000  0.36766000  1.0
  C  C209  1  0.54879000  0.30083000  0.63234000  1.0
  C  C210  1  0.11253000  0.71177000  0.94468000  1.0
  C  C211  1  0.88747000  0.28823000  0.05532000  1.0
  C  C212  1  0.13536000  0.74170000  0.99385000  1.0
  C  C213  1  0.86465000  0.25830000  0.00615000  1.0
  C  C214  1  0.80395000  0.40806000  0.59361000  1.0
  C  C215  1  0.19605000  0.59195000  0.40640000  1.0
  C  C216  1  0.13903000  0.67285000  0.10457000  1.0
  C  C217  1  0.86097000  0.32715000  0.89543000  1.0
  C  C218  1  0.28133000  0.97848000  0.49401000  1.0
  C  C219  1  0.71867000  0.02152000  0.50599000  1.0
  C  C220  1  0.60520000  0.38851000  0.07233000  1.0
  C  C221  1  0.39480000  0.61148000  0.92767000  1.0
  C  C222  1  0.82864000  0.43266000  0.64306000  1.0
  C  C223  1  0.17136000  0.56734000  0.35694000  1.0
  C  C224  1  0.52697000  0.16453000  0.25925000  1.0
  C  C225  1  0.47302000  0.83547000  0.74074000  1.0
  C  C226  1  0.25683000  0.94675000  0.44524000  1.0
  C  C227  1  0.74317000  0.05325000  0.55476000  1.0
  C  C228  1  0.97035000  0.08382000  0.21764000  1.0
  C  C229  1  0.02966000  0.91619000  0.78235000  1.0
  C  C230  1  0.48656000  0.33412000  0.99832000  1.0
  C  C231  1  0.51344000  0.66588000  0.00168000  1.0
  C  C232  1  0.08086000  0.70732000  0.02281000  1.0
  C  C233  1  0.91914000  0.29268000  0.97719000  1.0
  C  C234  1  0.61290000  0.37264000  0.94211000  1.0
  C  C235  1  0.38710000  0.62736000  0.05789000  1.0
  C  C236  1  0.63699000  0.39991000  0.99162000  1.0
  C  C237  1  0.36301000  0.60009000  0.00837000  1.0
  C  C238  1  0.30317000  0.19748000  0.63592000  1.0
  C  C239  1  0.69683000  0.80252000  0.36408000  1.0
  C  C240  1  0.29621000  0.08993000  0.42999000  1.0
  C  C241  1  0.70379000  0.91007000  0.57001000  1.0
  C  C242  1  0.28142000  0.16919000  0.58649000  1.0
  C  C243  1  0.71858000  0.83081000  0.41351000  1.0
  C  C244  1  0.46360000  0.31051000  0.94878000  1.0
  C  C245  1  0.53640000  0.68949000  0.05122000  1.0
  C  C246  1  0.12013000  0.85289000  0.14678000  1.0
  C  C247  1  0.87988000  0.14711000  0.85322000  1.0
  C  C248  1  0.00262000  0.64673000  0.00200000  1.0
  C  C249  1  0.99738000  0.35327000  0.99800000  1.0
  C  C250  1  0.00392000  0.59292000  0.78597000  1.0
  C  C251  1  0.99609000  0.40708000  0.21403000  1.0
  C  C252  1  0.41703000  0.31526000  0.02795000  1.0
  C  C253  1  0.58297000  0.68474000  0.97204000  1.0
  C  C254  1  0.96304000  0.58527000  0.55945000  1.0
  C  C255  1  0.03697000  0.41473000  0.44055000  1.0
  C  C256  1  0.32120000  0.12691000  0.47839000  1.0
  C  C257  1  0.67880000  0.87309000  0.52162000  1.0
  C  C258  1  0.09708000  0.82798000  0.09759000  1.0
  C  C259  1  0.90292000  0.17201000  0.90241000  1.0
  C  C260  1  0.42468000  0.04484000  0.21465000  1.0
  C  C261  1  0.57532000  0.95516000  0.78535000  1.0
  C  C262  1  0.72694000  0.45419000  0.01398000  1.0
  C  C263  1  0.27306000  0.54581000  0.98601000  1.0
  C  C264  1  0.03673000  0.64922000  0.92327000  1.0
  C  C265  1  0.96327000  0.35078000  0.07673000  1.0
  C  C266  1  0.73026000  0.33162000  0.57319000  1.0
  C  C267  1  0.26974000  0.66839000  0.42681000  1.0
  C  C268  1  0.93492000  0.54817000  0.80261000  1.0
  C  C269  1  0.06508000  0.45183000  0.19739000  1.0
  C  C270  1  0.48922000  0.11604000  0.21398000  1.0
  C  C271  1  0.51078000  0.88397000  0.78602000  1.0
  C  C272  1  0.93842000  0.61346000  0.03094000  1.0
  C  C273  1  0.06158000  0.38655000  0.96906000  1.0
  C  C274  1  0.48408000  0.00725000  0.56859000  1.0
  C  C275  1  0.51592000  0.99275000  0.43141000  1.0
  C  C276  1  0.21874000  0.80718000  0.01499000  1.0
  C  C277  1  0.78126000  0.19282000  0.98501000  1.0
  C  C278  1  0.98197000  0.61862000  0.95255000  1.0
  C  C279  1  0.01803000  0.38138000  0.04745000  1.0
  C  C280  1  0.01321000  0.61719000  0.87188000  1.0
  C  C281  1  0.98679000  0.38281000  0.12812000  1.0
  C  C282  1  0.63429000  0.47759000  0.15237000  1.0
  C  C283  1  0.36571000  0.52241000  0.84763000  1.0
  C  C284  1  0.60802000  0.47389000  0.10355000  1.0
  C  C285  1  0.39198000  0.52611000  0.89645000  1.0
  C  C286  1  0.19603000  0.20588000  0.55935000  1.0
  C  C287  1  0.80397000  0.79412000  0.44065000  1.0
  S  S288  1  0.42317000  0.60830000  0.28112000  1.0
  S  S289  1  0.57683000  0.39170000  0.71888000  1.0
  S  S290  1  0.98420000  0.16776000  0.30485000  1.0
  S  S291  1  0.01581000  0.83224000  0.69514000  1.0
  S  S292  1  0.48215000  0.12360000  0.30234000  1.0
  S  S293  1  0.51784000  0.87640000  0.69766000  1.0
  S  S294  1  0.93202000  0.66493000  0.28357000  1.0
  S  S295  1  0.06798000  0.33507000  0.71642000  1.0
  S  S296  1  0.32630000  0.24839000  0.74817000  1.0
  S  S297  1  0.67369000  0.75160000  0.25183000  1.0
  S  S298  1  0.58269000  0.24290000  0.83493000  1.0
  S  S299  1  0.41731000  0.75710000  0.16506000  1.0
  S  S300  1  0.85696000  0.48793000  0.75450000  1.0
  S  S301  1  0.14303000  0.51207000  0.24550000  1.0
  S  S302  1  0.08106000  0.65384000  0.83407000  1.0
  S  S303  1  0.91894000  0.34616000  0.16593000  1.0
  N  N304  1  0.26448000  0.00130000  0.41368000  1.0
  N  N305  1  0.73551000  0.99870000  0.58632000  1.0
  N  N306  1  0.76072000  0.39216000  0.41338000  1.0
  N  N307  1  0.23929000  0.60784000  0.58662000  1.0
  N  N308  1  0.65799000  0.40182000  0.17090000  1.0
  N  N309  1  0.34201000  0.59818000  0.82910000  1.0
  N  N310  1  0.15152000  0.79134000  0.17441000  1.0
  N  N311  1  0.84848000  0.20866000  0.82559000  1.0
  N  N312  1  0.49174000  0.18863000  0.73870000  1.0
  N  N313  1  0.50825000  0.81137000  0.26129000  1.0
  N  N314  1  0.41589000  0.29774000  0.84471000  1.0
  N  N315  1  0.58411000  0.70225000  0.15529000  1.0
  N  N316  1  0.99687000  0.58267000  0.73850000  1.0
  N  N317  1  0.00313000  0.41733000  0.26150000  1.0
  N  N318  1  0.93976000  0.56147000  0.85019000  1.0
  N  N319  1  0.06024000  0.43853000  0.14981000  1.0
  O  O320  1  0.79536000  0.31225000  0.24081000  1.0
  O  O321  1  0.20464000  0.68775000  0.75919000  1.0
  O  O322  1  0.13365000  0.03370000  0.32041000  1.0
  O  O323  1  0.86634000  0.96630000  0.67959000  1.0
  O  O324  1  0.27069000  0.74151000  0.26981000  1.0
  O  O325  1  0.72932000  0.25849000  0.73019000  1.0
  O  O326  1  0.78159000  0.51490000  0.26676000  1.0
  O  O327  1  0.21841000  0.48510000  0.73324000  1.0
  O  O328  1  0.12533000  0.85516000  0.35041000  1.0
  O  O329  1  0.87467000  0.14483000  0.64959000  1.0
  O  O330  1  0.63471000  0.26688000  0.31574000  1.0
  O  O331  1  0.36528000  0.73313000  0.68426000  1.0
  O  O332  1  0.30322000  0.91661000  0.24212000  1.0
  O  O333  1  0.69678000  0.08339000  0.75788000  1.0
  O  O334  1  0.83290000  0.29923000  0.31880000  1.0
  O  O335  1  0.16711000  0.70077000  0.68120000  1.0
  O  O336  1  0.58271000  0.48252000  0.26474000  1.0
  O  O337  1  0.41728000  0.51748000  0.73526000  1.0
  O  O338  1  0.31334000  0.82837000  0.34458000  1.0
  O  O339  1  0.68667000  0.17163000  0.65543000  1.0
  O  O340  1  0.60698000  0.28397000  0.23822000  1.0
  O  O341  1  0.39302000  0.71604000  0.76178000  1.0
  O  O342  1  0.07863000  0.79236000  0.27168000  1.0
  O  O343  1  0.92137000  0.20764000  0.72833000  1.0
  O  O344  1  0.33182000  0.00399000  0.31717000  1.0
  O  O345  1  0.66818000  0.99601000  0.68283000  1.0
  O  O346  1  0.11627000  0.96296000  0.24268000  1.0
  O  O347  1  0.88373000  0.03704000  0.75731000  1.0
  O  O348  1  0.61815000  0.46614000  0.34222000  1.0
  O  O349  1  0.38186000  0.53386000  0.65779000  1.0
  O  O350  1  0.80804000  0.49548000  0.34383000  1.0
  O  O351  1  0.19196000  0.50452000  0.65616000  1.0
