# generated using pymatgen
data_Zn2H9C35S3Br6N2O11
_symmetry_space_group_name_H-M   'P 1'
_cell_length_a   12.75880000
_cell_length_b   13.81270000
_cell_length_c   28.09120000
_cell_angle_alpha   89.90880000
_cell_angle_beta   89.78860000
_cell_angle_gamma   89.91960000
_symmetry_Int_Tables_number   1
_chemical_formula_structural   Zn2H9C35S3Br6N2O11
_chemical_formula_sum   'Zn4 H18 C70 S6 Br12 N4 O22'
_cell_volume   4950.56504031
_cell_formula_units_Z   2
loop_
 _symmetry_equiv_pos_site_id
 _symmetry_equiv_pos_as_xyz
  1  'x, y, z'
loop_
 _atom_site_type_symbol
 _atom_site_label
 _atom_site_symmetry_multiplicity
 _atom_site_fract_x
 _atom_site_fract_y
 _atom_site_fract_z
 _atom_site_occupancy
  Zn  Zn0  1  0.50203000  0.40057000  0.49840000  1.0
  Zn  Zn1  1  0.49727000  0.60003000  0.49923000  1.0
  Zn  Zn2  1  0.50241000  0.59978000  0.04469000  1.0
  Zn  Zn3  1  0.49827000  0.40034000  0.04386000  1.0
  H  H4  1  0.38471000  0.25006000  0.55080000  1.0
  H  H5  1  0.61585000  0.24871000  0.44752000  1.0
  H  H6  1  0.61369000  0.75044000  0.44783000  1.0
  H  H7  1  0.38425000  0.75164000  0.55187000  1.0
  H  H8  1  0.49948000  0.65481000  0.65033000  1.0
  H  H9  1  0.49890000  0.34538000  0.65042000  1.0
  H  H10  1  0.49924000  0.34502000  0.89278000  1.0
  H  H11  1  0.50048000  0.65448000  0.89270000  1.0
  H  H12  1  0.38556000  0.75068000  0.99264000  1.0
  H  H13  1  0.61652000  0.75104000  0.09520000  1.0
  H  H14  1  0.61499000  0.24943000  0.09496000  1.0
  H  H15  1  0.38592000  0.24898000  0.99149000  1.0
  H  H16  1  0.50104000  0.71645000  0.30810000  1.0
  H  H17  1  0.50082000  0.28336000  0.23493000  1.0
  H  H18  1  0.08106000  0.28303000  0.50044000  1.0
  H  H19  1  0.91877000  0.71653000  0.50020000  1.0
  H  H20  1  0.08109000  0.71820000  0.04378000  1.0
  H  H21  1  0.92021000  0.28481000  0.04450000  1.0
  C  C22  1  0.49840000  0.50036000  0.59247000  1.0
  C  C23  1  0.29469000  0.49843000  0.49990000  1.0
  C  C24  1  0.50193000  0.50143000  0.40554000  1.0
  C  C25  1  0.70481000  0.50159000  0.49879000  1.0
  C  C26  1  0.49933000  0.49944000  0.95064000  1.0
  C  C27  1  0.29537000  0.50284000  0.04395000  1.0
  C  C28  1  0.50195000  0.49833000  0.13754000  1.0
  C  C29  1  0.70553000  0.49971000  0.04453000  1.0
  C  C30  1  0.43531000  0.20512000  0.52867000  1.0
  C  C31  1  0.43193000  0.10371000  0.53075000  1.0
  C  C32  1  0.36340000  0.05077000  0.56235000  1.0
  C  C33  1  0.56571000  0.20431000  0.47013000  1.0
  C  C34  1  0.56917000  0.10292000  0.46869000  1.0
  C  C35  1  0.63804000  0.04933000  0.43757000  1.0
  C  C36  1  0.56415000  0.79541000  0.47043000  1.0
  C  C37  1  0.56849000  0.89679000  0.46890000  1.0
  C  C38  1  0.63776000  0.94975000  0.43767000  1.0
  C  C39  1  0.43437000  0.79610000  0.52928000  1.0
  C  C40  1  0.43149000  0.89750000  0.53109000  1.0
  C  C41  1  0.36329000  0.95111000  0.56254000  1.0
  C  C42  1  0.50046000  0.05146000  0.49983000  1.0
  C  C43  1  0.50020000  0.94898000  0.49995000  1.0
  C  C44  1  0.50218000  0.58120000  0.32201000  1.0
  C  C45  1  0.50209000  0.41861000  0.22104000  1.0
  C  C46  1  0.50233000  0.50283000  0.35329000  1.0
  C  C47  1  0.50227000  0.49699000  0.18978000  1.0
  C  C48  1  0.50200000  0.44950000  0.26926000  1.0
  C  C49  1  0.50205000  0.55030000  0.27380000  1.0
  C  C50  1  0.49923000  0.58767000  0.67058000  1.0
  C  C51  1  0.49952000  0.58961000  0.72045000  1.0
  C  C52  1  0.49928000  0.67890000  0.74707000  1.0
  C  C53  1  0.49888000  0.41245000  0.67063000  1.0
  C  C54  1  0.49899000  0.41040000  0.72051000  1.0
  C  C55  1  0.49818000  0.32105000  0.74721000  1.0
  C  C56  1  0.49930000  0.41217000  0.87253000  1.0
  C  C57  1  0.49930000  0.41025000  0.82267000  1.0
  C  C58  1  0.49838000  0.32097000  0.79605000  1.0
  C  C59  1  0.50000000  0.58742000  0.87249000  1.0
  C  C60  1  0.49988000  0.58950000  0.82262000  1.0
  C  C61  1  0.49944000  0.67884000  0.79591000  1.0
  C  C62  1  0.49887000  0.50009000  0.64597000  1.0
  C  C63  1  0.49950000  0.49997000  0.74629000  1.0
  C  C64  1  0.49957000  0.49976000  0.89714000  1.0
  C  C65  1  0.49966000  0.49991000  0.79684000  1.0
  C  C66  1  0.11108000  0.41835000  0.50045000  1.0
  C  C67  1  0.88853000  0.58128000  0.49955000  1.0
  C  C68  1  0.17975000  0.49667000  0.50035000  1.0
  C  C69  1  0.81979000  0.50301000  0.49921000  1.0
  C  C70  1  0.99470000  0.55019000  0.50011000  1.0
  C  C71  1  0.00486000  0.44936000  0.50025000  1.0
  C  C72  1  0.43626000  0.79544000  0.01457000  1.0
  C  C73  1  0.43317000  0.89686000  0.01246000  1.0
  C  C74  1  0.36482000  0.95007000  0.98105000  1.0
  C  C75  1  0.56650000  0.79568000  0.07275000  1.0
  C  C76  1  0.57017000  0.89706000  0.07417000  1.0
  C  C77  1  0.63901000  0.95040000  0.10510000  1.0
  C  C78  1  0.56550000  0.20466000  0.07247000  1.0
  C  C79  1  0.56980000  0.10324000  0.07395000  1.0
  C  C80  1  0.63889000  0.05000000  0.10501000  1.0
  C  C81  1  0.43598000  0.20440000  0.01395000  1.0
  C  C82  1  0.43307000  0.10302000  0.01213000  1.0
  C  C83  1  0.36482000  0.04972000  0.98088000  1.0
  C  C84  1  0.50171000  0.94881000  0.04319000  1.0
  C  C85  1  0.50162000  0.05128000  0.04307000  1.0
  C  C86  1  0.11155000  0.58290000  0.04401000  1.0
  C  C87  1  0.88946000  0.42002000  0.04477000  1.0
  C  C88  1  0.18043000  0.50457000  0.04405000  1.0
  C  C89  1  0.82050000  0.49828000  0.04475000  1.0
  C  C90  1  0.99556000  0.45107000  0.04447000  1.0
  C  C91  1  0.00542000  0.55191000  0.04429000  1.0
  S  S92  1  0.50228000  0.39162000  0.32369000  1.0
  S  S93  1  0.50228000  0.60820000  0.21936000  1.0
  S  S94  1  0.11439000  0.60793000  0.50019000  1.0
  S  S95  1  0.88509000  0.39171000  0.49969000  1.0
  S  S96  1  0.11541000  0.39331000  0.04435000  1.0
  S  S97  1  0.88549000  0.60959000  0.04443000  1.0
  Br  Br98  1  0.27486000  0.88058000  0.60408000  1.0
  Br  Br99  1  0.27507000  0.12195000  0.60361000  1.0
  Br  Br100  1  0.72746000  0.87836000  0.39705000  1.0
  Br  Br101  1  0.72816000  0.12001000  0.39678000  1.0
  Br  Br102  1  0.49781000  0.79731000  0.83029000  1.0
  Br  Br103  1  0.49752000  0.79745000  0.71256000  1.0
  Br  Br104  1  0.49627000  0.20242000  0.83051000  1.0
  Br  Br105  1  0.49566000  0.20260000  0.71283000  1.0
  Br  Br106  1  0.27636000  0.12048000  0.93963000  1.0
  Br  Br107  1  0.27652000  0.87916000  0.94003000  1.0
  Br  Br108  1  0.72865000  0.12096000  0.14539000  1.0
  Br  Br109  1  0.72905000  0.87939000  0.14560000  1.0
  N  N110  1  0.50057000  0.25209000  0.49925000  1.0
  N  N111  1  0.49868000  0.74843000  0.49973000  1.0
  N  N112  1  0.50130000  0.74821000  0.04383000  1.0
  N  N113  1  0.50018000  0.25188000  0.04334000  1.0
  O  O114  1  0.50056000  0.41847000  0.57180000  1.0
  O  O115  1  0.49592000  0.58275000  0.57213000  1.0
  O  O116  1  0.33704000  0.58243000  0.49998000  1.0
  O  O117  1  0.34247000  0.41744000  0.49935000  1.0
  O  O118  1  0.49958000  0.58277000  0.42678000  1.0
  O  O119  1  0.50372000  0.41776000  0.42522000  1.0
  O  O120  1  0.66208000  0.41767000  0.49832000  1.0
  O  O121  1  0.65739000  0.58268000  0.49906000  1.0
  O  O122  1  0.50145000  0.58128000  0.97134000  1.0
  O  O123  1  0.49703000  0.41700000  0.97095000  1.0
  O  O124  1  0.33802000  0.41885000  0.04366000  1.0
  O  O125  1  0.34285000  0.58386000  0.04419000  1.0
  O  O126  1  0.49995000  0.41696000  0.11633000  1.0
  O  O127  1  0.50349000  0.58198000  0.11784000  1.0
  O  O128  1  0.66260000  0.58366000  0.04478000  1.0
  O  O129  1  0.65826000  0.41868000  0.04392000  1.0
  O  O130  1  0.50258000  0.67533000  0.33631000  1.0
  O  O131  1  0.50245000  0.32450000  0.20672000  1.0
  O  O132  1  0.14297000  0.32425000  0.50073000  1.0
  O  O133  1  0.85682000  0.67542000  0.49916000  1.0
  O  O134  1  0.14314000  0.67699000  0.04364000  1.0
  O  O135  1  0.85805000  0.32587000  0.04517000  1.0
