# generated using pymatgen
data_MnH12(C4N5)2
_symmetry_space_group_name_H-M   'P 1'
_cell_length_a   6.24020000
_cell_length_b   6.50512000
_cell_length_c   14.83770000
_cell_angle_alpha   85.75570000
_cell_angle_beta   89.99970000
_cell_angle_gamma   89.99970000
_symmetry_Int_Tables_number   1
_chemical_formula_structural   MnH12(C4N5)2
_chemical_formula_sum   'Mn2 H24 C16 N20'
_cell_volume   600.65865823
_cell_formula_units_Z   2
loop_
 _symmetry_equiv_pos_site_id
 _symmetry_equiv_pos_as_xyz
  1  'x, y, z'
loop_
 _atom_site_type_symbol
 _atom_site_label
 _atom_site_symmetry_multiplicity
 _atom_site_fract_x
 _atom_site_fract_y
 _atom_site_fract_z
 _atom_site_occupancy
  Mn  Mn0  1  0.50000000  0.49998000  0.50000000  1.0
  Mn  Mn1  1  0.00000000  0.00004000  0.00000000  1.0
  H  H2  1  0.31203000  0.33609000  0.30190000  1.0
  H  H3  1  0.81206000  0.16399000  0.19812000  1.0
  H  H4  1  0.68798000  0.66393000  0.69811000  1.0
  H  H5  1  0.18800000  0.83615000  0.80190000  1.0
  H  H6  1  0.86624000  0.68621000  0.34438000  1.0
  H  H7  1  0.36621000  0.81380000  0.15560000  1.0
  H  H8  1  0.13378000  0.31380000  0.65561000  1.0
  H  H9  1  0.63374000  0.18622000  0.84437000  1.0
  H  H10  1  0.82747000  0.63408000  0.16072000  1.0
  H  H11  1  0.32748000  0.86587000  0.33927000  1.0
  H  H12  1  0.17250000  0.36594000  0.83926000  1.0
  H  H13  1  0.67249000  0.13403000  0.66072000  1.0
  H  H14  1  0.34886000  0.27358000  0.13575000  1.0
  H  H15  1  0.84888000  0.22638000  0.36428000  1.0
  H  H16  1  0.65111000  0.72641000  0.86426000  1.0
  H  H17  1  0.15113000  0.77356000  0.63575000  1.0
  H  H18  1  0.59477000  0.34806000  0.08073000  1.0
  H  H19  1  0.09479000  0.15188000  0.41929000  1.0
  H  H20  1  0.40522000  0.65191000  0.91928000  1.0
  H  H21  1  0.90524000  0.84805000  0.58073000  1.0
  H  H22  1  0.38050000  0.52939000  0.08551000  1.0
  H  H23  1  0.88052000  0.97056000  0.41449000  1.0
  H  H24  1  0.61949000  0.47060000  0.91448000  1.0
  H  H25  1  0.11950000  0.02936000  0.58552000  1.0
  C  C26  1  0.45791000  0.42415000  0.29040000  1.0
  C  C27  1  0.95793000  0.07589000  0.20960000  1.0
  C  C28  1  0.54209000  0.57586000  0.70960000  1.0
  C  C29  1  0.04209000  0.92419000  0.79041000  1.0
  C  C30  1  0.74366000  0.60731000  0.30861000  1.0
  C  C31  1  0.24365000  0.89270000  0.19138000  1.0
  C  C32  1  0.25634000  0.39269000  0.69138000  1.0
  C  C33  1  0.75632000  0.10732000  0.80860000  1.0
  C  C34  1  0.72968000  0.57930000  0.21785000  1.0
  C  C35  1  0.22969000  0.92068000  0.28215000  1.0
  C  C36  1  0.27030000  0.42071000  0.78215000  1.0
  C  C37  1  0.77030000  0.07927000  0.71785000  1.0
  C  C38  1  0.46281000  0.39977000  0.12226000  1.0
  C  C39  1  0.96284000  0.10018000  0.37776000  1.0
  C  C40  1  0.53717000  0.60021000  0.87775000  1.0
  C  C41  1  0.03719000  0.89976000  0.62226000  1.0
  N  N42  1  0.57287000  0.51018000  0.35337000  1.0
  N  N43  1  0.07286000  0.98987000  0.14663000  1.0
  N  N44  1  0.42715000  0.48983000  0.64663000  1.0
  N  N45  1  0.92714000  0.01022000  0.85337000  1.0
  N  N46  1  0.54790000  0.46172000  0.20752000  1.0
  N  N47  1  0.04791000  0.03828000  0.29248000  1.0
  N  N48  1  0.45209000  0.53829000  0.79247000  1.0
  N  N49  1  0.95209000  0.96172000  0.70753000  1.0
  N  N50  1  0.58029000  0.83497000  0.49947000  1.0
  N  N51  1  0.08030000  0.66506000  0.00054000  1.0
  N  N52  1  0.41971000  0.16502000  0.50054000  1.0
  N  N53  1  0.91971000  0.33501000  0.99948000  1.0
  N  N54  1  0.50000000  0.99999000  0.50000000  1.0
  N  N55  1  0.00000000  0.50003000  0.00001000  1.0
  N  N56  1  0.16038000  0.57206000  0.46854000  1.0
  N  N57  1  0.66038000  0.92791000  0.03144000  1.0
  N  N58  1  0.83963000  0.42791000  0.53144000  1.0
  N  N59  1  0.33962000  0.07206000  0.96853000  1.0
  N  N60  1  0.99999000  0.49998000  0.49999000  1.0
  N  N61  1  0.50001000  0.99999000  0.99999000  1.0
