# generated using pymatgen
data_Zn2H13C36I3N2(ClO2)4
_symmetry_space_group_name_H-M   'P 1'
_cell_length_a   9.84348000
_cell_length_b   10.63520000
_cell_length_c   13.07156002
_cell_angle_alpha   85.98039299
_cell_angle_beta   74.00701213
_cell_angle_gamma   80.69710000
_symmetry_Int_Tables_number   1
_chemical_formula_structural   Zn2H13C36I3N2(ClO2)4
_chemical_formula_sum   'Zn2 H13 C36 I3 N2 Cl4 O8'
_cell_volume   1297.69011811
_cell_formula_units_Z   1
loop_
 _symmetry_equiv_pos_site_id
 _symmetry_equiv_pos_as_xyz
  1  'x, y, z'
loop_
 _atom_site_type_symbol
 _atom_site_label
 _atom_site_symmetry_multiplicity
 _atom_site_fract_x
 _atom_site_fract_y
 _atom_site_fract_z
 _atom_site_occupancy
  Zn  Zn0  1  0.89035000  0.50086000  0.48911000  1.0
  Zn  Zn1  1  0.19607000  0.45133000  0.49555000  1.0
  H  H2  1  0.79776000  0.24670000  0.47181000  1.0
  H  H3  1  0.51722000  0.13953000  0.89998000  1.0
  H  H4  1  0.63710000  0.57945000  0.86841000  1.0
  H  H5  1  0.16290000  0.79054000  0.24578000  1.0
  H  H6  1  0.49773000  0.71228000  0.95833000  1.0
  H  H7  1  0.60267000  0.16257000  0.42947000  1.0
  H  H8  1  0.61016000  0.92876000  0.41864000  1.0
  H  H9  1  0.80483000  0.78075000  0.46614000  1.0
  H  H10  1  0.21155000  0.82812000  0.58613000  1.0
  H  H11  1  0.60478000  0.34477000  0.12235000  1.0
  H  H12  1  0.82492000  0.56426000  0.27225000  1.0
  H  H13  1  0.28996000  0.20665000  0.02963000  1.0
  H  H14  1  0.60191000  0.52748000  0.63241000  1.0
  C  C15  1  0.04651000  0.25124000  0.50249000  1.0
  C  C16  1  0.19413000  0.60011000  0.18864000  1.0
  C  C17  1  0.80174000  0.14480000  0.46915000  1.0
  C  C18  1  0.11993000  0.55285000  0.29829000  1.0
  C  C19  1  0.69253000  0.09747000  0.44506000  1.0
  C  C20  1  0.69551000  0.96533000  0.44029000  1.0
  C  C21  1  0.80442000  0.88263000  0.46629000  1.0
  C  C22  1  0.91581000  0.92777000  0.49659000  1.0
  C  C23  1  0.91959000  0.06308000  0.49249000  1.0
  C  C24  1  0.03525000  0.11216000  0.51771000  1.0
  C  C25  1  0.13546000  0.02569000  0.55476000  1.0
  C  C26  1  0.38559000  0.55201000  0.02424000  1.0
  C  C27  1  0.13069000  0.89367000  0.55925000  1.0
  C  C28  1  0.02548000  0.84421000  0.53071000  1.0
  C  C29  1  0.51899000  0.36073000  0.29190000  1.0
  C  C30  1  0.03218000  0.70213000  0.53822000  1.0
  C  C31  1  0.60944000  0.38793000  0.19422000  1.0
  C  C32  1  0.71217000  0.46980000  0.18647000  1.0
  C  C33  1  0.73720000  0.51167000  0.27652000  1.0
  C  C34  1  0.64645000  0.48383000  0.37650000  1.0
  C  C35  1  0.52487000  0.42077000  0.38456000  1.0
  C  C36  1  0.44713000  0.46126000  0.56520000  1.0
  C  C37  1  0.26841000  0.51353000  0.10622000  1.0
  C  C38  1  0.57732000  0.50506000  0.56027000  1.0
  C  C39  1  0.82624000  0.42958000  0.72598000  1.0
  C  C40  1  0.54151000  0.23678000  0.89256000  1.0
  C  C41  1  0.69874000  0.39165000  0.81077000  1.0
  C  C42  1  0.21921000  0.72541000  0.18177000  1.0
  C  C43  1  0.32577000  0.76492000  0.09537000  1.0
  C  C44  1  0.41075000  0.67974000  0.02027000  1.0
  C  C45  1  0.47962000  0.45861000  0.95076000  1.0
  C  C46  1  0.44663000  0.33202000  0.95724000  1.0
  C  C47  1  0.31887000  0.30129000  0.03008000  1.0
  C  C48  1  0.23403000  0.38784000  0.10179000  1.0
  C  C49  1  0.60635000  0.48463000  0.87583000  1.0
  C  C50  1  0.66570000  0.26587000  0.82182000  1.0
  I  I51  1  0.29114000  0.45952000  0.71022000  1.0
  I  I52  1  0.39723000  0.21378000  0.30128000  1.0
  I  I53  1  0.30544000  0.06730000  0.61055000  1.0
  N  N54  1  0.42190000  0.41963000  0.47972000  1.0
  N  N55  1  0.67385000  0.51657000  0.46831000  1.0
  Cl  Cl56  1  0.78328000  0.14483000  0.74907000  1.0
  Cl  Cl57  1  0.81203000  0.50913000  0.06185000  1.0
  Cl  Cl58  1  0.35716000  0.92176000  0.08841000  1.0
  Cl  Cl59  1  0.08134000  0.34172000  0.18716000  1.0
  O  O60  1  0.98582000  0.31989000  0.43921000  1.0
  O  O61  1  0.12205000  0.29579000  0.55341000  1.0
  O  O62  1  0.98804000  0.58647000  0.34173000  1.0
  O  O63  1  0.20985000  0.48690000  0.34196000  1.0
  O  O64  1  0.91694000  0.65577000  0.55699000  1.0
  O  O65  1  0.15719000  0.63630000  0.52404000  1.0
  O  O66  1  0.81072000  0.41747000  0.63153000  1.0
  O  O67  1  0.92441000  0.46950000  0.74977000  1.0
