# generated using pymatgen
data_Al3H13C42(I3O7)2
_symmetry_space_group_name_H-M   'P 1'
_cell_length_a   14.52050000
_cell_length_b   14.52480000
_cell_length_c   27.77590000
_cell_angle_alpha   90.48810000
_cell_angle_beta   90.48650000
_cell_angle_gamma   119.48200000
_symmetry_Int_Tables_number   1
_chemical_formula_structural   Al3H13C42(I3O7)2
_chemical_formula_sum   'Al6 H26 C84 I12 O28'
_cell_volume   5098.84660743
_cell_formula_units_Z   2
loop_
 _symmetry_equiv_pos_site_id
 _symmetry_equiv_pos_as_xyz
  1  'x, y, z'
loop_
 _atom_site_type_symbol
 _atom_site_label
 _atom_site_symmetry_multiplicity
 _atom_site_fract_x
 _atom_site_fract_y
 _atom_site_fract_z
 _atom_site_occupancy
  Al  Al0  1  0.49919000  0.20669000  0.50120000  1.0
  Al  Al1  1  0.74109000  0.25921000  0.49808000  1.0
  Al  Al2  1  0.69939000  0.44127000  0.50383000  1.0
  Al  Al3  1  0.20617000  0.49914000  0.00109000  1.0
  Al  Al4  1  0.25892000  0.74105000  0.99805000  1.0
  Al  Al5  1  0.44088000  0.69913000  0.00382000  1.0
  H  H6  1  0.99387000  0.69572000  0.76019000  1.0
  H  H7  1  0.37999000  0.02669000  0.22585000  1.0
  H  H8  1  0.61167000  0.61843000  0.22913000  1.0
  H  H9  1  0.99319000  0.39424000  0.22104000  1.0
  H  H10  1  0.88340000  0.39121000  0.79253000  1.0
  H  H11  1  0.58195000  0.46395000  0.80317000  1.0
  H  H12  1  0.53842000  0.09359000  0.79935000  1.0
  H  H13  1  0.39054000  0.88381000  0.29267000  1.0
  H  H14  1  0.46393000  0.58218000  0.30315000  1.0
  H  H15  1  0.09378000  0.53937000  0.29927000  1.0
  H  H16  1  0.18905000  0.57403000  0.76282000  1.0
  H  H17  1  0.27152000  0.31366000  0.77087000  1.0
  H  H18  1  0.44228000  0.62856000  0.76132000  1.0
  H  H19  1  0.36104000  0.79517000  0.75234000  1.0
  H  H20  1  0.57401000  0.18915000  0.26271000  1.0
  H  H21  1  0.62878000  0.44285000  0.26118000  1.0
  H  H22  1  0.79539000  0.36095000  0.25230000  1.0
  H  H23  1  0.67364000  0.91577000  0.77188000  1.0
  H  H24  1  0.69514000  0.99352000  0.26049000  1.0
  H  H25  1  0.31385000  0.27181000  0.27099000  1.0
  H  H26  1  0.91486000  0.67333000  0.27172000  1.0
  H  H27  1  0.02642000  0.38017000  0.72589000  1.0
  H  H28  1  0.61816000  0.61189000  0.72927000  1.0
  H  H29  1  0.39352000  0.99261000  0.72108000  1.0
  H  H30  1  0.33249000  0.08242000  0.52970000  1.0
  H  H31  1  0.08002000  0.33287000  0.02919000  1.0
  C  C32  1  0.54482000  0.39205000  0.57093000  1.0
  C  C33  1  0.50876000  0.98782000  0.19507000  1.0
  C  C34  1  0.45296000  0.46887000  0.20290000  1.0
  C  C35  1  0.98991000  0.54993000  0.19959000  1.0
  C  C36  1  0.93949000  0.45544000  0.77018000  1.0
  C  C37  1  0.52179000  0.46389000  0.77936000  1.0
  C  C38  1  0.53593000  0.03225000  0.77553000  1.0
  C  C39  1  0.45488000  0.93969000  0.27032000  1.0
  C  C40  1  0.46390000  0.52204000  0.27936000  1.0
  C  C41  1  0.03229000  0.53657000  0.27545000  1.0
  C  C42  1  0.91049000  0.51716000  0.73296000  1.0
  C  C43  1  0.60411000  0.12253000  0.56781000  1.0
  C  C44  1  0.44638000  0.37124000  0.74491000  1.0
  C  C45  1  0.62895000  0.04269000  0.74400000  1.0
  C  C46  1  0.51655000  0.91037000  0.23321000  1.0
  C  C47  1  0.37113000  0.44651000  0.24498000  1.0
  C  C48  1  0.04231000  0.62934000  0.24388000  1.0
  C  C49  1  0.05457000  0.58465000  0.84098000  1.0
  C  C50  1  0.40717000  0.48909000  0.84611000  1.0
  C  C51  1  0.49540000  0.89083000  0.84231000  1.0
  C  C52  1  0.58417000  0.05476000  0.34111000  1.0
  C  C53  1  0.48947000  0.40765000  0.34609000  1.0
  C  C54  1  0.85951000  0.42925000  0.56195000  1.0
  C  C55  1  0.89067000  0.49559000  0.34220000  1.0
  C  C56  1  0.95894000  0.48328000  0.64614000  1.0
  C  C57  1  0.49190000  0.43844000  0.65527000  1.0
  C  C58  1  0.56884000  0.02851000  0.65234000  1.0
  C  C59  1  0.48293000  0.95845000  0.14628000  1.0
  C  C60  1  0.43790000  0.49184000  0.15527000  1.0
  C  C61  1  0.02821000  0.56901000  0.15223000  1.0
  C  C62  1  0.53688000  0.38129000  0.43529000  1.0
  C  C63  1  0.60243000  0.12015000  0.43171000  1.0
  C  C64  1  0.83081000  0.43493000  0.43164000  1.0
  C  C65  1  0.39102000  0.54433000  0.07094000  1.0
  C  C66  1  0.38114000  0.53684000  0.93529000  1.0
  C  C67  1  0.12001000  0.60252000  0.93155000  1.0
  C  C68  1  0.43456000  0.83091000  0.93172000  1.0
  C  C69  1  0.07871000  0.61824000  0.71654000  1.0
  C  C70  1  0.37013000  0.46201000  0.72139000  1.0
  C  C71  1  0.53168000  0.87921000  0.71785000  1.0
  C  C72  1  0.61795000  0.07842000  0.21665000  1.0
  C  C73  1  0.46201000  0.37041000  0.22140000  1.0
  C  C74  1  0.87885000  0.53147000  0.21773000  1.0
  C  C75  1  0.00069000  0.62538000  0.75288000  1.0
  C  C76  1  0.12187000  0.60425000  0.06761000  1.0
  C  C77  1  0.34868000  0.37983000  0.76181000  1.0
  C  C78  1  0.61140000  0.93302000  0.76089000  1.0
  C  C79  1  0.62488000  0.00048000  0.25310000  1.0
  C  C80  1  0.37995000  0.34897000  0.26188000  1.0
  C  C81  1  0.93243000  0.61132000  0.26075000  1.0
  C  C82  1  0.07696000  0.59235000  0.88375000  1.0
  C  C83  1  0.40019000  0.50904000  0.88814000  1.0
  C  C84  1  0.47034000  0.86919000  0.88423000  1.0
  C  C85  1  0.59194000  0.07709000  0.38388000  1.0
  C  C86  1  0.50938000  0.40059000  0.38812000  1.0
  C  C87  1  0.42910000  0.85892000  0.06209000  1.0
  C  C88  1  0.86904000  0.47053000  0.38413000  1.0
  C  C89  1  0.92258000  0.46300000  0.60527000  1.0
  C  C90  1  0.51290000  0.41904000  0.61541000  1.0
  C  C91  1  0.58837000  0.06756000  0.61254000  1.0
  C  C92  1  0.46269000  0.92187000  0.10544000  1.0
  C  C93  1  0.41817000  0.51260000  0.11543000  1.0
  C  C94  1  0.06705000  0.58847000  0.11239000  1.0
  C  C95  1  0.10892000  0.55722000  0.75381000  1.0
  C  C96  1  0.44430000  0.55507000  0.75610000  1.0
  C  C97  1  0.43786000  0.86662000  0.74968000  1.0
  C  C98  1  0.98805000  0.50913000  0.69495000  1.0
  C  C99  1  0.55702000  0.10895000  0.25382000  1.0
  C  C100  1  0.55520000  0.44474000  0.25603000  1.0
  C  C101  1  0.86667000  0.43789000  0.24959000  1.0
  C  C102  1  0.03055000  0.56414000  0.79127000  1.0
  C  C103  1  0.42344000  0.47285000  0.79746000  1.0
  C  C104  1  0.51759000  0.92128000  0.79366000  1.0
  C  C105  1  0.56367000  0.03064000  0.29140000  1.0
  C  C106  1  0.47310000  0.42386000  0.29745000  1.0
  C  C107  1  0.92110000  0.51774000  0.29355000  1.0
  C  C108  1  0.01815000  0.44949000  0.73387000  1.0
  C  C109  1  0.46873000  0.45320000  0.70290000  1.0
  C  C110  1  0.54155000  0.54579000  0.73910000  1.0
  C  C111  1  0.45613000  0.97648000  0.73288000  1.0
  C  C112  1  0.44922000  0.01829000  0.23389000  1.0
  C  C113  1  0.54567000  0.54182000  0.23903000  1.0
  C  C114  1  0.97676000  0.45664000  0.23282000  1.0
  C  C115  1  0.54967000  0.99007000  0.69968000  1.0
  I  I116  1  0.18436000  0.74326000  0.67228000  1.0
  I  I117  1  0.48165000  0.75563000  0.21347000  1.0
  I  I118  1  0.22632000  0.44600000  0.23492000  1.0
  I  I119  1  0.17790000  0.77956000  0.23739000  1.0
  I  I120  1  0.25376000  0.45813000  0.67353000  1.0
  I  I121  1  0.53105000  0.76642000  0.66879000  1.0
  I  I122  1  0.74315000  0.18377000  0.17237000  1.0
  I  I123  1  0.45789000  0.25392000  0.17354000  1.0
  I  I124  1  0.76585000  0.53022000  0.16858000  1.0
  I  I125  1  0.75591000  0.48262000  0.71303000  1.0
  I  I126  1  0.44620000  0.22667000  0.73472000  1.0
  I  I127  1  0.77888000  0.17876000  0.73761000  1.0
  O  O128  1  0.52543000  0.12827000  0.55160000  1.0
  O  O129  1  0.29740000  0.49135000  0.05518000  1.0
  O  O130  1  0.16299000  0.69682000  0.04917000  1.0
  O  O131  1  0.47861000  0.80977000  0.05089000  1.0
  O  O132  1  0.52618000  0.12886000  0.44778000  1.0
  O  O133  1  0.82193000  0.34698000  0.44483000  1.0
  O  O134  1  0.61643000  0.45913000  0.45682000  1.0
  O  O135  1  0.12903000  0.52629000  0.94738000  1.0
  O  O136  1  0.34639000  0.82180000  0.94478000  1.0
  O  O137  1  0.45902000  0.61691000  0.95654000  1.0
  O  O138  1  0.48278000  0.28864000  0.45092000  1.0
  O  O139  1  0.85290000  0.34885000  0.53921000  1.0
  O  O140  1  0.69233000  0.15053000  0.45358000  1.0
  O  O141  1  0.80459000  0.49289000  0.45666000  1.0
  O  O142  1  0.28875000  0.48249000  0.95119000  1.0
  O  O143  1  0.14997000  0.69206000  0.95366000  1.0
  O  O144  1  0.49246000  0.80485000  0.95686000  1.0
  O  O145  1  0.64783000  0.30321000  0.50140000  1.0
  O  O146  1  0.30280000  0.64770000  0.00136000  1.0
  O  O147  1  0.62930000  0.46772000  0.55215000  1.0
  O  O148  1  0.12694000  0.52544000  0.05111000  1.0
  O  O149  1  0.34904000  0.85269000  0.03918000  1.0
  O  O150  1  0.46691000  0.62823000  0.05189000  1.0
  O  O151  1  0.49141000  0.29870000  0.55492000  1.0
  O  O152  1  0.69644000  0.16302000  0.54913000  1.0
  O  O153  1  0.81062000  0.47893000  0.55062000  1.0
  O  O154  1  0.36287000  0.11984000  0.50031000  1.0
  O  O155  1  0.11926000  0.36285000  0.00016000  1.0
