# generated using pymatgen
data_Zn2H4C9O7
_symmetry_space_group_name_H-M   'P 1'
_cell_length_a   11.50130000
_cell_length_b   16.48050000
_cell_length_c   16.48050000
_cell_angle_alpha   90.00010000
_cell_angle_beta   89.99980000
_cell_angle_gamma   90.00000000
_symmetry_Int_Tables_number   1
_chemical_formula_structural   Zn2H4C9O7
_chemical_formula_sum   'Zn16 H32 C72 O56'
_cell_volume   3123.83221180
_cell_formula_units_Z   8
loop_
 _symmetry_equiv_pos_site_id
 _symmetry_equiv_pos_as_xyz
  1  'x, y, z'
loop_
 _atom_site_type_symbol
 _atom_site_label
 _atom_site_symmetry_multiplicity
 _atom_site_fract_x
 _atom_site_fract_y
 _atom_site_fract_z
 _atom_site_occupancy
  Zn  Zn0  1  0.13916000  0.37664000  0.35788000  1.0
  Zn  Zn1  1  0.13916000  0.62336000  0.64212000  1.0
  Zn  Zn2  1  0.13916000  0.64212000  0.37664000  1.0
  Zn  Zn3  1  0.13916000  0.35788000  0.62336000  1.0
  Zn  Zn4  1  0.36084000  0.12336000  0.85789000  1.0
  Zn  Zn5  1  0.36084000  0.87664000  0.14211000  1.0
  Zn  Zn6  1  0.36084000  0.85788000  0.87664000  1.0
  Zn  Zn7  1  0.36084000  0.14212000  0.12336000  1.0
  Zn  Zn8  1  0.86084000  0.62336000  0.64211000  1.0
  Zn  Zn9  1  0.86084000  0.37664000  0.35789000  1.0
  Zn  Zn10  1  0.86084000  0.35788000  0.62336000  1.0
  Zn  Zn11  1  0.86084000  0.64212000  0.37664000  1.0
  Zn  Zn12  1  0.63916000  0.87664000  0.14212000  1.0
  Zn  Zn13  1  0.63916000  0.12336000  0.85788000  1.0
  Zn  Zn14  1  0.63916000  0.14211000  0.12336000  1.0
  Zn  Zn15  1  0.63916000  0.85788000  0.87664000  1.0
  H  H16  1  0.18640000  0.15543000  0.24454000  1.0
  H  H17  1  0.18641000  0.84457000  0.75546000  1.0
  H  H18  1  0.18640000  0.75546000  0.15544000  1.0
  H  H19  1  0.18641000  0.24454000  0.84457000  1.0
  H  H20  1  0.31359000  0.34457000  0.74454000  1.0
  H  H21  1  0.31360000  0.65544000  0.25546000  1.0
  H  H22  1  0.31360000  0.74454000  0.65543000  1.0
  H  H23  1  0.31360000  0.25546000  0.34457000  1.0
  H  H24  1  0.81359000  0.84456000  0.75546000  1.0
  H  H25  1  0.81359000  0.15543000  0.24454000  1.0
  H  H26  1  0.81360000  0.24454000  0.84457000  1.0
  H  H27  1  0.81359000  0.75546000  0.15543000  1.0
  H  H28  1  0.68641000  0.65543000  0.25546000  1.0
  H  H29  1  0.68641000  0.34456000  0.74454000  1.0
  H  H30  1  0.68641000  0.25546000  0.34457000  1.0
  H  H31  1  0.68640000  0.74454000  0.65544000  1.0
  H  H32  1  0.00000000  0.48678000  0.40288000  1.0
  H  H33  1  0.00000000  0.93864000  0.17591000  1.0
  H  H34  1  0.00000000  0.51322000  0.59712000  1.0
  H  H35  1  0.00000000  0.06136000  0.82409000  1.0
  H  H36  1  0.00000000  0.59713000  0.48678000  1.0
  H  H37  1  0.00000000  0.82409000  0.93864000  1.0
  H  H38  1  0.00000000  0.40288000  0.51322000  1.0
  H  H39  1  0.00000000  0.17591000  0.06136000  1.0
  H  H40  1  0.50000000  0.01322000  0.90288000  1.0
  H  H41  1  0.50000000  0.56135000  0.67591000  1.0
  H  H42  1  0.50000000  0.98678000  0.09712000  1.0
  H  H43  1  0.50000000  0.43865000  0.32409000  1.0
  H  H44  1  0.50000000  0.90287000  0.98678000  1.0
  H  H45  1  0.50001000  0.67591000  0.43864000  1.0
  H  H46  1  0.50000000  0.09712000  0.01322000  1.0
  H  H47  1  0.50000000  0.32409000  0.56136000  1.0
  C  C48  1  0.10527000  0.12299000  0.23412000  1.0
  C  C49  1  0.10552000  0.04230000  0.20762000  1.0
  C  C50  1  0.21720000  0.99998000  0.18964000  1.0
  C  C51  1  0.10527000  0.87701000  0.76588000  1.0
  C  C52  1  0.10551000  0.95770000  0.79239000  1.0
  C  C53  1  0.21720000  0.00003000  0.81035000  1.0
  C  C54  1  0.10527000  0.76587000  0.12299000  1.0
  C  C55  1  0.10551000  0.79238000  0.04230000  1.0
  C  C56  1  0.21720000  0.81035000  0.99997000  1.0
  C  C57  1  0.10527000  0.23413000  0.87701000  1.0
  C  C58  1  0.10552000  0.20762000  0.95770000  1.0
  C  C59  1  0.21720000  0.18965000  0.00002000  1.0
  C  C60  1  0.39473000  0.37701000  0.73412000  1.0
  C  C61  1  0.39448000  0.45770000  0.70761000  1.0
  C  C62  1  0.28280000  0.50003000  0.68965000  1.0
  C  C63  1  0.39473000  0.62299000  0.26587000  1.0
  C  C64  1  0.39448000  0.54230000  0.29238000  1.0
  C  C65  1  0.28280000  0.49998000  0.31035000  1.0
  C  C66  1  0.39473000  0.73412000  0.62299000  1.0
  C  C67  1  0.39449000  0.70762000  0.54230000  1.0
  C  C68  1  0.28280000  0.68965000  0.49997000  1.0
  C  C69  1  0.39473000  0.26588000  0.37701000  1.0
  C  C70  1  0.39448000  0.29238000  0.45770000  1.0
  C  C71  1  0.28280000  0.31035000  0.50003000  1.0
  C  C72  1  0.89473000  0.87701000  0.76588000  1.0
  C  C73  1  0.89448000  0.95770000  0.79238000  1.0
  C  C74  1  0.78279000  0.00002000  0.81035000  1.0
  C  C75  1  0.89473000  0.12299000  0.23412000  1.0
  C  C76  1  0.89448000  0.04230000  0.20762000  1.0
  C  C77  1  0.78280000  0.99997000  0.18965000  1.0
  C  C78  1  0.89473000  0.23413000  0.87701000  1.0
  C  C79  1  0.89449000  0.20762000  0.95770000  1.0
  C  C80  1  0.78280000  0.18965000  0.00003000  1.0
  C  C81  1  0.89472000  0.76588000  0.12299000  1.0
  C  C82  1  0.89449000  0.79239000  0.04230000  1.0
  C  C83  1  0.78279000  0.81036000  0.99998000  1.0
  C  C84  1  0.60528000  0.62299000  0.26588000  1.0
  C  C85  1  0.60552000  0.54230000  0.29239000  1.0
  C  C86  1  0.71720000  0.49998000  0.31036000  1.0
  C  C87  1  0.60527000  0.37701000  0.73412000  1.0
  C  C88  1  0.60552000  0.45770000  0.70761000  1.0
  C  C89  1  0.71720000  0.50002000  0.68965000  1.0
  C  C90  1  0.60527000  0.26588000  0.37701000  1.0
  C  C91  1  0.60552000  0.29239000  0.45770000  1.0
  C  C92  1  0.71720000  0.31035000  0.50003000  1.0
  C  C93  1  0.60528000  0.73412000  0.62299000  1.0
  C  C94  1  0.60552000  0.70762000  0.54230000  1.0
  C  C95  1  0.71721000  0.68965000  0.49997000  1.0
  C  C96  1  0.99999000  0.16307000  0.24813000  1.0
  C  C97  1  0.00000000  0.00165000  0.19569000  1.0
  C  C98  1  0.00000000  0.24859000  0.27862000  1.0
  C  C99  1  0.00000000  0.83693000  0.75187000  1.0
  C  C100  1  0.00000000  0.99834000  0.80431000  1.0
  C  C101  1  0.00000000  0.75141000  0.72138000  1.0
  C  C102  1  0.00000000  0.75187000  0.16307000  1.0
  C  C103  1  0.00000000  0.80431000  0.00166000  1.0
  C  C104  1  0.99999000  0.72138000  0.24859000  1.0
  C  C105  1  0.00000000  0.24813000  0.83693000  1.0
  C  C106  1  0.00000000  0.19570000  0.99835000  1.0
  C  C107  1  0.00000000  0.27862000  0.75141000  1.0
  C  C108  1  0.50000000  0.33693000  0.74812000  1.0
  C  C109  1  0.50000000  0.49834000  0.69569000  1.0
  C  C110  1  0.50000000  0.25141000  0.77862000  1.0
  C  C111  1  0.50000000  0.66307000  0.25187000  1.0
  C  C112  1  0.50000000  0.50166000  0.30431000  1.0
  C  C113  1  0.50000000  0.74859000  0.22138000  1.0
  C  C114  1  0.50000000  0.74813000  0.66307000  1.0
  C  C115  1  0.50000000  0.69569000  0.50165000  1.0
  C  C116  1  0.50000000  0.77861000  0.74859000  1.0
  C  C117  1  0.50001000  0.25187000  0.33693000  1.0
  C  C118  1  0.50000000  0.30431000  0.49835000  1.0
  C  C119  1  0.50000000  0.22138000  0.25141000  1.0
  O  O120  1  0.09886000  0.28152000  0.29059000  1.0
  O  O121  1  0.31146000  0.03924000  0.18041000  1.0
  O  O122  1  0.21443000  0.92243000  0.18338000  1.0
  O  O123  1  0.09886000  0.71847000  0.70942000  1.0
  O  O124  1  0.31146000  0.96075000  0.81958000  1.0
  O  O125  1  0.21443000  0.07757000  0.81662000  1.0
  O  O126  1  0.09886000  0.70941000  0.28152000  1.0
  O  O127  1  0.31146000  0.81958000  0.03924000  1.0
  O  O128  1  0.21443000  0.81662000  0.92243000  1.0
  O  O129  1  0.09886000  0.29059000  0.71848000  1.0
  O  O130  1  0.31147000  0.18042000  0.96075000  1.0
  O  O131  1  0.21443000  0.18338000  0.07757000  1.0
  O  O132  1  0.40113000  0.21848000  0.79059000  1.0
  O  O133  1  0.18854000  0.46075000  0.68042000  1.0
  O  O134  1  0.28557000  0.57757000  0.68338000  1.0
  O  O135  1  0.40114000  0.78152000  0.20941000  1.0
  O  O136  1  0.18854000  0.53925000  0.31958000  1.0
  O  O137  1  0.28557000  0.42243000  0.31662000  1.0
  O  O138  1  0.40114000  0.79058000  0.78153000  1.0
  O  O139  1  0.18854000  0.68041000  0.53924000  1.0
  O  O140  1  0.28557000  0.68338000  0.42243000  1.0
  O  O141  1  0.40114000  0.20942000  0.21848000  1.0
  O  O142  1  0.18854000  0.31959000  0.46075000  1.0
  O  O143  1  0.28557000  0.31662000  0.57757000  1.0
  O  O144  1  0.90114000  0.71848000  0.70941000  1.0
  O  O145  1  0.68853000  0.96075000  0.81958000  1.0
  O  O146  1  0.78557000  0.07757000  0.81662000  1.0
  O  O147  1  0.90113000  0.28152000  0.29059000  1.0
  O  O148  1  0.68854000  0.03924000  0.18041000  1.0
  O  O149  1  0.78557000  0.92243000  0.18339000  1.0
  O  O150  1  0.90114000  0.29059000  0.71848000  1.0
  O  O151  1  0.68854000  0.18041000  0.96076000  1.0
  O  O152  1  0.78557000  0.18338000  0.07757000  1.0
  O  O153  1  0.90113000  0.70941000  0.28152000  1.0
  O  O154  1  0.68854000  0.81959000  0.03924000  1.0
  O  O155  1  0.78557000  0.81662000  0.92243000  1.0
  O  O156  1  0.59887000  0.78152000  0.20942000  1.0
  O  O157  1  0.81146000  0.53924000  0.31959000  1.0
  O  O158  1  0.71443000  0.42243000  0.31662000  1.0
  O  O159  1  0.59886000  0.21848000  0.79059000  1.0
  O  O160  1  0.81146000  0.46076000  0.68041000  1.0
  O  O161  1  0.71443000  0.57757000  0.68338000  1.0
  O  O162  1  0.59887000  0.20941000  0.21848000  1.0
  O  O163  1  0.81146000  0.31959000  0.46076000  1.0
  O  O164  1  0.71443000  0.31662000  0.57757000  1.0
  O  O165  1  0.59886000  0.79058000  0.78152000  1.0
  O  O166  1  0.81147000  0.68042000  0.53924000  1.0
  O  O167  1  0.71443000  0.68339000  0.42243000  1.0
  O  O168  1  0.00000000  0.42647000  0.40359000  1.0
  O  O169  1  0.00000000  0.57353000  0.59641000  1.0
  O  O170  1  0.00000000  0.59641000  0.42647000  1.0
  O  O171  1  0.00000000  0.40359000  0.57353000  1.0
  O  O172  1  0.50000000  0.07353000  0.90359000  1.0
  O  O173  1  0.50000000  0.92647000  0.09641000  1.0
  O  O174  1  0.50000000  0.90359000  0.92647000  1.0
  O  O175  1  0.50000000  0.09641000  0.07353000  1.0
