# generated using pymatgen
data_NaBH16C12(SN2)3
_symmetry_space_group_name_H-M   'P 1'
_cell_length_a   7.95786000
_cell_length_b   10.04970000
_cell_length_c   11.35540000
_cell_angle_alpha   79.67820000
_cell_angle_beta   82.44470000
_cell_angle_gamma   70.58230000
_symmetry_Int_Tables_number   1
_chemical_formula_structural   NaBH16C12(SN2)3
_chemical_formula_sum   'Na2 B2 H32 C24 S6 N12'
_cell_volume   840.08778839
_cell_formula_units_Z   2
loop_
 _symmetry_equiv_pos_site_id
 _symmetry_equiv_pos_as_xyz
  1  'x, y, z'
loop_
 _atom_site_type_symbol
 _atom_site_label
 _atom_site_symmetry_multiplicity
 _atom_site_fract_x
 _atom_site_fract_y
 _atom_site_fract_z
 _atom_site_occupancy
  Na  Na0  1  0.19223000  0.54357000  0.54668000  1.0
  Na  Na1  1  0.80777000  0.45643000  0.45332000  1.0
  B  B2  1  0.25940000  0.36809000  0.28610000  1.0
  B  B3  1  0.74060000  0.63191000  0.71390000  1.0
  H  H4  1  0.35399000  0.41686000  0.03416000  1.0
  H  H5  1  0.64601000  0.58314000  0.96584000  1.0
  H  H6  1  0.15000000  0.34296000  0.88964000  1.0
  H  H7  1  0.85000000  0.65703000  0.11036000  1.0
  H  H8  1  0.85607000  0.16208000  0.09794000  1.0
  H  H9  1  0.14392000  0.83792000  0.90206000  1.0
  H  H10  1  0.95135000  0.18403000  0.94490000  1.0
  H  H11  1  0.04865000  0.81597000  0.05510000  1.0
  H  H12  1  0.76944000  0.32414000  0.99970000  1.0
  H  H13  1  0.23056000  0.67586000  0.00030000  1.0
  H  H14  1  0.44456000  0.13263000  0.15447000  1.0
  H  H15  1  0.55544000  0.86738000  0.84553000  1.0
  H  H16  1  0.71304000  0.91883000  0.27745000  1.0
  H  H17  1  0.28696000  0.08117000  0.72255000  1.0
  H  H18  1  0.85492000  0.05016000  0.49985000  1.0
  H  H19  1  0.14509000  0.94984000  0.50015000  1.0
  H  H20  1  0.84071000  0.88606000  0.46691000  1.0
  H  H21  1  0.15929000  0.11394000  0.53309000  1.0
  H  H22  1  0.69167000  0.97612000  0.58069000  1.0
  H  H23  1  0.30832000  0.02388000  0.41931000  1.0
  H  H24  1  0.59201000  0.43197000  0.21010000  1.0
  H  H25  1  0.40799000  0.56803000  0.78990000  1.0
  H  H26  1  0.54993000  0.72234000  0.17637000  1.0
  H  H27  1  0.45007000  0.27766000  0.82363000  1.0
  H  H28  1  0.17778000  0.94602000  0.14261000  1.0
  H  H29  1  0.82223000  0.05398000  0.85739000  1.0
  H  H30  1  0.29565000  0.92526000  0.27235000  1.0
  H  H31  1  0.70435000  0.07474000  0.72765000  1.0
  H  H32  1  0.07501000  0.91194000  0.28928000  1.0
  H  H33  1  0.92499000  0.08806000  0.71071000  1.0
  H  H34  1  0.15636000  0.37109000  0.37446000  1.0
  H  H35  1  0.84364000  0.62892000  0.62554000  1.0
  C  C36  1  0.24243000  0.37587000  0.05778000  1.0
  C  C37  1  0.75757000  0.62413000  0.94222000  1.0
  C  C38  1  0.14702000  0.33706000  0.98647000  1.0
  C  C39  1  0.85299000  0.66294000  0.01353000  1.0
  C  C40  1  0.03574000  0.30005000  0.17936000  1.0
  C  C41  1  0.96426000  0.69995000  0.82065000  1.0
  C  C42  1  0.89163000  0.23667000  0.02380000  1.0
  C  C43  1  0.10837000  0.76333000  0.97620000  1.0
  C  C44  1  0.49678000  0.12771000  0.23900000  1.0
  C  C45  1  0.50322000  0.87229000  0.76100000  1.0
  C  C46  1  0.62757000  0.02221000  0.29856000  1.0
  C  C47  1  0.37243000  0.97779000  0.70144000  1.0
  C  C48  1  0.52097000  0.20291000  0.40864000  1.0
  C  C49  1  0.47903000  0.79709000  0.59136000  1.0
  C  C50  1  0.76446000  0.99046000  0.49312000  1.0
  C  C51  1  0.23554000  0.00954000  0.50689000  1.0
  C  C52  1  0.47275000  0.52373000  0.21733000  1.0
  C  C53  1  0.52725000  0.47627000  0.78267000  1.0
  C  C54  1  0.45355000  0.66574000  0.20199000  1.0
  C  C55  1  0.54645000  0.33426000  0.79800000  1.0
  C  C56  1  0.18570000  0.63934000  0.26984000  1.0
  C  C57  1  0.81430000  0.36066000  0.73016000  1.0
  C  C58  1  0.20191000  0.88915000  0.23413000  1.0
  C  C59  1  0.79809000  0.11085000  0.76587000  1.0
  S  S60  1  0.90506000  0.25323000  0.29765000  1.0
  S  S61  1  0.09494000  0.74677000  0.70235000  1.0
  S  S62  1  0.50125000  0.30090000  0.51965000  1.0
  S  S63  1  0.49875000  0.69910000  0.48035000  1.0
  S  S64  1  0.96765000  0.67613000  0.32393000  1.0
  S  S65  1  0.03235000  0.32387000  0.67607000  1.0
  N  N66  1  0.17458000  0.35307000  0.17624000  1.0
  N  N67  1  0.82542000  0.64693000  0.82376000  1.0
  N  N68  1  0.02103000  0.28930000  0.06213000  1.0
  N  N69  1  0.97897000  0.71069000  0.93787000  1.0
  N  N70  1  0.42997000  0.23873000  0.30715000  1.0
  N  N71  1  0.57003000  0.76127000  0.69285000  1.0
  N  N72  1  0.63998000  0.06877000  0.40336000  1.0
  N  N73  1  0.36002000  0.93123000  0.59664000  1.0
  N  N74  1  0.30735000  0.50824000  0.25840000  1.0
  N  N75  1  0.69264000  0.49176000  0.74160000  1.0
  N  N76  1  0.27634000  0.73650000  0.23371000  1.0
  N  N77  1  0.72367000  0.26350000  0.76629000  1.0
