# generated using pymatgen
data_ZnH19C25Br(NO)4
_symmetry_space_group_name_H-M   'P 1'
_cell_length_a   9.53972000
_cell_length_b   10.31100000
_cell_length_c   13.67690000
_cell_angle_alpha   73.37530000
_cell_angle_beta   79.56330000
_cell_angle_gamma   65.69650000
_symmetry_Int_Tables_number   1
_chemical_formula_structural   ZnH19C25Br(NO)4
_chemical_formula_sum   'Zn2 H38 C50 Br2 N8 O8'
_cell_volume   1171.73948782
_cell_formula_units_Z   2
loop_
 _symmetry_equiv_pos_site_id
 _symmetry_equiv_pos_as_xyz
  1  'x, y, z'
loop_
 _atom_site_type_symbol
 _atom_site_label
 _atom_site_symmetry_multiplicity
 _atom_site_fract_x
 _atom_site_fract_y
 _atom_site_fract_z
 _atom_site_occupancy
  Zn  Zn0  1  0.82439000  0.38026000  0.24693000  1.0
  Zn  Zn1  1  0.17561000  0.61973000  0.75307000  1.0
  H  H2  1  0.86603000  0.85001000  0.27839000  1.0
  H  H3  1  0.13396000  0.14999000  0.72161000  1.0
  H  H4  1  0.75204000  0.78958000  0.00820000  1.0
  H  H5  1  0.24796000  0.21041000  0.99180000  1.0
  H  H6  1  0.80030000  0.19155000  0.00249000  1.0
  H  H7  1  0.19969000  0.80846000  0.99751000  1.0
  H  H8  1  0.46860000  0.56532000  0.20399000  1.0
  H  H9  1  0.53140000  0.43468000  0.79600000  1.0
  H  H10  1  0.18287000  0.63444000  0.23327000  1.0
  H  H11  1  0.81713000  0.36556000  0.76673000  1.0
  H  H12  1  0.06468000  0.54116000  0.39784000  1.0
  H  H13  1  0.93532000  0.45885000  0.60216000  1.0
  H  H14  1  0.22501000  0.38105000  0.54670000  1.0
  H  H15  1  0.77499000  0.61895000  0.45330000  1.0
  H  H16  1  0.80315000  0.23485000  0.49149000  1.0
  H  H17  1  0.19685000  0.76515000  0.50851000  1.0
  H  H18  1  0.46803000  0.29419000  0.66666667  1.0
  H  H19  1  0.53197000  0.70581000  0.33333333  1.0
  H  H20  1  0.66256000  0.17357000  0.65210000  1.0
  H  H21  1  0.33744000  0.82643000  0.34789000  1.0
  H  H22  1  0.46386000  0.05494000  0.72130000  1.0
  H  H23  1  0.53614000  0.94506000  0.27870000  1.0
  H  H24  1  0.38243000  0.13343000  0.60313000  1.0
  H  H25  1  0.61757000  0.86657000  0.39687000  1.0
  H  H26  1  0.54276000  0.89709000  0.58410000  1.0
  H  H27  1  0.45724000  0.10290000  0.41590000  1.0
  H  H28  1  0.66732000  0.99072000  0.52600000  1.0
  H  H29  1  0.33268000  0.00928000  0.47400000  1.0
  H  H30  1  0.92995000  0.87106000  0.58964000  1.0
  H  H31  1  0.07005000  0.12893000  0.41036000  1.0
  H  H32  1  0.44207000  0.82615000  0.78448000  1.0
  H  H33  1  0.55792000  0.17385000  0.21552000  1.0
  H  H34  1  0.46285000  0.64140000  0.94892000  1.0
  H  H35  1  0.53714000  0.35860000  0.05108000  1.0
  H  H36  1  0.71849000  0.47815000  0.01739000  1.0
  H  H37  1  0.28151000  0.52185000  0.98262000  1.0
  H  H38  1  0.96048000  0.49672000  0.92247000  1.0
  H  H39  1  0.03951000  0.50328000  0.07754000  1.0
  C  C40  1  0.84427000  0.12847000  0.20666000  1.0
  C  C41  1  0.15573000  0.87154000  0.79334000  1.0
  C  C42  1  0.83394000  0.03086000  0.14685000  1.0
  C  C43  1  0.16606000  0.96914000  0.85314000  1.0
  C  C44  1  0.84100000  0.89056000  0.19821000  1.0
  C  C45  1  0.15900000  0.10945000  0.80179000  1.0
  C  C46  1  0.81122000  0.80396000  0.14902000  1.0
  C  C47  1  0.18879000  0.19604000  0.85098000  1.0
  C  C48  1  0.77738000  0.85630000  0.04602000  1.0
  C  C49  1  0.22262000  0.14369000  0.95397000  1.0
  C  C50  1  0.77621000  0.99453000  0.99493000  1.0
  C  C51  1  0.22379000  0.00547000  0.00507000  1.0
  C  C52  1  0.80390000  0.08288000  0.04314000  1.0
  C  C53  1  0.19610000  0.91712000  0.95686000  1.0
  C  C54  1  0.81250000  0.65686000  0.20922000  1.0
  C  C55  1  0.18751000  0.34314000  0.79078000  1.0
  C  C56  1  0.50655000  0.42946000  0.35845000  1.0
  C  C57  1  0.49344000  0.57054000  0.64155000  1.0
  C  C58  1  0.41614000  0.52378000  0.27731000  1.0
  C  C59  1  0.58387000  0.47622000  0.72268000  1.0
  C  C60  1  0.25738000  0.56207000  0.29461000  1.0
  C  C61  1  0.74262000  0.43794000  0.70539000  1.0
  C  C62  1  0.18955000  0.50889000  0.38971000  1.0
  C  C63  1  0.81045000  0.49111000  0.61028000  1.0
  C  C64  1  0.27779000  0.41641000  0.47172000  1.0
  C  C65  1  0.72221000  0.58359000  0.52828000  1.0
  C  C66  1  0.43736000  0.37764000  0.45392000  1.0
  C  C67  1  0.56264000  0.62236000  0.54608000  1.0
  C  C68  1  0.69119000  0.29262000  0.46000000  1.0
  C  C69  1  0.30881000  0.70738000  0.54000000  1.0
  C  C70  1  0.54782000  0.21411000  0.62377000  1.0
  C  C71  1  0.45218000  0.78589000  0.37623000  1.0
  C  C72  1  0.49173000  0.09024000  0.63907000  1.0
  C  C73  1  0.50827000  0.90976000  0.36093000  1.0
  C  C74  1  0.60534000  0.95775000  0.59863000  1.0
  C  C75  1  0.39466000  0.04225000  0.40137000  1.0
  C  C76  1  0.87567000  0.81618000  0.65530000  1.0
  C  C77  1  0.12433000  0.18381000  0.34471000  1.0
  C  C78  1  0.83660000  0.67320000  0.80005000  1.0
  C  C79  1  0.16340000  0.32680000  0.19995000  1.0
  C  C80  1  0.69076000  0.76526000  0.76215000  1.0
  C  C81  1  0.30923000  0.23473000  0.23785000  1.0
  C  C82  1  0.55405000  0.75617000  0.81407000  1.0
  C  C83  1  0.44595000  0.24383000  0.18594000  1.0
  C  C84  1  0.56750000  0.65141000  0.90628000  1.0
  C  C85  1  0.43249000  0.34859000  0.09373000  1.0
  C  C86  1  0.71213000  0.55870000  0.94484000  1.0
  C  C87  1  0.28786000  0.44130000  0.05517000  1.0
  C  C88  1  0.84861000  0.56801000  0.89268000  1.0
  C  C89  1  0.15139000  0.43199000  0.10733000  1.0
  Br  Br90  1  0.73003000  0.06809000  0.85479000  1.0
  Br  Br91  1  0.26998000  0.93190000  0.14521000  1.0
  N  N92  1  0.66568000  0.37349000  0.36532000  1.0
  N  N93  1  0.33432000  0.62651000  0.63467000  1.0
  N  N94  1  0.55908000  0.29068000  0.51663000  1.0
  N  N95  1  0.44093000  0.70932000  0.48337000  1.0
  N  N96  1  0.72027000  0.85445000  0.66985000  1.0
  N  N97  1  0.27973000  0.14555000  0.33015000  1.0
  N  N98  1  0.94928000  0.70866000  0.73080000  1.0
  N  N99  1  0.05072000  0.29133000  0.26920000  1.0
  O  O100  1  0.81448000  0.26368000  0.15646000  1.0
  O  O101  1  0.18552000  0.73633000  0.84354000  1.0
  O  O102  1  0.87169000  0.07908000  0.29922000  1.0
  O  O103  1  0.12830000  0.92093000  0.70078000  1.0
  O  O104  1  0.84594000  0.61234000  0.30066000  1.0
  O  O105  1  0.15406000  0.38766000  0.69934000  1.0
  O  O106  1  0.77835000  0.58273000  0.16136000  1.0
  O  O107  1  0.22165000  0.41727000  0.83864000  1.0
