# generated using pymatgen
data_Cu2H6C4S(NO)8
_symmetry_space_group_name_H-M   'P 1'
_cell_length_a   6.25209000
_cell_length_b   9.65824000
_cell_length_c   11.17699657
_cell_angle_alpha   84.81409435
_cell_angle_beta   73.76431867
_cell_angle_gamma   71.11410000
_symmetry_Int_Tables_number   1
_chemical_formula_structural   Cu2H6C4S(NO)8
_chemical_formula_sum   'Cu4 H12 C8 S2 N16 O16'
_cell_volume   613.11315341
_cell_formula_units_Z   2
loop_
 _symmetry_equiv_pos_site_id
 _symmetry_equiv_pos_as_xyz
  1  'x, y, z'
loop_
 _atom_site_type_symbol
 _atom_site_label
 _atom_site_symmetry_multiplicity
 _atom_site_fract_x
 _atom_site_fract_y
 _atom_site_fract_z
 _atom_site_occupancy
  Cu  Cu0  1  0.19239000  0.77089000  0.84231000  1.0
  Cu  Cu1  1  0.80543000  0.22907000  0.15774000  1.0
  Cu  Cu2  1  0.71319000  0.72909000  0.34241000  1.0
  Cu  Cu3  1  0.78467000  0.27089000  0.65772000  1.0
  H  H4  1  0.12640000  0.09907000  0.40546000  1.0
  H  H5  1  0.63090000  0.90106000  0.59469000  1.0
  H  H6  1  0.97540000  0.40084000  0.90555000  1.0
  H  H7  1  0.28183000  0.59902000  0.09456000  1.0
  H  H8  1  0.18037000  0.63432000  0.64455000  1.0
  H  H9  1  0.45909000  0.36560000  0.35537000  1.0
  H  H10  1  0.56466000  0.86568000  0.14466000  1.0
  H  H11  1  0.57480000  0.13434000  0.85531000  1.0
  H  H12  1  0.44096000  0.66672000  0.61029000  1.0
  H  H13  1  0.71772000  0.33333333  0.38971000  1.0
  H  H14  1  0.85765000  0.83320000  0.11039000  1.0
  H  H15  1  0.80094000  0.16677000  0.88977000  1.0
  C  C16  1  0.06289000  0.96716000  0.67008000  1.0
  C  C17  1  0.70015000  0.03270000  0.32996000  1.0
  C  C18  1  0.77957000  0.53284000  0.17017000  1.0
  C  C19  1  0.48274000  0.46723000  0.82987000  1.0
  C  C20  1  0.19705000  0.88151000  0.47065000  1.0
  C  C21  1  0.54929000  0.11858000  0.52933000  1.0
  C  C22  1  0.82862000  0.61842000  0.97073000  1.0
  C  C23  1  0.41758000  0.38147000  0.02924000  1.0
  S  S24  1  0.23169000  0.00011000  0.99988000  1.0
  S  S25  1  0.98163000  0.49997000  0.49999000  1.0
  N  N26  1  0.08357000  0.03045000  0.47599000  1.0
  N  N27  1  0.59003000  0.96962000  0.52411000  1.0
  N  N28  1  0.86389000  0.46951000  0.97605000  1.0
  N  N29  1  0.30940000  0.53044000  0.02401000  1.0
  N  N30  1  0.01514000  0.08448000  0.59822000  1.0
  N  N31  1  0.69778000  0.91548000  0.40190000  1.0
  N  N32  1  0.84919000  0.41553000  0.09829000  1.0
  N  N33  1  0.36318000  0.58450000  0.90179000  1.0
  N  N34  1  0.16692000  0.84284000  0.59668000  1.0
  N  N35  1  0.60641000  0.15711000  0.40328000  1.0
  N  N36  1  0.75956000  0.65714000  0.09677000  1.0
  N  N37  1  0.51334000  0.34287000  0.90321000  1.0
  N  N38  1  0.26318000  0.70988000  0.65271000  1.0
  N  N39  1  0.62565000  0.29007000  0.34725000  1.0
  N  N40  1  0.72300000  0.79007000  0.15282000  1.0
  N  N41  1  0.66574000  0.20990000  0.84723000  1.0
  O  O42  1  0.02480000  0.96170000  0.78758000  1.0
  O  O43  1  0.77438000  0.03811000  0.21246000  1.0
  O  O44  1  0.73592000  0.53832000  0.28768000  1.0
  O  O45  1  0.56234000  0.46179000  0.71238000  1.0
  O  O46  1  0.30302000  0.80171000  0.37888000  1.0
  O  O47  1  0.48379000  0.19853000  0.62098000  1.0
  O  O48  1  0.85494000  0.69821000  0.87900000  1.0
  O  O49  1  0.43199000  0.30156000  0.12092000  1.0
  O  O50  1  0.15416000  0.86370000  0.00373000  1.0
  O  O51  1  0.02143000  0.13653000  0.99629000  1.0
  O  O52  1  0.76769000  0.63639000  0.50383000  1.0
  O  O53  1  0.90779000  0.36359000  0.49630000  1.0
  O  O54  1  0.29960000  0.00148000  0.11500000  1.0
  O  O55  1  0.41547000  0.99879000  0.88449000  1.0
  O  O56  1  0.05078000  0.49858000  0.61515000  1.0
  O  O57  1  0.16421000  0.50130000  0.38465000  1.0
