# generated using pymatgen
data_Er2U3H26(C3O4)10
_symmetry_space_group_name_H-M   'P 1'
_cell_length_a   10.49200000
_cell_length_b   11.51860000
_cell_length_c   13.47460000
_cell_angle_alpha   66.77480000
_cell_angle_beta   77.45280000
_cell_angle_gamma   63.21840000
_symmetry_Int_Tables_number   1
_chemical_formula_structural   Er2U3H26(C3O4)10
_chemical_formula_sum   'Er2 U3 H26 C30 O40'
_cell_volume   1334.40119370
_cell_formula_units_Z   1
loop_
 _symmetry_equiv_pos_site_id
 _symmetry_equiv_pos_as_xyz
  1  'x, y, z'
loop_
 _atom_site_type_symbol
 _atom_site_label
 _atom_site_symmetry_multiplicity
 _atom_site_fract_x
 _atom_site_fract_y
 _atom_site_fract_z
 _atom_site_occupancy
  Er  Er0  1  0.58559000  0.24535000  0.74331000  1.0
  Er  Er1  1  0.41440000  0.75465000  0.25667000  1.0
  U  U2  1  0.61704000  0.71314000  0.84260000  1.0
  U  U3  1  0.38295000  0.28681000  0.15744000  1.0
  U  U4  1  0.99999000  0.50002000  0.50001000  1.0
  H  H5  1  0.55339000  0.52418000  0.59178000  1.0
  H  H6  1  0.44660000  0.47585000  0.40820000  1.0
  H  H7  1  0.71782000  0.41606000  0.59726000  1.0
  H  H8  1  0.28218000  0.58398000  0.40271000  1.0
  H  H9  1  0.37880000  0.46642000  0.57868000  1.0
  H  H10  1  0.62127000  0.53350000  0.42124000  1.0
  H  H11  1  0.27316000  0.40608000  0.65523000  1.0
  H  H12  1  0.72684000  0.59398000  0.34475000  1.0
  H  H13  1  0.49551000  0.51731000  0.78104000  1.0
  H  H14  1  0.50448000  0.48269000  0.21895000  1.0
  H  H15  1  0.49692000  0.40121000  0.89439000  1.0
  H  H16  1  0.50306000  0.59879000  0.10560000  1.0
  H  H17  1  0.73484000  0.93566000  0.86748000  1.0
  H  H18  1  0.26517000  0.06433000  0.13251000  1.0
  H  H19  1  0.83217000  0.01528000  0.85609000  1.0
  H  H20  1  0.16785000  0.98470000  0.14389000  1.0
  H  H21  1  0.65304000  0.21571000  0.53221000  1.0
  H  H22  1  0.34698000  0.78432000  0.46777000  1.0
  H  H23  1  0.71733000  0.06558000  0.62259000  1.0
  H  H24  1  0.28265000  0.93443000  0.37739000  1.0
  H  H25  1  0.09246000  0.36704000  0.96900000  1.0
  H  H26  1  0.90754000  0.63293000  0.03101000  1.0
  H  H27  1  0.15210000  0.10636000  0.73195000  1.0
  H  H28  1  0.84791000  0.89364000  0.26804000  1.0
  H  H29  1  0.73071000  0.00472000  0.40875000  1.0
  H  H30  1  0.26928000  0.99533000  0.59127000  1.0
  C  C31  1  0.98989000  0.34021000  0.86291000  1.0
  C  C32  1  0.01012000  0.65975000  0.13710000  1.0
  C  C33  1  0.10680000  0.30980000  0.91647000  1.0
  C  C34  1  0.89319000  0.69017000  0.08354000  1.0
  C  C35  1  0.24249000  0.21350000  0.89858000  1.0
  C  C36  1  0.75750000  0.78649000  0.10143000  1.0
  C  C37  1  0.25901000  0.14281000  0.82857000  1.0
  C  C38  1  0.74101000  0.85717000  0.17144000  1.0
  C  C39  1  0.13883000  0.16407000  0.78358000  1.0
  C  C40  1  0.86119000  0.83590000  0.21642000  1.0
  C  C41  1  0.00463000  0.26450000  0.79772000  1.0
  C  C42  1  0.99538000  0.73546000  0.20229000  1.0
  C  C43  1  0.62859000  0.00389000  0.44833000  1.0
  C  C44  1  0.37139000  0.99616000  0.55169000  1.0
  C  C45  1  0.62111000  0.87612000  0.50646000  1.0
  C  C46  1  0.37887000  0.12393000  0.49355000  1.0
  C  C47  1  0.49075000  0.87241000  0.55899000  1.0
  C  C48  1  0.50924000  0.12764000  0.44103000  1.0
  C  C49  1  0.85543000  0.46079000  0.86796000  1.0
  C  C50  1  0.14457000  0.53917000  0.13205000  1.0
  C  C51  1  0.36213000  0.19033000  0.95736000  1.0
  C  C52  1  0.63786000  0.80966000  0.04264000  1.0
  C  C53  1  0.40106000  0.04602000  0.79648000  1.0
  C  C54  1  0.59894000  0.95396000  0.20353000  1.0
  C  C55  1  0.88422000  0.29127000  0.73644000  1.0
  C  C56  1  0.11577000  0.70873000  0.26357000  1.0
  C  C57  1  0.47343000  0.73986000  0.62439000  1.0
  C  C58  1  0.52659000  0.26017000  0.37561000  1.0
  C  C59  1  0.75232000  0.74743000  0.51074000  1.0
  C  C60  1  0.24766000  0.25262000  0.48927000  1.0
  O  O61  1  0.52467000  0.63444000  0.96179000  1.0
  O  O62  1  0.47533000  0.36551000  0.03823000  1.0
  O  O63  1  0.71206000  0.79357000  0.72838000  1.0
  O  O64  1  0.28796000  0.20637000  0.27166000  1.0
  O  O65  1  0.08575000  0.48682000  0.61024000  1.0
  O  O66  1  0.91426000  0.51322000  0.38982000  1.0
  O  O67  1  0.84505000  0.53681000  0.92024000  1.0
  O  O68  1  0.15494000  0.46316000  0.07976000  1.0
  O  O69  1  0.75064000  0.49388000  0.81385000  1.0
  O  O70  1  0.24935000  0.50607000  0.18618000  1.0
  O  O71  1  0.79835000  0.23486000  0.78398000  1.0
  O  O72  1  0.20165000  0.76513000  0.21600000  1.0
  O  O73  1  0.88142000  0.36259000  0.63556000  1.0
  O  O74  1  0.11857000  0.63744000  0.36445000  1.0
  O  O75  1  0.41259000  0.92362000  0.81593000  1.0
  O  O76  1  0.58743000  0.07637000  0.18406000  1.0
  O  O77  1  0.49658000  0.08959000  0.74978000  1.0
  O  O78  1  0.50343000  0.91038000  0.25023000  1.0
  O  O79  1  0.48396000  0.17701000  0.91355000  1.0
  O  O80  1  0.51602000  0.82300000  0.08646000  1.0
  O  O81  1  0.33000000  0.18663000  0.05665000  1.0
  O  O82  1  0.67001000  0.81336000  0.94334000  1.0
  O  O83  1  0.49433000  0.68927000  0.72598000  1.0
  O  O84  1  0.50566000  0.31075000  0.27403000  1.0
  O  O85  1  0.43098000  0.68701000  0.57927000  1.0
  O  O86  1  0.56907000  0.31303000  0.42071000  1.0
  O  O87  1  0.74726000  0.62922000  0.55824000  1.0
  O  O88  1  0.25272000  0.37083000  0.44177000  1.0
  O  O89  1  0.87004000  0.75419000  0.46457000  1.0
  O  O90  1  0.12995000  0.24587000  0.53543000  1.0
  O  O91  1  0.61826000  0.42928000  0.59087000  1.0
  O  O92  1  0.38173000  0.57073000  0.40911000  1.0
  O  O93  1  0.37381000  0.39328000  0.64677000  1.0
  O  O94  1  0.62621000  0.60669000  0.35317000  1.0
  O  O95  1  0.49723000  0.42317000  0.81560000  1.0
  O  O96  1  0.50274000  0.57684000  0.18439000  1.0
  O  O97  1  0.75689000  0.01731000  0.82340000  1.0
  O  O98  1  0.24311000  0.98269000  0.17659000  1.0
  O  O99  1  0.70251000  0.16172000  0.60276000  1.0
  O  O100  1  0.29750000  0.83829000  0.39724000  1.0
