# generated using pymatgen
data_ErH8C8NO9
_symmetry_space_group_name_H-M   'P 1'
_cell_length_a   9.40399000
_cell_length_b   9.89370000
_cell_length_c   14.16240000
_cell_angle_alpha   90.00000000
_cell_angle_beta   90.00000000
_cell_angle_gamma   92.88000000
_symmetry_Int_Tables_number   1
_chemical_formula_structural   ErH8C8NO9
_chemical_formula_sum   'Er4 H32 C32 N4 O36'
_cell_volume   1316.00904105
_cell_formula_units_Z   4
loop_
 _symmetry_equiv_pos_site_id
 _symmetry_equiv_pos_as_xyz
  1  'x, y, z'
loop_
 _atom_site_type_symbol
 _atom_site_label
 _atom_site_symmetry_multiplicity
 _atom_site_fract_x
 _atom_site_fract_y
 _atom_site_fract_z
 _atom_site_occupancy
  Er  Er0  1  0.88225000  0.91275000  0.14456000  1.0
  Er  Er1  1  0.11773000  0.58725000  0.64457000  1.0
  Er  Er2  1  0.11775000  0.08726000  0.85544000  1.0
  Er  Er3  1  0.88228000  0.41274000  0.35543000  1.0
  H  H4  1  0.05373000  0.76665000  0.00003000  1.0
  H  H5  1  0.94627000  0.73334000  0.50002000  1.0
  H  H6  1  0.94627000  0.23335000  0.99997000  1.0
  H  H7  1  0.05374000  0.26666000  0.49997000  1.0
  H  H8  1  0.07699000  0.68587000  0.09590000  1.0
  H  H9  1  0.92302000  0.81411000  0.59589000  1.0
  H  H10  1  0.92302000  0.31413000  0.90410000  1.0
  H  H11  1  0.07702000  0.18589000  0.40411000  1.0
  H  H12  1  0.08430000  0.84790000  0.28486000  1.0
  H  H13  1  0.91568000  0.65211000  0.78489000  1.0
  H  H14  1  0.91568000  0.15210000  0.71513000  1.0
  H  H15  1  0.08433000  0.34790000  0.21510000  1.0
  H  H16  1  0.96295000  0.73659000  0.31105000  1.0
  H  H17  1  0.03706000  0.76341000  0.81105000  1.0
  H  H18  1  0.03704000  0.26341000  0.68895000  1.0
  H  H19  1  0.96295000  0.23660000  0.18894000  1.0
  H  H20  1  0.79116000  0.08619000  0.30368000  1.0
  H  H21  1  0.20883000  0.41384000  0.80368000  1.0
  H  H22  1  0.20883000  0.91381000  0.69631000  1.0
  H  H23  1  0.79117000  0.58616000  0.19631000  1.0
  H  H24  1  0.79857000  0.93586000  0.34316000  1.0
  H  H25  1  0.20143000  0.56414000  0.84315000  1.0
  H  H26  1  0.20143000  0.06413000  0.65685000  1.0
  H  H27  1  0.79858000  0.43586000  0.15684000  1.0
  H  H28  1  0.31255000  0.81908000  0.15762000  1.0
  H  H29  1  0.68744000  0.68090000  0.65759000  1.0
  H  H30  1  0.68745000  0.18093000  0.84240000  1.0
  H  H31  1  0.31258000  0.31908000  0.34240000  1.0
  H  H32  1  0.43658000  0.22918000  0.07036000  1.0
  H  H33  1  0.56339000  0.27082000  0.57033000  1.0
  H  H34  1  0.56341000  0.77084000  0.92967000  1.0
  H  H35  1  0.43661000  0.72917000  0.42967000  1.0
  C  C36  1  0.58826000  0.73685000  0.17399000  1.0
  C  C37  1  0.41171000  0.76314000  0.67401000  1.0
  C  C38  1  0.41172000  0.26316000  0.82601000  1.0
  C  C39  1  0.58830000  0.23685000  0.32599000  1.0
  C  C40  1  0.53577000  0.87455000  0.14978000  1.0
  C  C41  1  0.46420000  0.62544000  0.64978000  1.0
  C  C42  1  0.46422000  0.12545000  0.85023000  1.0
  C  C43  1  0.53581000  0.37456000  0.35021000  1.0
  C  C44  1  0.39212000  0.89984000  0.14227000  1.0
  C  C45  1  0.60788000  0.60016000  0.64225000  1.0
  C  C46  1  0.60788000  0.10017000  0.85775000  1.0
  C  C47  1  0.39214000  0.39983000  0.35775000  1.0
  C  C48  1  0.35415000  0.02718000  0.11109000  1.0
  C  C49  1  0.64583000  0.47283000  0.61106000  1.0
  C  C50  1  0.64584000  0.97283000  0.88894000  1.0
  C  C51  1  0.35418000  0.52718000  0.38893000  1.0
  C  C52  1  0.19900000  0.04574000  0.09274000  1.0
  C  C53  1  0.80098000  0.45426000  0.59274000  1.0
  C  C54  1  0.80099000  0.95427000  0.90726000  1.0
  C  C55  1  0.19903000  0.54573000  0.40726000  1.0
  C  C56  1  0.46080000  0.12800000  0.09380000  1.0
  C  C57  1  0.53918000  0.37199000  0.59378000  1.0
  C  C58  1  0.53918000  0.87201000  0.90622000  1.0
  C  C59  1  0.46083000  0.62800000  0.40621000  1.0
  C  C60  1  0.60195000  0.09634000  0.10893000  1.0
  C  C61  1  0.39801000  0.40365000  0.60892000  1.0
  C  C62  1  0.39803000  0.90366000  0.89108000  1.0
  C  C63  1  0.60198000  0.59634000  0.39107000  1.0
  C  C64  1  0.72705000  0.19718000  0.10006000  1.0
  C  C65  1  0.27293000  0.30283000  0.60005000  1.0
  C  C66  1  0.27294000  0.80283000  0.89994000  1.0
  C  C67  1  0.72708000  0.69717000  0.39994000  1.0
  N  N68  1  0.63702000  0.97159000  0.13370000  1.0
  N  N69  1  0.36297000  0.52841000  0.63369000  1.0
  N  N70  1  0.36298000  0.02842000  0.86631000  1.0
  N  N71  1  0.63705000  0.47159000  0.36629000  1.0
  O  O72  1  0.16401000  0.09477000  0.01399000  1.0
  O  O73  1  0.83598000  0.40520000  0.51398000  1.0
  O  O74  1  0.83599000  0.90521000  0.98602000  1.0
  O  O75  1  0.16403000  0.59477000  0.48602000  1.0
  O  O76  1  0.11225000  0.00433000  0.15625000  1.0
  O  O77  1  0.88771000  0.49568000  0.65622000  1.0
  O  O78  1  0.88774000  0.99568000  0.84378000  1.0
  O  O79  1  0.11229000  0.50430000  0.34378000  1.0
  O  O80  1  0.50324000  0.63970000  0.18690000  1.0
  O  O81  1  0.49672000  0.86029000  0.68694000  1.0
  O  O82  1  0.49672000  0.36032000  0.81309000  1.0
  O  O83  1  0.50329000  0.13969000  0.31309000  1.0
  O  O84  1  0.72791000  0.73485000  0.17882000  1.0
  O  O85  1  0.27205000  0.76513000  0.67884000  1.0
  O  O86  1  0.27207000  0.26514000  0.82117000  1.0
  O  O87  1  0.72796000  0.23487000  0.32116000  1.0
  O  O88  1  0.85243000  0.14663000  0.10953000  1.0
  O  O89  1  0.14755000  0.35336000  0.60955000  1.0
  O  O90  1  0.14757000  0.85337000  0.89045000  1.0
  O  O91  1  0.85245000  0.64663000  0.39045000  1.0
  O  O92  1  0.70715000  0.31879000  0.08528000  1.0
  O  O93  1  0.29280000  0.18123000  0.58527000  1.0
  O  O94  1  0.29282000  0.68124000  0.91472000  1.0
  O  O95  1  0.70719000  0.81877000  0.41472000  1.0
  O  O96  1  0.01421000  0.74525000  0.06310000  1.0
  O  O97  1  0.98579000  0.75474000  0.56309000  1.0
  O  O98  1  0.98579000  0.25476000  0.93690000  1.0
  O  O99  1  0.01423000  0.24526000  0.43690000  1.0
  O  O100  1  0.01374000  0.78383000  0.25767000  1.0
  O  O101  1  0.98626000  0.71616000  0.75768000  1.0
  O  O102  1  0.98626000  0.21618000  0.74232000  1.0
  O  O103  1  0.01374000  0.28385000  0.24230000  1.0
  O  O104  1  0.83956000  0.99846000  0.29397000  1.0
  O  O105  1  0.16044000  0.50154000  0.79398000  1.0
  O  O106  1  0.16043000  0.00153000  0.70603000  1.0
  O  O107  1  0.83958000  0.49846000  0.20601000  1.0
