# generated using pymatgen
data_CdH14C16(N2O)4
_symmetry_space_group_name_H-M   'P 1'
_cell_length_a   8.13415000
_cell_length_b   10.65240000
_cell_length_c   10.65900000
_cell_angle_alpha   73.43600000
_cell_angle_beta   78.75470000
_cell_angle_gamma   83.06960000
_symmetry_Int_Tables_number   1
_chemical_formula_structural   CdH14C16(N2O)4
_chemical_formula_sum   'Cd2 H28 C32 N16 O8'
_cell_volume   866.17832871
_cell_formula_units_Z   2
loop_
 _symmetry_equiv_pos_site_id
 _symmetry_equiv_pos_as_xyz
  1  'x, y, z'
loop_
 _atom_site_type_symbol
 _atom_site_label
 _atom_site_symmetry_multiplicity
 _atom_site_fract_x
 _atom_site_fract_y
 _atom_site_fract_z
 _atom_site_occupancy
  Cd  Cd0  1  0.71780000  0.77337000  0.78735000  1.0
  Cd  Cd1  1  0.28220000  0.22663000  0.21265000  1.0
  H  H2  1  0.28664000  0.90702000  0.45379000  1.0
  H  H3  1  0.71336000  0.09298000  0.54621000  1.0
  H  H4  1  0.32943000  0.67761000  0.86114000  1.0
  H  H5  1  0.67056000  0.32239000  0.13886000  1.0
  H  H6  1  0.81624000  0.02064000  0.94478000  1.0
  H  H7  1  0.18377000  0.97936000  0.05522000  1.0
  H  H8  1  0.11308000  0.14943000  0.83637000  1.0
  H  H9  1  0.88692000  0.85057000  0.16363000  1.0
  H  H10  1  0.31877000  0.16366000  0.61541000  1.0
  H  H11  1  0.68123000  0.83634000  0.38459000  1.0
  H  H12  1  0.33020000  0.03891000  0.53791000  1.0
  H  H13  1  0.66980000  0.96109000  0.46209000  1.0
  H  H14  1  0.91674000  0.64098000  0.50194000  1.0
  H  H15  1  0.08326000  0.35902000  0.49806000  1.0
  H  H16  1  0.35183000  0.50270000  0.58792000  1.0
  H  H17  1  0.64817000  0.49731000  0.41208000  1.0
  H  H18  1  0.23729000  0.58988000  0.70302000  1.0
  H  H19  1  0.76271000  0.41012000  0.29698000  1.0
  H  H20  1  0.04011000  0.56773000  0.24812000  1.0
  H  H21  1  0.95989000  0.43226000  0.75188000  1.0
  H  H22  1  0.14632000  0.78286000  0.03553000  1.0
  H  H23  1  0.85367000  0.21713000  0.96447000  1.0
  H  H24  1  0.22317000  0.73531000  0.35435000  1.0
  H  H25  1  0.77683000  0.26468000  0.64565000  1.0
  H  H26  1  0.48839000  0.28828000  0.66622000  1.0
  H  H27  1  0.51160000  0.71171000  0.33378000  1.0
  H  H28  1  0.48823000  0.11068000  0.91815000  1.0
  H  H29  1  0.51177000  0.88932000  0.08185000  1.0
  C  C30  1  0.91287000  0.01057000  0.86150000  1.0
  C  C31  1  0.08713000  0.98944000  0.13849000  1.0
  C  C32  1  0.05715000  0.07610000  0.80868000  1.0
  C  C33  1  0.94285000  0.92390000  0.19132000  1.0
  C  C34  1  0.30561000  0.05792000  0.63583000  1.0
  C  C35  1  0.69439000  0.94208000  0.36417000  1.0
  C  C36  1  0.43669000  0.97891000  0.71885000  1.0
  C  C37  1  0.56331000  0.02109000  0.28115000  1.0
  C  C38  1  0.04168000  0.93358000  0.69634000  1.0
  C  C39  1  0.95833000  0.06642000  0.30366000  1.0
  C  C40  1  0.06324000  0.85420000  0.60328000  1.0
  C  C41  1  0.93676000  0.14580000  0.39671000  1.0
  C  C42  1  0.99532000  0.70997000  0.51519000  1.0
  C  C43  1  0.00468000  0.29003000  0.48481000  1.0
  C  C44  1  0.35644000  0.53585000  0.67547000  1.0
  C  C45  1  0.64355000  0.46415000  0.32453000  1.0
  C  C46  1  0.50390000  0.62485000  0.64682000  1.0
  C  C47  1  0.49609000  0.37516000  0.35319000  1.0
  C  C48  1  0.33403000  0.40278000  0.91802000  1.0
  C  C49  1  0.66597000  0.59722000  0.08197000  1.0
  C  C50  1  0.25099000  0.49634000  0.98838000  1.0
  C  C51  1  0.74901000  0.50366000  0.01162000  1.0
  C  C52  1  0.11230000  0.57056000  0.15040000  1.0
  C  C53  1  0.88770000  0.42944000  0.84960000  1.0
  C  C54  1  0.16170000  0.67830000  0.04682000  1.0
  C  C55  1  0.83830000  0.32170000  0.95318000  1.0
  C  C56  1  0.14565000  0.75598000  0.44202000  1.0
  C  C57  1  0.85435000  0.24401000  0.55799000  1.0
  C  C58  1  0.44806000  0.29882000  0.76596000  1.0
  C  C59  1  0.55194000  0.70119000  0.23404000  1.0
  C  C60  1  0.44438000  0.21338000  0.89069000  1.0
  C  C61  1  0.55562000  0.78662000  0.10931000  1.0
  N  N62  1  0.90518000  0.92244000  0.79166000  1.0
  N  N63  1  0.09482000  0.07756000  0.20834000  1.0
  N  N64  1  0.94520000  0.77175000  0.61416000  1.0
  N  N65  1  0.05479000  0.22824000  0.38585000  1.0
  N  N66  1  0.13656000  0.02820000  0.70356000  1.0
  N  N67  1  0.86345000  0.97180000  0.29644000  1.0
  N  N68  1  0.18755000  0.84633000  0.49877000  1.0
  N  N69  1  0.81246000  0.15367000  0.50123000  1.0
  N  N70  1  0.37336000  0.27887000  0.98391000  1.0
  N  N71  1  0.62664000  0.72113000  0.01609000  1.0
  N  N72  1  0.16872000  0.45721000  0.11329000  1.0
  N  N73  1  0.83128000  0.54279000  0.88671000  1.0
  N  N74  1  0.24899000  0.62945000  0.94534000  1.0
  N  N75  1  0.75100000  0.37055000  0.05465000  1.0
  N  N76  1  0.37729000  0.41847000  0.78421000  1.0
  N  N77  1  0.62270000  0.58153000  0.21579000  1.0
  O  O78  1  0.39200000  0.91779000  0.83720000  1.0
  O  O79  1  0.60801000  0.08222000  0.16280000  1.0
  O  O80  1  0.58918000  0.98077000  0.65599000  1.0
  O  O81  1  0.41082000  0.01923000  0.34400000  1.0
  O  O82  1  0.60684000  0.63593000  0.54144000  1.0
  O  O83  1  0.39316000  0.36408000  0.45856000  1.0
  O  O84  1  0.50552000  0.67999000  0.73939000  1.0
  O  O85  1  0.49449000  0.32001000  0.26062000  1.0
