# generated using pymatgen
data_CdH5C5BrN6O
_symmetry_space_group_name_H-M   'P 1'
_cell_length_a   7.70751000
_cell_length_b   9.12726000
_cell_length_c   13.92310000
_cell_angle_alpha   90.00000000
_cell_angle_beta   89.99740000
_cell_angle_gamma   94.69780000
_symmetry_Int_Tables_number   1
_chemical_formula_structural   CdH5C5BrN6O
_chemical_formula_sum   'Cd4 H20 C20 Br4 N24 O4'
_cell_volume   976.17797877
_cell_formula_units_Z   4
loop_
 _symmetry_equiv_pos_site_id
 _symmetry_equiv_pos_as_xyz
  1  'x, y, z'
loop_
 _atom_site_type_symbol
 _atom_site_label
 _atom_site_symmetry_multiplicity
 _atom_site_fract_x
 _atom_site_fract_y
 _atom_site_fract_z
 _atom_site_occupancy
  Cd  Cd0  1  0.71719000  0.92862000  0.45535000  1.0
  Cd  Cd1  1  0.78282000  0.57139000  0.95536000  1.0
  Cd  Cd2  1  0.28281000  0.07139000  0.54465000  1.0
  Cd  Cd3  1  0.21718000  0.42861000  0.04464000  1.0
  H  H4  1  0.83173000  0.63992000  0.46725000  1.0
  H  H5  1  0.66830000  0.86010000  0.96727000  1.0
  H  H6  1  0.16827000  0.36008000  0.53275000  1.0
  H  H7  1  0.33170000  0.13990000  0.03273000  1.0
  H  H8  1  0.73799000  0.64823000  0.36334000  1.0
  H  H9  1  0.76198000  0.85176000  0.86334000  1.0
  H  H10  1  0.26200000  0.35177000  0.63666000  1.0
  H  H11  1  0.23802000  0.14824000  0.13666000  1.0
  H  H12  1  0.40275000  0.87665000  0.28193000  1.0
  H  H13  1  0.09730000  0.62337000  0.78192000  1.0
  H  H14  1  0.59725000  0.12335000  0.71807000  1.0
  H  H15  1  0.90270000  0.37662000  0.21808000  1.0
  H  H16  1  0.38658000  0.86708000  0.09933000  1.0
  H  H17  1  0.11349000  0.63295000  0.59932000  1.0
  H  H18  1  0.61343000  0.13292000  0.90067000  1.0
  H  H19  1  0.88651000  0.36704000  0.40068000  1.0
  H  H20  1  0.91481000  0.99858000  0.08429000  1.0
  H  H21  1  0.58525000  0.50146000  0.58429000  1.0
  H  H22  1  0.08519000  0.00142000  0.91572000  1.0
  H  H23  1  0.41474000  0.49855000  0.41571000  1.0
  C  C24  1  0.96751000  0.02765000  0.27958000  1.0
  C  C25  1  0.53254000  0.47237000  0.77958000  1.0
  C  C26  1  0.03249000  0.97235000  0.72042000  1.0
  C  C27  1  0.46746000  0.52763000  0.22042000  1.0
  C  C28  1  0.80724000  0.98321000  0.22836000  1.0
  C  C29  1  0.69282000  0.51682000  0.72836000  1.0
  C  C30  1  0.19276000  0.01679000  0.77164000  1.0
  C  C31  1  0.30718000  0.48318000  0.27164000  1.0
  C  C32  1  0.51575000  0.90650000  0.23696000  1.0
  C  C33  1  0.98430000  0.59352000  0.73695000  1.0
  C  C34  1  0.48425000  0.09350000  0.76304000  1.0
  C  C35  1  0.01570000  0.40647000  0.26305000  1.0
  C  C36  1  0.50759000  0.90117000  0.13679000  1.0
  C  C37  1  0.99248000  0.59886000  0.63678000  1.0
  C  C38  1  0.49242000  0.09883000  0.86321000  1.0
  C  C39  1  0.00752000  0.40114000  0.36321000  1.0
  C  C40  1  0.79885000  0.97443000  0.12800000  1.0
  C  C41  1  0.70122000  0.52561000  0.62799000  1.0
  C  C42  1  0.20116000  0.02558000  0.87200000  1.0
  C  C43  1  0.29878000  0.47440000  0.37200000  1.0
  Br  Br44  1  0.60244000  0.20283000  0.49593000  1.0
  Br  Br45  1  0.89755000  0.29718000  0.99591000  1.0
  Br  Br46  1  0.39755000  0.79718000  0.50406000  1.0
  Br  Br47  1  0.10246000  0.70282000  0.00409000  1.0
  N  N48  1  0.97800000  0.02655000  0.37588000  1.0
  N  N49  1  0.52203000  0.47346000  0.87587000  1.0
  N  N50  1  0.02199000  0.97345000  0.62412000  1.0
  N  N51  1  0.47797000  0.52654000  0.12412000  1.0
  N  N52  1  0.14265000  0.07442000  0.39546000  1.0
  N  N53  1  0.35738000  0.42558000  0.89545000  1.0
  N  N54  1  0.85735000  0.92558000  0.60454000  1.0
  N  N55  1  0.64262000  0.57441000  0.10455000  1.0
  N  N56  1  0.22989000  0.10432000  0.31491000  1.0
  N  N57  1  0.27015000  0.39570000  0.81490000  1.0
  N  N58  1  0.77011000  0.89568000  0.68510000  1.0
  N  N59  1  0.72985000  0.60430000  0.18510000  1.0
  N  N60  1  0.12227000  0.07542000  0.24066000  1.0
  N  N61  1  0.37779000  0.42460000  0.74066000  1.0
  N  N62  1  0.87773000  0.92458000  0.75934000  1.0
  N  N63  1  0.62221000  0.57540000  0.25934000  1.0
  N  N64  1  0.66471000  0.94722000  0.28217000  1.0
  N  N65  1  0.83534000  0.55281000  0.78216000  1.0
  N  N66  1  0.33529000  0.05278000  0.71783000  1.0
  N  N67  1  0.16466000  0.44719000  0.21784000  1.0
  N  N68  1  0.64990000  0.93335000  0.08297000  1.0
  N  N69  1  0.85018000  0.56668000  0.58297000  1.0
  N  N70  1  0.35011000  0.06664000  0.91703000  1.0
  N  N71  1  0.14982000  0.43332000  0.41703000  1.0
  O  O72  1  0.81701000  0.70372000  0.40975000  1.0
  O  O73  1  0.68299000  0.79628000  0.90977000  1.0
  O  O74  1  0.18299000  0.29628000  0.59025000  1.0
  O  O75  1  0.31701000  0.20372000  0.09023000  1.0
