# generated using pymatgen
data_ZnH4C6(SN5)2
_symmetry_space_group_name_H-M   'P 1'
_cell_length_a   7.65598000
_cell_length_b   7.73584000
_cell_length_c   11.88850000
_cell_angle_alpha   81.38540000
_cell_angle_beta   74.11530000
_cell_angle_gamma   81.46570000
_symmetry_Int_Tables_number   1
_chemical_formula_structural   ZnH4C6(SN5)2
_chemical_formula_sum   'Zn2 H8 C12 S4 N20'
_cell_volume   665.29063753
_cell_formula_units_Z   2
loop_
 _symmetry_equiv_pos_site_id
 _symmetry_equiv_pos_as_xyz
  1  'x, y, z'
loop_
 _atom_site_type_symbol
 _atom_site_label
 _atom_site_symmetry_multiplicity
 _atom_site_fract_x
 _atom_site_fract_y
 _atom_site_fract_z
 _atom_site_occupancy
  Zn  Zn0  1  0.27803000  0.74419000  0.84976000  1.0
  Zn  Zn1  1  0.72198000  0.25581000  0.15024000  1.0
  H  H2  1  0.77532000  0.53878000  0.71432000  1.0
  H  H3  1  0.22468000  0.46122000  0.28568000  1.0
  H  H4  1  0.31899000  0.67445000  0.57444000  1.0
  H  H5  1  0.68101000  0.32555000  0.42555000  1.0
  H  H6  1  0.68479000  0.15384000  0.78904000  1.0
  H  H7  1  0.31521000  0.84616000  0.21096000  1.0
  H  H8  1  0.22468000  0.36702000  0.04335000  1.0
  H  H9  1  0.77531000  0.63297000  0.95664000  1.0
  C  C10  1  0.90567000  0.58517000  0.70783000  1.0
  C  C11  1  0.09433000  0.41483000  0.29217000  1.0
  C  C12  1  0.18776000  0.65365000  0.63538000  1.0
  C  C13  1  0.81224000  0.34634000  0.36461000  1.0
  C  C14  1  0.57605000  0.24702000  0.83251000  1.0
  C  C15  1  0.42395000  0.75297000  0.16749000  1.0
  C  C16  1  0.33785000  0.35911000  0.96392000  1.0
  C  C17  1  0.66214000  0.64089000  0.03608000  1.0
  C  C18  1  0.03365000  0.80733000  0.09749000  1.0
  C  C19  1  0.96636000  0.19267000  0.90251000  1.0
  C  C20  1  0.59996000  0.90885000  0.67317000  1.0
  C  C21  1  0.40003000  0.09116000  0.32684000  1.0
  S  S22  1  0.89754000  0.83497000  0.22438000  1.0
  S  S23  1  0.10246000  0.16503000  0.77561000  1.0
  S  S24  1  0.76107000  0.97802000  0.56523000  1.0
  S  S25  1  0.23895000  0.02200000  0.43479000  1.0
  N  N26  1  0.12911000  0.69041000  0.74467000  1.0
  N  N27  1  0.87089000  0.30958000  0.25533000  1.0
  N  N28  1  0.95183000  0.64741000  0.79073000  1.0
  N  N29  1  0.04818000  0.35259000  0.20927000  1.0
  N  N30  1  0.05078000  0.58637000  0.60844000  1.0
  N  N31  1  0.94922000  0.41363000  0.39156000  1.0
  N  N32  1  0.07098000  0.53039000  0.50136000  1.0
  N  N33  1  0.92902000  0.46961000  0.49864000  1.0
  N  N34  1  0.39135000  0.48292000  0.87788000  1.0
  N  N35  1  0.60865000  0.51708000  0.12212000  1.0
  N  N36  1  0.53980000  0.41256000  0.79420000  1.0
  N  N37  1  0.46019000  0.58744000  0.20580000  1.0
  N  N38  1  0.45217000  0.20831000  0.93938000  1.0
  N  N39  1  0.54782000  0.79169000  0.06061000  1.0
  N  N40  1  0.43408000  0.05709000  0.01623000  1.0
  N  N41  1  0.56591000  0.94291000  0.98376000  1.0
  N  N42  1  0.13782000  0.78753000  0.00439000  1.0
  N  N43  1  0.86218000  0.21247000  0.99561000  1.0
  N  N44  1  0.48441000  0.85725000  0.75576000  1.0
  N  N45  1  0.51560000  0.14276000  0.24424000  1.0
