# generated using pymatgen
data_MnP2H18C18(NO3)2
_symmetry_space_group_name_H-M   'P 1'
_cell_length_a   7.66130000
_cell_length_b   10.82480000
_cell_length_c   10.98860000
_cell_angle_alpha   96.43320000
_cell_angle_beta   91.58670000
_cell_angle_gamma   94.85870000
_symmetry_Int_Tables_number   1
_chemical_formula_structural   MnP2H18C18(NO3)2
_chemical_formula_sum   'Mn2 P4 H36 C36 N4 O12'
_cell_volume   901.67823768
_cell_formula_units_Z   2
loop_
 _symmetry_equiv_pos_site_id
 _symmetry_equiv_pos_as_xyz
  1  'x, y, z'
loop_
 _atom_site_type_symbol
 _atom_site_label
 _atom_site_symmetry_multiplicity
 _atom_site_fract_x
 _atom_site_fract_y
 _atom_site_fract_z
 _atom_site_occupancy
  Mn  Mn0  1  0.23954000  0.96755000  0.65611000  1.0
  Mn  Mn1  1  0.76042000  0.03250000  0.34394000  1.0
  P  P2  1  0.65877000  0.14744000  0.62446000  1.0
  P  P3  1  0.34122000  0.85257000  0.37554000  1.0
  P  P4  1  0.85720000  0.82194000  0.54012000  1.0
  P  P5  1  0.14284000  0.17805000  0.45991000  1.0
  H  H6  1  0.93943000  0.12902000  0.65531000  1.0
  H  H7  1  0.06057000  0.87099000  0.34469000  1.0
  H  H8  1  0.61334000  0.90610000  0.60514000  1.0
  H  H9  1  0.38663000  0.09392000  0.39486000  1.0
  H  H10  1  0.15112000  0.23154000  0.79032000  1.0
  H  H11  1  0.84889000  0.76844000  0.20964000  1.0
  H  H12  1  0.08804000  0.32626000  0.00190000  1.0
  H  H13  1  0.91194000  0.67377000  0.99805000  1.0
  H  H14  1  0.12717000  0.19872000  0.17843000  1.0
  H  H15  1  0.87280000  0.80128000  0.82155000  1.0
  H  H16  1  0.23379000  0.99130000  0.13824000  1.0
  H  H17  1  0.76619000  0.00868000  0.86171000  1.0
  H  H18  1  0.34535000  0.83078000  0.09534000  1.0
  H  H19  1  0.65463000  0.16921000  0.90462000  1.0
  H  H20  1  0.46316000  0.62643000  0.03030000  1.0
  H  H21  1  0.53685000  0.37354000  0.96964000  1.0
  H  H22  1  0.50504000  0.56535000  0.80496000  1.0
  H  H23  1  0.49497000  0.43463000  0.19494000  1.0
  H  H24  1  0.41318000  0.70998000  0.65628000  1.0
  H  H25  1  0.58680000  0.29005000  0.34367000  1.0
  H  H26  1  0.78486000  0.62207000  0.42450000  1.0
  H  H27  1  0.21516000  0.37792000  0.57559000  1.0
  H  H28  1  0.01069000  0.65408000  0.46363000  1.0
  H  H29  1  0.98932000  0.34593000  0.53642000  1.0
  H  H30  1  0.09069000  0.66702000  0.70224000  1.0
  H  H31  1  0.90933000  0.33298000  0.29781000  1.0
  H  H32  1  0.07447000  0.52869000  0.86834000  1.0
  H  H33  1  0.92558000  0.47130000  0.13171000  1.0
  H  H34  1  0.83391000  0.35833000  0.86284000  1.0
  H  H35  1  0.16612000  0.64167000  0.13720000  1.0
  H  H36  1  0.62968000  0.46462000  0.52488000  1.0
  H  H37  1  0.37030000  0.53540000  0.47517000  1.0
  H  H38  1  0.52089000  0.27955000  0.77646000  1.0
  H  H39  1  0.47914000  0.72039000  0.22356000  1.0
  H  H40  1  0.46487000  0.30497000  0.62419000  1.0
  H  H41  1  0.53516000  0.69507000  0.37586000  1.0
  C  C42  1  0.16975000  0.18172000  0.86994000  1.0
  C  C43  1  0.83024000  0.81827000  0.13004000  1.0
  C  C44  1  0.13379000  0.23339000  0.98735000  1.0
  C  C45  1  0.86617000  0.76662000  0.01262000  1.0
  C  C46  1  0.15712000  0.16406000  0.08513000  1.0
  C  C47  1  0.84283000  0.83593000  0.91483000  1.0
  C  C48  1  0.21774000  0.04640000  0.06228000  1.0
  C  C49  1  0.78220000  0.95359000  0.93767000  1.0
  C  C50  1  0.25231000  0.00074000  0.94178000  1.0
  C  C51  1  0.74767000  0.99924000  0.05818000  1.0
  C  C52  1  0.31821000  0.87687000  0.90998000  1.0
  C  C53  1  0.68177000  0.12312000  0.08998000  1.0
  C  C54  1  0.36203000  0.80050000  0.99897000  1.0
  C  C55  1  0.63795000  0.19948000  0.00098000  1.0
  C  C56  1  0.42790000  0.68683000  0.96218000  1.0
  C  C57  1  0.57210000  0.31314000  0.03777000  1.0
  C  C58  1  0.44949000  0.65175000  0.83786000  1.0
  C  C59  1  0.55051000  0.34823000  0.16207000  1.0
  C  C60  1  0.40032000  0.73173000  0.75465000  1.0
  C  C61  1  0.59968000  0.26829000  0.24530000  1.0
  C  C62  1  0.87878000  0.65657000  0.50051000  1.0
  C  C63  1  0.12125000  0.34342000  0.49956000  1.0
  C  C64  1  0.86054000  0.57657000  0.60340000  1.0
  C  C65  1  0.13946000  0.42343000  0.39667000  1.0
  C  C66  1  0.98505000  0.59323000  0.70101000  1.0
  C  C67  1  0.01495000  0.40678000  0.29906000  1.0
  C  C68  1  0.97412000  0.51599000  0.79433000  1.0
  C  C69  1  0.02590000  0.48401000  0.20572000  1.0
  C  C70  1  0.83879000  0.42097000  0.79179000  1.0
  C  C71  1  0.16122000  0.57904000  0.20825000  1.0
  C  C72  1  0.71246000  0.40190000  0.69494000  1.0
  C  C73  1  0.28752000  0.59812000  0.30512000  1.0
  C  C74  1  0.72501000  0.48089000  0.60202000  1.0
  C  C75  1  0.27496000  0.51914000  0.39804000  1.0
  C  C76  1  0.57471000  0.29345000  0.68695000  1.0
  C  C77  1  0.42531000  0.70656000  0.31309000  1.0
  N  N78  1  0.22691000  0.06793000  0.84689000  1.0
  N  N79  1  0.77314000  0.93208000  0.15308000  1.0
  N  N80  1  0.33581000  0.84099000  0.78956000  1.0
  N  N81  1  0.66417000  0.15902000  0.21039000  1.0
  O  O82  1  0.87794000  0.88142000  0.41964000  1.0
  O  O83  1  0.12208000  0.11848000  0.58033000  1.0
  O  O84  1  0.52784000  0.03867000  0.64684000  1.0
  O  O85  1  0.47219000  0.96134000  0.35314000  1.0
  O  O86  1  0.98176000  0.87563000  0.64617000  1.0
  O  O87  1  0.01827000  0.12438000  0.35386000  1.0
  O  O88  1  0.70950000  0.15982000  0.49374000  1.0
  O  O89  1  0.29048000  0.84023000  0.50625000  1.0
  O  O90  1  0.83187000  0.13822000  0.70634000  1.0
  O  O91  1  0.16812000  0.86175000  0.29364000  1.0
  O  O92  1  0.65986000  0.82211000  0.58020000  1.0
  O  O93  1  0.34019000  0.17793000  0.41982000  1.0
