# generated using pymatgen
data_Cu2H8C10S(IN)2
_symmetry_space_group_name_H-M   'P 1'
_cell_length_a   7.80209000
_cell_length_b   10.31060000
_cell_length_c   18.05930000
_cell_angle_alpha   89.99980000
_cell_angle_beta   93.33670000
_cell_angle_gamma   89.99980000
_symmetry_Int_Tables_number   1
_chemical_formula_structural   Cu2H8C10S(IN)2
_chemical_formula_sum   'Cu8 H32 C40 S4 I8 N8'
_cell_volume   1450.30365065
_cell_formula_units_Z   4
loop_
 _symmetry_equiv_pos_site_id
 _symmetry_equiv_pos_as_xyz
  1  'x, y, z'
loop_
 _atom_site_type_symbol
 _atom_site_label
 _atom_site_symmetry_multiplicity
 _atom_site_fract_x
 _atom_site_fract_y
 _atom_site_fract_z
 _atom_site_occupancy
  Cu  Cu0  1  0.84710000  0.35166000  0.81163000  1.0
  Cu  Cu1  1  0.65289000  0.35167000  0.68837000  1.0
  Cu  Cu2  1  0.15291000  0.64834000  0.18837000  1.0
  Cu  Cu3  1  0.34711000  0.64833000  0.31163000  1.0
  Cu  Cu4  1  0.61123000  0.51667000  0.78723000  1.0
  Cu  Cu5  1  0.88876000  0.51668000  0.71278000  1.0
  Cu  Cu6  1  0.38876000  0.48332000  0.21278000  1.0
  Cu  Cu7  1  0.11124000  0.48333000  0.28722000  1.0
  H  H8  1  0.42247000  0.49521000  0.92454000  1.0
  H  H9  1  0.07752000  0.49521000  0.57546000  1.0
  H  H10  1  0.57752000  0.50479000  0.07546000  1.0
  H  H11  1  0.92247000  0.50479000  0.42454000  1.0
  H  H12  1  0.30449000  0.64994000  0.01576000  1.0
  H  H13  1  0.19551000  0.64995000  0.48425000  1.0
  H  H14  1  0.69550000  0.35006000  0.98424000  1.0
  H  H15  1  0.80449000  0.35006000  0.51576000  1.0
  H  H16  1  0.43364000  0.96141000  0.86783000  1.0
  H  H17  1  0.06636000  0.96142000  0.63217000  1.0
  H  H18  1  0.56637000  0.03858000  0.13217000  1.0
  H  H19  1  0.93363000  0.03859000  0.36783000  1.0
  H  H20  1  0.54193000  0.79321000  0.78298000  1.0
  H  H21  1  0.95806000  0.79322000  0.71701000  1.0
  H  H22  1  0.45807000  0.20678000  0.21701000  1.0
  H  H23  1  0.04193000  0.20679000  0.28298000  1.0
  H  H24  1  0.24478000  0.20663000  0.02964000  1.0
  H  H25  1  0.25521000  0.20663000  0.47036000  1.0
  H  H26  1  0.75522000  0.79337000  0.97036000  1.0
  H  H27  1  0.74478000  0.79337000  0.52964000  1.0
  H  H28  1  0.07559000  0.36416000  0.95071000  1.0
  H  H29  1  0.42440000  0.36416000  0.54929000  1.0
  H  H30  1  0.92442000  0.63585000  0.04929000  1.0
  H  H31  1  0.57560000  0.63584000  0.45071000  1.0
  H  H32  1  0.92133000  0.07916000  0.79959000  1.0
  H  H33  1  0.57868000  0.07915000  0.70040000  1.0
  H  H34  1  0.07868000  0.92084000  0.20041000  1.0
  H  H35  1  0.42133000  0.92084000  0.29959000  1.0
  H  H36  1  0.07943000  0.90777000  0.87213000  1.0
  H  H37  1  0.42058000  0.90777000  0.62787000  1.0
  H  H38  1  0.92057000  0.09223000  0.12788000  1.0
  H  H39  1  0.57943000  0.09224000  0.37212000  1.0
  C  C40  1  0.42282000  0.59964000  0.91472000  1.0
  C  C41  1  0.07716000  0.59965000  0.58529000  1.0
  C  C42  1  0.57716000  0.40036000  0.08529000  1.0
  C  C43  1  0.92283000  0.40036000  0.41471000  1.0
  C  C44  1  0.35746000  0.68577000  0.96512000  1.0
  C  C45  1  0.14253000  0.68577000  0.53488000  1.0
  C  C46  1  0.64253000  0.31423000  0.03488000  1.0
  C  C47  1  0.85747000  0.31423000  0.46512000  1.0
  C  C48  1  0.36009000  0.81858000  0.94914000  1.0
  C  C49  1  0.13991000  0.81858000  0.55086000  1.0
  C  C50  1  0.63992000  0.18142000  0.05086000  1.0
  C  C51  1  0.86009000  0.18143000  0.44914000  1.0
  C  C52  1  0.42753000  0.85909000  0.88250000  1.0
  C  C53  1  0.07246000  0.85910000  0.61750000  1.0
  C  C54  1  0.57247000  0.14090000  0.11750000  1.0
  C  C55  1  0.92753000  0.14091000  0.38250000  1.0
  C  C56  1  0.48823000  0.76612000  0.83528000  1.0
  C  C57  1  0.01176000  0.76613000  0.66472000  1.0
  C  C58  1  0.51177000  0.23388000  0.16472000  1.0
  C  C59  1  0.98823000  0.23387000  0.33528000  1.0
  C  C60  1  0.17944000  0.04361000  0.95651000  1.0
  C  C61  1  0.32055000  0.04361000  0.54349000  1.0
  C  C62  1  0.82056000  0.95639000  0.04349000  1.0
  C  C63  1  0.67945000  0.95639000  0.45650000  1.0
  C  C64  1  0.17555000  0.17353000  0.97900000  1.0
  C  C65  1  0.32444000  0.17353000  0.52100000  1.0
  C  C66  1  0.82445000  0.82647000  0.02100000  1.0
  C  C67  1  0.67556000  0.82647000  0.47899000  1.0
  C  C68  1  0.08082000  0.26194000  0.93527000  1.0
  C  C69  1  0.41917000  0.26194000  0.56473000  1.0
  C  C70  1  0.91918000  0.73806000  0.06473000  1.0
  C  C71  1  0.58083000  0.73806000  0.43527000  1.0
  C  C72  1  0.99578000  0.10299000  0.85076000  1.0
  C  C73  1  0.50422000  0.10299000  0.64924000  1.0
  C  C74  1  0.00422000  0.89701000  0.14924000  1.0
  C  C75  1  0.49577000  0.89700000  0.35076000  1.0
  C  C76  1  0.08520000  0.00815000  0.89100000  1.0
  C  C77  1  0.41481000  0.00815000  0.60900000  1.0
  C  C78  1  0.91481000  0.99185000  0.10901000  1.0
  C  C79  1  0.58520000  0.99185000  0.39099000  1.0
  S  S80  1  0.28743000  0.92930000  0.01430000  1.0
  S  S81  1  0.21257000  0.92930000  0.48570000  1.0
  S  S82  1  0.71257000  0.07070000  0.98571000  1.0
  S  S83  1  0.78743000  0.07070000  0.51429000  1.0
  I  I84  1  0.94384000  0.59242000  0.85242000  1.0
  I  I85  1  0.55615000  0.59244000  0.64759000  1.0
  I  I86  1  0.05616000  0.40757000  0.14758000  1.0
  I  I87  1  0.44385000  0.40756000  0.35241000  1.0
  I  I88  1  0.52311000  0.27689000  0.82680000  1.0
  I  I89  1  0.97688000  0.27689000  0.67320000  1.0
  I  I90  1  0.47689000  0.72311000  0.17320000  1.0
  I  I91  1  0.02312000  0.72311000  0.32680000  1.0
  N  N92  1  0.48819000  0.63803000  0.85095000  1.0
  N  N93  1  0.01180000  0.63804000  0.64905000  1.0
  N  N94  1  0.51180000  0.36196000  0.14905000  1.0
  N  N95  1  0.98820000  0.36196000  0.35095000  1.0
  N  N96  1  0.99277000  0.22862000  0.87184000  1.0
  N  N97  1  0.50723000  0.22862000  0.62816000  1.0
  N  N98  1  0.00724000  0.77138000  0.12816000  1.0
  N  N99  1  0.49277000  0.77138000  0.37183000  1.0
