# generated using pymatgen
data_Cu5H24C38N18(O7F3)2
_symmetry_space_group_name_H-M   'P 1'
_cell_length_a   7.26998000
_cell_length_b   12.35760000
_cell_length_c   13.57020000
_cell_angle_alpha   99.79290000
_cell_angle_beta   102.03800000
_cell_angle_gamma   90.15210000
_symmetry_Int_Tables_number   1
_chemical_formula_structural   Cu5H24C38N18(O7F3)2
_chemical_formula_sum   'Cu5 H24 C38 N18 O14 F6'
_cell_volume   1174.03722428
_cell_formula_units_Z   1
loop_
 _symmetry_equiv_pos_site_id
 _symmetry_equiv_pos_as_xyz
  1  'x, y, z'
loop_
 _atom_site_type_symbol
 _atom_site_label
 _atom_site_symmetry_multiplicity
 _atom_site_fract_x
 _atom_site_fract_y
 _atom_site_fract_z
 _atom_site_occupancy
  Cu  Cu0  1  0.21589000  0.97694000  0.22445000  1.0
  Cu  Cu1  1  0.78409000  0.02299000  0.77572000  1.0
  Cu  Cu2  1  0.99993000  0.99997000  0.99992000  1.0
  Cu  Cu3  1  0.99998000  0.50000000  0.49998000  1.0
  Cu  Cu4  1  0.49995000  0.49998000  0.49997000  1.0
  H  H5  1  0.32914000  0.88891000  0.06550000  1.0
  H  H6  1  0.67069000  0.11113000  0.93449000  1.0
  H  H7  1  0.29572000  0.68034000  0.34672000  1.0
  H  H8  1  0.70432000  0.31964000  0.65331000  1.0
  H  H9  1  0.39779000  0.57086000  0.04501000  1.0
  H  H10  1  0.60219000  0.42918000  0.95501000  1.0
  H  H11  1  0.45959000  0.36018000  0.27323000  1.0
  H  H12  1  0.54036000  0.63979000  0.72674000  1.0
  H  H13  1  0.05829000  0.28954000  0.37112000  1.0
  H  H14  1  0.94180000  0.71049000  0.62885000  1.0
  H  H15  1  0.92752000  0.33554000  0.05638000  1.0
  H  H16  1  0.07243000  0.66449000  0.94361000  1.0
  H  H17  1  0.88805000  0.59638000  0.30693000  1.0
  H  H18  1  0.11188000  0.40365000  0.69306000  1.0
  H  H19  1  0.02120000  0.86057000  0.54467000  1.0
  H  H20  1  0.97875000  0.13944000  0.45535000  1.0
  H  H21  1  0.40385000  0.12453000  0.72305000  1.0
  H  H22  1  0.59623000  0.87546000  0.27691000  1.0
  H  H23  1  0.61658000  0.81722000  0.64151000  1.0
  H  H24  1  0.38337000  0.18273000  0.35844000  1.0
  H  H25  1  0.61047000  0.01014000  0.11111000  1.0
  H  H26  1  0.38940000  0.98978000  0.88884000  1.0
  H  H27  1  0.46261000  0.11148000  0.06115000  1.0
  H  H28  1  0.53738000  0.88850000  0.93880000  1.0
  C  C29  1  0.30223000  0.75077000  0.16630000  1.0
  C  C30  1  0.69783000  0.24926000  0.83379000  1.0
  C  C31  1  0.34074000  0.63872000  0.19282000  1.0
  C  C32  1  0.65926000  0.36128000  0.80722000  1.0
  C  C33  1  0.33556000  0.61671000  0.29001000  1.0
  C  C34  1  0.66446000  0.38327000  0.71002000  1.0
  C  C35  1  0.38888000  0.55527000  0.12036000  1.0
  C  C36  1  0.61109000  0.44474000  0.87965000  1.0
  C  C37  1  0.42736000  0.45450000  0.15017000  1.0
  C  C38  1  0.57258000  0.54550000  0.84982000  1.0
  C  C39  1  0.42344000  0.43846000  0.24865000  1.0
  C  C40  1  0.57652000  0.56153000  0.75133000  1.0
  C  C41  1  0.05683000  0.18359000  0.17636000  1.0
  C  C42  1  0.94333000  0.81648000  0.82357000  1.0
  C  C43  1  0.00194000  0.29895000  0.21021000  1.0
  C  C44  1  0.99807000  0.70110000  0.78978000  1.0
  C  C45  1  0.01370000  0.34082000  0.31369000  1.0
  C  C46  1  0.98633000  0.65922000  0.68629000  1.0
  C  C47  1  0.94286000  0.36662000  0.13789000  1.0
  C  C48  1  0.05709000  0.63342000  0.86210000  1.0
  C  C49  1  0.90293000  0.47351000  0.17471000  1.0
  C  C50  1  0.09698000  0.52653000  0.82528000  1.0
  C  C51  1  0.91696000  0.51163000  0.27876000  1.0
  C  C52  1  0.08298000  0.48841000  0.72123000  1.0
  C  C53  1  0.29186000  0.70463000  0.53727000  1.0
  C  C54  1  0.70809000  0.29535000  0.46271000  1.0
  C  C55  1  0.31624000  0.82413000  0.58756000  1.0
  C  C56  1  0.68373000  0.17587000  0.41241000  1.0
  C  C57  1  0.16220000  0.89168000  0.58486000  1.0
  C  C58  1  0.83778000  0.10832000  0.41513000  1.0
  C  C59  1  0.19771000  0.99948000  0.63513000  1.0
  C  C60  1  0.80230000  0.00053000  0.36486000  1.0
  C  C61  1  0.37802000  0.03941000  0.68514000  1.0
  C  C62  1  0.62201000  0.96058000  0.31483000  1.0
  C  C63  1  0.49461000  0.86793000  0.63874000  1.0
  C  C64  1  0.50537000  0.13205000  0.36123000  1.0
  C  C65  1  0.48469000  0.02259000  0.05333000  1.0
  C  C66  1  0.51521000  0.97738000  0.94662000  1.0
  N  N67  1  0.37786000  0.51914000  0.31788000  1.0
  N  N68  1  0.62215000  0.48084000  0.68213000  1.0
  N  N69  1  0.97065000  0.44441000  0.34678000  1.0
  N  N70  1  0.02935000  0.55562000  0.65321000  1.0
  N  N71  1  0.52499000  0.97291000  0.68671000  1.0
  N  N72  1  0.47502000  0.02706000  0.31326000  1.0
  N  N73  1  0.96791000  0.94042000  0.12589000  1.0
  N  N74  1  0.03216000  0.05960000  0.87425000  1.0
  N  N75  1  0.87932000  0.85491000  0.12049000  1.0
  N  N76  1  0.12089000  0.14500000  0.87967000  1.0
  N  N77  1  0.78969000  0.77631000  0.11727000  1.0
  N  N78  1  0.21080000  0.22351000  0.88278000  1.0
  N  N79  1  0.25786000  0.43245000  0.52548000  1.0
  N  N80  1  0.74209000  0.56753000  0.47454000  1.0
  N  N81  1  0.26866000  0.33941000  0.54365000  1.0
  N  N82  1  0.73129000  0.66057000  0.45635000  1.0
  N  N83  1  0.28194000  0.25063000  0.56130000  1.0
  N  N84  1  0.71802000  0.74935000  0.43871000  1.0
  O  O85  1  0.03124000  0.15169000  0.08045000  1.0
  O  O86  1  0.96881000  0.84839000  0.91948000  1.0
  O  O87  1  0.12714000  0.13034000  0.24716000  1.0
  O  O88  1  0.87326000  0.86977000  0.75277000  1.0
  O  O89  1  0.26340000  0.82345000  0.23869000  1.0
  O  O90  1  0.73693000  0.17656000  0.76150000  1.0
  O  O91  1  0.31443000  0.76592000  0.07846000  1.0
  O  O92  1  0.68547000  0.23412000  0.92162000  1.0
  O  O93  1  0.13385000  0.66934000  0.48458000  1.0
  O  O94  1  0.86606000  0.33066000  0.51541000  1.0
  O  O95  1  0.44248000  0.65061000  0.55567000  1.0
  O  O96  1  0.55743000  0.34935000  0.44431000  1.0
  O  O97  1  0.32021000  0.97207000  0.07069000  1.0
  O  O98  1  0.67963000  0.02796000  0.92924000  1.0
  F  F99  1  0.47410000  0.36914000  0.08330000  1.0
  F  F100  1  0.52578000  0.63087000  0.91666000  1.0
  F  F101  1  0.84838000  0.54357000  0.10846000  1.0
  F  F102  1  0.15147000  0.45645000  0.89152000  1.0
  F  F103  1  0.05330000  0.06879000  0.63661000  1.0
  F  F104  1  0.94672000  0.93122000  0.36342000  1.0
