# generated using pymatgen
data_CuH16C24N3O5
_symmetry_space_group_name_H-M   'P 1'
_cell_length_a   9.47795000
_cell_length_b   9.47799000
_cell_length_c   11.87740000
_cell_angle_alpha   81.58040000
_cell_angle_beta   81.58030000
_cell_angle_gamma   82.59170000
_symmetry_Int_Tables_number   1
_chemical_formula_structural   CuH16C24N3O5
_chemical_formula_sum   'Cu2 H32 C48 N6 O10'
_cell_volume   1037.77505674
_cell_formula_units_Z   2
loop_
 _symmetry_equiv_pos_site_id
 _symmetry_equiv_pos_as_xyz
  1  'x, y, z'
loop_
 _atom_site_type_symbol
 _atom_site_label
 _atom_site_symmetry_multiplicity
 _atom_site_fract_x
 _atom_site_fract_y
 _atom_site_fract_z
 _atom_site_occupancy
  Cu  Cu0  1  0.88840000  0.11160000  0.25000000  1.0
  Cu  Cu1  1  0.11160000  0.88841000  0.75000000  1.0
  H  H2  1  0.94158000  0.24988000  0.06493000  1.0
  H  H3  1  0.75012000  0.05842000  0.43507000  1.0
  H  H4  1  0.05842000  0.75012000  0.93507000  1.0
  H  H5  1  0.24988000  0.94158000  0.56493000  1.0
  H  H6  1  0.09223000  0.63820000  0.13145000  1.0
  H  H7  1  0.36180000  0.90777000  0.36855000  1.0
  H  H8  1  0.90777000  0.36181000  0.86855000  1.0
  H  H9  1  0.63820000  0.09223000  0.63145000  1.0
  H  H10  1  0.00390000  0.16072000  0.46490000  1.0
  H  H11  1  0.83928000  0.99610000  0.03510000  1.0
  H  H12  1  0.99610000  0.83928000  0.53510000  1.0
  H  H13  1  0.16072000  0.00390000  0.96490000  1.0
  H  H14  1  0.27019000  0.58067000  0.37224000  1.0
  H  H15  1  0.41933000  0.72981000  0.12776000  1.0
  H  H16  1  0.72981000  0.41933000  0.62776000  1.0
  H  H17  1  0.58067000  0.27019000  0.87224000  1.0
  H  H18  1  0.39224000  0.65168000  0.52243000  1.0
  H  H19  1  0.34832000  0.60776000  0.97757000  1.0
  H  H20  1  0.60776000  0.34832000  0.47757000  1.0
  H  H21  1  0.65168000  0.39224000  0.02244000  1.0
  H  H22  1  0.36220000  0.52178000  0.72165000  1.0
  H  H23  1  0.47822000  0.63780000  0.77835000  1.0
  H  H24  1  0.63780000  0.47822000  0.27835000  1.0
  H  H25  1  0.52177000  0.36220000  0.22165000  1.0
  H  H26  1  0.21348000  0.31908000  0.76851000  1.0
  H  H27  1  0.68092000  0.78653000  0.73148000  1.0
  H  H28  1  0.78653000  0.68092000  0.23149000  1.0
  H  H29  1  0.31908000  0.21347000  0.26852000  1.0
  H  H30  1  0.09763000  0.24183000  0.61692000  1.0
  H  H31  1  0.75817000  0.90237000  0.88308000  1.0
  H  H32  1  0.90237000  0.75816000  0.38309000  1.0
  H  H33  1  0.24184000  0.09763000  0.11691000  1.0
  C  C34  1  0.96613000  0.36011000  0.03670000  1.0
  C  C35  1  0.63990000  0.03387000  0.46330000  1.0
  C  C36  1  0.03387000  0.63990000  0.96330000  1.0
  C  C37  1  0.36010000  0.96613000  0.53670000  1.0
  C  C38  1  0.05231000  0.57746000  0.07392000  1.0
  C  C39  1  0.42254000  0.94769000  0.42608000  1.0
  C  C40  1  0.94769000  0.42254000  0.92608000  1.0
  C  C41  1  0.57746000  0.05231000  0.57392000  1.0
  C  C42  1  0.01789000  0.43652000  0.11241000  1.0
  C  C43  1  0.56348000  0.98211000  0.38759000  1.0
  C  C44  1  0.98211000  0.56348000  0.88759000  1.0
  C  C45  1  0.43652000  0.01789000  0.61241000  1.0
  C  C46  1  0.03481000  0.37322000  0.22842000  1.0
  C  C47  1  0.62678000  0.96519000  0.27158000  1.0
  C  C48  1  0.96519000  0.62678000  0.77158000  1.0
  C  C49  1  0.37322000  0.03481000  0.72842000  1.0
  C  C50  1  0.03094000  0.24580000  0.39662000  1.0
  C  C51  1  0.75421000  0.96906000  0.10337000  1.0
  C  C52  1  0.96906000  0.75420000  0.60337000  1.0
  C  C53  1  0.24580000  0.03094000  0.89662000  1.0
  C  C54  1  0.10633000  0.35926000  0.39835000  1.0
  C  C55  1  0.64074000  0.89367000  0.10164000  1.0
  C  C56  1  0.89368000  0.64074000  0.60165000  1.0
  C  C57  1  0.35926000  0.10632000  0.89836000  1.0
  C  C58  1  0.17807000  0.40471000  0.48418000  1.0
  C  C59  1  0.59529000  0.82193000  0.01582000  1.0
  C  C60  1  0.82193000  0.59529000  0.51581000  1.0
  C  C61  1  0.40471000  0.17807000  0.98419000  1.0
  C  C62  1  0.26095000  0.52088000  0.45803000  1.0
  C  C63  1  0.47912000  0.73905000  0.04197000  1.0
  C  C64  1  0.73905000  0.47912000  0.54197000  1.0
  C  C65  1  0.52088000  0.26095000  0.95803000  1.0
  C  C66  1  0.32738000  0.56214000  0.54329000  1.0
  C  C67  1  0.43786000  0.67262000  0.95671000  1.0
  C  C68  1  0.67262000  0.43786000  0.45671000  1.0
  C  C69  1  0.56215000  0.32738000  0.04330000  1.0
  C  C70  1  0.31126000  0.48919000  0.65467000  1.0
  C  C71  1  0.51080000  0.68874000  0.84533000  1.0
  C  C72  1  0.68874000  0.51080000  0.34534000  1.0
  C  C73  1  0.48920000  0.31126000  0.15467000  1.0
  C  C74  1  0.22829000  0.37427000  0.68106000  1.0
  C  C75  1  0.62573000  0.77171000  0.81894000  1.0
  C  C76  1  0.77171000  0.62573000  0.31894000  1.0
  C  C77  1  0.37427000  0.22829000  0.18106000  1.0
  C  C78  1  0.16258000  0.33129000  0.59646000  1.0
  C  C79  1  0.66871000  0.83742000  0.90354000  1.0
  C  C80  1  0.83742000  0.66871000  0.40354000  1.0
  C  C81  1  0.33129000  0.16258000  0.09646000  1.0
  N  N82  1  0.98668000  0.25575000  0.28907000  1.0
  N  N83  1  0.74425000  0.01332000  0.21093000  1.0
  N  N84  1  0.01332000  0.74425000  0.71093000  1.0
  N  N85  1  0.25575000  0.98668000  0.78907000  1.0
  N  N86  1  0.11100000  0.88900000  0.25000000  1.0
  N  N87  1  0.88900000  0.11100000  0.75000000  1.0
  O  O88  1  0.10845000  0.43995000  0.29132000  1.0
  O  O89  1  0.56005000  0.89155000  0.20868000  1.0
  O  O90  1  0.89156000  0.56005000  0.70868000  1.0
  O  O91  1  0.43995000  0.10844000  0.79132000  1.0
  O  O92  1  0.06862000  0.95229000  0.15589000  1.0
  O  O93  1  0.04771000  0.93138000  0.34411000  1.0
  O  O94  1  0.93138000  0.04772000  0.84411000  1.0
  O  O95  1  0.95228000  0.06862000  0.65589000  1.0
  O  O96  1  0.21077000  0.78923000  0.25000000  1.0
  O  O97  1  0.78923000  0.21078000  0.75000000  1.0
