# generated using pymatgen
data_ZnH26(C7N)6
_symmetry_space_group_name_H-M   'P 1'
_cell_length_a   9.41254000
_cell_length_b   19.27360000
_cell_length_c   19.27347648
_cell_angle_alpha   117.39443403
_cell_angle_beta   99.37389904
_cell_angle_gamma   99.35360000
_symmetry_Int_Tables_number   1
_chemical_formula_structural   ZnH26(C7N)6
_chemical_formula_sum   'Zn3 H78 C126 N18'
_cell_volume   2948.23428881
_cell_formula_units_Z   3
loop_
 _symmetry_equiv_pos_site_id
 _symmetry_equiv_pos_as_xyz
  1  'x, y, z'
loop_
 _atom_site_type_symbol
 _atom_site_label
 _atom_site_symmetry_multiplicity
 _atom_site_fract_x
 _atom_site_fract_y
 _atom_site_fract_z
 _atom_site_occupancy
  Zn  Zn0  1  0.50000000  0.50000000  0.50000000  1.0
  Zn  Zn1  1  0.00000000  0.00000000  0.50000000  1.0
  Zn  Zn2  1  0.00000000  0.50000000  0.00000000  1.0
  H  H3  1  0.56384000  0.81160000  0.59832000  1.0
  H  H4  1  0.75201000  0.78659000  0.18849000  1.0
  H  H5  1  0.96521000  0.40191000  0.21349000  1.0
  H  H6  1  0.43616000  0.18839000  0.40168000  1.0
  H  H7  1  0.24799000  0.21341000  0.81151000  1.0
  H  H8  1  0.03479000  0.59809000  0.78651000  1.0
  H  H9  1  0.33629000  0.77116000  0.65167000  1.0
  H  H10  1  0.56509000  0.88056000  0.22898000  1.0
  H  H11  1  0.68438000  0.34852000  0.11957000  1.0
  H  H12  1  0.66371000  0.22884000  0.34833000  1.0
  H  H13  1  0.43491000  0.11944000  0.77102000  1.0
  H  H14  1  0.31562000  0.65148000  0.88043000  1.0
  H  H15  1  0.07116000  0.49939000  0.64841000  1.0
  H  H16  1  0.57159000  0.14894000  0.50058000  1.0
  H  H17  1  0.42284000  0.35182000  0.85104000  1.0
  H  H18  1  0.92884000  0.50061000  0.35159000  1.0
  H  H19  1  0.42841000  0.85106000  0.49942000  1.0
  H  H20  1  0.57716000  0.64818000  0.14896000  1.0
  H  H21  1  0.09464000  0.34590000  0.57860000  1.0
  H  H22  1  0.74849000  0.23269000  0.65405000  1.0
  H  H23  1  0.51597000  0.42159000  0.76732000  1.0
  H  H24  1  0.90536000  0.65410000  0.42140000  1.0
  H  H25  1  0.25151000  0.76731000  0.34595000  1.0
  H  H26  1  0.48403000  0.57841000  0.23268000  1.0
  H  H27  1  0.96829000  0.58224000  0.57051000  1.0
  H  H28  1  0.38612000  0.98816000  0.41767000  1.0
  H  H29  1  0.39774000  0.42956000  0.01173000  1.0
  H  H30  1  0.03171000  0.41776000  0.42949000  1.0
  H  H31  1  0.61388000  0.01184000  0.58233000  1.0
  H  H32  1  0.60227000  0.57044000  0.98827000  1.0
  H  H33  1  0.81981000  0.66188000  0.65506000  1.0
  H  H34  1  0.15818000  0.99323000  0.33805000  1.0
  H  H35  1  0.16479000  0.34494000  0.00674000  1.0
  H  H36  1  0.18019000  0.33812000  0.34494000  1.0
  H  H37  1  0.84182000  0.00677000  0.66195000  1.0
  H  H38  1  0.83521000  0.65506000  0.99326000  1.0
  H  H39  1  0.94343000  0.77314000  0.79778000  1.0
  H  H40  1  0.17077000  0.02492000  0.22695000  1.0
  H  H41  1  0.14577000  0.20214000  0.97501000  1.0
  H  H42  1  0.05657000  0.22686000  0.20222000  1.0
  H  H43  1  0.82923000  0.97508000  0.77305000  1.0
  H  H44  1  0.85423000  0.79786000  0.02499000  1.0
  H  H45  1  0.21830000  0.80303000  0.85462000  1.0
  H  H46  1  0.41581000  0.05190000  0.19713000  1.0
  H  H47  1  0.36385000  0.14535000  0.94804000  1.0
  H  H48  1  0.78170000  0.19697000  0.14538000  1.0
  H  H49  1  0.58419000  0.94810000  0.80287000  1.0
  H  H50  1  0.63615000  0.85465000  0.05196000  1.0
  H  H51  1  0.36735000  0.72421000  0.76854000  1.0
  H  H52  1  0.64355000  0.04451000  0.27596000  1.0
  H  H53  1  0.59908000  0.23157000  0.95557000  1.0
  H  H54  1  0.63265000  0.27579000  0.23146000  1.0
  H  H55  1  0.35645000  0.95549000  0.72404000  1.0
  H  H56  1  0.40093000  0.76842000  0.04443000  1.0
  H  H57  1  0.56079000  0.73962000  0.42512000  1.0
  H  H58  1  0.82111000  0.68559000  0.26036000  1.0
  H  H59  1  0.13580000  0.57484000  0.31456000  1.0
  H  H60  1  0.43921000  0.26038000  0.57488000  1.0
  H  H61  1  0.17889000  0.31441000  0.73964000  1.0
  H  H62  1  0.86420000  0.42516000  0.68544000  1.0
  H  H63  1  0.06522000  0.90895000  0.59737000  1.0
  H  H64  1  0.15634000  0.68831000  0.09099000  1.0
  H  H65  1  0.46804000  0.40253000  0.31162000  1.0
  H  H66  1  0.93478000  0.09105000  0.40263000  1.0
  H  H67  1  0.84366000  0.31169000  0.90901000  1.0
  H  H68  1  0.53196000  0.59747000  0.68838000  1.0
  H  H69  1  0.68069000  0.86853000  0.43013000  1.0
  H  H70  1  0.81239000  0.56164000  0.13159000  1.0
  H  H71  1  0.25101000  0.56990000  0.43847000  1.0
  H  H72  1  0.31931000  0.13147000  0.56987000  1.0
  H  H73  1  0.18761000  0.43836000  0.86841000  1.0
  H  H74  1  0.74899000  0.43010000  0.56153000  1.0
  H  H75  1  0.96224000  0.78158000  0.59961000  1.0
  H  H76  1  0.18105000  0.81789000  0.21848000  1.0
  H  H77  1  0.36289000  0.40040000  0.18205000  1.0
  H  H78  1  0.03776000  0.21842000  0.40039000  1.0
  H  H79  1  0.81895000  0.18212000  0.78153000  1.0
  H  H80  1  0.63711000  0.59960000  0.81795000  1.0
  C  C81  1  0.56855000  0.68073000  0.55190000  1.0
  C  C82  1  0.88773000  0.87103000  0.31930000  1.0
  C  C83  1  0.01648000  0.44831000  0.12906000  1.0
  C  C84  1  0.43145000  0.31927000  0.44810000  1.0
  C  C85  1  0.11226000  0.12897000  0.68070000  1.0
  C  C86  1  0.98352000  0.55169000  0.87094000  1.0
  C  C87  1  0.51756000  0.75284000  0.59167000  1.0
  C  C88  1  0.76454000  0.83871000  0.24725000  1.0
  C  C89  1  0.92562000  0.40860000  0.16140000  1.0
  C  C90  1  0.48244000  0.24715000  0.40833000  1.0
  C  C91  1  0.23546000  0.16129000  0.75275000  1.0
  C  C92  1  0.07438000  0.59140000  0.83860000  1.0
  C  C93  1  0.40256000  0.73253000  0.61982000  1.0
  C  C94  1  0.66995000  0.88724000  0.26757000  1.0
  C  C95  1  0.78252000  0.38045000  0.11289000  1.0
  C  C96  1  0.59744000  0.26747000  0.38018000  1.0
  C  C97  1  0.33005000  0.11276000  0.73243000  1.0
  C  C98  1  0.21748000  0.61955000  0.88711000  1.0
  C  C99  1  0.38253000  0.64801000  0.59759000  1.0
  C  C100  1  0.73456000  0.94953000  0.35206000  1.0
  C  C101  1  0.78483000  0.40262000  0.05055000  1.0
  C  C102  1  0.61747000  0.35199000  0.40241000  1.0
  C  C103  1  0.26544000  0.05047000  0.64794000  1.0
  C  C104  1  0.21517000  0.59738000  0.94945000  1.0
  C  C105  1  0.27002000  0.60235000  0.61234000  1.0
  C  C106  1  0.66782000  0.00998000  0.39771000  1.0
  C  C107  1  0.65772000  0.38781000  0.99001000  1.0
  C  C108  1  0.72998000  0.39765000  0.38766000  1.0
  C  C109  1  0.33218000  0.99002000  0.60229000  1.0
  C  C110  1  0.34229000  0.61219000  0.00999000  1.0
  C  C111  1  0.24111000  0.51812000  0.58404000  1.0
  C  C112  1  0.72301000  0.06591000  0.48193000  1.0
  C  C113  1  0.65716000  0.41611000  0.93407000  1.0
  C  C114  1  0.75889000  0.48188000  0.41596000  1.0
  C  C115  1  0.27699000  0.93409000  0.51807000  1.0
  C  C116  1  0.34284000  0.58389000  0.06593000  1.0
  C  C117  1  0.13974000  0.47372000  0.60823000  1.0
  C  C118  1  0.66587000  0.13444000  0.52628000  1.0
  C  C119  1  0.53157000  0.39198000  0.86553000  1.0
  C  C120  1  0.86026000  0.52628000  0.39177000  1.0
  C  C121  1  0.33413000  0.86556000  0.47372000  1.0
  C  C122  1  0.46843000  0.60802000  0.13447000  1.0
  C  C123  1  0.15256000  0.39597000  0.57322000  1.0
  C  C124  1  0.75640000  0.17723000  0.60403000  1.0
  C  C125  1  0.57933000  0.42696000  0.82275000  1.0
  C  C126  1  0.84743000  0.60403000  0.42678000  1.0
  C  C127  1  0.24360000  0.82277000  0.39597000  1.0
  C  C128  1  0.42067000  0.57304000  0.17725000  1.0
  C  C129  1  0.26238000  0.39255000  0.52769000  1.0
  C  C130  1  0.86974000  0.13517000  0.60749000  1.0
  C  C131  1  0.73471000  0.47243000  0.86482000  1.0
  C  C132  1  0.73762000  0.60745000  0.47231000  1.0
  C  C133  1  0.13026000  0.86484000  0.39251000  1.0
  C  C134  1  0.26529000  0.52757000  0.13518000  1.0
  C  C135  1  0.68398000  0.67557000  0.51280000  1.0
  C  C136  1  0.00844000  0.83716000  0.32442000  1.0
  C  C137  1  0.17108000  0.48720000  0.16288000  1.0
  C  C138  1  0.31602000  0.32443000  0.48720000  1.0
  C  C139  1  0.99156000  0.16284000  0.67558000  1.0
  C  C140  1  0.82892000  0.51280000  0.83712000  1.0
  C  C141  1  0.17844000  0.64788000  0.66361000  1.0
  C  C142  1  0.53076000  0.01574000  0.35215000  1.0
  C  C143  1  0.51488000  0.33650000  0.98422000  1.0
  C  C144  1  0.82157000  0.35212000  0.33639000  1.0
  C  C145  1  0.46924000  0.98426000  0.64785000  1.0
  C  C146  1  0.48512000  0.66350000  0.01578000  1.0
  C  C147  1  0.02334000  0.63047000  0.63282000  1.0
  C  C148  1  0.39302000  0.00232000  0.36948000  1.0
  C  C149  1  0.39051000  0.36723000  0.99759000  1.0
  C  C150  1  0.97666000  0.36954000  0.36718000  1.0
  C  C151  1  0.60698000  0.99768000  0.63052000  1.0
  C  C152  1  0.60950000  0.63277000  0.00241000  1.0
  C  C153  1  0.93962000  0.67567000  0.68066000  1.0
  C  C154  1  0.26421000  0.00503000  0.32427000  1.0
  C  C155  1  0.25901000  0.31934000  0.99490000  1.0
  C  C156  1  0.06038000  0.32433000  0.31934000  1.0
  C  C157  1  0.73579000  0.99497000  0.67573000  1.0
  C  C158  1  0.74098000  0.68065000  0.00509000  1.0
  C  C159  1  0.00919000  0.73821000  0.76035000  1.0
  C  C160  1  0.27140000  0.02233000  0.26183000  1.0
  C  C161  1  0.24894000  0.23961000  0.97758000  1.0
  C  C162  1  0.99081000  0.26179000  0.23965000  1.0
  C  C163  1  0.72860000  0.97767000  0.73817000  1.0
  C  C164  1  0.75106000  0.76039000  0.02242000  1.0
  C  C165  1  0.16321000  0.75531000  0.79205000  1.0
  C  C166  1  0.40837000  0.03697000  0.24480000  1.0
  C  C167  1  0.37132000  0.20795000  0.96297000  1.0
  C  C168  1  0.83679000  0.24469000  0.20795000  1.0
  C  C169  1  0.59163000  0.96303000  0.75520000  1.0
  C  C170  1  0.62868000  0.79205000  0.03703000  1.0
  C  C171  1  0.24706000  0.71076000  0.74396000  1.0
  C  C172  1  0.53667000  0.03336000  0.28936000  1.0
  C  C173  1  0.50330000  0.25612000  0.96666000  1.0
  C  C174  1  0.75294000  0.28924000  0.25604000  1.0
  C  C175  1  0.46333000  0.96664000  0.71064000  1.0
  C  C176  1  0.49670000  0.74388000  0.03334000  1.0
  C  C177  1  0.75258000  0.75042000  0.51231000  1.0
  C  C178  1  0.00222000  0.76187000  0.24957000  1.0
  C  C179  1  0.24025000  0.48761000  0.23815000  1.0
  C  C180  1  0.24742000  0.24958000  0.48769000  1.0
  C  C181  1  0.99778000  0.23813000  0.75043000  1.0
  C  C182  1  0.75975000  0.51239000  0.76185000  1.0
  C  C183  1  0.67314000  0.77573000  0.46426000  1.0
  C  C184  1  0.89738000  0.68858000  0.22426000  1.0
  C  C185  1  0.20903000  0.53569000  0.31152000  1.0
  C  C186  1  0.32686000  0.22427000  0.53574000  1.0
  C  C187  1  0.10262000  0.31142000  0.77574000  1.0
  C  C188  1  0.79097000  0.46431000  0.68848000  1.0
  C  C189  1  0.95370000  0.86949000  0.55996000  1.0
  C  C190  1  0.08432000  0.69038000  0.13050000  1.0
  C  C191  1  0.39395000  0.43998000  0.30958000  1.0
  C  C192  1  0.04630000  0.13051000  0.44004000  1.0
  C  C193  1  0.91568000  0.30961000  0.86950000  1.0
  C  C194  1  0.60605000  0.56002000  0.69042000  1.0
  C  C195  1  0.73930000  0.84729000  0.46702000  1.0
  C  C196  1  0.89217000  0.61974000  0.15277000  1.0
  C  C197  1  0.27264000  0.53299000  0.38034000  1.0
  C  C198  1  0.26070000  0.15271000  0.53298000  1.0
  C  C199  1  0.10783000  0.38026000  0.84723000  1.0
  C  C200  1  0.72736000  0.46701000  0.61966000  1.0
  C  C201  1  0.89672000  0.79878000  0.56096000  1.0
  C  C202  1  0.09818000  0.76209000  0.20125000  1.0
  C  C203  1  0.33592000  0.43900000  0.23787000  1.0
  C  C204  1  0.10328000  0.20122000  0.43904000  1.0
  C  C205  1  0.90182000  0.23791000  0.79875000  1.0
  C  C206  1  0.66408000  0.56100000  0.76213000  1.0
  N  N207  1  0.48613000  0.61890000  0.55750000  1.0
  N  N208  1  0.86725000  0.93851000  0.38113000  1.0
  N  N209  1  0.92855000  0.44267000  0.06156000  1.0
  N  N210  1  0.51387000  0.38110000  0.44250000  1.0
  N  N211  1  0.13275000  0.06149000  0.61887000  1.0
  N  N212  1  0.07145000  0.55733000  0.93844000  1.0
  N  N213  1  0.31181000  0.46687000  0.53439000  1.0
  N  N214  1  0.84499000  0.06755000  0.53319000  1.0
  N  N215  1  0.77750000  0.46572000  0.93244000  1.0
  N  N216  1  0.68819000  0.53313000  0.46562000  1.0
  N  N217  1  0.15501000  0.93245000  0.46681000  1.0
  N  N218  1  0.22249000  0.53428000  0.06756000  1.0
  N  N219  1  0.87719000  0.89365000  0.51401000  1.0
  N  N220  1  0.98364000  0.62031000  0.10635000  1.0
  N  N221  1  0.36346000  0.48594000  0.37969000  1.0
  N  N222  1  0.12281000  0.10635000  0.48599000  1.0
  N  N223  1  0.01636000  0.37969000  0.89365000  1.0
  N  N224  1  0.63654000  0.51406000  0.62031000  1.0
