# generated using pymatgen
data_Zr6H25C52Cl5O32
_symmetry_space_group_name_H-M   'P 1'
_cell_length_a   14.78553662
_cell_length_b   14.78550393
_cell_length_c   14.78650000
_cell_angle_alpha   60.04832121
_cell_angle_beta   60.00573485
_cell_angle_gamma   60.08906558
_symmetry_Int_Tables_number   1
_chemical_formula_structural   Zr6H25C52Cl5O32
_chemical_formula_sum   'Zr6 H25 C52 Cl5 O32'
_cell_volume   2288.19224457
_cell_formula_units_Z   1
loop_
 _symmetry_equiv_pos_site_id
 _symmetry_equiv_pos_as_xyz
  1  'x, y, z'
loop_
 _atom_site_type_symbol
 _atom_site_label
 _atom_site_symmetry_multiplicity
 _atom_site_fract_x
 _atom_site_fract_y
 _atom_site_fract_z
 _atom_site_occupancy
  Zr  Zr0  1  0.88277000  0.87834000  0.61752000  1.0
  Zr  Zr1  1  0.11921000  0.12006000  0.37624000  1.0
  Zr  Zr2  1  0.87993000  0.11607000  0.37932000  1.0
  Zr  Zr3  1  0.12162000  0.88005000  0.61622000  1.0
  Zr  Zr4  1  0.88302000  0.11867000  0.61631000  1.0
  Zr  Zr5  1  0.12250000  0.87925000  0.37750000  1.0
  H  H6  1  0.71904000  0.09181000  0.59353000  1.0
  H  H7  1  0.09382000  0.09639000  0.58967000  1.0
  H  H8  1  0.09408000  0.09214000  0.21470000  1.0
  H  H9  1  0.09706000  0.71660000  0.59151000  1.0
  H  H10  1  0.60654000  0.83182000  0.94152000  1.0
  H  H11  1  0.59377000  0.14358000  0.90781000  1.0
  H  H12  1  0.43483000  0.84153000  0.10909000  1.0
  H  H13  1  0.84915000  0.58725000  0.63465000  1.0
  H  H14  1  0.14341000  0.59312000  0.34839000  1.0
  H  H15  1  0.85548000  0.41888000  0.62584000  1.0
  H  H16  1  0.85956000  0.14475000  0.91572000  1.0
  H  H17  1  0.11616000  0.82764000  0.93462000  1.0
  H  H18  1  0.86576000  0.13482000  0.08723000  1.0
  H  H19  1  0.42964000  0.58667000  0.34488000  1.0
  H  H20  1  0.41491000  0.59217000  0.63989000  1.0
  H  H21  1  0.59810000  0.41653000  0.35338000  1.0
  H  H22  1  0.57928000  0.96643000  0.70871000  1.0
  H  H23  1  0.41730000  0.95364000  0.87814000  1.0
  H  H24  1  0.24088000  0.97182000  0.70734000  1.0
  H  H25  1  0.24735000  0.95604000  0.87752000  1.0
  H  H26  1  0.47912000  0.04440000  0.32660000  1.0
  H  H27  1  0.64953000  0.04128000  0.32760000  1.0
  H  H28  1  0.13676000  0.58565000  0.92867000  1.0
  H  H29  1  0.84990000  0.59668000  0.91087000  1.0
  H  H30  1  0.12606000  0.41652000  0.09798000  1.0
  C  C31  1  0.70583000  0.99092000  0.80846000  1.0
  C  C32  1  0.99986000  0.30820000  0.48851000  1.0
  C  C33  1  0.31088000  0.99805000  0.19848000  1.0
  C  C34  1  0.99798000  0.69832000  0.49529000  1.0
  C  C35  1  0.69777000  0.99564000  0.49866000  1.0
  C  C36  1  0.99876000  0.69953000  0.80586000  1.0
  C  C37  1  0.30478000  0.99947000  0.49653000  1.0
  C  C38  1  0.98910000  0.30648000  0.19812000  1.0
  C  C39  1  0.70050000  0.30481000  0.49866000  1.0
  C  C40  1  0.99743000  0.98536000  0.20238000  1.0
  C  C41  1  0.31036000  0.69975000  0.49192000  1.0
  C  C42  1  0.99477000  0.99475000  0.80678000  1.0
  C  C43  1  0.41689000  0.99715000  0.10248000  1.0
  C  C44  1  0.60905000  0.98853000  0.91363000  1.0
  C  C45  1  0.46432000  0.08185000  0.04619000  1.0
  C  C46  1  0.56610000  0.90149000  0.97121000  1.0
  C  C47  1  0.55902000  0.07703000  0.95239000  1.0
  C  C48  1  0.47131000  0.90691000  0.06389000  1.0
  C  C49  1  0.00222000  0.41057000  0.48370000  1.0
  C  C50  1  0.99681000  0.59953000  0.49203000  1.0
  C  C51  1  0.08379000  0.46129000  0.40406000  1.0
  C  C52  1  0.91449000  0.55129000  0.57075000  1.0
  C  C53  1  0.08036000  0.55461000  0.40928000  1.0
  C  C54  1  0.91817000  0.45827000  0.56570000  1.0
  C  C55  1  0.99415000  0.97755000  0.10685000  1.0
  C  C56  1  0.98964000  0.98771000  0.91361000  1.0
  C  C57  1  0.06325000  0.88881000  0.06452000  1.0
  C  C58  1  0.91653000  0.07379000  0.95764000  1.0
  C  C59  1  0.06099000  0.89504000  0.96829000  1.0
  C  C60  1  0.91983000  0.06794000  0.05262000  1.0
  C  C61  1  0.60108000  0.40761000  0.50071000  1.0
  C  C62  1  0.41220000  0.59956000  0.49229000  1.0
  C  C63  1  0.54829000  0.45838000  0.58223000  1.0
  C  C64  1  0.46355000  0.55053000  0.41071000  1.0
  C  C65  1  0.45515000  0.55349000  0.57701000  1.0
  C  C66  1  0.55655000  0.45631000  0.41567000  1.0
  C  C67  1  0.59238000  0.00005000  0.50343000  1.0
  C  C68  1  0.50322000  0.98250000  0.60581000  1.0
  C  C69  1  0.58196000  0.02447000  0.40487000  1.0
  C  C70  1  0.50498000  0.96994000  0.70682000  1.0
  C  C71  1  0.41454000  0.96143000  0.80219000  1.0
  C  C72  1  0.40089000  0.00316000  0.50233000  1.0
  C  C73  1  0.48645000  0.02607000  0.40428000  1.0
  C  C74  1  0.40530000  0.98413000  0.60525000  1.0
  C  C75  1  0.31449000  0.97302000  0.70595000  1.0
  C  C76  1  0.31860000  0.96295000  0.80175000  1.0
  C  C77  1  0.98394000  0.41030000  0.09950000  1.0
  C  C78  1  0.99396000  0.60085000  0.90926000  1.0
  C  C79  1  0.90466000  0.46289000  0.04625000  1.0
  C  C80  1  0.07210000  0.55094000  0.96202000  1.0
  C  C81  1  0.91046000  0.55702000  0.95218000  1.0
  C  C82  1  0.06616000  0.45733000  0.05557000  1.0
  Cl  Cl83  1  0.41262000  0.19631000  0.08429000  1.0
  Cl  Cl84  1  0.19251000  0.41568000  0.29669000  1.0
  Cl  Cl85  1  0.15365000  0.76796000  0.12477000  1.0
  Cl  Cl86  1  0.58977000  0.41024000  0.69366000  1.0
  Cl  Cl87  1  0.79671000  0.41834000  0.08914000  1.0
  O  O88  1  0.74088000  0.91633000  0.76756000  1.0
  O  O89  1  0.07467000  0.26575000  0.41342000  1.0
  O  O90  1  0.26442000  0.07700000  0.23669000  1.0
  O  O91  1  0.92222000  0.73560000  0.57393000  1.0
  O  O92  1  0.73820000  0.07134000  0.41970000  1.0
  O  O93  1  0.07777000  0.73627000  0.76570000  1.0
  O  O94  1  0.26611000  0.92120000  0.57173000  1.0
  O  O95  1  0.91622000  0.26172000  0.23822000  1.0
  O  O96  1  0.74271000  0.26218000  0.57400000  1.0
  O  O97  1  0.07876000  0.91614000  0.23737000  1.0
  O  O98  1  0.27079000  0.73756000  0.41555000  1.0
  O  O99  1  0.92210000  0.07582000  0.76410000  1.0
  O  O100  1  0.92039000  0.06354000  0.23949000  1.0
  O  O101  1  0.26937000  0.73893000  0.56929000  1.0
  O  O102  1  0.07340000  0.92007000  0.76510000  1.0
  O  O103  1  0.73572000  0.26576000  0.42269000  1.0
  O  O104  1  0.74033000  0.91765000  0.57285000  1.0
  O  O105  1  0.06787000  0.26857000  0.23422000  1.0
  O  O106  1  0.26833000  0.07379000  0.41731000  1.0
  O  O107  1  0.92361000  0.73843000  0.76440000  1.0
  O  O108  1  0.07580000  0.73700000  0.42000000  1.0
  O  O109  1  0.74399000  0.06926000  0.76616000  1.0
  O  O110  1  0.92414000  0.26869000  0.56867000  1.0
  O  O111  1  0.27296000  0.92096000  0.23434000  1.0
  O  O112  1  0.07015000  0.79681000  0.56477000  1.0
  O  O113  1  0.06754000  0.06564000  0.29499000  1.0
  O  O114  1  0.06836000  0.06762000  0.56360000  1.0
  O  O115  1  0.79928000  0.06434000  0.56633000  1.0
  O  O116  1  0.95043000  0.14719000  0.44752000  1.0
  O  O117  1  0.95244000  0.94917000  0.64648000  1.0
  O  O118  1  0.15004000  0.95034000  0.44707000  1.0
  O  O119  1  0.95256000  0.94766000  0.44850000  1.0
