# generated using pymatgen
data_MnH14C20(NO3)2
_symmetry_space_group_name_H-M   'P 1'
_cell_length_a   9.97136000
_cell_length_b   10.13050000
_cell_length_c   10.13000000
_cell_angle_alpha   68.43360000
_cell_angle_beta   73.60190000
_cell_angle_gamma   73.60520000
_symmetry_Int_Tables_number   1
_chemical_formula_structural   MnH14C20(NO3)2
_chemical_formula_sum   'Mn2 H28 C40 N4 O12'
_cell_volume   894.47771779
_cell_formula_units_Z   2
loop_
 _symmetry_equiv_pos_site_id
 _symmetry_equiv_pos_as_xyz
  1  'x, y, z'
loop_
 _atom_site_type_symbol
 _atom_site_label
 _atom_site_symmetry_multiplicity
 _atom_site_fract_x
 _atom_site_fract_y
 _atom_site_fract_z
 _atom_site_occupancy
  Mn  Mn0  1  0.75006000  0.03162000  0.96830000  1.0
  Mn  Mn1  1  0.25008000  0.96305000  0.03693000  1.0
  H  H2  1  0.38140000  0.85783000  0.73874000  1.0
  H  H3  1  0.11871000  0.26121000  0.14204000  1.0
  H  H4  1  0.59630000  0.13329000  0.26886000  1.0
  H  H5  1  0.90373000  0.73114000  0.86662000  1.0
  H  H6  1  0.44532000  0.93717000  0.44084000  1.0
  H  H7  1  0.05469000  0.55911000  0.06294000  1.0
  H  H8  1  0.53853000  0.05705000  0.56694000  1.0
  H  H9  1  0.96145000  0.43308000  0.94305000  1.0
  H  H10  1  0.18351000  0.03635000  0.36066000  1.0
  H  H11  1  0.31652000  0.63932000  0.96362000  1.0
  H  H12  1  0.80351000  0.96519000  0.63997000  1.0
  H  H13  1  0.69653000  0.36004000  0.03484000  1.0
  H  H14  1  0.52790000  0.88662000  0.19623000  1.0
  H  H15  1  0.97199000  0.80379000  0.11331000  1.0
  H  H16  1  0.47108000  0.12137000  0.80176000  1.0
  H  H17  1  0.02890000  0.19828000  0.87865000  1.0
  H  H18  1  0.51921000  0.67607000  0.41627000  1.0
  H  H19  1  0.98072000  0.58376000  0.32381000  1.0
  H  H20  1  0.48066000  0.33690000  0.57963000  1.0
  H  H21  1  0.01936000  0.42035000  0.66309000  1.0
  H  H22  1  0.56663000  0.57027000  0.66135000  1.0
  H  H23  1  0.93335000  0.33875000  0.42975000  1.0
  H  H24  1  0.43460000  0.42869000  0.34112000  1.0
  H  H25  1  0.06539000  0.65887000  0.57131000  1.0
  H  H26  1  0.92415000  0.12892000  0.64930000  1.0
  H  H27  1  0.57580000  0.35069000  0.87110000  1.0
  H  H28  1  0.07181000  0.87064000  0.34744000  1.0
  H  H29  1  0.42821000  0.65257000  0.12936000  1.0
  C  C30  1  0.06641000  0.91764000  0.84724000  1.0
  C  C31  1  0.43364000  0.15276000  0.08236000  1.0
  C  C32  1  0.91467000  0.08199000  0.15554000  1.0
  C  C33  1  0.58531000  0.84439000  0.91809000  1.0
  C  C34  1  0.16117000  0.92436000  0.70577000  1.0
  C  C35  1  0.33883000  0.29423000  0.07555000  1.0
  C  C36  1  0.81743000  0.06852000  0.29643000  1.0
  C  C37  1  0.68256000  0.70355000  0.93136000  1.0
  C  C38  1  0.30788000  0.89864000  0.66486000  1.0
  C  C39  1  0.19213000  0.33516000  0.10131000  1.0
  C  C40  1  0.67127000  0.09275000  0.34092000  1.0
  C  C41  1  0.82874000  0.65910000  0.90716000  1.0
  C  C42  1  0.34054000  0.94186000  0.51061000  1.0
  C  C43  1  0.15950000  0.48939000  0.05817000  1.0
  C  C44  1  0.64211000  0.05260000  0.49499000  1.0
  C  C45  1  0.85789000  0.50505000  0.94739000  1.0
  C  C46  1  0.21274000  0.99146000  0.46603000  1.0
  C  C47  1  0.28733000  0.53393000  0.00856000  1.0
  C  C48  1  0.77164000  0.00612000  0.53597000  1.0
  C  C49  1  0.72840000  0.46404000  0.99385000  1.0
  C  C50  1  0.62654000  0.81831000  0.22901000  1.0
  C  C51  1  0.87336000  0.77105000  0.18174000  1.0
  C  C52  1  0.37369000  0.19036000  0.76582000  1.0
  C  C53  1  0.12631000  0.23420000  0.80965000  1.0
  C  C54  1  0.62304000  0.69900000  0.35291000  1.0
  C  C55  1  0.87686000  0.64711000  0.30099000  1.0
  C  C56  1  0.37821000  0.30996000  0.64241000  1.0
  C  C57  1  0.12180000  0.35757000  0.69003000  1.0
  C  C58  1  0.74995000  0.60684000  0.39318000  1.0
  C  C59  1  0.25001000  0.39684000  0.60315000  1.0
  C  C60  1  0.74999000  0.47795000  0.52210000  1.0
  C  C61  1  0.25001000  0.52515000  0.47485000  1.0
  C  C62  1  0.64837000  0.47471000  0.65156000  1.0
  C  C63  1  0.85162000  0.34852000  0.52530000  1.0
  C  C64  1  0.35342000  0.52515000  0.34819000  1.0
  C  C65  1  0.14659000  0.65179000  0.47485000  1.0
  C  C66  1  0.65295000  0.35082000  0.77154000  1.0
  C  C67  1  0.84700000  0.22848000  0.64914000  1.0
  C  C68  1  0.34970000  0.64910000  0.22910000  1.0
  C  C69  1  0.15033000  0.77090000  0.35092000  1.0
  N  N70  1  0.74996000  0.85834000  0.14173000  1.0
  N  N71  1  0.24999000  0.15243000  0.84762000  1.0
  N  N72  1  0.74996000  0.22580000  0.77415000  1.0
  N  N73  1  0.25002000  0.77073000  0.22928000  1.0
  O  O74  1  0.12583000  0.88093000  0.95506000  1.0
  O  O75  1  0.37420000  0.04494000  0.11904000  1.0
  O  O76  1  0.86355000  0.10915000  0.04249000  1.0
  O  O77  1  0.63643000  0.95736000  0.89120000  1.0
  O  O78  1  0.93061000  0.94982000  0.85153000  1.0
  O  O79  1  0.56940000  0.14850000  0.05039000  1.0
  O  O80  1  0.04657000  0.07145000  0.14937000  1.0
  O  O81  1  0.45339000  0.85059000  0.92857000  1.0
  O  O82  1  0.10238000  0.98018000  0.58306000  1.0
  O  O83  1  0.39767000  0.41691000  0.01979000  1.0
  O  O84  1  0.87941000  0.01658000  0.41694000  1.0
  O  O85  1  0.62060000  0.58304000  0.98334000  1.0
