# generated using pymatgen
data_VH8C10Se(NO2)2
_symmetry_space_group_name_H-M   'P 1'
_cell_length_a   11.21830000
_cell_length_b   11.25000000
_cell_length_c   11.45652298
_cell_angle_alpha   111.56177018
_cell_angle_beta   117.74489079
_cell_angle_gamma   98.22940000
_symmetry_Int_Tables_number   1
_chemical_formula_structural   VH8C10Se(NO2)2
_chemical_formula_sum   'V4 H32 C40 Se4 N8 O16'
_cell_volume   1099.96421156
_cell_formula_units_Z   4
loop_
 _symmetry_equiv_pos_site_id
 _symmetry_equiv_pos_as_xyz
  1  'x, y, z'
loop_
 _atom_site_type_symbol
 _atom_site_label
 _atom_site_symmetry_multiplicity
 _atom_site_fract_x
 _atom_site_fract_y
 _atom_site_fract_z
 _atom_site_occupancy
  V  V0  1  0.86685000  0.40109000  0.70543000  1.0
  V  V1  1  0.19540000  0.16102000  0.79411000  1.0
  V  V2  1  0.13429000  0.60017000  0.29590000  1.0
  V  V3  1  0.80436000  0.83880000  0.20468000  1.0
  H  H4  1  0.69034000  0.22306000  0.78175000  1.0
  H  H5  1  0.94288000  0.91015000  0.71948000  1.0
  H  H6  1  0.30998000  0.77704000  0.21810000  1.0
  H  H7  1  0.05727000  0.09001000  0.28052000  1.0
  H  H8  1  0.42906000  0.06803000  0.65630000  1.0
  H  H9  1  0.91340000  0.77339000  0.84513000  1.0
  H  H10  1  0.57104000  0.93153000  0.34310000  1.0
  H  H11  1  0.08669000  0.22712000  0.15548000  1.0
  H  H12  1  0.23542000  0.04786000  0.41762000  1.0
  H  H13  1  0.13092000  0.81760000  0.08388000  1.0
  H  H14  1  0.76477000  0.95256000  0.58261000  1.0
  H  H15  1  0.86926000  0.18236000  0.91598000  1.0
  H  H16  1  0.30018000  0.19172000  0.31671000  1.0
  H  H17  1  0.37467000  0.98271000  0.18405000  1.0
  H  H18  1  0.70001000  0.80860000  0.68341000  1.0
  H  H19  1  0.62544000  0.01734000  0.81579000  1.0
  H  H20  1  0.36933000  0.34920000  0.27524000  1.0
  H  H21  1  0.57346000  0.09376000  0.22513000  1.0
  H  H22  1  0.63015000  0.65116000  0.72417000  1.0
  H  H23  1  0.42756000  0.90622000  0.77536000  1.0
  H  H24  1  0.47452000  0.51168000  0.21862000  1.0
  H  H25  1  0.79157000  0.25546000  0.28105000  1.0
  H  H26  1  0.52471000  0.48837000  0.78082000  1.0
  H  H27  1  0.20901000  0.74427000  0.71934000  1.0
  H  H28  1  0.74584000  0.62758000  0.36546000  1.0
  H  H29  1  0.76046000  0.38023000  0.13355000  1.0
  H  H30  1  0.25294000  0.37272000  0.63330000  1.0
  H  H31  1  0.24096000  0.61977000  0.86751000  1.0
  H  H32  1  0.90238000  0.57305000  0.56718000  1.0
  H  H33  1  0.50485000  0.33488000  0.93141000  1.0
  H  H34  1  0.09702000  0.42693000  0.43214000  1.0
  H  H35  1  0.49559000  0.66506000  0.06909000  1.0
  C  C36  1  0.59945000  0.21281000  0.67892000  1.0
  C  C37  1  0.03502000  0.92138000  0.82213000  1.0
  C  C38  1  0.40074000  0.78748000  0.32111000  1.0
  C  C39  1  0.96514000  0.07853000  0.17773000  1.0
  C  C40  1  0.45688000  0.12680000  0.60928000  1.0
  C  C41  1  0.01875000  0.84801000  0.89192000  1.0
  C  C42  1  0.54319000  0.87305000  0.39035000  1.0
  C  C43  1  0.98140000  0.15225000  0.10841000  1.0
  C  C44  1  0.34747000  0.11705000  0.47564000  1.0
  C  C45  1  0.14210000  0.87179000  0.02556000  1.0
  C  C46  1  0.65280000  0.88304000  0.52437000  1.0
  C  C47  1  0.85791000  0.12839000  0.97443000  1.0
  C  C48  1  0.38372000  0.19650000  0.41974000  1.0
  C  C49  1  0.27688000  0.96367000  0.08106000  1.0
  C  C50  1  0.61653000  0.80370000  0.58021000  1.0
  C  C51  1  0.72327000  0.03657000  0.91894000  1.0
  C  C52  1  0.52953000  0.28285000  0.49751000  1.0
  C  C53  1  0.28553000  0.03200000  0.00298000  1.0
  C  C54  1  0.47055000  0.71752000  0.50281000  1.0
  C  C55  1  0.71443000  0.96759000  0.99656000  1.0
  C  C56  1  0.58061000  0.37431000  0.45231000  1.0
  C  C57  1  0.42166000  0.12794000  0.04752000  1.0
  C  C58  1  0.41929000  0.62634000  0.54747000  1.0
  C  C59  1  0.57915000  0.87205000  0.95258000  1.0
  C  C60  1  0.48715000  0.39929000  0.33822000  1.0
  C  C61  1  0.56038000  0.14850000  0.16165000  1.0
  C  C62  1  0.51236000  0.60078000  0.66134000  1.0
  C  C63  1  0.44011000  0.85134000  0.83866000  1.0
  C  C64  1  0.54583000  0.49118000  0.30693000  1.0
  C  C65  1  0.68310000  0.23846000  0.19257000  1.0
  C  C66  1  0.45375000  0.50891000  0.69245000  1.0
  C  C67  1  0.31757000  0.76168000  0.80790000  1.0
  C  C68  1  0.69717000  0.55689000  0.38979000  1.0
  C  C69  1  0.66587000  0.30711000  0.10938000  1.0
  C  C70  1  0.30199000  0.44330000  0.60916000  1.0
  C  C71  1  0.33532000  0.69308000  0.89159000  1.0
  C  C72  1  0.78381000  0.52708000  0.50043000  1.0
  C  C73  1  0.52576000  0.28304000  0.99853000  1.0
  C  C74  1  0.21558000  0.47326000  0.49893000  1.0
  C  C75  1  0.47510000  0.71691000  0.00201000  1.0
  Se  Se76  1  0.13025000  0.41110000  0.99295000  1.0
  Se  Se77  1  0.91822000  0.13675000  0.50640000  1.0
  Se  Se78  1  0.86894000  0.58770000  0.00743000  1.0
  Se  Se79  1  0.08049000  0.86219000  0.49365000  1.0
  N  N80  1  0.63507000  0.28784000  0.62398000  1.0
  N  N81  1  0.16445000  0.01172000  0.87676000  1.0
  N  N82  1  0.36477000  0.71288000  0.37640000  1.0
  N  N83  1  0.83578000  0.98751000  0.12270000  1.0
  N  N84  1  0.72796000  0.43810000  0.53216000  1.0
  N  N85  1  0.40552000  0.19539000  0.96710000  1.0
  N  N86  1  0.27128000  0.56300000  0.46733000  1.0
  N  N87  1  0.59601000  0.80430000  0.03337000  1.0
  O  O88  1  0.94014000  0.35070000  0.86672000  1.0
  O  O89  1  0.98437000  0.07420000  0.63453000  1.0
  O  O90  1  0.05876000  0.64628000  0.13396000  1.0
  O  O91  1  0.01182000  0.92400000  0.36530000  1.0
  O  O92  1  0.01194000  0.47509000  0.71978000  1.0
  O  O93  1  0.25445000  0.29087000  0.77840000  1.0
  O  O94  1  0.98886000  0.52418000  0.27982000  1.0
  O  O95  1  0.74478000  0.71053000  0.22219000  1.0
  O  O96  1  0.15055000  0.44000000  0.16153000  1.0
  O  O97  1  0.77875000  0.98928000  0.33967000  1.0
  O  O98  1  0.85180000  0.56213000  0.84191000  1.0
  O  O99  1  0.22010000  0.00986000  0.65718000  1.0
  O  O100  1  0.16172000  0.26070000  0.95496000  1.0
  O  O101  1  0.80664000  0.20766000  0.54543000  1.0
  O  O102  1  0.83998000  0.74036000  0.04861000  1.0
  O  O103  1  0.19123000  0.79076000  0.45133000  1.0
