# generated using pymatgen
data_AlH33C45(NO)6
_symmetry_space_group_name_H-M   'P 1'
_cell_length_a   3.92883000
_cell_length_b   23.53430000
_cell_length_c   23.54080000
_cell_angle_alpha   60.05010000
_cell_angle_beta   87.27060000
_cell_angle_gamma   87.24190000
_symmetry_Int_Tables_number   1
_chemical_formula_structural   AlH33C45(NO)6
_chemical_formula_sum   'Al1 H33 C45 N6 O6'
_cell_volume   1883.08771075
_cell_formula_units_Z   1
loop_
 _symmetry_equiv_pos_site_id
 _symmetry_equiv_pos_as_xyz
  1  'x, y, z'
loop_
 _atom_site_type_symbol
 _atom_site_label
 _atom_site_symmetry_multiplicity
 _atom_site_fract_x
 _atom_site_fract_y
 _atom_site_fract_z
 _atom_site_occupancy
  Al  Al0  1  0.02027000  0.50009000  0.50007000  1.0
  H  H1  1  0.50330000  0.32027000  0.68070000  1.0
  H  H2  1  0.49278000  0.19957000  0.74464000  1.0
  H  H3  1  0.16245000  0.98405000  0.83503000  1.0
  H  H4  1  0.52428000  0.74203000  0.19514000  1.0
  H  H5  1  0.76461000  0.76971000  0.10531000  1.0
  H  H6  1  0.77091000  0.83275000  0.98563000  1.0
  H  H7  1  0.49020000  0.89453000  0.89426000  1.0
  H  H8  1  0.46220000  0.50022000  0.32106000  1.0
  H  H9  1  0.46012000  0.55664000  0.20053000  1.0
  H  H10  1  0.17964000  0.68432000  0.98396000  1.0
  H  H11  1  0.44678000  0.56392000  0.74225000  1.0
  H  H12  1  0.73917000  0.62268000  0.76674000  1.0
  H  H13  1  0.76063000  0.67916000  0.83017000  1.0
  H  H14  1  0.47117000  0.71193000  0.89430000  1.0
  H  H15  1  0.42487000  0.68090000  0.49990000  1.0
  H  H16  1  0.42217000  0.74496000  0.55683000  1.0
  H  H17  1  0.13470000  0.83650000  0.68756000  1.0
  H  H18  1  0.49627000  0.19447000  0.56383000  1.0
  H  H19  1  0.79631000  0.10483000  0.62402000  1.0
  H  H20  1  0.79751000  0.98440000  0.68076000  1.0
  H  H21  1  0.46861000  0.89449000  0.71195000  1.0
  H  H22  1  0.51068000  0.46126000  0.66840000  1.0
  H  H23  1  0.40180000  0.46445000  0.73736000  1.0
  H  H24  1  0.54191000  0.37033000  0.46118000  1.0
  H  H25  1  0.43234000  0.30002000  0.46488000  1.0
  H  H26  1  0.62250000  0.66754000  0.36979000  1.0
  H  H27  1  0.51475000  0.73800000  0.29958000  1.0
  H  H28  1  0.97380000  0.75687000  0.59804000  1.0
  H  H29  1  0.87226000  0.81791000  0.61337000  1.0
  H  H30  1  0.03016000  0.15624000  0.75489000  1.0
  H  H31  1  0.91950000  0.08223000  0.81609000  1.0
  H  H32  1  0.02595000  0.59480000  0.15424000  1.0
  H  H33  1  0.94256000  0.60823000  0.07947000  1.0
  C  C34  1  0.53235000  0.39838000  0.55138000  1.0
  C  C35  1  0.48925000  0.55167000  0.55028000  1.0
  C  C36  1  0.53138000  0.55021000  0.39861000  1.0
  C  C37  1  0.50764000  0.29201000  0.65544000  1.0
  C  C38  1  0.49609000  0.22410000  0.69133000  1.0
  C  C39  1  0.29907000  0.07920000  0.75670000  1.0
  C  C40  1  0.30977000  0.01041000  0.78917000  1.0
  C  C41  1  0.56190000  0.65643000  0.29011000  1.0
  C  C42  1  0.52065000  0.68855000  0.22195000  1.0
  C  C43  1  0.62336000  0.75175000  0.07899000  1.0
  C  C44  1  0.62830000  0.78773000  0.01103000  1.0
  C  C45  1  0.53052000  0.32567000  0.58693000  1.0
  C  C46  1  0.48958000  0.18730000  0.65891000  1.0
  C  C47  1  0.47667000  0.11488000  0.69540000  1.0
  C  C48  1  0.48080000  0.97510000  0.76280000  1.0
  C  C49  1  0.48157000  0.90268000  0.79897000  1.0
  C  C50  1  0.48503000  0.86769000  0.86766000  1.0
  C  C51  1  0.48328000  0.55340000  0.29262000  1.0
  C  C52  1  0.47241000  0.58546000  0.22482000  1.0
  C  C53  1  0.30077000  0.66683000  0.07919000  1.0
  C  C54  1  0.31661000  0.70282000  0.01039000  1.0
  C  C55  1  0.48487000  0.55353000  0.65675000  1.0
  C  C56  1  0.45071000  0.59040000  0.68874000  1.0
  C  C57  1  0.59477000  0.66872000  0.75034000  1.0
  C  C58  1  0.60755000  0.70041000  0.78647000  1.0
  C  C59  1  0.52934000  0.58731000  0.32631000  1.0
  C  C60  1  0.48025000  0.65481000  0.18778000  1.0
  C  C61  1  0.46367000  0.69093000  0.11545000  1.0
  C  C62  1  0.47635000  0.76295000  0.97525000  1.0
  C  C63  1  0.48077000  0.79900000  0.90283000  1.0
  C  C64  1  0.47390000  0.76537000  0.86775000  1.0
  C  C65  1  0.43558000  0.65571000  0.55326000  1.0
  C  C66  1  0.42562000  0.69163000  0.58548000  1.0
  C  C67  1  0.25145000  0.75740000  0.66861000  1.0
  C  C68  1  0.27484000  0.78988000  0.70461000  1.0
  C  C69  1  0.53775000  0.28991000  0.55320000  1.0
  C  C70  1  0.50756000  0.22152000  0.59018000  1.0
  C  C71  1  0.64744000  0.07839000  0.66961000  1.0
  C  C72  1  0.64876000  0.01036000  0.70143000  1.0
  C  C73  1  0.46936000  0.58726000  0.58743000  1.0
  C  C74  1  0.42706000  0.65913000  0.65473000  1.0
  C  C75  1  0.42127000  0.69537000  0.69103000  1.0
  C  C76  1  0.44940000  0.76267000  0.76322000  1.0
  C  C77  1  0.46694000  0.79893000  0.79914000  1.0
  C  C78  1  0.47309000  0.86764000  0.76539000  1.0
  N  N79  1  0.52893000  0.48581000  0.69338000  1.0
  N  N80  1  0.56879000  0.32062000  0.48516000  1.0
  N  N81  1  0.62596000  0.69256000  0.31999000  1.0
  N  N82  1  0.06362000  0.78812000  0.61157000  1.0
  N  N83  1  0.11435000  0.10978000  0.78666000  1.0
  N  N84  1  0.12528000  0.60827000  0.10866000  1.0
  O  O85  1  0.75648000  0.56365000  0.42766000  1.0
  O  O86  1  0.77436000  0.42690000  0.50942000  1.0
  O  O87  1  0.73266000  0.50895000  0.56339000  1.0
  O  O88  1  0.30716000  0.50641000  0.42897000  1.0
  O  O89  1  0.26532000  0.56509000  0.50732000  1.0
  O  O90  1  0.29039000  0.42862000  0.56469000  1.0
