# generated using pymatgen
data_CdH12C18SN3O4
_symmetry_space_group_name_H-M   'P 1'
_cell_length_a   9.99636000
_cell_length_b   13.06560000
_cell_length_c   24.29500000
_cell_angle_alpha   85.21070000
_cell_angle_beta   84.78150000
_cell_angle_gamma   80.97210000
_symmetry_Int_Tables_number   1
_chemical_formula_structural   CdH12C18SN3O4
_chemical_formula_sum   'Cd6 H72 C108 S6 N18 O24'
_cell_volume   3113.09524181
_cell_formula_units_Z   6
loop_
 _symmetry_equiv_pos_site_id
 _symmetry_equiv_pos_as_xyz
  1  'x, y, z'
loop_
 _atom_site_type_symbol
 _atom_site_label
 _atom_site_symmetry_multiplicity
 _atom_site_fract_x
 _atom_site_fract_y
 _atom_site_fract_z
 _atom_site_occupancy
  Cd  Cd0  1  0.36093000  0.54362000  0.58359000  1.0
  Cd  Cd1  1  0.06101000  0.41461000  0.57871000  1.0
  Cd  Cd2  1  0.84920000  0.67933000  0.60524000  1.0
  Cd  Cd3  1  0.63907000  0.45638000  0.41641000  1.0
  Cd  Cd4  1  0.93899000  0.58539000  0.42129000  1.0
  Cd  Cd5  1  0.15080000  0.32067000  0.39476000  1.0
  H  H6  1  0.12360000  0.04186000  0.79951000  1.0
  H  H7  1  0.19358000  0.05219000  0.89385000  1.0
  H  H8  1  0.60039000  0.91059000  0.84220000  1.0
  H  H9  1  0.53047000  0.90470000  0.74673000  1.0
  H  H10  1  0.43231000  0.76617000  0.56545000  1.0
  H  H11  1  0.38865000  0.93858000  0.60581000  1.0
  H  H12  1  0.25477000  0.78229000  0.76033000  1.0
  H  H13  1  0.29724000  0.61783000  0.71241000  1.0
  H  H14  1  0.20015000  0.32623000  0.68874000  1.0
  H  H15  1  0.29403000  0.16439000  0.74102000  1.0
  H  H16  1  0.15259000  0.99589000  0.61658000  1.0
  H  H17  1  0.07423000  0.16587000  0.56805000  1.0
  H  H18  1  0.86176000  0.09402000  0.87288000  1.0
  H  H19  1  0.75354000  0.03953000  0.79402000  1.0
  H  H20  1  0.85991000  0.30813000  0.69353000  1.0
  H  H21  1  0.96592000  0.36297000  0.77094000  1.0
  H  H22  1  0.42840000  0.37524000  0.98291000  1.0
  H  H23  1  0.54316000  0.42688000  0.06085000  1.0
  H  H24  1  0.15598000  0.48499000  0.15580000  1.0
  H  H25  1  0.04122000  0.43590000  0.07780000  1.0
  H  H26  1  0.37830000  0.40971000  0.69566000  1.0
  H  H27  1  0.51812000  0.25514000  0.74209000  1.0
  H  H28  1  0.75802000  0.21739000  0.58570000  1.0
  H  H29  1  0.61247000  0.37208000  0.54671000  1.0
  H  H30  1  0.64913000  0.89117000  0.58580000  1.0
  H  H31  1  0.59098000  0.06722000  0.62184000  1.0
  H  H32  1  0.94889000  0.99258000  0.71427000  1.0
  H  H33  1  0.98845000  0.81901000  0.67492000  1.0
  H  H34  1  0.27650000  0.22265000  0.27806000  1.0
  H  H35  1  0.35742000  0.28834000  0.18389000  1.0
  H  H36  1  0.39919000  0.57246000  0.25525000  1.0
  H  H37  1  0.32185000  0.49246000  0.34686000  1.0
  H  H38  1  0.48626000  0.81768000  0.10535000  1.0
  H  H39  1  0.35847000  0.66853000  0.10369000  1.0
  H  H40  1  0.65922000  0.48728000  0.20408000  1.0
  H  H41  1  0.77393000  0.64170000  0.20115000  1.0
  H  H42  1  0.87640000  0.95814000  0.20049000  1.0
  H  H43  1  0.80642000  0.94781000  0.10614000  1.0
  H  H44  1  0.39960000  0.08941000  0.15780000  1.0
  H  H45  1  0.46954000  0.09530000  0.25327000  1.0
  H  H46  1  0.56769000  0.23384000  0.43455000  1.0
  H  H47  1  0.61135000  0.06142000  0.39419000  1.0
  H  H48  1  0.74523000  0.21771000  0.23967000  1.0
  H  H49  1  0.70277000  0.38218000  0.28758000  1.0
  H  H50  1  0.79985000  0.67377000  0.31126000  1.0
  H  H51  1  0.70597000  0.83561000  0.25898000  1.0
  H  H52  1  0.84741000  0.00411000  0.38342000  1.0
  H  H53  1  0.92577000  0.83413000  0.43195000  1.0
  H  H54  1  0.13824000  0.90598000  0.12713000  1.0
  H  H55  1  0.24646000  0.96047000  0.20598000  1.0
  H  H56  1  0.14008000  0.69187000  0.30647000  1.0
  H  H57  1  0.03407000  0.63703000  0.22906000  1.0
  H  H58  1  0.57159000  0.62476000  0.01709000  1.0
  H  H59  1  0.45683000  0.57312000  0.93915000  1.0
  H  H60  1  0.84402000  0.51501000  0.84420000  1.0
  H  H61  1  0.95878000  0.56411000  0.92220000  1.0
  H  H62  1  0.62170000  0.59029000  0.30435000  1.0
  H  H63  1  0.48189000  0.74485000  0.25791000  1.0
  H  H64  1  0.24198000  0.78261000  0.41430000  1.0
  H  H65  1  0.38753000  0.62792000  0.45329000  1.0
  H  H66  1  0.35087000  0.10883000  0.41420000  1.0
  H  H67  1  0.40902000  0.93278000  0.37816000  1.0
  H  H68  1  0.05111000  0.00741000  0.28574000  1.0
  H  H69  1  0.01154000  0.18098000  0.32509000  1.0
  H  H70  1  0.72351000  0.77735000  0.72194000  1.0
  H  H71  1  0.64258000  0.71166000  0.81611000  1.0
  H  H72  1  0.60081000  0.42754000  0.74475000  1.0
  H  H73  1  0.67816000  0.50753000  0.65314000  1.0
  H  H74  1  0.51374000  0.18232000  0.89464000  1.0
  H  H75  1  0.64154000  0.33147000  0.89631000  1.0
  H  H76  1  0.34078000  0.51273000  0.79592000  1.0
  H  H77  1  0.22607000  0.35830000  0.79885000  1.0
  C  C78  1  0.44286000  0.98819000  0.92843000  1.0
  C  C79  1  0.47982000  0.99571000  0.97465000  1.0
  C  C80  1  0.32277000  0.97205000  0.76734000  1.0
  C  C81  1  0.22774000  0.01241000  0.80905000  1.0
  C  C82  1  0.26675000  0.01794000  0.86202000  1.0
  C  C83  1  0.40175000  0.98107000  0.87495000  1.0
  C  C84  1  0.49591000  0.93884000  0.83269000  1.0
  C  C85  1  0.45700000  0.93518000  0.77953000  1.0
  C  C86  1  0.39155000  0.77371000  0.60831000  1.0
  C  C87  1  0.36761000  0.86939000  0.63113000  1.0
  C  C88  1  0.31559000  0.87530000  0.68657000  1.0
  C  C89  1  0.29426000  0.78238000  0.71704000  1.0
  C  C90  1  0.31955000  0.69028000  0.69057000  1.0
  C  C91  1  0.19401000  0.25096000  0.67382000  1.0
  C  C92  1  0.24605000  0.15995000  0.70301000  1.0
  C  C93  1  0.23493000  0.06393000  0.68302000  1.0
  C  C94  1  0.16889000  0.06668000  0.63387000  1.0
  C  C95  1  0.12320000  0.16185000  0.60672000  1.0
  C  C96  1  0.98347000  0.26427000  0.87178000  1.0
  C  C97  1  0.04008000  0.29667000  0.90811000  1.0
  C  C98  1  0.10350000  0.33262000  0.94738000  1.0
  C  C99  1  0.16221000  0.36564000  0.98286000  1.0
  C  C100  1  0.92178000  0.23191000  0.82763000  1.0
  C  C101  1  0.86205000  0.13995000  0.83329000  1.0
  C  C102  1  0.80199000  0.10922000  0.78926000  1.0
  C  C103  1  0.80081000  0.16946000  0.73868000  1.0
  C  C104  1  0.85952000  0.26087000  0.73269000  1.0
  C  C105  1  0.91937000  0.29216000  0.77653000  1.0
  C  C106  1  0.22734000  0.40014000  0.02542000  1.0
  C  C107  1  0.36926000  0.40031000  0.02063000  1.0
  C  C108  1  0.43326000  0.42899000  0.06415000  1.0
  C  C109  1  0.35698000  0.45783000  0.11322000  1.0
  C  C110  1  0.21535000  0.46105000  0.11787000  1.0
  C  C111  1  0.15116000  0.43272000  0.07447000  1.0
  C  C112  1  0.46398000  0.36456000  0.67329000  1.0
  C  C113  1  0.54062000  0.27877000  0.69859000  1.0
  C  C114  1  0.64851000  0.22434000  0.66711000  1.0
  C  C115  1  0.67316000  0.25582000  0.61135000  1.0
  C  C116  1  0.59270000  0.34364000  0.58949000  1.0
  C  C117  1  0.71194000  0.91722000  0.61472000  1.0
  C  C118  1  0.68014000  0.01493000  0.63485000  1.0
  C  C119  1  0.76456000  0.04520000  0.67218000  1.0
  C  C120  1  0.87852000  0.97312000  0.68659000  1.0
  C  C121  1  0.90183000  0.87705000  0.66443000  1.0
  C  C122  1  0.30771000  0.29929000  0.27149000  1.0
  C  C123  1  0.35198000  0.33607000  0.21891000  1.0
  C  C124  1  0.38640000  0.43689000  0.21167000  1.0
  C  C125  1  0.37756000  0.49331000  0.25873000  1.0
  C  C126  1  0.33351000  0.44978000  0.30970000  1.0
  C  C127  1  0.52248000  0.74285000  0.12675000  1.0
  C  C128  1  0.45117000  0.65952000  0.12521000  1.0
  C  C129  1  0.49733000  0.56564000  0.15458000  1.0
  C  C130  1  0.61691000  0.55905000  0.18163000  1.0
  C  C131  1  0.68067000  0.64675000  0.18017000  1.0
  C  C132  1  0.55713000  0.01180000  0.07157000  1.0
  C  C133  1  0.52017000  0.00429000  0.02535000  1.0
  C  C134  1  0.67723000  0.02795000  0.23266000  1.0
  C  C135  1  0.77226000  0.98759000  0.19095000  1.0
  C  C136  1  0.73324000  0.98206000  0.13798000  1.0
  C  C137  1  0.59824000  0.01893000  0.12505000  1.0
  C  C138  1  0.50409000  0.06116000  0.16731000  1.0
  C  C139  1  0.54300000  0.06482000  0.22047000  1.0
  C  C140  1  0.60845000  0.22629000  0.39169000  1.0
  C  C141  1  0.63239000  0.13061000  0.36887000  1.0
  C  C142  1  0.68442000  0.12470000  0.31343000  1.0
  C  C143  1  0.70574000  0.21762000  0.28296000  1.0
  C  C144  1  0.68045000  0.30972000  0.30942000  1.0
  C  C145  1  0.80599000  0.74904000  0.32618000  1.0
  C  C146  1  0.75396000  0.84005000  0.29699000  1.0
  C  C147  1  0.76507000  0.93607000  0.31698000  1.0
  C  C148  1  0.83112000  0.93332000  0.36613000  1.0
  C  C149  1  0.87680000  0.83815000  0.39328000  1.0
  C  C150  1  0.01654000  0.73573000  0.12822000  1.0
  C  C151  1  0.95993000  0.70333000  0.09189000  1.0
  C  C152  1  0.89650000  0.66737000  0.05262000  1.0
  C  C153  1  0.83778000  0.63437000  0.01715000  1.0
  C  C154  1  0.07823000  0.76808000  0.17237000  1.0
  C  C155  1  0.13796000  0.86005000  0.16671000  1.0
  C  C156  1  0.19801000  0.89078000  0.21074000  1.0
  C  C157  1  0.19919000  0.83054000  0.26132000  1.0
  C  C158  1  0.14048000  0.73913000  0.26732000  1.0
  C  C159  1  0.08063000  0.70785000  0.22347000  1.0
  C  C160  1  0.77265000  0.59986000  0.97458000  1.0
  C  C161  1  0.63073000  0.59970000  0.97937000  1.0
  C  C162  1  0.56674000  0.57102000  0.93585000  1.0
  C  C163  1  0.64302000  0.54218000  0.88678000  1.0
  C  C164  1  0.78465000  0.53896000  0.88213000  1.0
  C  C165  1  0.84883000  0.56729000  0.92553000  1.0
  C  C166  1  0.53602000  0.63544000  0.32672000  1.0
  C  C167  1  0.45938000  0.72123000  0.30141000  1.0
  C  C168  1  0.35149000  0.77566000  0.33289000  1.0
  C  C169  1  0.32684000  0.74418000  0.38865000  1.0
  C  C170  1  0.40730000  0.65636000  0.41051000  1.0
  C  C171  1  0.28805000  0.08278000  0.38528000  1.0
  C  C172  1  0.31986000  0.98507000  0.36515000  1.0
  C  C173  1  0.23544000  0.95480000  0.32782000  1.0
  C  C174  1  0.12148000  0.02688000  0.31341000  1.0
  C  C175  1  0.09816000  0.12294000  0.33558000  1.0
  C  C176  1  0.69229000  0.70071000  0.72851000  1.0
  C  C177  1  0.64802000  0.66393000  0.78109000  1.0
  C  C178  1  0.61360000  0.56311000  0.78833000  1.0
  C  C179  1  0.62244000  0.50669000  0.74127000  1.0
  C  C180  1  0.66650000  0.55022000  0.69030000  1.0
  C  C181  1  0.47753000  0.25715000  0.87325000  1.0
  C  C182  1  0.54883000  0.34047000  0.87479000  1.0
  C  C183  1  0.50268000  0.43435000  0.84541000  1.0
  C  C184  1  0.38309000  0.44095000  0.81837000  1.0
  C  C185  1  0.31934000  0.35325000  0.81983000  1.0
  S  S186  1  0.06083000  0.53051000  0.68347000  1.0
  S  S187  1  0.08843000  0.67780000  0.51665000  1.0
  S  S188  1  0.32720000  0.38687000  0.47705000  1.0
  S  S189  1  0.93917000  0.46949000  0.31653000  1.0
  S  S190  1  0.91157000  0.32220000  0.48335000  1.0
  S  S191  1  0.67280000  0.61313000  0.52295000  1.0
  N  N192  1  0.28586000  0.97058000  0.71188000  1.0
  N  N193  1  0.36687000  0.68524000  0.63715000  1.0
  N  N194  1  0.13517000  0.25345000  0.62604000  1.0
  N  N195  1  0.73569000  0.14188000  0.69346000  1.0
  N  N196  1  0.49034000  0.39734000  0.62000000  1.0
  N  N197  1  0.81961000  0.84835000  0.62945000  1.0
  N  N198  1  0.42333000  0.48106000  0.15912000  1.0
  N  N199  1  0.29791000  0.35414000  0.31654000  1.0
  N  N200  1  0.63407000  0.73881000  0.15422000  1.0
  N  N201  1  0.71414000  0.02942000  0.28811000  1.0
  N  N202  1  0.63313000  0.31477000  0.36284000  1.0
  N  N203  1  0.86483000  0.74656000  0.37396000  1.0
  N  N204  1  0.26432000  0.85812000  0.30654000  1.0
  N  N205  1  0.50966000  0.60266000  0.38000000  1.0
  N  N206  1  0.18039000  0.15165000  0.37055000  1.0
  N  N207  1  0.57667000  0.51894000  0.84088000  1.0
  N  N208  1  0.70209000  0.64586000  0.68346000  1.0
  N  N209  1  0.36593000  0.26119000  0.84577000  1.0
  O  O210  1  0.19362000  0.49490000  0.65010000  1.0
  O  O211  1  0.95718000  0.47385000  0.66191000  1.0
  O  O212  1  0.01971000  0.64451000  0.67207000  1.0
  O  O213  1  0.07648000  0.50244000  0.74257000  1.0
  O  O214  1  0.23313000  0.66231000  0.52877000  1.0
  O  O215  1  0.01601000  0.59129000  0.54668000  1.0
  O  O216  1  0.01557000  0.77721000  0.53479000  1.0
  O  O217  1  0.08288000  0.67117000  0.45569000  1.0
  O  O218  1  0.26914000  0.42008000  0.53403000  1.0
  O  O219  1  0.26298000  0.45815000  0.43302000  1.0
  O  O220  1  0.30073000  0.27934000  0.47097000  1.0
  O  O221  1  0.47537000  0.39066000  0.47579000  1.0
  O  O222  1  0.80639000  0.50511000  0.34990000  1.0
  O  O223  1  0.04283000  0.52615000  0.33809000  1.0
  O  O224  1  0.98030000  0.35549000  0.32793000  1.0
  O  O225  1  0.92352000  0.49756000  0.25743000  1.0
  O  O226  1  0.76687000  0.33769000  0.47123000  1.0
  O  O227  1  0.98399000  0.40871000  0.45332000  1.0
  O  O228  1  0.98443000  0.22279000  0.46522000  1.0
  O  O229  1  0.91712000  0.32883000  0.54431000  1.0
  O  O230  1  0.73086000  0.57992000  0.46597000  1.0
  O  O231  1  0.73701000  0.54185000  0.56698000  1.0
  O  O232  1  0.69928000  0.72066000  0.52903000  1.0
  O  O233  1  0.52463000  0.60935000  0.52421000  1.0
