# generated using pymatgen
data_LaH19C16N2Cl4O9
_symmetry_space_group_name_H-M   'P 1'
_cell_length_a   9.37012000
_cell_length_b   10.99220000
_cell_length_c   12.52400000
_cell_angle_alpha   89.56610000
_cell_angle_beta   72.39740000
_cell_angle_gamma   79.94690000
_symmetry_Int_Tables_number   1
_chemical_formula_structural   LaH19C16N2Cl4O9
_chemical_formula_sum   'La2 H38 C32 N4 Cl8 O18'
_cell_volume   1209.26660796
_cell_formula_units_Z   2
loop_
 _symmetry_equiv_pos_site_id
 _symmetry_equiv_pos_as_xyz
  1  'x, y, z'
loop_
 _atom_site_type_symbol
 _atom_site_label
 _atom_site_symmetry_multiplicity
 _atom_site_fract_x
 _atom_site_fract_y
 _atom_site_fract_z
 _atom_site_occupancy
  La  La0  1  0.12764000  0.54444000  0.10837000  1.0
  La  La1  1  0.87236000  0.45556000  0.89163000  1.0
  H  H2  1  0.41490000  0.21996000  0.79687000  1.0
  H  H3  1  0.58511000  0.78004000  0.20313000  1.0
  H  H4  1  0.44044000  0.35303000  0.71905000  1.0
  H  H5  1  0.55956000  0.64696000  0.28095000  1.0
  H  H6  1  0.27163000  0.28829000  0.73539000  1.0
  H  H7  1  0.72838000  0.71171000  0.26461000  1.0
  H  H8  1  0.50391000  0.33112000  0.08406000  1.0
  H  H9  1  0.49609000  0.66888000  0.91594000  1.0
  H  H10  1  0.62177000  0.05977000  0.18025000  1.0
  H  H11  1  0.37824000  0.94023000  0.81975000  1.0
  H  H12  1  0.64879000  0.15619000  0.06291000  1.0
  H  H13  1  0.35121000  0.84381000  0.93709000  1.0
  H  H14  1  0.54562000  0.03164000  0.07023000  1.0
  H  H15  1  0.45438000  0.96836000  0.92977000  1.0
  H  H16  1  0.35284000  0.11840000  0.33684000  1.0
  H  H17  1  0.64716000  0.88160000  0.66316000  1.0
  H  H18  1  0.29788000  0.04854000  0.23092000  1.0
  H  H19  1  0.70212000  0.95146000  0.76908000  1.0
  H  H20  1  0.20787000  0.20249000  0.28448000  1.0
  H  H21  1  0.79213000  0.79751000  0.71552000  1.0
  H  H22  1  0.03029000  0.35280000  0.34496000  1.0
  H  H23  1  0.96971000  0.64720000  0.65505000  1.0
  H  H24  1  0.91710000  0.25496000  0.48897000  1.0
  H  H25  1  0.08290000  0.74504000  0.51103000  1.0
  H  H26  1  0.71989000  0.31521000  0.55204000  1.0
  H  H27  1  0.28010000  0.68479000  0.44796000  1.0
  H  H28  1  0.85590000  0.34493000  0.61791000  1.0
  H  H29  1  0.14409000  0.65507000  0.38209000  1.0
  H  H30  1  0.79085000  0.63732000  0.47979000  1.0
  H  H31  1  0.20915000  0.36268000  0.52020000  1.0
  H  H32  1  0.72906000  0.56701000  0.61235000  1.0
  H  H33  1  0.27094000  0.43300000  0.38765000  1.0
  H  H34  1  0.63595000  0.55619000  0.50813000  1.0
  H  H35  1  0.36405000  0.44382000  0.49187000  1.0
  H  H36  1  0.30942000  0.72276000  0.16277000  1.0
  H  H37  1  0.69058000  0.27724000  0.83722000  1.0
  H  H38  1  0.45783000  0.61498000  0.10309000  1.0
  H  H39  1  0.54217000  0.38502000  0.89691000  1.0
  C  C40  1  0.07726000  0.85252000  0.22164000  1.0
  C  C41  1  0.92274000  0.14747000  0.77836000  1.0
  C  C42  1  0.96611000  0.97502000  0.24843000  1.0
  C  C43  1  0.03389000  0.02498000  0.75157000  1.0
  C  C44  1  0.84220000  0.99470000  0.34677000  1.0
  C  C45  1  0.15780000  0.00530000  0.65323000  1.0
  C  C46  1  0.73904000  0.10781000  0.37216000  1.0
  C  C47  1  0.26096000  0.89219000  0.62784000  1.0
  C  C48  1  0.76283000  0.20308000  0.29682000  1.0
  C  C49  1  0.23717000  0.79692000  0.70318000  1.0
  C  C50  1  0.88717000  0.18687000  0.19942000  1.0
  C  C51  1  0.11283000  0.81313000  0.80058000  1.0
  C  C52  1  0.98617000  0.07284000  0.17638000  1.0
  C  C53  1  0.01383000  0.92716000  0.82361000  1.0
  C  C54  1  0.27603000  0.38762000  0.88212000  1.0
  C  C55  1  0.72397000  0.61238000  0.11788000  1.0
  C  C56  1  0.35397000  0.30738000  0.77630000  1.0
  C  C57  1  0.64603000  0.69262000  0.22371000  1.0
  C  C58  1  0.40720000  0.30636000  0.15067000  1.0
  C  C59  1  0.59280000  0.69364000  0.84933000  1.0
  C  C60  1  0.56912000  0.10438000  0.11903000  1.0
  C  C61  1  0.43088000  0.89562000  0.88097000  1.0
  C  C62  1  0.31510000  0.13624000  0.26223000  1.0
  C  C63  1  0.68490000  0.86376000  0.73777000  1.0
  C  C64  1  0.95816000  0.44388000  0.37457000  1.0
  C  C65  1  0.04184000  0.55612000  0.62543000  1.0
  C  C66  1  0.83549000  0.33408000  0.53708000  1.0
  C  C67  1  0.16451000  0.66592000  0.46292000  1.0
  C  C68  1  0.74605000  0.55822000  0.52192000  1.0
  C  C69  1  0.25395000  0.44178000  0.47808000  1.0
  C  C70  1  0.92044000  0.29315000  0.12367000  1.0
  C  C71  1  0.07956000  0.70685000  0.87633000  1.0
  N  N72  1  0.42855000  0.18766000  0.17645000  1.0
  N  N73  1  0.57145000  0.81234000  0.82355000  1.0
  N  N74  1  0.85321000  0.44545000  0.47447000  1.0
  N  N75  1  0.14679000  0.55455000  0.52553000  1.0
  Cl  Cl76  1  0.81795000  0.87813000  0.43982000  1.0
  Cl  Cl77  1  0.18205000  0.12187000  0.56018000  1.0
  Cl  Cl78  1  0.58713000  0.13005000  0.49237000  1.0
  Cl  Cl79  1  0.41287000  0.86995000  0.50763000  1.0
  Cl  Cl80  1  0.63823000  0.34294000  0.32355000  1.0
  Cl  Cl81  1  0.36177000  0.65707000  0.67645000  1.0
  Cl  Cl82  1  0.13701000  0.05455000  0.05404000  1.0
  Cl  Cl83  1  0.86299000  0.94545000  0.94596000  1.0
  O  O84  1  0.02768000  0.76172000  0.19292000  1.0
  O  O85  1  0.97232000  0.23828000  0.80708000  1.0
  O  O86  1  0.20825000  0.85300000  0.22975000  1.0
  O  O87  1  0.79175000  0.14700000  0.77025000  1.0
  O  O88  1  0.84841000  0.31494000  0.05321000  1.0
  O  O89  1  0.15160000  0.68505000  0.94678000  1.0
  O  O90  1  0.01895000  0.34864000  0.14124000  1.0
  O  O91  1  0.98105000  0.65136000  0.85876000  1.0
  O  O92  1  0.13181000  0.41996000  0.91467000  1.0
  O  O93  1  0.86819000  0.58003000  0.08533000  1.0
  O  O94  1  0.35474000  0.42245000  0.93984000  1.0
  O  O95  1  0.64526000  0.57755000  0.06016000  1.0
  O  O96  1  0.28916000  0.38410000  0.19675000  1.0
  O  O97  1  0.71085000  0.61590000  0.80325000  1.0
  O  O98  1  0.97663000  0.53714000  0.31704000  1.0
  O  O99  1  0.02337000  0.46286000  0.68296000  1.0
  O  O100  1  0.34492000  0.63996000  0.12049000  1.0
  O  O101  1  0.65508000  0.36004000  0.87951000  1.0
