# generated using pymatgen
data_KH19C28(SO2)4
_symmetry_space_group_name_H-M   'P 1'
_cell_length_a   11.11270000
_cell_length_b   12.11460000
_cell_length_c   12.53830000
_cell_angle_alpha   65.64050000
_cell_angle_beta   64.36840000
_cell_angle_gamma   80.25440000
_symmetry_Int_Tables_number   1
_chemical_formula_structural   KH19C28(SO2)4
_chemical_formula_sum   'K2 H38 C56 S8 O16'
_cell_volume   1386.30279205
_cell_formula_units_Z   2
loop_
 _symmetry_equiv_pos_site_id
 _symmetry_equiv_pos_as_xyz
  1  'x, y, z'
loop_
 _atom_site_type_symbol
 _atom_site_label
 _atom_site_symmetry_multiplicity
 _atom_site_fract_x
 _atom_site_fract_y
 _atom_site_fract_z
 _atom_site_occupancy
  K  K0  1  0.10212000  0.70534000  0.46971000  1.0
  K  K1  1  0.89788000  0.29465000  0.53029000  1.0
  H  H2  1  0.87308000  0.45918000  0.26414000  1.0
  H  H3  1  0.12692000  0.54082000  0.73586000  1.0
  H  H4  1  0.94803000  0.45880000  0.66020000  1.0
  H  H5  1  0.05197000  0.54120000  0.33980000  1.0
  H  H6  1  0.66666667  0.26181000  0.83146000  1.0
  H  H7  1  0.33327000  0.73819000  0.16854000  1.0
  H  H8  1  0.61862000  0.94539000  0.46485000  1.0
  H  H9  1  0.38138000  0.05461000  0.53516000  1.0
  H  H10  1  0.39626000  0.85115000  0.55559000  1.0
  H  H11  1  0.60374000  0.14885000  0.44441000  1.0
  H  H12  1  0.37880000  0.64057000  0.57473000  1.0
  H  H13  1  0.62120000  0.35943000  0.42527000  1.0
  H  H14  1  0.58898000  0.52848000  0.49809000  1.0
  H  H15  1  0.41102000  0.47152000  0.50190000  1.0
  H  H16  1  0.94854000  0.41602000  0.99249000  1.0
  H  H17  1  0.05146000  0.58398000  0.00752000  1.0
  H  H18  1  0.96472000  0.32165000  0.84378000  1.0
  H  H19  1  0.03528000  0.67835000  0.15622000  1.0
  H  H20  1  0.91360000  0.10164000  0.93012000  1.0
  H  H21  1  0.08640000  0.89836000  0.06988000  1.0
  H  H22  1  0.86147000  0.97525000  0.15727000  1.0
  H  H23  1  0.13853000  0.02475000  0.84273000  1.0
  H  H24  1  0.55184000  0.81042000  0.85398000  1.0
  H  H25  1  0.44816000  0.18958000  0.14602000  1.0
  H  H26  1  0.32839000  0.72916000  0.93342000  1.0
  H  H27  1  0.67161000  0.27084000  0.06658000  1.0
  H  H28  1  0.30094000  0.53613000  0.91746000  1.0
  H  H29  1  0.69906000  0.46387000  0.08254000  1.0
  H  H30  1  0.50449000  0.42887000  0.82005000  1.0
  H  H31  1  0.49551000  0.57114000  0.17995000  1.0
  H  H32  1  0.60194000  0.02505000  0.11010000  1.0
  H  H33  1  0.39806000  0.97495000  0.88990000  1.0
  H  H34  1  0.59438000  0.81677000  0.27262000  1.0
  H  H35  1  0.40562000  0.18323000  0.72738000  1.0
  H  H36  1  0.68404000  0.64468000  0.20004000  1.0
  H  H37  1  0.31596000  0.35532000  0.79996000  1.0
  H  H38  1  0.76555000  0.67918000  0.97104000  1.0
  H  H39  1  0.23446000  0.32082000  0.02896000  1.0
  C  C40  1  0.83633000  0.59679000  0.39488000  1.0
  C  C41  1  0.16367000  0.40321000  0.60512000  1.0
  C  C42  1  0.71923000  0.67193000  0.43930000  1.0
  C  C43  1  0.28077000  0.32807000  0.56070000  1.0
  C  C44  1  0.72880000  0.79078000  0.43053000  1.0
  C  C45  1  0.27120000  0.20922000  0.56947000  1.0
  C  C46  1  0.61117000  0.85361000  0.47259000  1.0
  C  C47  1  0.38883000  0.14639000  0.52741000  1.0
  C  C48  1  0.48646000  0.80035000  0.52397000  1.0
  C  C49  1  0.51354000  0.19965000  0.47603000  1.0
  C  C50  1  0.47617000  0.68255000  0.53448000  1.0
  C  C51  1  0.52383000  0.31745000  0.46552000  1.0
  C  C52  1  0.59226000  0.62035000  0.49172000  1.0
  C  C53  1  0.40774000  0.37965000  0.50828000  1.0
  C  C54  1  0.87710000  0.12217000  0.20551000  1.0
  C  C55  1  0.12290000  0.87783000  0.79449000  1.0
  C  C56  1  0.89688000  0.24921000  0.15807000  1.0
  C  C57  1  0.10312000  0.75079000  0.84193000  1.0
  C  C58  1  0.93012000  0.31936000  0.02755000  1.0
  C  C59  1  0.06988000  0.68064000  0.97245000  1.0
  C  C60  1  0.93893000  0.26707000  0.94468000  1.0
  C  C61  1  0.06107000  0.73293000  0.05532000  1.0
  C  C62  1  0.91112000  0.14338000  0.99316000  1.0
  C  C63  1  0.08888000  0.85662000  0.00684000  1.0
  C  C64  1  0.88085000  0.07183000  0.12163000  1.0
  C  C65  1  0.11914000  0.92817000  0.87837000  1.0
  C  C66  1  0.87838000  0.30711000  0.24642000  1.0
  C  C67  1  0.12162000  0.69289000  0.75357000  1.0
  C  C68  1  0.75334000  0.48419000  0.72814000  1.0
  C  C69  1  0.24666000  0.51581000  0.27186000  1.0
  C  C70  1  0.64221000  0.55725000  0.78304000  1.0
  C  C71  1  0.35779000  0.44275000  0.21696000  1.0
  C  C72  1  0.65717000  0.66707000  0.79176000  1.0
  C  C73  1  0.34284000  0.33293000  0.20824000  1.0
  C  C74  1  0.54194000  0.72659000  0.84615000  1.0
  C  C75  1  0.45806000  0.27341000  0.15385000  1.0
  C  C76  1  0.41529000  0.68035000  0.89099000  1.0
  C  C77  1  0.58471000  0.31965000  0.10901000  1.0
  C  C78  1  0.39997000  0.57235000  0.88293000  1.0
  C  C79  1  0.60003000  0.42765000  0.11707000  1.0
  C  C80  1  0.51289000  0.51261000  0.82895000  1.0
  C  C81  1  0.48711000  0.48739000  0.17105000  1.0
  C  C82  1  0.73071000  0.87110000  0.90986000  1.0
  C  C83  1  0.26929000  0.12890000  0.09014000  1.0
  C  C84  1  0.68566000  0.96956000  0.95061000  1.0
  C  C85  1  0.31434000  0.03044000  0.04938000  1.0
  C  C86  1  0.63664000  0.94799000  0.08137000  1.0
  C  C87  1  0.36336000  0.05201000  0.91863000  1.0
  C  C88  1  0.63365000  0.83211000  0.17166000  1.0
  C  C89  1  0.36635000  0.16789000  0.82834000  1.0
  C  C90  1  0.68229000  0.73586000  0.13070000  1.0
  C  C91  1  0.31771000  0.26414000  0.86930000  1.0
  C  C92  1  0.72908000  0.75496000  0.00187000  1.0
  C  C93  1  0.27092000  0.24505000  0.99813000  1.0
  C  C94  1  0.69448000  0.09376000  0.85566000  1.0
  C  C95  1  0.30552000  0.90624000  0.14434000  1.0
  S  S96  1  0.88862000  0.85835000  0.36506000  1.0
  S  S97  1  0.11138000  0.14165000  0.63494000  1.0
  S  S98  1  0.85427000  0.03072000  0.36679000  1.0
  S  S99  1  0.14573000  0.96928000  0.63321000  1.0
  S  S100  1  0.81778000  0.72705000  0.73971000  1.0
  S  S101  1  0.18222000  0.27295000  0.26028000  1.0
  S  S102  1  0.78325000  0.89771000  0.74490000  1.0
  S  S103  1  0.21675000  0.10229000  0.25510000  1.0
  O  O104  1  0.81752000  0.50624000  0.37714000  1.0
  O  O105  1  0.18248000  0.49376000  0.62286000  1.0
  O  O106  1  0.95104000  0.62527000  0.37908000  1.0
  O  O107  1  0.04895000  0.37473000  0.62093000  1.0
  O  O108  1  0.84735000  0.24705000  0.36267000  1.0
  O  O109  1  0.15265000  0.75295000  0.63733000  1.0
  O  O110  1  0.89401000  0.42739000  0.19430000  1.0
  O  O111  1  0.10599000  0.57261000  0.80570000  1.0
  O  O112  1  0.73485000  0.39081000  0.71711000  1.0
  O  O113  1  0.26515000  0.60919000  0.28289000  1.0
  O  O114  1  0.87502000  0.52262000  0.69009000  1.0
  O  O115  1  0.12498000  0.47738000  0.30991000  1.0
  O  O116  1  0.74812000  0.11649000  0.73883000  1.0
  O  O117  1  0.25188000  0.88351000  0.26117000  1.0
  O  O118  1  0.64393000  0.17951000  0.90374000  1.0
  O  O119  1  0.35607000  0.82049000  0.09626000  1.0
