# generated using pymatgen
data_CdH10C11N2O5
_symmetry_space_group_name_H-M   'P 1'
_cell_length_a   6.62025000
_cell_length_b   10.13940000
_cell_length_c   17.85860000
_cell_angle_alpha   90.00000000
_cell_angle_beta   90.00000000
_cell_angle_gamma   90.00000000
_symmetry_Int_Tables_number   1
_chemical_formula_structural   CdH10C11N2O5
_chemical_formula_sum   'Cd4 H40 C44 N8 O20'
_cell_volume   1198.76500499
_cell_formula_units_Z   4
loop_
 _symmetry_equiv_pos_site_id
 _symmetry_equiv_pos_as_xyz
  1  'x, y, z'
loop_
 _atom_site_type_symbol
 _atom_site_label
 _atom_site_symmetry_multiplicity
 _atom_site_fract_x
 _atom_site_fract_y
 _atom_site_fract_z
 _atom_site_occupancy
  Cd  Cd0  1  0.99955000  0.27342000  0.97104000  1.0
  Cd  Cd1  1  0.50045000  0.72658000  0.47104000  1.0
  Cd  Cd2  1  0.00045000  0.77342000  0.52896000  1.0
  Cd  Cd3  1  0.49956000  0.22657000  0.02896000  1.0
  H  H4  1  0.35592000  0.52641000  0.99128000  1.0
  H  H5  1  0.14408000  0.47359000  0.49128000  1.0
  H  H6  1  0.64408000  0.02641000  0.50872000  1.0
  H  H7  1  0.85592000  0.97359000  0.00872000  1.0
  H  H8  1  0.90767000  0.54281000  0.89216000  1.0
  H  H9  1  0.59234000  0.45719000  0.39216000  1.0
  H  H10  1  0.09234000  0.04281000  0.60784000  1.0
  H  H11  1  0.40766000  0.95719000  0.10784000  1.0
  H  H12  1  0.13645000  0.51764000  0.74615000  1.0
  H  H13  1  0.36355000  0.48236000  0.24615000  1.0
  H  H14  1  0.86355000  0.01764000  0.75385000  1.0
  H  H15  1  0.63645000  0.98236000  0.25385000  1.0
  H  H16  1  0.67636000  0.50969000  0.61239000  1.0
  H  H17  1  0.82363000  0.49031000  0.11239000  1.0
  H  H18  1  0.32363000  0.00969000  0.88762000  1.0
  H  H19  1  0.17637000  0.99031000  0.38762000  1.0
  H  H20  1  0.85493000  0.38649000  0.71466000  1.0
  H  H21  1  0.64507000  0.61351000  0.21466000  1.0
  H  H22  1  0.14507000  0.88648000  0.78534000  1.0
  H  H23  1  0.35493000  0.11351000  0.28534000  1.0
  H  H24  1  0.66726000  0.31813000  0.82781000  1.0
  H  H25  1  0.83274000  0.68187000  0.32781000  1.0
  H  H26  1  0.33274000  0.81813000  0.67219000  1.0
  H  H27  1  0.16726000  0.18187000  0.17219000  1.0
  H  H28  1  0.66024000  0.68883000  0.82274000  1.0
  H  H29  1  0.83977000  0.31117000  0.32273000  1.0
  H  H30  1  0.33976000  0.18883000  0.67726000  1.0
  H  H31  1  0.16023000  0.81117000  0.17727000  1.0
  H  H32  1  0.75757000  0.79068000  0.89553000  1.0
  H  H33  1  0.74243000  0.20932000  0.39553000  1.0
  H  H34  1  0.24243000  0.29068000  0.60447000  1.0
  H  H35  1  0.25757000  0.70932000  0.10447000  1.0
  H  H36  1  0.44754000  0.78102000  0.96110000  1.0
  H  H37  1  0.05247000  0.21898000  0.46110000  1.0
  H  H38  1  0.55246000  0.28102000  0.53890000  1.0
  H  H39  1  0.94753000  0.71898000  0.03890000  1.0
  H  H40  1  0.34219000  0.69240000  0.88412000  1.0
  H  H41  1  0.15781000  0.30760000  0.38412000  1.0
  H  H42  1  0.65781000  0.19240000  0.61588000  1.0
  H  H43  1  0.84219000  0.80760000  0.11589000  1.0
  C  C44  1  0.38929000  0.41351000  0.79471000  1.0
  C  C45  1  0.11071000  0.58649000  0.29471000  1.0
  C  C46  1  0.61071000  0.91352000  0.70529000  1.0
  C  C47  1  0.88929000  0.08649000  0.20529000  1.0
  C  C48  1  0.29312000  0.48756000  0.73897000  1.0
  C  C49  1  0.20689000  0.51244000  0.23897000  1.0
  C  C50  1  0.70688000  0.98756000  0.76103000  1.0
  C  C51  1  0.79312000  0.01244000  0.26103000  1.0
  C  C52  1  0.39458000  0.51837000  0.67260000  1.0
  C  C53  1  0.10542000  0.48163000  0.17260000  1.0
  C  C54  1  0.60542000  0.01837000  0.82740000  1.0
  C  C55  1  0.89458000  0.98163000  0.32740000  1.0
  C  C56  1  0.59801000  0.48257000  0.66375000  1.0
  C  C57  1  0.90199000  0.51743000  0.16375000  1.0
  C  C58  1  0.40199000  0.98257000  0.83625000  1.0
  C  C59  1  0.09801000  0.01743000  0.33625000  1.0
  C  C60  1  0.69640000  0.41367000  0.72064000  1.0
  C  C61  1  0.80360000  0.58633000  0.22064000  1.0
  C  C62  1  0.30360000  0.91367000  0.77936000  1.0
  C  C63  1  0.19640000  0.08632000  0.27936000  1.0
  C  C64  1  0.59183000  0.37655000  0.78513000  1.0
  C  C65  1  0.90817000  0.62345000  0.28513000  1.0
  C  C66  1  0.40817000  0.87655000  0.71487000  1.0
  C  C67  1  0.09183000  0.12345000  0.21487000  1.0
  C  C68  1  0.27255000  0.36938000  0.86197000  1.0
  C  C69  1  0.22745000  0.63062000  0.36197000  1.0
  C  C70  1  0.72745000  0.86938000  0.63803000  1.0
  C  C71  1  0.77255000  0.13062000  0.13803000  1.0
  C  C72  1  0.28346000  0.58412000  0.61007000  1.0
  C  C73  1  0.21654000  0.41588000  0.11007000  1.0
  C  C74  1  0.71654000  0.08412000  0.88993000  1.0
  C  C75  1  0.78346000  0.91588000  0.38993000  1.0
  C  C76  1  0.65617000  0.51067000  0.95747000  1.0
  C  C77  1  0.84383000  0.48933000  0.45747000  1.0
  C  C78  1  0.34383000  0.01067000  0.54253000  1.0
  C  C79  1  0.15617000  0.98933000  0.04253000  1.0
  C  C80  1  0.67613000  0.69877000  0.88380000  1.0
  C  C81  1  0.82387000  0.30123000  0.38380000  1.0
  C  C82  1  0.32387000  0.19877000  0.61620000  1.0
  C  C83  1  0.17613000  0.80123000  0.11620000  1.0
  C  C84  1  0.46790000  0.69517000  0.92421000  1.0
  C  C85  1  0.03211000  0.30483000  0.42421000  1.0
  C  C86  1  0.53210000  0.19517000  0.57579000  1.0
  C  C87  1  0.96789000  0.80483000  0.07579000  1.0
  N  N88  1  0.47811000  0.57280000  0.96735000  1.0
  N  N89  1  0.02189000  0.42720000  0.46735000  1.0
  N  N90  1  0.52189000  0.07280000  0.53265000  1.0
  N  N91  1  0.97811000  0.92720000  0.03265000  1.0
  N  N92  1  0.78195000  0.58536000  0.91559000  1.0
  N  N93  1  0.71805000  0.41464000  0.41559000  1.0
  N  N94  1  0.21805000  0.08536000  0.58441000  1.0
  N  N95  1  0.28195000  0.91464000  0.08441000  1.0
  O  O96  1  0.09682000  0.41854000  0.87271000  1.0
  O  O97  1  0.40318000  0.58146000  0.37270000  1.0
  O  O98  1  0.90318000  0.91854000  0.62729000  1.0
  O  O99  1  0.59682000  0.08146000  0.12730000  1.0
  O  O100  1  0.34727000  0.28102000  0.90449000  1.0
  O  O101  1  0.15273000  0.71898000  0.40449000  1.0
  O  O102  1  0.65273000  0.78102000  0.59551000  1.0
  O  O103  1  0.84727000  0.21898000  0.09551000  1.0
  O  O104  1  0.12857000  0.65283000  0.62592000  1.0
  O  O105  1  0.37143000  0.34717000  0.12592000  1.0
  O  O106  1  0.87143000  0.15283000  0.87408000  1.0
  O  O107  1  0.62857000  0.84717000  0.37408000  1.0
  O  O108  1  0.34655000  0.56398000  0.54302000  1.0
  O  O109  1  0.15345000  0.43601000  0.04302000  1.0
  O  O110  1  0.65345000  0.06399000  0.95698000  1.0
  O  O111  1  0.84655000  0.93601000  0.45698000  1.0
  O  O112  1  0.70182000  0.39873000  0.98518000  1.0
  O  O113  1  0.79818000  0.60127000  0.48518000  1.0
  O  O114  1  0.29818000  0.89873000  0.51482000  1.0
  O  O115  1  0.20182000  0.10127000  0.01482000  1.0
