# generated using pymatgen
data_Al6H50C101O33
_symmetry_space_group_name_H-M   'P 1'
_cell_length_a   12.72800000
_cell_length_b   12.82520000
_cell_length_c   27.62950000
_cell_angle_alpha   88.21210000
_cell_angle_beta   89.10610000
_cell_angle_gamma   61.40430000
_symmetry_Int_Tables_number   1
_chemical_formula_structural   Al6H50C101O33
_chemical_formula_sum   'Al6 H50 C101 O33'
_cell_volume   3958.12584674
_cell_formula_units_Z   1
loop_
 _symmetry_equiv_pos_site_id
 _symmetry_equiv_pos_as_xyz
  1  'x, y, z'
loop_
 _atom_site_type_symbol
 _atom_site_label
 _atom_site_symmetry_multiplicity
 _atom_site_fract_x
 _atom_site_fract_y
 _atom_site_fract_z
 _atom_site_occupancy
  Al  Al0  1  0.81855000  0.57583000  0.49689000  1.0
  Al  Al1  1  0.07606000  0.34053000  0.49868000  1.0
  Al  Al2  1  0.06844000  0.57789000  0.49897000  1.0
  Al  Al3  1  0.83981000  0.08801000  0.98292000  1.0
  Al  Al4  1  0.58801000  0.08780000  0.98217000  1.0
  Al  Al5  1  0.58433000  0.32283000  0.98208000  1.0
  H  H6  1  0.28984000  0.17880000  0.21282000  1.0
  H  H7  1  0.77314000  0.69387000  0.20724000  1.0
  H  H8  1  0.64174000  0.86557000  0.27773000  1.0
  H  H9  1  0.67283000  0.03798000  0.22131000  1.0
  H  H10  1  0.67292000  0.52819000  0.21664000  1.0
  H  H11  1  0.65106000  0.37303000  0.28688000  1.0
  H  H12  1  0.89350000  0.47981000  0.25926000  1.0
  H  H13  1  0.01532000  0.28790000  0.19515000  1.0
  H  H14  1  0.99360000  0.13260000  0.26541000  1.0
  H  H15  1  0.77263000  0.18108000  0.22275000  1.0
  H  H16  1  0.43074000  0.11166000  0.85736000  1.0
  H  H17  1  0.46334000  0.15195000  0.28238000  1.0
  H  H18  1  0.29336000  0.18538000  0.61798000  1.0
  H  H19  1  0.40518000  0.03051000  0.78039000  1.0
  H  H20  1  0.36136000  0.05447000  0.69306000  1.0
  H  H21  1  0.36137000  0.47376000  0.86169000  1.0
  H  H22  1  0.24058000  0.63038000  0.69930000  1.0
  H  H23  1  0.22179000  0.54829000  0.62331000  1.0
  H  H24  1  0.91127000  0.98731000  0.84604000  1.0
  H  H25  1  0.00335000  0.80951000  0.61370000  1.0
  H  H26  1  0.00876000  0.97744000  0.76573000  1.0
  H  H27  1  0.12071000  0.38816000  0.25866000  1.0
  H  H28  1  0.04058000  0.91523000  0.68070000  1.0
  H  H29  1  0.63039000  0.89328000  0.85959000  1.0
  H  H30  1  0.56527000  0.82598000  0.78729000  1.0
  H  H31  1  0.59051000  0.77374000  0.70096000  1.0
  H  H32  1  0.71228000  0.73003000  0.62476000  1.0
  H  H33  1  0.71848000  0.51014000  0.61846000  1.0
  H  H34  1  0.56535000  0.60270000  0.77907000  1.0
  H  H35  1  0.59293000  0.59962000  0.69058000  1.0
  H  H36  1  0.95935000  0.18035000  0.87553000  1.0
  H  H37  1  0.19242000  0.52457000  0.19714000  1.0
  H  H38  1  0.14047000  0.11462000  0.71629000  1.0
  H  H39  1  0.06372000  0.20260000  0.63376000  1.0
  H  H40  1  0.36606000  0.49773000  0.26665000  1.0
  H  H41  1  0.53505000  0.28830000  0.22080000  1.0
  H  H42  1  0.01831000  0.80498000  0.20275000  1.0
  H  H43  1  0.88692000  0.97653000  0.27312000  1.0
  H  H44  1  0.98732000  0.63248000  0.25907000  1.0
  H  H45  1  0.22541000  0.79822000  0.80087000  1.0
  H  H46  1  0.17065000  0.75923000  0.74981000  1.0
  H  H47  1  0.40631000  0.76044000  0.76335000  1.0
  H  H48  1  0.40849000  0.64774000  0.72730000  1.0
  H  H49  1  0.25516000  0.80005000  0.67175000  1.0
  H  H50  1  0.37707000  0.82914000  0.67732000  1.0
  H  H51  1  0.24268000  0.91530000  0.70971000  1.0
  H  H52  1  0.44049000  0.62429000  0.87090000  1.0
  H  H53  1  0.21992000  0.05559000  0.87129000  1.0
  H  H54  1  0.62214000  0.60967000  0.51131000  1.0
  H  H55  1  0.03681000  0.95457000  0.00566000  1.0
  C  C56  1  0.90834000  0.36992000  0.42971000  1.0
  C  C57  1  0.26021000  0.37852000  0.38221000  1.0
  C  C58  1  0.44286000  0.31055000  0.22984000  1.0
  C  C59  1  0.34636000  0.32514000  0.19051000  1.0
  C  C60  1  0.34921000  0.42690000  0.25432000  1.0
  C  C61  1  0.30937000  0.35150000  0.28899000  1.0
  C  C62  1  0.25244000  0.44202000  0.21654000  1.0
  C  C63  1  0.21291000  0.36597000  0.24966000  1.0
  C  C64  1  0.37000000  0.31103000  0.14024000  1.0
  C  C65  1  0.28534000  0.36542000  0.33925000  1.0
  C  C66  1  0.86159000  0.91396000  0.25799000  1.0
  C  C67  1  0.20944000  0.39905000  0.43003000  1.0
  C  C68  1  0.93495000  0.81816000  0.21983000  1.0
  C  C69  1  0.78138000  0.89607000  0.09707000  1.0
  C  C70  1  0.87615000  0.76838000  0.38296000  1.0
  C  C71  1  0.74279000  0.94777000  0.23039000  1.0
  C  C72  1  0.81609000  0.85207000  0.19083000  1.0
  C  C73  1  0.72504000  0.85228000  0.26055000  1.0
  C  C74  1  0.84393000  0.81820000  0.28953000  1.0
  C  C75  1  0.79841000  0.75640000  0.22245000  1.0
  C  C76  1  0.91726000  0.72261000  0.24998000  1.0
  C  C77  1  0.79826000  0.87352000  0.14036000  1.0
  C  C78  1  0.89878000  0.71534000  0.43087000  1.0
  C  C79  1  0.86116000  0.79476000  0.33992000  1.0
  C  C80  1  0.73144000  0.35415000  0.26587000  1.0
  C  C81  1  0.74414000  0.44037000  0.22785000  1.0
  C  C82  1  0.77443000  0.31649000  0.10042000  1.0
  C  C83  1  0.89111000  0.33711000  0.38241000  1.0
  C  C84  1  0.79968000  0.24728000  0.23168000  1.0
  C  C85  1  0.81161000  0.33386000  0.19235000  1.0
  C  C86  1  0.92229000  0.22030000  0.25413000  1.0
  C  C87  1  0.85486000  0.32658000  0.28970000  1.0
  C  C88  1  0.93493000  0.30659000  0.21612000  1.0
  C  C89  1  0.91040000  0.36782000  0.56869000  1.0
  C  C90  1  0.86671000  0.41338000  0.25040000  1.0
  C  C91  1  0.79069000  0.32946000  0.14263000  1.0
  C  C92  1  0.87547000  0.32857000  0.33964000  1.0
  C  C93  1  0.29015000  0.25761000  0.63882000  1.0
  C  C94  1  0.31847000  0.24054000  0.68835000  1.0
  C  C95  1  0.37169000  0.21155000  0.78960000  1.0
  C  C96  1  0.37893000  0.11561000  0.76188000  1.0
  C  C97  1  0.35396000  0.12917000  0.71351000  1.0
  C  C98  1  0.40098000  0.19753000  0.83894000  1.0
  C  C99  1  0.39801000  0.29155000  0.86452000  1.0
  C  C100  1  0.21310000  0.39180000  0.56507000  1.0
  C  C101  1  0.25005000  0.46292000  0.64194000  1.0
  C  C102  1  0.27601000  0.44984000  0.69156000  1.0
  C  C103  1  0.31048000  0.33760000  0.71523000  1.0
  C  C104  1  0.26788000  0.54628000  0.71869000  1.0
  C  C105  1  0.29362000  0.53336000  0.76733000  1.0
  C  C106  1  0.33037000  0.42028000  0.79241000  1.0
  C  C107  1  0.33681000  0.32376000  0.76557000  1.0
  C  C108  1  0.36176000  0.40242000  0.84146000  1.0
  C  C109  1  0.25601000  0.36828000  0.61588000  1.0
  C  C110  1  0.93027000  0.80995000  0.63497000  1.0
  C  C111  1  0.89292000  0.70352000  0.56776000  1.0
  C  C112  1  0.90666000  0.85576000  0.68171000  1.0
  C  C113  1  0.87000000  0.92757000  0.77996000  1.0
  C  C114  1  0.95588000  0.94086000  0.74990000  1.0
  C  C115  1  0.97362000  0.90622000  0.70291000  1.0
  C  C116  1  0.85581000  0.95526000  0.82906000  1.0
  C  C117  1  0.77017000  0.94262000  0.85740000  1.0
  C  C118  1  0.76571000  0.76467000  0.64156000  1.0
  C  C119  1  0.74130000  0.80640000  0.68887000  1.0
  C  C120  1  0.81443000  0.84959000  0.70991000  1.0
  C  C121  1  0.64820000  0.80330000  0.71776000  1.0
  C  C122  1  0.40333000  0.23453000  0.26299000  1.0
  C  C123  1  0.63378000  0.83294000  0.76532000  1.0
  C  C124  1  0.70828000  0.87302000  0.78791000  1.0
  C  C125  1  0.79694000  0.88409000  0.75902000  1.0
  C  C126  1  0.69658000  0.90240000  0.83693000  1.0
  C  C127  1  0.86177000  0.76278000  0.61540000  1.0
  C  C128  1  0.78573000  0.44199000  0.64209000  1.0
  C  C129  1  0.76782000  0.44355000  0.69216000  1.0
  C  C130  1  0.73354000  0.44391000  0.79410000  1.0
  C  C131  1  0.64663000  0.53437000  0.76298000  1.0
  C  C132  1  0.66174000  0.53273000  0.71410000  1.0
  C  C133  1  0.30659000  0.24965000  0.22519000  1.0
  C  C134  1  0.71285000  0.43865000  0.84415000  1.0
  C  C135  1  0.79317000  0.33923000  0.87173000  1.0
  C  C136  1  0.98114000  0.26788000  0.65053000  1.0
  C  C137  1  0.96609000  0.26592000  0.70097000  1.0
  C  C138  1  0.85860000  0.35481000  0.72234000  1.0
  C  C139  1  0.05626000  0.17966000  0.73208000  1.0
  C  C140  1  0.04141000  0.17795000  0.78142000  1.0
  C  C141  1  0.93035000  0.26252000  0.80348000  1.0
  C  C142  1  0.84158000  0.35381000  0.77329000  1.0
  C  C143  1  0.90094000  0.25452000  0.85197000  1.0
  C  C144  1  0.39430000  0.29713000  0.09721000  1.0
  C  C145  1  0.89145000  0.35554000  0.62141000  1.0
  C  C146  1  0.75745000  0.94618000  0.04866000  1.0
  C  C147  1  0.44515000  0.27331000  0.04944000  1.0
  C  C148  1  0.75471000  0.28312000  0.05365000  1.0
  C  C149  1  0.75529000  0.97965000  0.90875000  1.0
  C  C150  1  0.44619000  0.26897000  0.91465000  1.0
  C  C151  1  0.75930000  0.30961000  0.91991000  1.0
  C  C152  1  0.25112000  0.73540000  0.77143000  1.0
  C  C153  1  0.35082000  0.73768000  0.74041000  1.0
  C  C154  1  0.30359000  0.82557000  0.69739000  1.0
  C  C155  1  0.60985000  0.54244000  0.86721000  1.0
  C  C156  1  0.14419000  0.08684000  0.81007000  1.0
  O  O157  1  0.82261000  0.68851000  0.44857000  1.0
  O  O158  1  0.19866000  0.31247000  0.54363000  1.0
  O  O159  1  0.18575000  0.49432000  0.54610000  1.0
  O  O160  1  0.99069000  0.68891000  0.54699000  1.0
  O  O161  1  0.98966000  0.49664000  0.49819000  1.0
  O  O162  1  0.82785000  0.17924000  0.04090000  1.0
  O  O163  1  0.83558000  0.96724000  0.02871000  1.0
  O  O164  1  0.65507000  0.97087000  0.03037000  1.0
  O  O165  1  0.47139000  0.17318000  0.03160000  1.0
  O  O166  1  0.46592000  0.35328000  0.02937000  1.0
  O  O167  1  0.66249000  0.36020000  0.02978000  1.0
  O  O168  1  0.83388000  0.47318000  0.44238000  1.0
  O  O169  1  0.83405000  0.21564000  0.94139000  1.0
  O  O170  1  0.82762000  0.01160000  0.92480000  1.0
  O  O171  1  0.66735000  0.98051000  0.93314000  1.0
  O  O172  1  0.46862000  0.16955000  0.93560000  1.0
  O  O173  1  0.46947000  0.34566000  0.93335000  1.0
  O  O174  1  0.65136000  0.37769000  0.93454000  1.0
  O  O175  1  0.66864000  0.16709000  0.98307000  1.0
  O  O176  1  0.00012000  0.29367000  0.45426000  1.0
  O  O177  1  0.18586000  0.31928000  0.44801000  1.0
  O  O178  1  0.18628000  0.49640000  0.44988000  1.0
  O  O179  1  0.99817000  0.69496000  0.45083000  1.0
  O  O180  1  0.82403000  0.66758000  0.55152000  1.0
  O  O181  1  0.82854000  0.45391000  0.54528000  1.0
  O  O182  1  0.01246000  0.29329000  0.55090000  1.0
  O  O183  1  0.28708000  0.62144000  0.79531000  1.0
  O  O184  1  0.62191000  0.61470000  0.89085000  1.0
  O  O185  1  0.50223000  0.55256000  0.85569000  1.0
  O  O186  1  0.21668000  0.98904000  0.79508000  1.0
  O  O187  1  0.15305000  0.12267000  0.85472000  1.0
  O  O188  1  0.66164000  0.64967000  0.49553000  1.0
  O  O189  1  0.99711000  0.01512000  0.98076000  1.0
