# generated using pymatgen
data_Zr3H2C30N9O16
_symmetry_space_group_name_H-M   'P 1'
_cell_length_a   16.56980000
_cell_length_b   16.56960000
_cell_length_c   16.57350000
_cell_angle_alpha   92.72850000
_cell_angle_beta   92.70380000
_cell_angle_gamma   92.71110000
_symmetry_Int_Tables_number   1
_chemical_formula_structural   Zr3H2C30N9O16
_chemical_formula_sum   'Zr6 H4 C60 N18 O32'
_cell_volume   4534.51702581
_cell_formula_units_Z   2
loop_
 _symmetry_equiv_pos_site_id
 _symmetry_equiv_pos_as_xyz
  1  'x, y, z'
loop_
 _atom_site_type_symbol
 _atom_site_label
 _atom_site_symmetry_multiplicity
 _atom_site_fract_x
 _atom_site_fract_y
 _atom_site_fract_z
 _atom_site_occupancy
  Zr  Zr0  1  0.04221000  0.19958000  0.15974000  1.0
  Zr  Zr1  1  0.15670000  0.25160000  0.99305000  1.0
  Zr  Zr2  1  0.00845000  0.00017000  0.07471000  1.0
  Zr  Zr3  1  0.20884000  0.08495000  0.10756000  1.0
  Zr  Zr4  1  0.95730000  0.16655000  0.95946000  1.0
  Zr  Zr5  1  0.12363000  0.05120000  0.90830000  1.0
  H  H6  1  0.20794000  0.25069000  0.15871000  1.0
  H  H7  1  0.89232000  0.11816000  0.10447000  1.0
  H  H8  1  0.15343000  0.93507000  0.02624000  1.0
  H  H9  1  0.07519000  0.19621000  0.84330000  1.0
  C  C10  1  0.80346000  0.05917000  0.44455000  1.0
  C  C11  1  0.81987000  0.06189000  0.58076000  1.0
  C  C12  1  0.69882000  0.08890000  0.52151000  1.0
  C  C13  1  0.36476000  0.18373000  0.62590000  1.0
  C  C14  1  0.46570000  0.15149000  0.54503000  1.0
  C  C15  1  0.34187000  0.17564000  0.49017000  1.0
  C  C16  1  0.49351000  0.84616000  0.96683000  1.0
  C  C17  1  0.57043000  0.74143000  0.99636000  1.0
  C  C18  1  0.62976000  0.86255000  0.96965000  1.0
  C  C19  1  0.67505000  0.40783000  0.09207000  1.0
  C  C20  1  0.59396000  0.50847000  0.05945000  1.0
  C  C21  1  0.53934000  0.38458000  0.08370000  1.0
  C  C22  1  0.01663000  0.53629000  0.75427000  1.0
  C  C23  1  0.04641000  0.61322000  0.64968000  1.0
  C  C24  1  0.01916000  0.67255000  0.77064000  1.0
  C  C25  1  0.14118000  0.71785000  0.31575000  1.0
  C  C26  1  0.13329000  0.58209000  0.29282000  1.0
  C  C27  1  0.10915000  0.63691000  0.41666000  1.0
  C  C28  1  0.93587000  0.06479000  0.24525000  1.0
  C  C29  1  0.12073000  0.37825000  0.14486000  1.0
  C  C30  1  0.19411000  0.16351000  0.28624000  1.0
  C  C31  1  0.87720000  0.28065000  0.09187000  1.0
  C  C32  1  0.23757000  0.18358000  0.82803000  1.0
  C  C33  1  0.03539000  0.87642000  0.91800000  1.0
  C  C34  1  0.33544000  0.23671000  0.07138000  1.0
  C  C35  1  0.02178000  0.33707000  0.88682000  1.0
  C  C36  1  0.83371000  0.00983000  0.98643000  1.0
  C  C37  1  0.14092000  0.91999000  0.18859000  1.0
  C  C38  1  0.29419000  0.97857000  0.97258000  1.0
  C  C39  1  0.96699000  0.07818000  0.78474000  1.0
  C  C40  1  0.15052000  0.79514000  0.28209000  1.0
  C  C41  1  0.15123000  0.85552000  0.24314000  1.0
  C  C42  1  0.13510000  0.51331000  0.23764000  1.0
  C  C43  1  0.13214000  0.45538000  0.18958000  1.0
  C  C44  1  0.01909000  0.80115000  0.87104000  1.0
  C  C45  1  0.01575000  0.74291000  0.82336000  1.0
  C  C46  1  0.00978000  0.46077000  0.79182000  1.0
  C  C47  1  0.01032000  0.40240000  0.83357000  1.0
  C  C48  1  0.06811000  0.62023000  0.56764000  1.0
  C  C49  1  0.08756000  0.62752000  0.49841000  1.0
  C  C50  1  0.75238000  0.37423000  0.10159000  1.0
  C  C51  1  0.81273000  0.33524000  0.10218000  1.0
  C  C52  1  0.47061000  0.32935000  0.08546000  1.0
  C  C53  1  0.41263000  0.28137000  0.08266000  1.0
  C  C54  1  0.75847000  0.96285000  0.97008000  1.0
  C  C55  1  0.70013000  0.91529000  0.96655000  1.0
  C  C56  1  0.35952000  0.92536000  0.96088000  1.0
  C  C57  1  0.41797000  0.88367000  0.96012000  1.0
  C  C58  1  0.58454000  0.59015000  0.03763000  1.0
  C  C59  1  0.57742000  0.65938000  0.01803000  1.0
  C  C60  1  0.33107000  0.19321000  0.70318000  1.0
  C  C61  1  0.29213000  0.19387000  0.76356000  1.0
  C  C62  1  0.23877000  0.17480000  0.36342000  1.0
  C  C63  1  0.28675000  0.17750000  0.42140000  1.0
  C  C64  1  0.87257000  0.05859000  0.65112000  1.0
  C  C65  1  0.92010000  0.06191000  0.70945000  1.0
  C  C66  1  0.84098000  0.05243000  0.36901000  1.0
  C  C67  1  0.88267000  0.05318000  0.31059000  1.0
  C  C68  1  0.54748000  0.12991000  0.53573000  1.0
  C  C69  1  0.61677000  0.11053000  0.52857000  1.0
  N  N70  1  0.85321000  0.04806000  0.50933000  1.0
  N  N71  1  0.74299000  0.08202000  0.59117000  1.0
  N  N72  1  0.72561000  0.07884000  0.44614000  1.0
  N  N73  1  0.44252000  0.16464000  0.62142000  1.0
  N  N74  1  0.41829000  0.15542000  0.47697000  1.0
  N  N75  1  0.31182000  0.19177000  0.56281000  1.0
  N  N76  1  0.49506000  0.76825000  0.98632000  1.0
  N  N77  1  0.64013000  0.78560000  0.98954000  1.0
  N  N78  1  0.55832000  0.89595000  0.95592000  1.0
  N  N79  1  0.67043000  0.48553000  0.07288000  1.0
  N  N80  1  0.52601000  0.46090000  0.06323000  1.0
  N  N81  1  0.61201000  0.35476000  0.10008000  1.0
  N  N82  1  0.03647000  0.53784000  0.67650000  1.0
  N  N83  1  0.03935000  0.68291000  0.69376000  1.0
  N  N84  1  0.00534000  0.60112000  0.80396000  1.0
  N  N85  1  0.14927000  0.65476000  0.26278000  1.0
  N  N86  1  0.11317000  0.56886000  0.36922000  1.0
  N  N87  1  0.12215000  0.71332000  0.39353000  1.0
  O  O88  1  0.94426000  0.00668000  0.19418000  1.0
  O  O89  1  0.15174000  0.36690000  0.07694000  1.0
  O  O90  1  0.12624000  0.19463000  0.27491000  1.0
  O  O91  1  0.92696000  0.27074000  0.15060000  1.0
  O  O92  1  0.87522000  0.24550000  0.02119000  1.0
  O  O93  1  0.23163000  0.12149000  0.23439000  1.0
  O  O94  1  0.07877000  0.32641000  0.18239000  1.0
  O  O95  1  0.96930000  0.13615000  0.24592000  1.0
  O  O96  1  0.04465000  0.22535000  0.03813000  1.0
  O  O97  1  0.08720000  0.08749000  0.13341000  1.0
  O  O98  1  0.17241000  0.21516000  0.12321000  1.0
  O  O99  1  0.94684000  0.12034000  0.08545000  1.0
  O  O100  1  0.22765000  0.24238000  0.87777000  1.0
  O  O101  1  0.00563000  0.88742000  0.98660000  1.0
  O  O102  1  0.32414000  0.16881000  0.10240000  1.0
  O  O103  1  0.96368000  0.28604000  0.89519000  1.0
  O  O104  1  0.84466000  0.07839000  0.95664000  1.0
  O  O105  1  0.19968000  0.96969000  0.17858000  1.0
  O  O106  1  0.24306000  0.98697000  0.91458000  1.0
  O  O107  1  0.03553000  0.04832000  0.79573000  1.0
  O  O108  1  0.29495000  0.01201000  0.04395000  1.0
  O  O109  1  0.93197000  0.12509000  0.83431000  1.0
  O  O110  1  0.28356000  0.27428000  0.02948000  1.0
  O  O111  1  0.07018000  0.91805000  0.15355000  1.0
  O  O112  1  0.88331000  0.97484000  0.03332000  1.0
  O  O113  1  0.09313000  0.33776000  0.92033000  1.0
  O  O114  1  0.20246000  0.11289000  0.82610000  1.0
  O  O115  1  0.08223000  0.92602000  0.88298000  1.0
  O  O116  1  0.01669000  0.05954000  0.96776000  1.0
  O  O117  1  0.18244000  0.12995000  0.99556000  1.0
  O  O118  1  0.13442000  0.98960000  0.02839000  1.0
  O  O119  1  0.07737000  0.17724000  0.89782000  1.0
