# generated using pymatgen
data_LiH11(C2O)6
_symmetry_space_group_name_H-M   'P 1'
_cell_length_a   7.86584000
_cell_length_b   7.98132000
_cell_length_c   18.78830000
_cell_angle_alpha   90.00050000
_cell_angle_beta   90.00030000
_cell_angle_gamma   69.34100000
_symmetry_Int_Tables_number   1
_chemical_formula_structural   LiH11(C2O)6
_chemical_formula_sum   'Li4 H44 C48 O24'
_cell_volume   1103.67811454
_cell_formula_units_Z   4
loop_
 _symmetry_equiv_pos_site_id
 _symmetry_equiv_pos_as_xyz
  1  'x, y, z'
loop_
 _atom_site_type_symbol
 _atom_site_label
 _atom_site_symmetry_multiplicity
 _atom_site_fract_x
 _atom_site_fract_y
 _atom_site_fract_z
 _atom_site_occupancy
  Li  Li0  1  0.73367000  0.68684000  0.02713000  1.0
  Li  Li1  1  0.26633000  0.81316000  0.52713000  1.0
  Li  Li2  1  0.26633000  0.31316000  0.97287000  1.0
  Li  Li3  1  0.73367000  0.18684000  0.47287000  1.0
  H  H4  1  0.84305000  0.35038000  0.02597000  1.0
  H  H5  1  0.15696000  0.14961000  0.52597000  1.0
  H  H6  1  0.15695000  0.64962000  0.97403000  1.0
  H  H7  1  0.84305000  0.85038000  0.47403000  1.0
  H  H8  1  0.98372000  0.39994000  0.07399000  1.0
  H  H9  1  0.01628000  0.10005000  0.57399000  1.0
  H  H10  1  0.01629000  0.60005000  0.92601000  1.0
  H  H11  1  0.98371000  0.89994000  0.42601000  1.0
  H  H12  1  0.44926000  0.77231000  0.95679000  1.0
  H  H13  1  0.55074000  0.72770000  0.45679000  1.0
  H  H14  1  0.55075000  0.22769000  0.04321000  1.0
  H  H15  1  0.44925000  0.27232000  0.54321000  1.0
  H  H16  1  0.95164000  0.84811000  0.06483000  1.0
  H  H17  1  0.04836000  0.65189000  0.56482000  1.0
  H  H18  1  0.04836000  0.15190000  0.93517000  1.0
  H  H19  1  0.95164000  0.34810000  0.43518000  1.0
  H  H20  1  0.75153000  0.97584000  0.08446000  1.0
  H  H21  1  0.24847000  0.52416000  0.58446000  1.0
  H  H22  1  0.24847000  0.02416000  0.91554000  1.0
  H  H23  1  0.75154000  0.47584000  0.41554000  1.0
  H  H24  1  0.91289000  0.43272000  0.86093000  1.0
  H  H25  1  0.08711000  0.06730000  0.36093000  1.0
  H  H26  1  0.08712000  0.56728000  0.13907000  1.0
  H  H27  1  0.91289000  0.93271000  0.63907000  1.0
  H  H28  1  0.16955000  0.21199000  0.80184000  1.0
  H  H29  1  0.83045000  0.28803000  0.30185000  1.0
  H  H30  1  0.83046000  0.78801000  0.19815000  1.0
  H  H31  1  0.16955000  0.71199000  0.69815000  1.0
  H  H32  1  0.19244000  0.20685000  0.66818000  1.0
  H  H33  1  0.80754000  0.29316000  0.16818000  1.0
  H  H34  1  0.80755000  0.79314000  0.33182000  1.0
  H  H35  1  0.19246000  0.70686000  0.83182000  1.0
  H  H36  1  0.95561000  0.42677000  0.59735000  1.0
  H  H37  1  0.04437000  0.07324000  0.09735000  1.0
  H  H38  1  0.04438000  0.57323000  0.40265000  1.0
  H  H39  1  0.95563000  0.92677000  0.90265000  1.0
  H  H40  1  0.40457000  0.91290000  0.65011000  1.0
  H  H41  1  0.59541000  0.58710000  0.15011000  1.0
  H  H42  1  0.59542000  0.08710000  0.34989000  1.0
  H  H43  1  0.40458000  0.41290000  0.84989000  1.0
  H  H44  1  0.38283000  0.91908000  0.78161000  1.0
  H  H45  1  0.61716000  0.58092000  0.28161000  1.0
  H  H46  1  0.61717000  0.08091000  0.21839000  1.0
  H  H47  1  0.38283000  0.41909000  0.71839000  1.0
  C  C48  1  0.80143000  0.56835000  0.68803000  1.0
  C  C49  1  0.19856000  0.93166000  0.18803000  1.0
  C  C50  1  0.19857000  0.43165000  0.31197000  1.0
  C  C51  1  0.80144000  0.06835000  0.81197000  1.0
  C  C52  1  0.78867000  0.57125000  0.76461000  1.0
  C  C53  1  0.21133000  0.92876000  0.26461000  1.0
  C  C54  1  0.21134000  0.42874000  0.23539000  1.0
  C  C55  1  0.78867000  0.07125000  0.73540000  1.0
  C  C56  1  0.92445000  0.43780000  0.80353000  1.0
  C  C57  1  0.07555000  0.06220000  0.30354000  1.0
  C  C58  1  0.07556000  0.56219000  0.19646000  1.0
  C  C59  1  0.92445000  0.93780000  0.69646000  1.0
  C  C60  1  0.06837000  0.31172000  0.76974000  1.0
  C  C61  1  0.93163000  0.18829000  0.26974000  1.0
  C  C62  1  0.93164000  0.68827000  0.23025000  1.0
  C  C63  1  0.06837000  0.81172000  0.73025000  1.0
  C  C64  1  0.08111000  0.30889000  0.69505000  1.0
  C  C65  1  0.91888000  0.19112000  0.19506000  1.0
  C  C66  1  0.91889000  0.69110000  0.30494000  1.0
  C  C67  1  0.08112000  0.80889000  0.80494000  1.0
  C  C68  1  0.94917000  0.43318000  0.65515000  1.0
  C  C69  1  0.05081000  0.06683000  0.15515000  1.0
  C  C70  1  0.05083000  0.56682000  0.34484000  1.0
  C  C71  1  0.94918000  0.93318000  0.84484000  1.0
  C  C72  1  0.66209000  0.69711000  0.64745000  1.0
  C  C73  1  0.33791000  0.80289000  0.14745000  1.0
  C  C74  1  0.33792000  0.30289000  0.35255000  1.0
  C  C75  1  0.66209000  0.19710000  0.85255000  1.0
  C  C76  1  0.51196000  0.81715000  0.68148000  1.0
  C  C77  1  0.48803000  0.68285000  0.18148000  1.0
  C  C78  1  0.48804000  0.18284000  0.31852000  1.0
  C  C79  1  0.51196000  0.31716000  0.81852000  1.0
  C  C80  1  0.49987000  0.82073000  0.75608000  1.0
  C  C81  1  0.50012000  0.67927000  0.25608000  1.0
  C  C82  1  0.50014000  0.17926000  0.24392000  1.0
  C  C83  1  0.49987000  0.32073000  0.74392000  1.0
  C  C84  1  0.63609000  0.70398000  0.79781000  1.0
  C  C85  1  0.36390000  0.79603000  0.29781000  1.0
  C  C86  1  0.36391000  0.29602000  0.20219000  1.0
  C  C87  1  0.63609000  0.20398000  0.70219000  1.0
  C  C88  1  0.61726000  0.72032000  0.87650000  1.0
  C  C89  1  0.38274000  0.77968000  0.37649000  1.0
  C  C90  1  0.38274000  0.27967000  0.12350000  1.0
  C  C91  1  0.61726000  0.22033000  0.62351000  1.0
  C  C92  1  0.67551000  0.71381000  0.56822000  1.0
  C  C93  1  0.32447000  0.78621000  0.06821000  1.0
  C  C94  1  0.32449000  0.28620000  0.43178000  1.0
  C  C95  1  0.67552000  0.21380000  0.93179000  1.0
  O  O96  1  0.74779000  0.67884000  0.91895000  1.0
  O  O97  1  0.25220000  0.82117000  0.41896000  1.0
  O  O98  1  0.25223000  0.32115000  0.08105000  1.0
  O  O99  1  0.74779000  0.17884000  0.58105000  1.0
  O  O100  1  0.85805000  0.44525000  0.05681000  1.0
  O  O101  1  0.14195000  0.05474000  0.55681000  1.0
  O  O102  1  0.14196000  0.55475000  0.94319000  1.0
  O  O103  1  0.85805000  0.94525000  0.44319000  1.0
  O  O104  1  0.44672000  0.78267000  0.89983000  1.0
  O  O105  1  0.55328000  0.71734000  0.39983000  1.0
  O  O106  1  0.55329000  0.21733000  0.10017000  1.0
  O  O107  1  0.44671000  0.28267000  0.60017000  1.0
  O  O108  1  0.82312000  0.85582000  0.06795000  1.0
  O  O109  1  0.17688000  0.64418000  0.56795000  1.0
  O  O110  1  0.17688000  0.14418000  0.93205000  1.0
  O  O111  1  0.82312000  0.35582000  0.43205000  1.0
  O  O112  1  0.82430000  0.70517000  0.53991000  1.0
  O  O113  1  0.17570000  0.79484000  0.03991000  1.0
  O  O114  1  0.17570000  0.29482000  0.46009000  1.0
  O  O115  1  0.82430000  0.20517000  0.96009000  1.0
  O  O116  1  0.52899000  0.74230000  0.53221000  1.0
  O  O117  1  0.47100000  0.75770000  0.03221000  1.0
  O  O118  1  0.47100000  0.25770000  0.46779000  1.0
  O  O119  1  0.52900000  0.24230000  0.96779000  1.0
