# generated using pymatgen
data_TbH19C24S(NO2)4
_symmetry_space_group_name_H-M   'P 1'
_cell_length_a   8.82462000
_cell_length_b   8.97052000
_cell_length_c   14.55190000
_cell_angle_alpha   95.68960000
_cell_angle_beta   90.81630000
_cell_angle_gamma   98.86050000
_symmetry_Int_Tables_number   1
_chemical_formula_structural   TbH19C24S(NO2)4
_chemical_formula_sum   'Tb2 H38 C48 S2 N8 O16'
_cell_volume   1132.08441798
_cell_formula_units_Z   2
loop_
 _symmetry_equiv_pos_site_id
 _symmetry_equiv_pos_as_xyz
  1  'x, y, z'
loop_
 _atom_site_type_symbol
 _atom_site_label
 _atom_site_symmetry_multiplicity
 _atom_site_fract_x
 _atom_site_fract_y
 _atom_site_fract_z
 _atom_site_occupancy
  Tb  Tb0  1  0.55243000  0.06091000  0.15543000  1.0
  Tb  Tb1  1  0.44757000  0.93909000  0.84457000  1.0
  H  H2  1  0.10546000  0.94627000  0.60310000  1.0
  H  H3  1  0.89454000  0.05372000  0.39690000  1.0
  H  H4  1  0.40840000  0.33700000  0.28304000  1.0
  H  H5  1  0.59160000  0.66300000  0.71697000  1.0
  H  H6  1  0.25488000  0.39167000  0.42312000  1.0
  H  H7  1  0.74512000  0.60833000  0.57688000  1.0
  H  H8  1  0.18076000  0.18580000  0.52526000  1.0
  H  H9  1  0.81924000  0.81420000  0.47474000  1.0
  H  H10  1  0.49614000  0.53308000  0.42778000  1.0
  H  H11  1  0.50386000  0.46692000  0.57222000  1.0
  H  H12  1  0.66175000  0.52360000  0.28955000  1.0
  H  H13  1  0.33825000  0.47640000  0.71045000  1.0
  H  H14  1  0.68876000  0.74128000  0.19284000  1.0
  H  H15  1  0.31123000  0.25872000  0.80716000  1.0
  H  H16  1  0.10145000  0.43998000  0.58099000  1.0
  H  H17  1  0.89855000  0.56001000  0.41901000  1.0
  H  H18  1  0.92294000  0.28123000  0.67694000  1.0
  H  H19  1  0.07706000  0.71877000  0.32306000  1.0
  H  H20  1  0.77918000  0.40760000  0.80049000  1.0
  H  H21  1  0.22082000  0.59240000  0.19951000  1.0
  H  H22  1  0.82750000  0.69031000  0.83140000  1.0
  H  H23  1  0.17250000  0.30969000  0.16860000  1.0
  H  H24  1  0.91461000  0.45099000  0.04287000  1.0
  H  H25  1  0.08539000  0.54901000  0.95714000  1.0
  H  H26  1  0.86373000  0.54403000  0.14908000  1.0
  H  H27  1  0.13627000  0.45597000  0.85092000  1.0
  H  H28  1  0.60561000  0.56247000  0.07289000  1.0
  H  H29  1  0.39439000  0.43753000  0.92711000  1.0
  H  H30  1  0.67409000  0.49367000  0.96627000  1.0
  H  H31  1  0.32591000  0.50633000  0.03373000  1.0
  H  H32  1  0.83570000  0.78093000  0.08364000  1.0
  H  H33  1  0.16431000  0.21907000  0.91636000  1.0
  H  H34  1  0.87695000  0.71907000  0.96893000  1.0
  H  H35  1  0.12306000  0.28093000  0.03107000  1.0
  H  H36  1  0.29097000  0.84871000  0.06435000  1.0
  H  H37  1  0.70903000  0.15129000  0.93565000  1.0
  H  H38  1  0.21446000  0.94977000  0.14046000  1.0
  H  H39  1  0.78554000  0.05023000  0.85954000  1.0
  C  C40  1  0.37711000  0.25121000  0.33032000  1.0
  C  C41  1  0.62289000  0.74879000  0.66968000  1.0
  C  C42  1  0.29023000  0.28082000  0.40835000  1.0
  C  C43  1  0.70977000  0.71918000  0.59166000  1.0
  C  C44  1  0.24981000  0.16715000  0.46484000  1.0
  C  C45  1  0.75018000  0.83285000  0.53516000  1.0
  C  C46  1  0.30033000  0.02642000  0.44435000  1.0
  C  C47  1  0.69967000  0.97358000  0.55565000  1.0
  C  C48  1  0.26721000  0.89908000  0.49595000  1.0
  C  C49  1  0.73279000  0.10092000  0.50405000  1.0
  C  C50  1  0.32871000  0.76436000  0.47694000  1.0
  C  C51  1  0.67128000  0.23564000  0.52306000  1.0
  C  C52  1  0.43107000  0.74880000  0.40251000  1.0
  C  C53  1  0.56893000  0.25120000  0.59749000  1.0
  C  C54  1  0.50841000  0.62402000  0.38296000  1.0
  C  C55  1  0.49158000  0.37598000  0.61704000  1.0
  C  C56  1  0.60185000  0.61939000  0.30765000  1.0
  C  C57  1  0.39815000  0.38062000  0.69235000  1.0
  C  C58  1  0.61581000  0.74009000  0.25247000  1.0
  C  C59  1  0.38419000  0.25991000  0.74753000  1.0
  C  C60  1  0.45603000  0.86856000  0.34453000  1.0
  C  C61  1  0.54396000  0.13144000  0.65547000  1.0
  C  C62  1  0.39185000  0.00728000  0.36550000  1.0
  C  C63  1  0.60815000  0.99272000  0.63450000  1.0
  C  C64  1  0.17556000  0.72876000  0.58961000  1.0
  C  C65  1  0.82444000  0.27124000  0.41039000  1.0
  C  C66  1  0.07268000  0.65186000  0.65427000  1.0
  C  C67  1  0.92732000  0.34814000  0.34573000  1.0
  C  C68  1  0.04261000  0.49244000  0.63785000  1.0
  C  C69  1  0.95739000  0.50756000  0.36216000  1.0
  C  C70  1  0.94085000  0.40455000  0.69048000  1.0
  C  C71  1  0.05915000  0.59545000  0.30953000  1.0
  C  C72  1  0.86155000  0.47539000  0.76009000  1.0
  C  C73  1  0.13845000  0.52461000  0.23991000  1.0
  C  C74  1  0.88996000  0.63306000  0.77834000  1.0
  C  C75  1  0.11004000  0.36694000  0.22166000  1.0
  C  C76  1  0.99620000  0.72159000  0.72788000  1.0
  C  C77  1  0.00380000  0.27841000  0.27212000  1.0
  C  C78  1  0.73118000  0.32637000  0.11125000  1.0
  C  C79  1  0.26882000  0.67363000  0.88875000  1.0
  C  C80  1  0.81780000  0.47413000  0.08570000  1.0
  C  C81  1  0.18220000  0.52587000  0.91430000  1.0
  C  C82  1  0.71052000  0.55777000  0.03334000  1.0
  C  C83  1  0.28948000  0.44223000  0.96666000  1.0
  C  C84  1  0.78474000  0.71975000  0.01865000  1.0
  C  C85  1  0.21526000  0.28025000  0.98134000  1.0
  C  C86  1  0.66250000  0.80392000  0.98467000  1.0
  C  C87  1  0.33751000  0.19608000  0.01533000  1.0
  S  S88  1  0.03293000  0.92167000  0.76598000  1.0
  S  S89  1  0.96707000  0.07833000  0.23403000  1.0
  N  N90  1  0.42588000  0.11886000  0.30888000  1.0
  N  N91  1  0.57412000  0.88114000  0.69112000  1.0
  N  N92  1  0.54510000  0.86048000  0.26959000  1.0
  N  N93  1  0.45490000  0.13952000  0.73041000  1.0
  N  N94  1  0.17181000  0.87421000  0.56800000  1.0
  N  N95  1  0.82819000  0.12579000  0.43200000  1.0
  N  N96  1  0.27156000  0.65995000  0.53548000  1.0
  N  N97  1  0.72844000  0.34005000  0.46452000  1.0
  O  O98  1  0.19953000  0.95335000  0.78747000  1.0
  O  O99  1  0.80047000  0.04665000  0.21253000  1.0
  O  O100  1  0.99301000  0.00473000  0.68876000  1.0
  O  O101  1  0.00699000  0.99526000  0.31124000  1.0
  O  O102  1  0.94105000  0.94601000  0.84698000  1.0
  O  O103  1  0.05895000  0.05399000  0.15302000  1.0
  O  O104  1  0.66923000  0.32051000  0.18977000  1.0
  O  O105  1  0.33077000  0.67949000  0.81023000  1.0
  O  O106  1  0.71488000  0.20789000  0.05267000  1.0
  O  O107  1  0.28512000  0.79211000  0.94732000  1.0
  O  O108  1  0.62268000  0.78688000  0.89971000  1.0
  O  O109  1  0.37732000  0.21312000  0.10029000  1.0
  O  O110  1  0.59723000  0.88392000  0.04492000  1.0
  O  O111  1  0.40277000  0.11608000  0.95508000  1.0
  O  O112  1  0.30514000  0.89838000  0.12895000  1.0
  O  O113  1  0.69486000  0.10163000  0.87104000  1.0
