# generated using pymatgen
data_Nd2H10C14N4O15
_symmetry_space_group_name_H-M   'P 1'
_cell_length_a   11.02060000
_cell_length_b   12.02900000
_cell_length_c   19.28310000
_cell_angle_alpha   89.99990000
_cell_angle_beta   89.99990000
_cell_angle_gamma   90.00000000
_symmetry_Int_Tables_number   1
_chemical_formula_structural   Nd2H10C14N4O15
_chemical_formula_sum   'Nd8 H40 C56 N16 O60'
_cell_volume   2556.29881094
_cell_formula_units_Z   4
loop_
 _symmetry_equiv_pos_site_id
 _symmetry_equiv_pos_as_xyz
  1  'x, y, z'
loop_
 _atom_site_type_symbol
 _atom_site_label
 _atom_site_symmetry_multiplicity
 _atom_site_fract_x
 _atom_site_fract_y
 _atom_site_fract_z
 _atom_site_occupancy
  Nd  Nd0  1  0.13695000  0.33677000  0.01266000  1.0
  Nd  Nd1  1  0.86305000  0.66323000  0.51266000  1.0
  Nd  Nd2  1  0.63695000  0.16323000  0.51266000  1.0
  Nd  Nd3  1  0.36305000  0.83677000  0.01266000  1.0
  Nd  Nd4  1  0.61729000  0.51963000  0.23221000  1.0
  Nd  Nd5  1  0.38271000  0.48037000  0.73221000  1.0
  Nd  Nd6  1  0.11729000  0.98037000  0.73221000  1.0
  Nd  Nd7  1  0.88271000  0.01963000  0.23221000  1.0
  H  H8  1  0.35654000  0.49223000  0.11527000  1.0
  H  H9  1  0.64346000  0.50777000  0.61527000  1.0
  H  H10  1  0.85653000  0.00777000  0.61527000  1.0
  H  H11  1  0.14346000  0.99224000  0.11527000  1.0
  H  H12  1  0.20926000  0.24428000  0.29605000  1.0
  H  H13  1  0.79075000  0.75572000  0.79605000  1.0
  H  H14  1  0.70925000  0.25572000  0.79605000  1.0
  H  H15  1  0.29074000  0.74428000  0.29605000  1.0
  H  H16  1  0.85601000  0.38675000  0.11639000  1.0
  H  H17  1  0.14399000  0.61326000  0.61639000  1.0
  H  H18  1  0.35601000  0.11326000  0.61639000  1.0
  H  H19  1  0.64399000  0.88674000  0.11639000  1.0
  H  H20  1  0.01010000  0.76554000  0.11546000  1.0
  H  H21  1  0.98990000  0.23446000  0.61547000  1.0
  H  H22  1  0.51010000  0.73446000  0.61546000  1.0
  H  H23  1  0.48990000  0.26554000  0.11546000  1.0
  H  H24  1  0.89975000  0.39255000  0.95282000  1.0
  H  H25  1  0.10025000  0.60745000  0.45282000  1.0
  H  H26  1  0.39975000  0.10744000  0.45282000  1.0
  H  H27  1  0.60026000  0.89255000  0.95282000  1.0
  H  H28  1  0.90316000  0.26408000  0.94439000  1.0
  H  H29  1  0.09683000  0.73592000  0.44439000  1.0
  H  H30  1  0.40317000  0.23592000  0.44439000  1.0
  H  H31  1  0.59684000  0.76408000  0.94439000  1.0
  H  H32  1  0.08600000  0.13686000  0.90838000  1.0
  H  H33  1  0.91400000  0.86314000  0.40838000  1.0
  H  H34  1  0.58600000  0.36314000  0.40838000  1.0
  H  H35  1  0.41400000  0.63686000  0.90838000  1.0
  H  H36  1  0.17044000  0.09822000  0.97275000  1.0
  H  H37  1  0.82956000  0.90178000  0.47275000  1.0
  H  H38  1  0.67044000  0.40178000  0.47275000  1.0
  H  H39  1  0.32956000  0.59822000  0.97275000  1.0
  H  H40  1  0.53360000  0.61990000  0.09565000  1.0
  H  H41  1  0.46640000  0.38010000  0.59566000  1.0
  H  H42  1  0.03361000  0.88011000  0.59565000  1.0
  H  H43  1  0.96640000  0.11989000  0.09566000  1.0
  H  H44  1  0.59892000  0.51503000  0.06023000  1.0
  H  H45  1  0.40108000  0.48497000  0.56023000  1.0
  H  H46  1  0.09893000  0.98497000  0.56022000  1.0
  H  H47  1  0.90108000  0.01503000  0.06023000  1.0
  C  C48  1  0.32416000  0.43560000  0.15532000  1.0
  C  C49  1  0.67584000  0.56439000  0.65532000  1.0
  C  C50  1  0.82416000  0.06440000  0.65532000  1.0
  C  C51  1  0.17584000  0.93561000  0.15532000  1.0
  C  C52  1  0.34973000  0.35938000  0.26311000  1.0
  C  C53  1  0.65027000  0.64062000  0.76311000  1.0
  C  C54  1  0.84973000  0.14062000  0.76311000  1.0
  C  C55  1  0.15027000  0.85938000  0.26311000  1.0
  C  C56  1  0.24286000  0.29850000  0.25520000  1.0
  C  C57  1  0.75714000  0.70150000  0.75520000  1.0
  C  C58  1  0.74286000  0.20150000  0.75520000  1.0
  C  C59  1  0.25714000  0.79850000  0.25520000  1.0
  C  C60  1  0.18453000  0.30647000  0.19153000  1.0
  C  C61  1  0.81547000  0.69352000  0.69153000  1.0
  C  C62  1  0.68453000  0.19352000  0.69153000  1.0
  C  C63  1  0.31547000  0.80648000  0.19153000  1.0
  C  C64  1  0.08169000  0.22861000  0.17282000  1.0
  C  C65  1  0.91831000  0.77138000  0.67282000  1.0
  C  C66  1  0.58169000  0.27139000  0.67282000  1.0
  C  C67  1  0.41831000  0.72862000  0.17282000  1.0
  C  C68  1  0.42402000  0.35041000  0.32889000  1.0
  C  C69  1  0.57598000  0.64959000  0.82889000  1.0
  C  C70  1  0.92402000  0.14959000  0.82889000  1.0
  C  C71  1  0.07598000  0.85041000  0.32889000  1.0
  C  C72  1  0.89022000  0.47166000  0.11632000  1.0
  C  C73  1  0.10977000  0.52834000  0.61632000  1.0
  C  C74  1  0.39022000  0.02834000  0.61632000  1.0
  C  C75  1  0.60978000  0.97166000  0.11632000  1.0
  C  C76  1  0.86811000  0.65362000  0.14944000  1.0
  C  C77  1  0.13189000  0.34638000  0.64945000  1.0
  C  C78  1  0.36811000  0.84638000  0.64944000  1.0
  C  C79  1  0.63189000  0.15362000  0.14945000  1.0
  C  C80  1  0.97598000  0.68081000  0.11601000  1.0
  C  C81  1  0.02403000  0.31919000  0.61601000  1.0
  C  C82  1  0.47598000  0.81919000  0.61600000  1.0
  C  C83  1  0.52403000  0.18081000  0.11601000  1.0
  C  C84  1  0.03840000  0.59474000  0.08361000  1.0
  C  C85  1  0.96160000  0.40526000  0.58361000  1.0
  C  C86  1  0.53840000  0.90526000  0.58361000  1.0
  C  C87  1  0.46161000  0.09474000  0.08361000  1.0
  C  C88  1  0.16078000  0.61424000  0.05040000  1.0
  C  C89  1  0.83922000  0.38577000  0.55040000  1.0
  C  C90  1  0.66078000  0.88576000  0.55040000  1.0
  C  C91  1  0.33922000  0.11424000  0.05040000  1.0
  C  C92  1  0.79364000  0.74140000  0.18681000  1.0
  C  C93  1  0.20637000  0.25860000  0.68682000  1.0
  C  C94  1  0.29363000  0.75860000  0.68681000  1.0
  C  C95  1  0.70637000  0.24139000  0.18682000  1.0
  C  C96  1  0.80310000  0.56816000  0.35860000  1.0
  C  C97  1  0.19691000  0.43184000  0.85860000  1.0
  C  C98  1  0.30309000  0.93185000  0.85860000  1.0
  C  C99  1  0.69690000  0.06815000  0.35860000  1.0
  C  C100  1  0.67910000  0.61577000  0.38488000  1.0
  C  C101  1  0.32090000  0.38423000  0.88489000  1.0
  C  C102  1  0.17910000  0.88423000  0.88488000  1.0
  C  C103  1  0.82090000  0.11577000  0.38488000  1.0
  N  N104  1  0.22296000  0.37801000  0.14236000  1.0
  N  N105  1  0.77704000  0.62199000  0.64236000  1.0
  N  N106  1  0.72296000  0.12199000  0.64236000  1.0
  N  N107  1  0.27704000  0.87802000  0.14236000  1.0
  N  N108  1  0.39230000  0.42571000  0.21255000  1.0
  N  N109  1  0.60770000  0.57429000  0.71255000  1.0
  N  N110  1  0.89229000  0.07429000  0.71255000  1.0
  N  N111  1  0.10770000  0.92571000  0.21255000  1.0
  N  N112  1  0.99464000  0.49040000  0.08235000  1.0
  N  N113  1  0.00536000  0.50959000  0.58235000  1.0
  N  N114  1  0.49464000  0.00960000  0.58235000  1.0
  N  N115  1  0.50537000  0.99040000  0.08235000  1.0
  N  N116  1  0.82573000  0.54852000  0.15047000  1.0
  N  N117  1  0.17427000  0.45148000  0.65047000  1.0
  N  N118  1  0.32573000  0.95148000  0.65047000  1.0
  N  N119  1  0.67427000  0.04852000  0.15047000  1.0
  O  O120  1  0.03770000  0.23796000  0.11149000  1.0
  O  O121  1  0.96230000  0.76204000  0.61149000  1.0
  O  O122  1  0.53770000  0.26204000  0.61149000  1.0
  O  O123  1  0.46230000  0.73796000  0.11149000  1.0
  O  O124  1  0.05146000  0.15787000  0.21729000  1.0
  O  O125  1  0.94854000  0.84213000  0.71729000  1.0
  O  O126  1  0.55146000  0.34213000  0.71729000  1.0
  O  O127  1  0.44854000  0.65787000  0.21729000  1.0
  O  O128  1  0.53426000  0.38302000  0.32521000  1.0
  O  O129  1  0.46574000  0.61698000  0.82521000  1.0
  O  O130  1  0.03425000  0.11698000  0.82521000  1.0
  O  O131  1  0.96574000  0.88302000  0.32520000  1.0
  O  O132  1  0.36882000  0.31204000  0.38054000  1.0
  O  O133  1  0.63118000  0.68796000  0.88054000  1.0
  O  O134  1  0.86882000  0.18797000  0.88055000  1.0
  O  O135  1  0.13117000  0.81204000  0.38054000  1.0
  O  O136  1  0.20845000  0.53342000  0.01735000  1.0
  O  O137  1  0.79155000  0.46658000  0.51735000  1.0
  O  O138  1  0.70845000  0.96659000  0.51735000  1.0
  O  O139  1  0.29155000  0.03341000  0.01735000  1.0
  O  O140  1  0.20767000  0.70809000  0.06001000  1.0
  O  O141  1  0.79233000  0.29190000  0.56001000  1.0
  O  O142  1  0.70767000  0.79191000  0.56001000  1.0
  O  O143  1  0.29233000  0.20809000  0.06001000  1.0
  O  O144  1  0.69766000  0.70979000  0.21605000  1.0
  O  O145  1  0.30234000  0.29022000  0.71605000  1.0
  O  O146  1  0.19767000  0.79021000  0.71604000  1.0
  O  O147  1  0.80233000  0.20979000  0.21605000  1.0
  O  O148  1  0.83422000  0.84012000  0.18407000  1.0
  O  O149  1  0.16578000  0.15989000  0.68407000  1.0
  O  O150  1  0.33423000  0.65988000  0.68407000  1.0
  O  O151  1  0.66578000  0.34012000  0.18407000  1.0
  O  O152  1  0.89527000  0.58496000  0.39656000  1.0
  O  O153  1  0.10473000  0.41504000  0.89656000  1.0
  O  O154  1  0.39527000  0.91504000  0.89656000  1.0
  O  O155  1  0.60472000  0.08496000  0.39656000  1.0
  O  O156  1  0.80130000  0.51600000  0.30157000  1.0
  O  O157  1  0.19870000  0.48400000  0.80157000  1.0
  O  O158  1  0.30130000  0.98400000  0.80157000  1.0
  O  O159  1  0.69870000  0.01600000  0.30157000  1.0
  O  O160  1  0.67755000  0.65565000  0.44574000  1.0
  O  O161  1  0.32245000  0.34435000  0.94575000  1.0
  O  O162  1  0.17755000  0.84435000  0.94575000  1.0
  O  O163  1  0.82244000  0.15565000  0.44575000  1.0
  O  O164  1  0.59016000  0.60927000  0.34389000  1.0
  O  O165  1  0.40985000  0.39074000  0.84390000  1.0
  O  O166  1  0.09016000  0.89073000  0.84389000  1.0
  O  O167  1  0.90984000  0.10927000  0.34389000  1.0
  O  O168  1  0.91663000  0.32555000  0.97955000  1.0
  O  O169  1  0.08337000  0.67445000  0.47955000  1.0
  O  O170  1  0.41663000  0.17445000  0.47956000  1.0
  O  O171  1  0.58337000  0.82555000  0.97955000  1.0
  O  O172  1  0.10930000  0.15345000  0.95742000  1.0
  O  O173  1  0.89070000  0.84655000  0.45742000  1.0
  O  O174  1  0.60930000  0.34655000  0.45742000  1.0
  O  O175  1  0.39070000  0.65345000  0.95742000  1.0
  O  O176  1  0.56502000  0.54242000  0.10338000  1.0
  O  O177  1  0.43498000  0.45758000  0.60338000  1.0
  O  O178  1  0.06502000  0.95759000  0.60337000  1.0
  O  O179  1  0.93498000  0.04242000  0.10338000  1.0
