# generated using pymatgen
data_SmPH6C2SO7
_symmetry_space_group_name_H-M   'P 1'
_cell_length_a   7.10137000
_cell_length_b   8.32615000
_cell_length_c   13.09390000
_cell_angle_alpha   89.99990000
_cell_angle_beta   89.99970000
_cell_angle_gamma   76.71800000
_symmetry_Int_Tables_number   1
_chemical_formula_structural   SmPH6C2SO7
_chemical_formula_sum   'Sm4 P4 H24 C8 S4 O28'
_cell_volume   753.49485899
_cell_formula_units_Z   4
loop_
 _symmetry_equiv_pos_site_id
 _symmetry_equiv_pos_as_xyz
  1  'x, y, z'
loop_
 _atom_site_type_symbol
 _atom_site_label
 _atom_site_symmetry_multiplicity
 _atom_site_fract_x
 _atom_site_fract_y
 _atom_site_fract_z
 _atom_site_occupancy
  Sm  Sm0  1  0.75601000  0.49669000  0.07733000  1.0
  Sm  Sm1  1  0.74399000  0.50331000  0.57733000  1.0
  Sm  Sm2  1  0.24399000  0.50331000  0.92267000  1.0
  Sm  Sm3  1  0.25601000  0.49669000  0.42267000  1.0
  P  P4  1  0.72174000  0.63862000  0.35280000  1.0
  P  P5  1  0.77826000  0.36138000  0.85281000  1.0
  P  P6  1  0.27826000  0.36138000  0.64720000  1.0
  P  P7  1  0.22174000  0.63862000  0.14719000  1.0
  H  H8  1  0.72050000  0.22829000  0.21137000  1.0
  H  H9  1  0.77950000  0.77171000  0.71137000  1.0
  H  H10  1  0.27950000  0.77171000  0.78863000  1.0
  H  H11  1  0.22050000  0.22829000  0.28863000  1.0
  H  H12  1  0.51714000  0.25195000  0.15794000  1.0
  H  H13  1  0.98286000  0.74805000  0.65794000  1.0
  H  H14  1  0.48286000  0.74805000  0.84206000  1.0
  H  H15  1  0.01714000  0.25195000  0.34206000  1.0
  H  H16  1  0.88879000  0.89352000  0.44866000  1.0
  H  H17  1  0.61121000  0.10648000  0.94865000  1.0
  H  H18  1  0.11121000  0.10648000  0.55135000  1.0
  H  H19  1  0.38879000  0.89352000  0.05135000  1.0
  H  H20  1  0.66074000  0.93292000  0.50949000  1.0
  H  H21  1  0.83926000  0.06708000  0.00949000  1.0
  H  H22  1  0.33926000  0.06708000  0.49051000  1.0
  H  H23  1  0.16074000  0.93292000  0.99051000  1.0
  H  H24  1  0.71573000  0.89802000  0.27534000  1.0
  H  H25  1  0.78427000  0.10198000  0.77534000  1.0
  H  H26  1  0.28427000  0.10198000  0.72466000  1.0
  H  H27  1  0.21573000  0.89802000  0.22466000  1.0
  H  H28  1  0.49689000  0.90438000  0.34138000  1.0
  H  H29  1  0.00311000  0.09562000  0.84138000  1.0
  H  H30  1  0.50311000  0.09562000  0.65862000  1.0
  H  H31  1  0.99689000  0.90438000  0.15862000  1.0
  C  C32  1  0.73365000  0.94516000  0.43709000  1.0
  C  C33  1  0.76635000  0.05484000  0.93709000  1.0
  C  C34  1  0.26635000  0.05484000  0.56291000  1.0
  C  C35  1  0.23365000  0.94516000  0.06291000  1.0
  C  C36  1  0.65514000  0.86393000  0.34724000  1.0
  C  C37  1  0.84486000  0.13607000  0.84724000  1.0
  C  C38  1  0.34486000  0.13607000  0.65276000  1.0
  C  C39  1  0.15514000  0.86393000  0.15276000  1.0
  S  S40  1  0.71389000  0.15881000  0.41466000  1.0
  S  S41  1  0.78611000  0.84118000  0.91466000  1.0
  S  S42  1  0.28611000  0.84119000  0.58534000  1.0
  S  S43  1  0.21389000  0.15882000  0.08534000  1.0
  O  O44  1  0.74702000  0.57913000  0.24309000  1.0
  O  O45  1  0.75298000  0.42087000  0.74309000  1.0
  O  O46  1  0.25298000  0.42087000  0.75691000  1.0
  O  O47  1  0.24702000  0.57913000  0.25691000  1.0
  O  O48  1  0.90609000  0.59000000  0.42043000  1.0
  O  O49  1  0.59391000  0.41001000  0.92043000  1.0
  O  O50  1  0.09391000  0.41000000  0.57957000  1.0
  O  O51  1  0.40609000  0.58999000  0.07957000  1.0
  O  O52  1  0.56689000  0.57376000  0.41379000  1.0
  O  O53  1  0.93311000  0.42624000  0.91379000  1.0
  O  O54  1  0.43311000  0.42624000  0.58621000  1.0
  O  O55  1  0.06689000  0.57376000  0.08621000  1.0
  O  O56  1  0.83072000  0.16693000  0.32213000  1.0
  O  O57  1  0.66927000  0.83307000  0.82213000  1.0
  O  O58  1  0.16927000  0.83307000  0.67787000  1.0
  O  O59  1  0.33073000  0.16693000  0.17787000  1.0
  O  O60  1  0.50839000  0.23586000  0.39794000  1.0
  O  O61  1  0.99160000  0.76414000  0.89794000  1.0
  O  O62  1  0.49161000  0.76414000  0.60206000  1.0
  O  O63  1  0.00840000  0.23586000  0.10206000  1.0
  O  O64  1  0.79747000  0.22355000  0.50517000  1.0
  O  O65  1  0.70253000  0.77645000  0.00517000  1.0
  O  O66  1  0.20253000  0.77645000  0.49483000  1.0
  O  O67  1  0.29747000  0.22355000  0.99483000  1.0
  O  O68  1  0.64805000  0.27219000  0.14875000  1.0
  O  O69  1  0.85195000  0.72782000  0.64875000  1.0
  O  O70  1  0.35195000  0.72780000  0.85124000  1.0
  O  O71  1  0.14805000  0.27219000  0.35125000  1.0
