# generated using pymatgen
data_CdH11C7S2N3O2
_symmetry_space_group_name_H-M   'P 1'
_cell_length_a   10.37870000
_cell_length_b   10.47693093
_cell_length_c   13.34910000
_cell_angle_alpha   89.99990251
_cell_angle_beta   89.99980000
_cell_angle_gamma   60.73316045
_symmetry_Int_Tables_number   1
_chemical_formula_structural   CdH11C7S2N3O2
_chemical_formula_sum   'Cd4 H44 C28 S8 N12 O8'
_cell_volume   1266.25439828
_cell_formula_units_Z   4
loop_
 _symmetry_equiv_pos_site_id
 _symmetry_equiv_pos_as_xyz
  1  'x, y, z'
loop_
 _atom_site_type_symbol
 _atom_site_label
 _atom_site_symmetry_multiplicity
 _atom_site_fract_x
 _atom_site_fract_y
 _atom_site_fract_z
 _atom_site_occupancy
  Cd  Cd0  1  0.79817000  0.29178000  0.06026000  1.0
  Cd  Cd1  1  0.70182000  0.70823000  0.56025000  1.0
  Cd  Cd2  1  0.20183000  0.70823000  0.93974000  1.0
  Cd  Cd3  1  0.29815000  0.29180000  0.43973000  1.0
  H  H4  1  0.00414000  0.50015000  0.28703000  1.0
  H  H5  1  0.49587000  0.49985000  0.78702000  1.0
  H  H6  1  0.99586000  0.49985000  0.71298000  1.0
  H  H7  1  0.50414000  0.50014000  0.21298000  1.0
  H  H8  1  0.17910000  0.50949000  0.20015000  1.0
  H  H9  1  0.32090000  0.49051000  0.70015000  1.0
  H  H10  1  0.82090000  0.49051000  0.79985000  1.0
  H  H11  1  0.67910000  0.50949000  0.29985000  1.0
  H  H12  1  0.05956000  0.65048000  0.12789000  1.0
  H  H13  1  0.44043000  0.34953000  0.62789000  1.0
  H  H14  1  0.94044000  0.34951000  0.87211000  1.0
  H  H15  1  0.55956000  0.65048000  0.37210000  1.0
  H  H16  1  0.10138000  0.48084000  0.09457000  1.0
  H  H17  1  0.39862000  0.51916000  0.59457000  1.0
  H  H18  1  0.89863000  0.51915000  0.90543000  1.0
  H  H19  1  0.60138000  0.48084000  0.40543000  1.0
  H  H20  1  0.75137000  0.69771000  0.27697000  1.0
  H  H21  1  0.74862000  0.30229000  0.77698000  1.0
  H  H22  1  0.24863000  0.30228000  0.72303000  1.0
  H  H23  1  0.25137000  0.69771000  0.22303000  1.0
  H  H24  1  0.92813000  0.73943000  0.37135000  1.0
  H  H25  1  0.57187000  0.26056000  0.87135000  1.0
  H  H26  1  0.07187000  0.26056000  0.62865000  1.0
  H  H27  1  0.42813000  0.73943000  0.12864000  1.0
  H  H28  1  0.80093000  0.90578000  0.31184000  1.0
  H  H29  1  0.69907000  0.09422000  0.81184000  1.0
  H  H30  1  0.19907000  0.09421000  0.68816000  1.0
  H  H31  1  0.30094000  0.90577000  0.18816000  1.0
  H  H32  1  0.98088000  0.80139000  0.26347000  1.0
  H  H33  1  0.51911000  0.19861000  0.76348000  1.0
  H  H34  1  0.01911000  0.19861000  0.73653000  1.0
  H  H35  1  0.48089000  0.80139000  0.23652000  1.0
  H  H36  1  0.67050000  0.89954000  0.15174000  1.0
  H  H37  1  0.82950000  0.10045000  0.65174000  1.0
  H  H38  1  0.32950000  0.10044000  0.84826000  1.0
  H  H39  1  0.17050000  0.89955000  0.34826000  1.0
  H  H40  1  0.71440000  0.73083000  0.09365000  1.0
  H  H41  1  0.78559000  0.26917000  0.59365000  1.0
  H  H42  1  0.28559000  0.26916000  0.90635000  1.0
  H  H43  1  0.21440000  0.73084000  0.40635000  1.0
  H  H44  1  0.83832000  0.80205000  0.08531000  1.0
  H  H45  1  0.66168000  0.19795000  0.58531000  1.0
  H  H46  1  0.16167000  0.19795000  0.91469000  1.0
  H  H47  1  0.33832000  0.80205000  0.41469000  1.0
  C  C48  1  0.02697000  0.94212000  0.12199000  1.0
  C  C49  1  0.47301000  0.05791000  0.62198000  1.0
  C  C50  1  0.97302000  0.05789000  0.87801000  1.0
  C  C51  1  0.52697000  0.94214000  0.37801000  1.0
  C  C52  1  0.44679000  0.38474000  0.05417000  1.0
  C  C53  1  0.05320000  0.61526000  0.55417000  1.0
  C  C54  1  0.55323000  0.61525000  0.94583000  1.0
  C  C55  1  0.94679000  0.38475000  0.44583000  1.0
  C  C56  1  0.90435000  0.45946000  0.16032000  1.0
  C  C57  1  0.59565000  0.54054000  0.66032000  1.0
  C  C58  1  0.09566000  0.54053000  0.83969000  1.0
  C  C59  1  0.40437000  0.45945000  0.33969000  1.0
  C  C60  1  0.95824000  0.55310000  0.21472000  1.0
  C  C61  1  0.54176000  0.44690000  0.71472000  1.0
  C  C62  1  0.04177000  0.44689000  0.78529000  1.0
  C  C63  1  0.45824000  0.55310000  0.28528000  1.0
  C  C64  1  0.83398000  0.71036000  0.23308000  1.0
  C  C65  1  0.66602000  0.28963000  0.73308000  1.0
  C  C66  1  0.16602000  0.28963000  0.76692000  1.0
  C  C67  1  0.33399000  0.71036000  0.26692000  1.0
  C  C68  1  0.88939000  0.79344000  0.29848000  1.0
  C  C69  1  0.61061000  0.20655000  0.79848000  1.0
  C  C70  1  0.11061000  0.20655000  0.70152000  1.0
  C  C71  1  0.38940000  0.79343000  0.20152000  1.0
  C  C72  1  0.76111000  0.78932000  0.13521000  1.0
  C  C73  1  0.73890000  0.21067000  0.63521000  1.0
  C  C74  1  0.23889000  0.21067000  0.86479000  1.0
  C  C75  1  0.26110000  0.78933000  0.36479000  1.0
  S  S76  1  0.97291000  0.08573000  0.19189000  1.0
  S  S77  1  0.52708000  0.91430000  0.69189000  1.0
  S  S78  1  0.02707000  0.91428000  0.80810000  1.0
  S  S79  1  0.47290000  0.08575000  0.30810000  1.0
  S  S80  1  0.58412000  0.23272000  0.09651000  1.0
  S  S81  1  0.91585000  0.76728000  0.59652000  1.0
  S  S82  1  0.41589000  0.76727000  0.90347000  1.0
  S  S83  1  0.08412000  0.23273000  0.40348000  1.0
  N  N84  1  0.06897000  0.83166000  0.07587000  1.0
  N  N85  1  0.43103000  0.16836000  0.57585000  1.0
  N  N86  1  0.93105000  0.16832000  0.92414000  1.0
  N  N87  1  0.56896000  0.83169000  0.42413000  1.0
  N  N88  1  0.34482000  0.49515000  0.02645000  1.0
  N  N89  1  0.15518000  0.50486000  0.52644000  1.0
  N  N90  1  0.65520000  0.50484000  0.97355000  1.0
  N  N91  1  0.84481000  0.49515000  0.47355000  1.0
  N  N92  1  0.08352000  0.54872000  0.15564000  1.0
  N  N93  1  0.41647000  0.45129000  0.65564000  1.0
  N  N94  1  0.91648000  0.45128000  0.84436000  1.0
  N  N95  1  0.58353000  0.54871000  0.34436000  1.0
  O  O96  1  0.79831000  0.44773000  0.19959000  1.0
  O  O97  1  0.70167000  0.55228000  0.69959000  1.0
  O  O98  1  0.20168000  0.55228000  0.80041000  1.0
  O  O99  1  0.29832000  0.44771000  0.30042000  1.0
  O  O100  1  0.96675000  0.39788000  0.07919000  1.0
  O  O101  1  0.53324000  0.60213000  0.57919000  1.0
  O  O102  1  0.03325000  0.60212000  0.92082000  1.0
  O  O103  1  0.46676000  0.39789000  0.42082000  1.0
