# generated using pymatgen
data_AlH7C6O5
_symmetry_space_group_name_H-M   'P 1'
_cell_length_a   6.68207000
_cell_length_b   8.80805000
_cell_length_c   8.80766000
_cell_angle_alpha   61.72420000
_cell_angle_beta   74.36730000
_cell_angle_gamma   74.37410000
_symmetry_Int_Tables_number   1
_chemical_formula_structural   AlH7C6O5
_chemical_formula_sum   'Al2 H14 C12 O10'
_cell_volume   433.46126613
_cell_formula_units_Z   2
loop_
 _symmetry_equiv_pos_site_id
 _symmetry_equiv_pos_as_xyz
  1  'x, y, z'
loop_
 _atom_site_type_symbol
 _atom_site_label
 _atom_site_symmetry_multiplicity
 _atom_site_fract_x
 _atom_site_fract_y
 _atom_site_fract_z
 _atom_site_occupancy
  Al  Al0  1  0.50005000  0.49995000  0.49997000  1.0
  Al  Al1  1  0.00005000  0.49997000  0.49995000  1.0
  H  H2  1  0.74962000  0.30395000  0.69722000  1.0
  H  H3  1  0.24970000  0.69711000  0.30385000  1.0
  H  H4  1  0.84173000  0.09453000  0.46326000  1.0
  H  H5  1  0.70147000  0.22591000  0.28896000  1.0
  H  H6  1  0.88959000  0.03910000  0.28610000  1.0
  H  H7  1  0.11047000  0.96090000  0.71384000  1.0
  H  H8  1  0.29852000  0.77406000  0.71093000  1.0
  H  H9  1  0.15822000  0.90551000  0.53668000  1.0
  H  H10  1  0.38955000  0.28612000  0.03911000  1.0
  H  H11  1  0.20141000  0.28900000  0.22592000  1.0
  H  H12  1  0.34172000  0.46329000  0.09450000  1.0
  H  H13  1  0.65820000  0.53669000  0.90553000  1.0
  H  H14  1  0.79859000  0.71093000  0.77404000  1.0
  H  H15  1  0.61051000  0.71386000  0.96087000  1.0
  C  C16  1  0.15951000  0.45949000  0.80091000  1.0
  C  C17  1  0.34055000  0.19908000  0.54038000  1.0
  C  C18  1  0.84054000  0.54039000  0.19907000  1.0
  C  C19  1  0.65949000  0.80090000  0.45949000  1.0
  C  C20  1  0.59751000  0.97742000  0.45928000  1.0
  C  C21  1  0.40253000  0.02255000  0.54061000  1.0
  C  C22  1  0.09751000  0.45929000  0.97743000  1.0
  C  C23  1  0.90253000  0.54063000  0.02253000  1.0
  C  C24  1  0.76659000  0.09043000  0.36888000  1.0
  C  C25  1  0.23344000  0.90956000  0.63103000  1.0
  C  C26  1  0.26657000  0.36892000  0.09043000  1.0
  C  C27  1  0.73345000  0.63104000  0.90955000  1.0
  O  O28  1  0.35249000  0.46883000  0.73069000  1.0
  O  O29  1  0.14761000  0.26932000  0.53099000  1.0
  O  O30  1  0.97926000  0.55087000  0.26689000  1.0
  O  O31  1  0.52078000  0.73307000  0.44900000  1.0
  O  O32  1  0.64760000  0.53098000  0.26932000  1.0
  O  O33  1  0.85246000  0.73069000  0.46885000  1.0
  O  O34  1  0.02077000  0.44902000  0.73308000  1.0
  O  O35  1  0.47925000  0.26690000  0.55089000  1.0
  O  O36  1  0.75004000  0.41040000  0.58956000  1.0
  O  O37  1  0.25004000  0.58955000  0.41039000  1.0
