# generated using pymatgen
data_MnH7C7NO6
_symmetry_space_group_name_H-M   'P 1'
_cell_length_a   6.92190000
_cell_length_b   7.68918000
_cell_length_c   9.32289000
_cell_angle_alpha   69.88770000
_cell_angle_beta   69.23960000
_cell_angle_gamma   77.62810000
_symmetry_Int_Tables_number   1
_chemical_formula_structural   MnH7C7NO6
_chemical_formula_sum   'Mn2 H14 C14 N2 O12'
_cell_volume   433.27030038
_cell_formula_units_Z   2
loop_
 _symmetry_equiv_pos_site_id
 _symmetry_equiv_pos_as_xyz
  1  'x, y, z'
loop_
 _atom_site_type_symbol
 _atom_site_label
 _atom_site_symmetry_multiplicity
 _atom_site_fract_x
 _atom_site_fract_y
 _atom_site_fract_z
 _atom_site_occupancy
  Mn  Mn0  1  0.96700000  0.23179000  0.75186000  1.0
  Mn  Mn1  1  0.03300000  0.76820000  0.24815000  1.0
  H  H2  1  0.24994000  0.46284000  0.73425000  1.0
  H  H3  1  0.75005000  0.53716000  0.26577000  1.0
  H  H4  1  0.13210000  0.54619000  0.60281000  1.0
  H  H5  1  0.86790000  0.45381000  0.39720000  1.0
  H  H6  1  0.00439000  0.29293000  0.02206000  1.0
  H  H7  1  0.99561000  0.70708000  0.97793000  1.0
  H  H8  1  0.84009000  0.44602000  0.94793000  1.0
  H  H9  1  0.15990000  0.55399000  0.05207000  1.0
  H  H10  1  0.36992000  0.10774000  0.85184000  1.0
  H  H11  1  0.63006000  0.89226000  0.14816000  1.0
  H  H12  1  0.44045000  0.69086000  0.53495000  1.0
  H  H13  1  0.55957000  0.30913000  0.46505000  1.0
  H  H14  1  0.12547000  0.91762000  0.59207000  1.0
  H  H15  1  0.87454000  0.08237000  0.40793000  1.0
  C  C16  1  0.38704000  0.01097000  0.78500000  1.0
  C  C17  1  0.61296000  0.98903000  0.21500000  1.0
  C  C18  1  0.56351000  0.88265000  0.76573000  1.0
  C  C19  1  0.43650000  0.11735000  0.23427000  1.0
  C  C20  1  0.58346000  0.76440000  0.67451000  1.0
  C  C21  1  0.41655000  0.23560000  0.32548000  1.0
  C  C22  1  0.42460000  0.77692000  0.61076000  1.0
  C  C23  1  0.57541000  0.22308000  0.38924000  1.0
  C  C24  1  0.25188000  0.90504000  0.64012000  1.0
  C  C25  1  0.74812000  0.09495000  0.35987000  1.0
  C  C26  1  0.72471000  0.87635000  0.84124000  1.0
  C  C27  1  0.27530000  0.12366000  0.15876000  1.0
  C  C28  1  0.77443000  0.63159000  0.63884000  1.0
  C  C29  1  0.22556000  0.36838000  0.36118000  1.0
  N  N30  1  0.23325000  0.02187000  0.72517000  1.0
  N  N31  1  0.76675000  0.97813000  0.27482000  1.0
  O  O32  1  0.76025000  0.03263000  0.84058000  1.0
  O  O33  1  0.23973000  0.96737000  0.15942000  1.0
  O  O34  1  0.81080000  0.71823000  0.90334000  1.0
  O  O35  1  0.18919000  0.28177000  0.09666000  1.0
  O  O36  1  0.94426000  0.70015000  0.54771000  1.0
  O  O37  1  0.05578000  0.29986000  0.45227000  1.0
  O  O38  1  0.74848000  0.46031000  0.70215000  1.0
  O  O39  1  0.25154000  0.53972000  0.29783000  1.0
  O  O40  1  0.21602000  0.43231000  0.65344000  1.0
  O  O41  1  0.78398000  0.56770000  0.34656000  1.0
  O  O42  1  0.89393000  0.31333000  0.96874000  1.0
  O  O43  1  0.10604000  0.68667000  0.03127000  1.0
