# generated using pymatgen
data_KH4C3N6ClO2
_symmetry_space_group_name_H-M   'P 1'
_cell_length_a   8.60008000
_cell_length_b   10.04760000
_cell_length_c   10.17500000
_cell_angle_alpha   90.00000000
_cell_angle_beta   109.37300000
_cell_angle_gamma   89.99990000
_symmetry_Int_Tables_number   1
_chemical_formula_structural   KH4C3N6ClO2
_chemical_formula_sum   'K4 H16 C12 N24 Cl4 O8'
_cell_volume   829.44097841
_cell_formula_units_Z   4
loop_
 _symmetry_equiv_pos_site_id
 _symmetry_equiv_pos_as_xyz
  1  'x, y, z'
loop_
 _atom_site_type_symbol
 _atom_site_label
 _atom_site_symmetry_multiplicity
 _atom_site_fract_x
 _atom_site_fract_y
 _atom_site_fract_z
 _atom_site_occupancy
  K  K0  1  0.94891000  0.68891000  0.42457000  1.0
  K  K1  1  0.55108000  0.18891000  0.57544000  1.0
  K  K2  1  0.05109000  0.31110000  0.57544000  1.0
  K  K3  1  0.44891000  0.81109000  0.42457000  1.0
  H  H4  1  0.14715000  0.18603000  0.15336000  1.0
  H  H5  1  0.35285000  0.68603000  0.84664000  1.0
  H  H6  1  0.85285000  0.81397000  0.84663000  1.0
  H  H7  1  0.64715000  0.31397000  0.15336000  1.0
  H  H8  1  0.35891000  0.21104000  0.17378000  1.0
  H  H9  1  0.14109000  0.71104000  0.82622000  1.0
  H  H10  1  0.64109000  0.78896000  0.82622000  1.0
  H  H11  1  0.85891000  0.28896000  0.17378000  1.0
  H  H12  1  0.06206000  0.32098000  0.93342000  1.0
  H  H13  1  0.43795000  0.82098000  0.06658000  1.0
  H  H14  1  0.93795000  0.67902000  0.06658000  1.0
  H  H15  1  0.56206000  0.17902000  0.93342000  1.0
  H  H16  1  0.18912000  0.18285000  0.92359000  1.0
  H  H17  1  0.31088000  0.68285000  0.07641000  1.0
  H  H18  1  0.81088000  0.81715000  0.07641000  1.0
  H  H19  1  0.68912000  0.31715000  0.92359000  1.0
  C  C20  1  0.36407000  0.45486000  0.28247000  1.0
  C  C21  1  0.13593000  0.95486000  0.71754000  1.0
  C  C22  1  0.63593000  0.54514000  0.71753000  1.0
  C  C23  1  0.86407000  0.04514000  0.28246000  1.0
  C  C24  1  0.23549000  0.25442000  0.13186000  1.0
  C  C25  1  0.26451000  0.75442000  0.86814000  1.0
  C  C26  1  0.76451000  0.74558000  0.86814000  1.0
  C  C27  1  0.73549000  0.24558000  0.13185000  1.0
  C  C28  1  0.18518000  0.27730000  0.97610000  1.0
  C  C29  1  0.31482000  0.77730000  0.02390000  1.0
  C  C30  1  0.81482000  0.72270000  0.02390000  1.0
  C  C31  1  0.68518000  0.22270000  0.97610000  1.0
  N  N32  1  0.23469000  0.37725000  0.20677000  1.0
  N  N33  1  0.26531000  0.87725000  0.79323000  1.0
  N  N34  1  0.76531000  0.62274000  0.79323000  1.0
  N  N35  1  0.73469000  0.12275000  0.20676000  1.0
  N  N36  1  0.09254000  0.43926000  0.19748000  1.0
  N  N37  1  0.40747000  0.93926000  0.80252000  1.0
  N  N38  1  0.90746000  0.56074000  0.80252000  1.0
  N  N39  1  0.59253000  0.06074000  0.19748000  1.0
  N  N40  1  0.13339000  0.55092000  0.26517000  1.0
  N  N41  1  0.36661000  0.05092000  0.73483000  1.0
  N  N42  1  0.86661000  0.44908000  0.73483000  1.0
  N  N43  1  0.63339000  0.94908000  0.26517000  1.0
  N  N44  1  0.29962000  0.56565000  0.31865000  1.0
  N  N45  1  0.20038000  0.06565000  0.68136000  1.0
  N  N46  1  0.70038000  0.43435000  0.68135000  1.0
  N  N47  1  0.79962000  0.93435000  0.31864000  1.0
  N  N48  1  0.51922000  0.40500000  0.31040000  1.0
  N  N49  1  0.98078000  0.90500000  0.68960000  1.0
  N  N50  1  0.48078000  0.59500000  0.68960000  1.0
  N  N51  1  0.01922000  0.09500000  0.31039000  1.0
  N  N52  1  0.64607000  0.48387000  0.37001000  1.0
  N  N53  1  0.85393000  0.98387000  0.62999000  1.0
  N  N54  1  0.35393000  0.51613000  0.62999000  1.0
  N  N55  1  0.14607000  0.01613000  0.37001000  1.0
  Cl  Cl56  1  0.32190000  0.39040000  0.93123000  1.0
  Cl  Cl57  1  0.17810000  0.89040000  0.06877000  1.0
  Cl  Cl58  1  0.67810000  0.60960000  0.06877000  1.0
  Cl  Cl59  1  0.82190000  0.10960000  0.93123000  1.0
  O  O60  1  0.78789000  0.43275000  0.39497000  1.0
  O  O61  1  0.71211000  0.93275000  0.60503000  1.0
  O  O62  1  0.21211000  0.56725000  0.60503000  1.0
  O  O63  1  0.28789000  0.06725000  0.39497000  1.0
  O  O64  1  0.63270000  0.60498000  0.39969000  1.0
  O  O65  1  0.86730000  0.10498000  0.60031000  1.0
  O  O66  1  0.36730000  0.39502000  0.60031000  1.0
  O  O67  1  0.13270000  0.89502000  0.39969000  1.0
