# generated using pymatgen
data_CoH36C42(SN5)2
_symmetry_space_group_name_H-M   'P 1'
_cell_length_a   9.48113000
_cell_length_b   9.98596000
_cell_length_c   10.35000000
_cell_angle_alpha   92.36290000
_cell_angle_beta   100.77300000
_cell_angle_gamma   109.78300000
_symmetry_Int_Tables_number   1
_chemical_formula_structural   CoH36C42(SN5)2
_chemical_formula_sum   'Co1 H36 C42 S2 N10'
_cell_volume   900.02834640
_cell_formula_units_Z   1
loop_
 _symmetry_equiv_pos_site_id
 _symmetry_equiv_pos_as_xyz
  1  'x, y, z'
loop_
 _atom_site_type_symbol
 _atom_site_label
 _atom_site_symmetry_multiplicity
 _atom_site_fract_x
 _atom_site_fract_y
 _atom_site_fract_z
 _atom_site_occupancy
  Co  Co0  1  0.50000000  0.00000000  0.50000000  1.0
  H  H1  1  0.22717000  0.38824000  0.01752000  1.0
  H  H2  1  0.77283000  0.61177000  0.98249000  1.0
  H  H3  1  0.69873000  0.62496000  0.20117000  1.0
  H  H4  1  0.30127000  0.37504000  0.79884000  1.0
  H  H5  1  0.50920000  0.58988000  0.33138000  1.0
  H  H6  1  0.49080000  0.41011000  0.66863000  1.0
  H  H7  1  0.15858000  0.47544000  0.40059000  1.0
  H  H8  1  0.84142000  0.52455000  0.59942000  1.0
  H  H9  1  0.35771000  0.53741000  0.47288000  1.0
  H  H10  1  0.64229000  0.46259000  0.52713000  1.0
  H  H11  1  0.41065000  0.25472000  0.38949000  1.0
  H  H12  1  0.58935000  0.74528000  0.61051000  1.0
  H  H13  1  0.06422000  0.33240000  0.56518000  1.0
  H  H14  1  0.93578000  0.66759000  0.43483000  1.0
  H  H15  1  0.04094000  0.10612000  0.67677000  1.0
  H  H16  1  0.95906000  0.89387000  0.32323000  1.0
  H  H17  1  0.20653000  0.96884000  0.63524000  1.0
  H  H18  1  0.79348000  0.03116000  0.36477000  1.0
  H  H19  1  0.13802000  0.18135000  0.19530000  1.0
  H  H20  1  0.86198000  0.81865000  0.80471000  1.0
  H  H21  1  0.14726000  0.92977000  0.85079000  1.0
  H  H22  1  0.85273000  0.07023000  0.14921000  1.0
  H  H23  1  0.38004000  0.19511000  0.15274000  1.0
  H  H24  1  0.61996000  0.80490000  0.84726000  1.0
  H  H25  1  0.61973000  0.12061000  0.07748000  1.0
  H  H26  1  0.38027000  0.87938000  0.92251000  1.0
  H  H27  1  0.60719000  0.29222000  0.06791000  1.0
  H  H28  1  0.39281000  0.70778000  0.93209000  1.0
  H  H29  1  0.44601000  0.05292000  0.76231000  1.0
  H  H30  1  0.55399000  0.94709000  0.23768000  1.0
  H  H31  1  0.87038000  0.34418000  0.99786000  1.0
  H  H32  1  0.12962000  0.65582000  0.00214000  1.0
  H  H33  1  0.98661000  0.34275000  0.79789000  1.0
  H  H34  1  0.01340000  0.65725000  0.20211000  1.0
  H  H35  1  0.82390000  0.19158000  0.58967000  1.0
  H  H36  1  0.17611000  0.80842000  0.41033000  1.0
  C  C37  1  0.45836000  0.50686000  0.12261000  1.0
  C  C38  1  0.54164000  0.49314000  0.87739000  1.0
  C  C39  1  0.30180000  0.76131000  0.63179000  1.0
  C  C40  1  0.69819000  0.23867000  0.36820000  1.0
  C  C41  1  0.34612000  0.43698000  0.00854000  1.0
  C  C42  1  0.65388000  0.56303000  0.99147000  1.0
  C  C43  1  0.61230000  0.57024000  0.11245000  1.0
  C  C44  1  0.38770000  0.42975000  0.88756000  1.0
  C  C45  1  0.41942000  0.51371000  0.25244000  1.0
  C  C46  1  0.58058000  0.48629000  0.74756000  1.0
  C  C47  1  0.26332000  0.44935000  0.40664000  1.0
  C  C48  1  0.73668000  0.55064000  0.59336000  1.0
  C  C49  1  0.32685000  0.22646000  0.45227000  1.0
  C  C50  1  0.67315000  0.77354000  0.54773000  1.0
  C  C51  1  0.23960000  0.31159000  0.46937000  1.0
  C  C52  1  0.76040000  0.68841000  0.53064000  1.0
  C  C53  1  0.13394000  0.26794000  0.55095000  1.0
  C  C54  1  0.86606000  0.73206000  0.44906000  1.0
  C  C55  1  0.12143000  0.14409000  0.61223000  1.0
  C  C56  1  0.87857000  0.85591000  0.38778000  1.0
  C  C57  1  0.21424000  0.06693000  0.58976000  1.0
  C  C58  1  0.78576000  0.93307000  0.41024000  1.0
  C  C59  1  0.16070000  0.06160000  0.02663000  1.0
  C  C60  1  0.83930000  0.93840000  0.97337000  1.0
  C  C61  1  0.07688000  0.09962000  0.11133000  1.0
  C  C62  1  0.92311000  0.90038000  0.88867000  1.0
  C  C63  1  0.08200000  0.96096000  0.91505000  1.0
  C  C64  1  0.91799000  0.03905000  0.08495000  1.0
  C  C65  1  0.32775000  0.12952000  0.05588000  1.0
  C  C66  1  0.67225000  0.87048000  0.94412000  1.0
  C  C67  1  0.57262000  0.18634000  0.01085000  1.0
  C  C68  1  0.42737000  0.81367000  0.98914000  1.0
  C  C69  1  0.56595000  0.11778000  0.77289000  1.0
  C  C70  1  0.43405000  0.88222000  0.22710000  1.0
  C  C71  1  0.64794000  0.19733000  0.89401000  1.0
  C  C72  1  0.35206000  0.80268000  0.10598000  1.0
  C  C73  1  0.80237000  0.28063000  0.90448000  1.0
  C  C74  1  0.19762000  0.71938000  0.09552000  1.0
  C  C75  1  0.86686000  0.27911000  0.79434000  1.0
  C  C76  1  0.13315000  0.72089000  0.20566000  1.0
  C  C77  1  0.77740000  0.19533000  0.67733000  1.0
  C  C78  1  0.22260000  0.80467000  0.32266000  1.0
  S  S79  1  0.16789000  0.63874000  0.68150000  1.0
  S  S80  1  0.83210000  0.36126000  0.31848000  1.0
  N  N81  1  0.39819000  0.85319000  0.59460000  1.0
  N  N82  1  0.60181000  0.14681000  0.40540000  1.0
  N  N83  1  0.28997000  0.43527000  0.27436000  1.0
  N  N84  1  0.71003000  0.56473000  0.72564000  1.0
  N  N85  1  0.31594000  0.10697000  0.51140000  1.0
  N  N86  1  0.68406000  0.89303000  0.48861000  1.0
  N  N87  1  0.40783000  0.11588000  0.97289000  1.0
  N  N88  1  0.59216000  0.88413000  0.02711000  1.0
  N  N89  1  0.62786000  0.11569000  0.66583000  1.0
  N  N90  1  0.37215000  0.88431000  0.33417000  1.0
