# generated using pymatgen
data_ZnH11C10NO4
_symmetry_space_group_name_H-M   'P 1'
_cell_length_a   6.78778000
_cell_length_b   12.19535380
_cell_length_c   12.19540000
_cell_angle_alpha   60.02562428
_cell_angle_beta   89.96490000
_cell_angle_gamma   89.97350322
_symmetry_Int_Tables_number   1
_chemical_formula_structural   ZnH11C10NO4
_chemical_formula_sum   'Zn3 H33 C30 N3 O12'
_cell_volume   874.50205597
_cell_formula_units_Z   3
loop_
 _symmetry_equiv_pos_site_id
 _symmetry_equiv_pos_as_xyz
  1  'x, y, z'
loop_
 _atom_site_type_symbol
 _atom_site_label
 _atom_site_symmetry_multiplicity
 _atom_site_fract_x
 _atom_site_fract_y
 _atom_site_fract_z
 _atom_site_occupancy
  Zn  Zn0  1  0.09985000  0.35807000  0.46349000  1.0
  Zn  Zn1  1  0.43381000  0.17848000  0.35800000  1.0
  Zn  Zn2  1  0.76699000  0.46334000  0.17875000  1.0
  H  H3  1  0.62789000  0.41534000  0.58797000  1.0
  H  H4  1  0.96186000  0.99707000  0.41526000  1.0
  H  H5  1  0.29530000  0.58757000  0.99731000  1.0
  H  H6  1  0.78937000  0.58437000  0.61281000  1.0
  H  H7  1  0.12317000  0.80324000  0.58417000  1.0
  H  H8  1  0.45643000  0.61267000  0.80325000  1.0
  H  H9  1  0.64407000  0.65311000  0.47173000  1.0
  H  H10  1  0.97789000  0.87564000  0.65297000  1.0
  H  H11  1  0.31136000  0.47147000  0.87558000  1.0
  H  H12  1  0.90493000  0.64591000  0.46160000  1.0
  H  H13  1  0.23866000  0.89276000  0.64593000  1.0
  H  H14  1  0.57213000  0.46144000  0.89256000  1.0
  H  H15  1  0.86786000  0.36383000  0.75790000  1.0
  H  H16  1  0.20168000  0.87852000  0.36373000  1.0
  H  H17  1  0.53520000  0.75748000  0.87870000  1.0
  H  H18  1  0.61039000  0.17585000  0.74521000  1.0
  H  H19  1  0.94386000  0.07861000  0.17515000  1.0
  H  H20  1  0.27731000  0.74553000  0.07884000  1.0
  H  H21  1  0.61358000  0.11138000  0.97250000  1.0
  H  H22  1  0.94646000  0.91589000  0.11052000  1.0
  H  H23  1  0.28032000  0.97270000  0.91607000  1.0
  H  H24  1  0.32329000  0.15660000  0.07008000  1.0
  H  H25  1  0.65614000  0.77328000  0.15596000  1.0
  H  H26  1  0.98990000  0.07011000  0.77360000  1.0
  H  H27  1  0.03234000  0.26508000  0.93787000  1.0
  H  H28  1  0.36560000  0.79717000  0.26488000  1.0
  H  H29  1  0.69917000  0.93760000  0.79757000  1.0
  H  H30  1  0.13576000  0.55372000  0.24039000  1.0
  H  H31  1  0.46906000  0.20627000  0.55352000  1.0
  H  H32  1  0.80290000  0.24013000  0.20611000  1.0
  H  H33  1  0.34351000  0.53744000  0.31885000  1.0
  H  H34  1  0.67708000  0.14415000  0.53735000  1.0
  H  H35  1  0.01092000  0.31845000  0.14421000  1.0
  C  C36  1  0.71052000  0.47997000  0.39806000  1.0
  C  C37  1  0.04436000  0.12234000  0.47987000  1.0
  C  C38  1  0.37791000  0.39771000  0.12234000  1.0
  C  C39  1  0.75614000  0.46569000  0.52793000  1.0
  C  C40  1  0.09012000  0.00670000  0.46562000  1.0
  C  C41  1  0.42357000  0.52760000  0.00678000  1.0
  C  C42  1  0.77472000  0.59581000  0.51796000  1.0
  C  C43  1  0.10860000  0.88663000  0.59569000  1.0
  C  C44  1  0.44199000  0.51777000  0.88655000  1.0
  C  C45  1  0.97645000  0.34853000  0.69955000  1.0
  C  C46  1  0.31035000  0.95207000  0.34838000  1.0
  C  C47  1  0.64378000  0.69925000  0.95227000  1.0
  C  C48  1  0.15261000  0.28318000  0.76568000  1.0
  C  C49  1  0.48630000  0.95118000  0.28286000  1.0
  C  C50  1  0.81976000  0.76556000  0.95137000  1.0
  C  C51  1  0.31962000  0.25797000  0.70870000  1.0
  C  C52  1  0.65331000  0.03329000  0.25752000  1.0
  C  C53  1  0.98670000  0.70871000  0.03345000  1.0
  C  C54  1  0.48385000  0.19593000  0.78759000  1.0
  C  C55  1  0.81725000  0.01629000  0.19529000  1.0
  C  C56  1  0.15081000  0.78772000  0.01644000  1.0
  C  C57  1  0.48478000  0.15950000  0.91506000  1.0
  C  C58  1  0.81782000  0.92527000  0.15880000  1.0
  C  C59  1  0.15166000  0.91516000  0.92542000  1.0
  C  C60  1  0.32119000  0.18305000  0.97080000  1.0
  C  C61  1  0.65417000  0.84612000  0.18244000  1.0
  C  C62  1  0.98802000  0.97082000  0.84633000  1.0
  C  C63  1  0.15935000  0.24414000  0.89628000  1.0
  C  C64  1  0.49261000  0.85964000  0.24374000  1.0
  C  C65  1  0.82631000  0.89616000  0.85989000  1.0
  N  N66  1  0.93561000  0.39084000  0.58122000  1.0
  N  N67  1  0.26964000  0.02809000  0.39079000  1.0
  N  N68  1  0.60302000  0.58091000  0.02827000  1.0
  O  O69  1  0.81451000  0.41301000  0.36346000  1.0
  O  O70  1  0.14825000  0.22382000  0.41292000  1.0
  O  O71  1  0.48175000  0.36318000  0.22385000  1.0
  O  O72  1  0.57877000  0.55468000  0.33105000  1.0
  O  O73  1  0.91242000  0.11477000  0.55452000  1.0
  O  O74  1  0.24620000  0.33063000  0.11470000  1.0
  O  O75  1  0.32825000  0.29023000  0.58812000  1.0
  O  O76  1  0.66211000  0.12159000  0.28983000  1.0
  O  O77  1  0.99527000  0.58821000  0.12185000  1.0
  O  O78  1  0.19779000  0.52648000  0.32575000  1.0
  O  O79  1  0.53137000  0.14806000  0.52641000  1.0
  O  O80  1  0.86520000  0.32546000  0.14824000  1.0
