# generated using pymatgen
data_Ag2H5C6S2N5
_symmetry_space_group_name_H-M   'P 1'
_cell_length_a   7.10858000
_cell_length_b   8.04427000
_cell_length_c   17.45400000
_cell_angle_alpha   90.00000000
_cell_angle_beta   89.99500000
_cell_angle_gamma   89.99980000
_symmetry_Int_Tables_number   1
_chemical_formula_structural   Ag2H5C6S2N5
_chemical_formula_sum   'Ag8 H20 C24 S8 N20'
_cell_volume   998.07795734
_cell_formula_units_Z   4
loop_
 _symmetry_equiv_pos_site_id
 _symmetry_equiv_pos_as_xyz
  1  'x, y, z'
loop_
 _atom_site_type_symbol
 _atom_site_label
 _atom_site_symmetry_multiplicity
 _atom_site_fract_x
 _atom_site_fract_y
 _atom_site_fract_z
 _atom_site_occupancy
  Ag  Ag0  1  0.79609000  0.84986000  0.31710000  1.0
  Ag  Ag1  1  0.29613000  0.65016000  0.18289000  1.0
  Ag  Ag2  1  0.70391000  0.84986000  0.68291000  1.0
  Ag  Ag3  1  0.20386000  0.65017000  0.81711000  1.0
  Ag  Ag4  1  0.20391000  0.15014000  0.68291000  1.0
  Ag  Ag5  1  0.70388000  0.34983000  0.81711000  1.0
  Ag  Ag6  1  0.29610000  0.15014000  0.31710000  1.0
  Ag  Ag7  1  0.79613000  0.34983000  0.18289000  1.0
  H  H8  1  0.83255000  0.20437000  0.38161000  1.0
  H  H9  1  0.33263000  0.29561000  0.11838000  1.0
  H  H10  1  0.66745000  0.20437000  0.61840000  1.0
  H  H11  1  0.16738000  0.29562000  0.88162000  1.0
  H  H12  1  0.16744000  0.79563000  0.61840000  1.0
  H  H13  1  0.66739000  0.70438000  0.88162000  1.0
  H  H14  1  0.33256000  0.79563000  0.38161000  1.0
  H  H15  1  0.83262000  0.70438000  0.11838000  1.0
  H  H16  1  0.75000000  0.36803000  0.50000000  1.0
  H  H17  1  0.25000000  0.13196000  1.00000000  1.0
  H  H18  1  0.25000000  0.63197000  0.50000000  1.0
  H  H19  1  0.75000000  0.86804000  1.00000000  1.0
  H  H20  1  0.68894000  0.66494000  0.54442000  1.0
  H  H21  1  0.18892000  0.83505000  0.95559000  1.0
  H  H22  1  0.81104000  0.66494000  0.45558000  1.0
  H  H23  1  0.31108000  0.83505000  0.04441000  1.0
  H  H24  1  0.31105000  0.33506000  0.45558000  1.0
  H  H25  1  0.81109000  0.16495000  0.04441000  1.0
  H  H26  1  0.18894000  0.33506000  0.54442000  1.0
  H  H27  1  0.68893000  0.16495000  0.95559000  1.0
  C  C28  1  0.75000000  0.89406000  0.50000000  1.0
  C  C29  1  0.25000000  0.60595000  1.00000000  1.0
  C  C30  1  0.25000000  0.10594000  0.50000000  1.0
  C  C31  1  0.75001000  0.39405000  0.00000000  1.0
  C  C32  1  0.79461000  0.14233000  0.43500000  1.0
  C  C33  1  0.29464000  0.35765000  0.06499000  1.0
  C  C34  1  0.70539000  0.14233000  0.56501000  1.0
  C  C35  1  0.20536000  0.35766000  0.93500000  1.0
  C  C36  1  0.20538000  0.85766000  0.56501000  1.0
  C  C37  1  0.70537000  0.64234000  0.93500000  1.0
  C  C38  1  0.29461000  0.85766000  0.43500000  1.0
  C  C39  1  0.79464000  0.64234000  0.06500000  1.0
  C  C40  1  0.75000000  0.23342000  0.50000000  1.0
  C  C41  1  0.25000000  0.26657000  1.00000000  1.0
  C  C42  1  0.24999000  0.76658000  0.50000000  1.0
  C  C43  1  0.75001000  0.73343000  1.00000000  1.0
  C  C44  1  0.03244000  0.97987000  0.16843000  1.0
  C  C45  1  0.53245000  0.52013000  0.33154000  1.0
  C  C46  1  0.46757000  0.97987000  0.83158000  1.0
  C  C47  1  0.96755000  0.52013000  0.66845000  1.0
  C  C48  1  0.96756000  0.02014000  0.83157000  1.0
  C  C49  1  0.46756000  0.47987000  0.66846000  1.0
  C  C50  1  0.53244000  0.02013000  0.16842000  1.0
  C  C51  1  0.03244000  0.47987000  0.33155000  1.0
  S  S52  1  0.11144000  0.88169000  0.24518000  1.0
  S  S53  1  0.61144000  0.61831000  0.25479000  1.0
  S  S54  1  0.38857000  0.88169000  0.75481000  1.0
  S  S55  1  0.88855000  0.61832000  0.74521000  1.0
  S  S56  1  0.88857000  0.11831000  0.75481000  1.0
  S  S57  1  0.38855000  0.38169000  0.74521000  1.0
  S  S58  1  0.61144000  0.11831000  0.24519000  1.0
  S  S59  1  0.11144000  0.38168000  0.25479000  1.0
  N  N60  1  0.74999000  0.72868000  0.50000000  1.0
  N  N61  1  0.25000000  0.77131000  0.00000000  1.0
  N  N62  1  0.25000000  0.27132000  0.50000000  1.0
  N  N63  1  0.75001000  0.22868000  1.00000000  1.0
  N  N64  1  0.79179000  0.97567000  0.43343000  1.0
  N  N65  1  0.29184000  0.52432000  0.06656000  1.0
  N  N66  1  0.70819000  0.97567000  0.56657000  1.0
  N  N67  1  0.20817000  0.52432000  0.93344000  1.0
  N  N68  1  0.20820000  0.02433000  0.56657000  1.0
  N  N69  1  0.70817000  0.47568000  0.93344000  1.0
  N  N70  1  0.29180000  0.02433000  0.43343000  1.0
  N  N71  1  0.79184000  0.47567000  0.06656000  1.0
  N  N72  1  0.97076000  0.05319000  0.11560000  1.0
  N  N73  1  0.47072000  0.44677000  0.38437000  1.0
  N  N74  1  0.52925000  0.05318000  0.88440000  1.0
  N  N75  1  0.02927000  0.44678000  0.61563000  1.0
  N  N76  1  0.02925000  0.94682000  0.88440000  1.0
  N  N77  1  0.52927000  0.55323000  0.61563000  1.0
  N  N78  1  0.47076000  0.94681000  0.11560000  1.0
  N  N79  1  0.97072000  0.55322000  0.38437000  1.0
