# generated using pymatgen
data_NiH32C21(N3O2)2
_symmetry_space_group_name_H-M   'P 1'
_cell_length_a   9.27806000
_cell_length_b   16.16860000
_cell_length_c   16.29234996
_cell_angle_alpha   90.50505606
_cell_angle_beta   106.54085566
_cell_angle_gamma   90.01590000
_symmetry_Int_Tables_number   1
_chemical_formula_structural   NiH32C21(N3O2)2
_chemical_formula_sum   'Ni4 H128 C84 N24 O16'
_cell_volume   2342.82434236
_cell_formula_units_Z   4
loop_
 _symmetry_equiv_pos_site_id
 _symmetry_equiv_pos_as_xyz
  1  'x, y, z'
loop_
 _atom_site_type_symbol
 _atom_site_label
 _atom_site_symmetry_multiplicity
 _atom_site_fract_x
 _atom_site_fract_y
 _atom_site_fract_z
 _atom_site_occupancy
  Ni  Ni0  1  0.97046000  0.77274000  0.72345000  1.0
  Ni  Ni1  1  0.24700000  0.72734000  0.27651000  1.0
  Ni  Ni2  1  0.02955000  0.22726000  0.27656000  1.0
  Ni  Ni3  1  0.75299000  0.27265000  0.72348000  1.0
  H  H4  1  0.39868000  0.75756000  0.82046000  1.0
  H  H5  1  0.57820000  0.74241000  0.17949000  1.0
  H  H6  1  0.60132000  0.24244000  0.17954000  1.0
  H  H7  1  0.42179000  0.25759000  0.82050000  1.0
  H  H8  1  0.28113000  0.67937000  0.75739000  1.0
  H  H9  1  0.52379000  0.82058000  0.24259000  1.0
  H  H10  1  0.71887000  0.32063000  0.24261000  1.0
  H  H11  1  0.47620000  0.17942000  0.75740000  1.0
  H  H12  1  0.21258000  0.78023000  0.90163000  1.0
  H  H13  1  0.31083000  0.71979000  0.09835000  1.0
  H  H14  1  0.78743000  0.21977000  0.09838000  1.0
  H  H15  1  0.68917000  0.28021000  0.90164000  1.0
  H  H16  1  0.25776000  0.64517000  0.98101000  1.0
  H  H17  1  0.27696000  0.85482000  0.01897000  1.0
  H  H18  1  0.74225000  0.35482000  0.01899000  1.0
  H  H19  1  0.72304000  0.14518000  0.98103000  1.0
  H  H20  1  0.42047000  0.67721000  0.95335000  1.0
  H  H21  1  0.46727000  0.82274000  0.04664000  1.0
  H  H22  1  0.57954000  0.32278000  0.04665000  1.0
  H  H23  1  0.53273000  0.17726000  0.95336000  1.0
  H  H24  1  0.30271000  0.59779000  0.89290000  1.0
  H  H25  1  0.41007000  0.90219000  0.10709000  1.0
  H  H26  1  0.69730000  0.40221000  0.10710000  1.0
  H  H27  1  0.58993000  0.09781000  0.89291000  1.0
  H  H28  1  0.98842000  0.63993000  0.92957000  1.0
  H  H29  1  0.05906000  0.86016000  0.07038000  1.0
  H  H30  1  0.01158000  0.36007000  0.07043000  1.0
  H  H31  1  0.94093000  0.13983000  0.92961000  1.0
  H  H32  1  0.97703000  0.75018000  0.92723000  1.0
  H  H33  1  0.04984000  0.74992000  0.07277000  1.0
  H  H34  1  0.02297000  0.24982000  0.07277000  1.0
  H  H35  1  0.95015000  0.25008000  0.92722000  1.0
  H  H36  1  0.78377000  0.81867000  0.83422000  1.0
  H  H37  1  0.94960000  0.68148000  0.16575000  1.0
  H  H38  1  0.21624000  0.18133000  0.16578000  1.0
  H  H39  1  0.05039000  0.31851000  0.83424000  1.0
  H  H40  1  0.60626000  0.76389000  0.80117000  1.0
  H  H41  1  0.80517000  0.73623000  0.19881000  1.0
  H  H42  1  0.39374000  0.23611000  0.19883000  1.0
  H  H43  1  0.19482000  0.26377000  0.80118000  1.0
  H  H44  1  0.65922000  0.58353000  0.79353000  1.0
  H  H45  1  0.86599000  0.91662000  0.20649000  1.0
  H  H46  1  0.34079000  0.41647000  0.20647000  1.0
  H  H47  1  0.13401000  0.08338000  0.79351000  1.0
  H  H48  1  0.84147000  0.58189000  0.77924000  1.0
  H  H49  1  0.06255000  0.91823000  0.22081000  1.0
  H  H50  1  0.15853000  0.41811000  0.22076000  1.0
  H  H51  1  0.93744000  0.08177000  0.77918000  1.0
  H  H52  1  0.72590000  0.64248000  0.64197000  1.0
  H  H53  1  0.08391000  0.85764000  0.35809000  1.0
  H  H54  1  0.27410000  0.35753000  0.35803000  1.0
  H  H55  1  0.91608000  0.14236000  0.64191000  1.0
  H  H56  1  0.56120000  0.66787000  0.67360000  1.0
  H  H57  1  0.88758000  0.83220000  0.32630000  1.0
  H  H58  1  0.43880000  0.33214000  0.32640000  1.0
  H  H59  1  0.11241000  0.16779000  0.67369000  1.0
  H  H60  1  0.67594000  0.87700000  0.68665000  1.0
  H  H61  1  0.98928000  0.62310000  0.31325000  1.0
  H  H62  1  0.32406000  0.12301000  0.31335000  1.0
  H  H63  1  0.01072000  0.37689000  0.68675000  1.0
  H  H64  1  0.54056000  0.80362000  0.62909000  1.0
  H  H65  1  0.91144000  0.69640000  0.37085000  1.0
  H  H66  1  0.45945000  0.19638000  0.37092000  1.0
  H  H67  1  0.08856000  0.30360000  0.62915000  1.0
  H  H68  1  0.72338000  0.75906000  0.54785000  1.0
  H  H69  1  0.17565000  0.74095000  0.45212000  1.0
  H  H70  1  0.27661000  0.24094000  0.45215000  1.0
  H  H71  1  0.82434000  0.25905000  0.54787000  1.0
  H  H72  1  0.66692000  0.86451000  0.52985000  1.0
  H  H73  1  0.13697000  0.63551000  0.47008000  1.0
  H  H74  1  0.33308000  0.13550000  0.47015000  1.0
  H  H75  1  0.86303000  0.36448000  0.52992000  1.0
  H  H76  1  0.90341000  0.95477000  0.68140000  1.0
  H  H77  1  0.22154000  0.54523000  0.31846000  1.0
  H  H78  1  0.09659000  0.04523000  0.31860000  1.0
  H  H79  1  0.77847000  0.45477000  0.68154000  1.0
  H  H80  1  0.84616000  0.96676000  0.56753000  1.0
  H  H81  1  0.27824000  0.53323000  0.43233000  1.0
  H  H82  1  0.15385000  0.03324000  0.43248000  1.0
  H  H83  1  0.72177000  0.46677000  0.56767000  1.0
  H  H84  1  0.98940000  0.75273000  0.54660000  1.0
  H  H85  1  0.44298000  0.74717000  0.45322000  1.0
  H  H86  1  0.01059000  0.24727000  0.45340000  1.0
  H  H87  1  0.55702000  0.25283000  0.54678000  1.0
  H  H88  1  0.92966000  0.84665000  0.48683000  1.0
  H  H89  1  0.44279000  0.65330000  0.51304000  1.0
  H  H90  1  0.07034000  0.15335000  0.51317000  1.0
  H  H91  1  0.55721000  0.34670000  0.48696000  1.0
  H  H92  1  0.09847000  0.98948000  0.57491000  1.0
  H  H93  1  0.52301000  0.51034000  0.42483000  1.0
  H  H94  1  0.90153000  0.01052000  0.42509000  1.0
  H  H95  1  0.47700000  0.48966000  0.57517000  1.0
  H  H96  1  0.16304000  0.95608000  0.68294000  1.0
  H  H97  1  0.47957000  0.54381000  0.31681000  1.0
  H  H98  1  0.83696000  0.04392000  0.31706000  1.0
  H  H99  1  0.52044000  0.45619000  0.68319000  1.0
  H  H100  1  0.34312000  0.84017000  0.66727000  1.0
  H  H101  1  0.67562000  0.65962000  0.33247000  1.0
  H  H102  1  0.65687000  0.15983000  0.33273000  1.0
  H  H103  1  0.32438000  0.34038000  0.66753000  1.0
  H  H104  1  0.23922000  0.74857000  0.62654000  1.0
  H  H105  1  0.61282000  0.75124000  0.37334000  1.0
  H  H106  1  0.76078000  0.25143000  0.37346000  1.0
  H  H107  1  0.38718000  0.24877000  0.62666000  1.0
  H  H108  1  0.79441000  0.93366000  0.88656000  1.0
  H  H109  1  0.90737000  0.56640000  0.11324000  1.0
  H  H110  1  0.20562000  0.06633000  0.11346000  1.0
  H  H111  1  0.09263000  0.43360000  0.88676000  1.0
  H  H112  1  0.25708000  0.00652000  0.98231000  1.0
  H  H113  1  0.27483000  0.49360000  0.01798000  1.0
  H  H114  1  0.74294000  0.99348000  0.01770000  1.0
  H  H115  1  0.72518000  0.50641000  0.98202000  1.0
  H  H116  1  0.20434000  0.47531000  0.63402000  1.0
  H  H117  1  0.57038000  0.02497000  0.36604000  1.0
  H  H118  1  0.79564000  0.52470000  0.36598000  1.0
  H  H119  1  0.42961000  0.97503000  0.63396000  1.0
  H  H120  1  0.80710000  0.60751000  0.49833000  1.0
  H  H121  1  0.30891000  0.89228000  0.50150000  1.0
  H  H122  1  0.19289000  0.39249000  0.50167000  1.0
  H  H123  1  0.69107000  0.10772000  0.49849000  1.0
  H  H124  1  0.20359000  0.85559000  0.76865000  1.0
  H  H125  1  0.43461000  0.64438000  0.23123000  1.0
  H  H126  1  0.79641000  0.14441000  0.23135000  1.0
  H  H127  1  0.56539000  0.35562000  0.76877000  1.0
  H  H128  1  0.05288000  0.64075000  0.79868000  1.0
  H  H129  1  0.25444000  0.85935000  0.20126000  1.0
  H  H130  1  0.94712000  0.35925000  0.20132000  1.0
  H  H131  1  0.74556000  0.14065000  0.79874000  1.0
  C  C132  1  0.28082000  0.73753000  0.79309000  1.0
  C  C133  1  0.48772000  0.76243000  0.20686000  1.0
  C  C134  1  0.71918000  0.26247000  0.20691000  1.0
  C  C135  1  0.51228000  0.23757000  0.79314000  1.0
  C  C136  1  0.21163000  0.72156000  0.86670000  1.0
  C  C137  1  0.34494000  0.77846000  0.13327000  1.0
  C  C138  1  0.78838000  0.27844000  0.13331000  1.0
  C  C139  1  0.65505000  0.22154000  0.86672000  1.0
  C  C140  1  0.30319000  0.65677000  0.92704000  1.0
  C  C141  1  0.37633000  0.84321000  0.07292000  1.0
  C  C142  1  0.69681000  0.34322000  0.07295000  1.0
  C  C143  1  0.62366000  0.15679000  0.92707000  1.0
  C  C144  1  0.95643000  0.69378000  0.88744000  1.0
  C  C145  1  0.06912000  0.80633000  0.11254000  1.0
  C  C146  1  0.04357000  0.30622000  0.11256000  1.0
  C  C147  1  0.93088000  0.19366000  0.88746000  1.0
  C  C148  1  0.72690000  0.76252000  0.80381000  1.0
  C  C149  1  0.92315000  0.73761000  0.19617000  1.0
  C  C150  1  0.27311000  0.23748000  0.19619000  1.0
  C  C151  1  0.07684000  0.26238000  0.80382000  1.0
  C  C152  1  0.74685000  0.62226000  0.77996000  1.0
  C  C153  1  0.96713000  0.87787000  0.22005000  1.0
  C  C154  1  0.25316000  0.37774000  0.22004000  1.0
  C  C155  1  0.03287000  0.12212000  0.77995000  1.0
  C  C156  1  0.68573000  0.66812000  0.69381000  1.0
  C  C157  1  0.99200000  0.83198000  0.30619000  1.0
  C  C158  1  0.31427000  0.33188000  0.30619000  1.0
  C  C159  1  0.00800000  0.16802000  0.69381000  1.0
  C  C160  1  0.66220000  0.81680000  0.65329000  1.0
  C  C161  1  0.00889000  0.68327000  0.34666000  1.0
  C  C162  1  0.33781000  0.18320000  0.34672000  1.0
  C  C163  1  0.99111000  0.31672000  0.65334000  1.0
  C  C164  1  0.73019000  0.82054000  0.57825000  1.0
  C  C165  1  0.15192000  0.67949000  0.42169000  1.0
  C  C166  1  0.26981000  0.17947000  0.42176000  1.0
  C  C167  1  0.84807000  0.32051000  0.57830000  1.0
  C  C168  1  0.92172000  0.93301000  0.62140000  1.0
  C  C169  1  0.29996000  0.56696000  0.37845000  1.0
  C  C170  1  0.07829000  0.06699000  0.37861000  1.0
  C  C171  1  0.70004000  0.43304000  0.62155000  1.0
  C  C172  1  0.98167000  0.82007000  0.55105000  1.0
  C  C173  1  0.43058000  0.67984000  0.44881000  1.0
  C  C174  1  0.01834000  0.17993000  0.44896000  1.0
  C  C175  1  0.56942000  0.32016000  0.55119000  1.0
  C  C176  1  0.08744000  0.94075000  0.61953000  1.0
  C  C177  1  0.46751000  0.55914000  0.38026000  1.0
  C  C178  1  0.91256000  0.05926000  0.38047000  1.0
  C  C179  1  0.53249000  0.44086000  0.61974000  1.0
  C  C180  1  0.23167000  0.81029000  0.65397000  1.0
  C  C181  1  0.57762000  0.68954000  0.34587000  1.0
  C  C182  1  0.76832000  0.18971000  0.34603000  1.0
  C  C183  1  0.42238000  0.31046000  0.65413000  1.0
  C  C184  1  0.06598000  0.92374000  0.85176000  1.0
  C  C185  1  0.21392000  0.57631000  0.14831000  1.0
  C  C186  1  0.93405000  0.07626000  0.14825000  1.0
  C  C187  1  0.78609000  0.42369000  0.85170000  1.0
  C  C188  1  0.02997000  0.96499000  0.92709000  1.0
  C  C189  1  0.10268000  0.53507000  0.07295000  1.0
  C  C190  1  0.97005000  0.03501000  0.07292000  1.0
  C  C191  1  0.89732000  0.46494000  0.92705000  1.0
  C  C192  1  0.88463000  0.96190000  0.93696000  1.0
  C  C193  1  0.94742000  0.53814000  0.06295000  1.0
  C  C194  1  0.11538000  0.03810000  0.06305000  1.0
  C  C195  1  0.05258000  0.46186000  0.93705000  1.0
  C  C196  1  0.14479000  0.00414000  0.99067000  1.0
  C  C197  1  0.15412000  0.49591000  0.00948000  1.0
  C  C198  1  0.85524000  0.99586000  0.00935000  1.0
  C  C199  1  0.84588000  0.50409000  0.99052000  1.0
  C  C200  1  0.01765000  0.59539000  0.65432000  1.0
  C  C201  1  0.36372000  0.90465000  0.34559000  1.0
  C  C202  1  0.98234000  0.40461000  0.34568000  1.0
  C  C203  1  0.63627000  0.09535000  0.65441000  1.0
  C  C204  1  0.00786000  0.54636000  0.57419000  1.0
  C  C205  1  0.43386000  0.95367000  0.42576000  1.0
  C  C206  1  0.99212000  0.45364000  0.42581000  1.0
  C  C207  1  0.56613000  0.04633000  0.57423000  1.0
  C  C208  1  0.11550000  0.48554000  0.57472000  1.0
  C  C209  1  0.54086000  0.01461000  0.42533000  1.0
  C  C210  1  0.88449000  0.51446000  0.42528000  1.0
  C  C211  1  0.45912000  0.98539000  0.57466000  1.0
  C  C212  1  0.89206000  0.56068000  0.49889000  1.0
  C  C213  1  0.39328000  0.93918000  0.50101000  1.0
  C  C214  1  0.10792000  0.43932000  0.50111000  1.0
  C  C215  1  0.60670000  0.06082000  0.49898000  1.0
  N  N216  1  0.19155000  0.79948000  0.73472000  1.0
  N  N217  1  0.45671000  0.70047000  0.26519000  1.0
  N  N218  1  0.80845000  0.20052000  0.26528000  1.0
  N  N219  1  0.54329000  0.29953000  0.73481000  1.0
  N  N220  1  0.05175000  0.69819000  0.82801000  1.0
  N  N221  1  0.22384000  0.80190000  0.17196000  1.0
  N  N222  1  0.94825000  0.30181000  0.17199000  1.0
  N  N223  1  0.77616000  0.19810000  0.82804000  1.0
  N  N224  1  0.74016000  0.75399000  0.71485000  1.0
  N  N225  1  0.02537000  0.74613000  0.28514000  1.0
  N  N226  1  0.25984000  0.24601000  0.28515000  1.0
  N  N227  1  0.97462000  0.25387000  0.71485000  1.0
  N  N228  1  0.89047000  0.84303000  0.60938000  1.0
  N  N229  1  0.28099000  0.65695000  0.39052000  1.0
  N  N230  1  0.10954000  0.15697000  0.39063000  1.0
  N  N231  1  0.71900000  0.34304000  0.60947000  1.0
  N  N232  1  0.12611000  0.85907000  0.58915000  1.0
  N  N233  1  0.53681000  0.64076000  0.41068000  1.0
  N  N234  1  0.87389000  0.14093000  0.41085000  1.0
  N  N235  1  0.46319000  0.35924000  0.58932000  1.0
  N  N236  1  0.79568000  0.68838000  0.84587000  1.0
  N  N237  1  0.94997000  0.81177000  0.15413000  1.0
  N  N238  1  0.20432000  0.31162000  0.15413000  1.0
  N  N239  1  0.05003000  0.18823000  0.84587000  1.0
  O  O240  1  0.96128000  0.87797000  0.80409000  1.0
  O  O241  1  0.15692000  0.62221000  0.19585000  1.0
  O  O242  1  0.03874000  0.12203000  0.19592000  1.0
  O  O243  1  0.84308000  0.37779000  0.80415000  1.0
  O  O244  1  0.19472000  0.93499000  0.84153000  1.0
  O  O245  1  0.35291000  0.56492000  0.15868000  1.0
  O  O246  1  0.80530000  0.06502000  0.15848000  1.0
  O  O247  1  0.64709000  0.43508000  0.84133000  1.0
  O  O248  1  0.96842000  0.66994000  0.64157000  1.0
  O  O249  1  0.32717000  0.83009000  0.35829000  1.0
  O  O250  1  0.03157000  0.33006000  0.35843000  1.0
  O  O251  1  0.67283000  0.16991000  0.64171000  1.0
  O  O252  1  0.07179000  0.56086000  0.72561000  1.0
  O  O253  1  0.34679000  0.93922000  0.27433000  1.0
  O  O254  1  0.92820000  0.43914000  0.27439000  1.0
  O  O255  1  0.65322000  0.06078000  0.72567000  1.0
