# generated using pymatgen
data_AlH7C11SO6
_symmetry_space_group_name_H-M   'P 1'
_cell_length_a   6.61434000
_cell_length_b   10.95459032
_cell_length_c   12.37640838
_cell_angle_alpha   69.96496582
_cell_angle_beta   78.77554225
_cell_angle_gamma   75.09552424
_symmetry_Int_Tables_number   1
_chemical_formula_structural   AlH7C11SO6
_chemical_formula_sum   'Al2 H14 C22 S2 O12'
_cell_volume   808.52345618
_cell_formula_units_Z   2
loop_
 _symmetry_equiv_pos_site_id
 _symmetry_equiv_pos_as_xyz
  1  'x, y, z'
loop_
 _atom_site_type_symbol
 _atom_site_label
 _atom_site_symmetry_multiplicity
 _atom_site_fract_x
 _atom_site_fract_y
 _atom_site_fract_z
 _atom_site_occupancy
  Al  Al0  1  0.49756000  0.51236000  0.48303000  1.0
  Al  Al1  1  0.99577000  0.51227000  0.48664000  1.0
  H  H2  1  0.24767000  0.61286000  0.34115000  1.0
  H  H3  1  0.78213000  0.34429000  0.57646000  1.0
  H  H4  1  0.88673000  0.73716000  0.64821000  1.0
  H  H5  1  0.03161000  0.82282000  0.76903000  1.0
  H  H6  1  0.58560000  0.19136000  0.67170000  1.0
  H  H7  1  0.87942000  0.05261000  0.78141000  1.0
  H  H8  1  0.63704000  0.32583000  0.23868000  1.0
  H  H9  1  0.62879000  0.32831000  0.09461000  1.0
  H  H10  1  0.47168000  0.45835000  0.14793000  1.0
  H  H11  1  0.53555000  0.56071000  0.82776000  1.0
  H  H12  1  0.37423000  0.69749000  0.87014000  1.0
  H  H13  1  0.38113000  0.68820000  0.72814000  1.0
  H  H14  1  0.08349000  0.22746000  0.43138000  1.0
  H  H15  1  0.32810000  0.80269000  0.42487000  1.0
  C  C16  1  0.65253000  0.73677000  0.49440000  1.0
  C  C17  1  0.80734000  0.53564000  0.28139000  1.0
  C  C18  1  0.33502000  0.27451000  0.50570000  1.0
  C  C19  1  0.19257000  0.48998000  0.68561000  1.0
  C  C20  1  0.80110000  0.46391000  0.10505000  1.0
  C  C21  1  0.20507000  0.55818000  0.86314000  1.0
  C  C22  1  0.87579000  0.52860000  0.16370000  1.0
  C  C23  1  0.12827000  0.49488000  0.80404000  1.0
  C  C24  1  0.08410000  0.54620000  0.97275000  1.0
  C  C25  1  0.92266000  0.47544000  0.99563000  1.0
  C  C26  1  0.56063000  0.86451000  0.51743000  1.0
  C  C27  1  0.65701000  0.91641000  0.58372000  1.0
  C  C28  1  0.37103000  0.93836000  0.47216000  1.0
  C  C29  1  0.82351000  0.83807000  0.65024000  1.0
  C  C30  1  0.90466000  0.88639000  0.71856000  1.0
  C  C31  1  0.39849000  0.13032000  0.52491000  1.0
  C  C32  1  0.29125000  0.07294000  0.47473000  1.0
  C  C33  1  0.57326000  0.04907000  0.58882000  1.0
  C  C34  1  0.65649000  0.09398000  0.66224000  1.0
  C  C35  1  0.81999000  0.01515000  0.72528000  1.0
  C  C36  1  0.62587000  0.38983000  0.14895000  1.0
  C  C37  1  0.38233000  0.63047000  0.81994000  1.0
  S  S38  1  0.08904000  0.60031000  0.08714000  1.0
  S  S39  1  0.91555000  0.42285000  0.88070000  1.0
  O  O40  1  0.53261000  0.68907000  0.45408000  1.0
  O  O41  1  0.93762000  0.56423000  0.32896000  1.0
  O  O42  1  0.14929000  0.33532000  0.47457000  1.0
  O  O43  1  0.36832000  0.51925000  0.63430000  1.0
  O  O44  1  0.46569000  0.33508000  0.51712000  1.0
  O  O45  1  0.06463000  0.45620000  0.64073000  1.0
  O  O46  1  0.84165000  0.67760000  0.50960000  1.0
  O  O47  1  0.62549000  0.51281000  0.32884000  1.0
  O  O48  1  0.23696000  0.58321000  0.42515000  1.0
  O  O49  1  0.75757000  0.43966000  0.53980000  1.0
  O  O50  1  0.11907000  0.13719000  0.42098000  1.0
  O  O51  1  0.25603000  0.89705000  0.41942000  1.0
