# generated using pymatgen
data_FeAgPH23C29SeS(OF)3
_symmetry_space_group_name_H-M   'P 1'
_cell_length_a   9.67982000
_cell_length_b   11.91010000
_cell_length_c   12.74930000
_cell_angle_alpha   66.65770000
_cell_angle_beta   86.68450000
_cell_angle_gamma   84.26180000
_symmetry_Int_Tables_number   1
_chemical_formula_structural   FeAgPH23C29SeS(OF)3
_chemical_formula_sum   'Fe2 Ag2 P2 H46 C58 Se2 S2 O6 F6'
_cell_volume   1342.50704299
_cell_formula_units_Z   2
loop_
 _symmetry_equiv_pos_site_id
 _symmetry_equiv_pos_as_xyz
  1  'x, y, z'
loop_
 _atom_site_type_symbol
 _atom_site_label
 _atom_site_symmetry_multiplicity
 _atom_site_fract_x
 _atom_site_fract_y
 _atom_site_fract_z
 _atom_site_occupancy
  Fe  Fe0  1  0.64576000  0.15032000  0.21393000  1.0
  Fe  Fe1  1  0.35424000  0.84968000  0.78608000  1.0
  Ag  Ag2  1  0.28087000  0.44881000  0.09599000  1.0
  Ag  Ag3  1  0.71913000  0.55119000  0.90401000  1.0
  P  P4  1  0.29826000  0.24471000  0.24071000  1.0
  P  P5  1  0.70175000  0.75529000  0.75929000  1.0
  H  H6  1  0.48631000  0.08977000  0.06995000  1.0
  H  H7  1  0.51371000  0.91022000  0.93005000  1.0
  H  H8  1  0.67391000  0.91644000  0.20695000  1.0
  H  H9  1  0.32610000  0.08355000  0.79307000  1.0
  H  H10  1  0.90603000  0.02545000  0.20648000  1.0
  H  H11  1  0.09398000  0.97454000  0.79354000  1.0
  H  H12  1  0.86473000  0.26675000  0.06896000  1.0
  H  H13  1  0.13528000  0.73325000  0.93105000  1.0
  H  H14  1  0.48748000  0.99294000  0.39266000  1.0
  H  H15  1  0.51252000  0.00707000  0.60735000  1.0
  H  H16  1  0.74982000  0.01706000  0.43366000  1.0
  H  H17  1  0.25017000  0.98295000  0.56636000  1.0
  H  H18  1  0.79841000  0.25756000  0.32440000  1.0
  H  H19  1  0.20158000  0.74245000  0.67560000  1.0
  H  H20  1  0.56486000  0.38177000  0.21791000  1.0
  H  H21  1  0.43513000  0.61824000  0.78208000  1.0
  H  H22  1  0.76458000  0.46396000  0.74355000  1.0
  H  H23  1  0.23543000  0.53604000  0.25645000  1.0
  H  H24  1  0.78376000  0.45432000  0.55230000  1.0
  H  H25  1  0.21624000  0.54568000  0.44769000  1.0
  H  H26  1  0.61925000  0.33847000  0.49867000  1.0
  H  H27  1  0.38074000  0.66154000  0.50132000  1.0
  H  H28  1  0.43761000  0.23119000  0.63818000  1.0
  H  H29  1  0.56239000  0.76882000  0.36182000  1.0
  H  H30  1  0.41199000  0.24752000  0.82768000  1.0
  H  H31  1  0.58802000  0.75248000  0.17232000  1.0
  H  H32  1  0.03815000  0.12693000  0.34858000  1.0
  H  H33  1  0.96185000  0.87306000  0.65142000  1.0
  H  H34  1  0.91276000  0.10865000  0.52904000  1.0
  H  H35  1  0.08724000  0.89135000  0.47095000  1.0
  H  H36  1  0.00436000  0.19583000  0.65669000  1.0
  H  H37  1  0.99564000  0.80417000  0.34330000  1.0
  H  H38  1  0.22396000  0.29860000  0.60373000  1.0
  H  H39  1  0.77604000  0.70140000  0.39627000  1.0
  H  H40  1  0.35277000  0.31328000  0.42603000  1.0
  H  H41  1  0.64723000  0.68672000  0.57397000  1.0
  H  H42  1  0.18867000  0.27106000  0.02841000  1.0
  H  H43  1  0.81133000  0.72895000  0.97159000  1.0
  H  H44  1  0.11907000  0.12485000  0.95100000  1.0
  H  H45  1  0.88092000  0.87516000  0.04900000  1.0
  H  H46  1  0.13740000  0.90033000  0.07127000  1.0
  H  H47  1  0.86260000  0.09968000  0.92872000  1.0
  H  H48  1  0.22126000  0.82445000  0.26998000  1.0
  H  H49  1  0.77873000  0.17555000  0.73001000  1.0
  H  H50  1  0.28696000  0.96980000  0.34932000  1.0
  H  H51  1  0.71304000  0.03021000  0.65067000  1.0
  C  C52  1  0.65467000  0.21779000  0.04142000  1.0
  C  C53  1  0.34534000  0.78220000  0.95859000  1.0
  C  C54  1  0.59097000  0.10323000  0.08622000  1.0
  C  C55  1  0.40904000  0.89676000  0.91379000  1.0
  C  C56  1  0.69037000  0.01217000  0.15777000  1.0
  C  C57  1  0.30964000  0.98783000  0.84223000  1.0
  C  C58  1  0.81354000  0.06993000  0.15761000  1.0
  C  C59  1  0.18646000  0.93007000  0.84240000  1.0
  C  C60  1  0.79232000  0.19746000  0.08547000  1.0
  C  C61  1  0.20769000  0.80253000  0.91454000  1.0
  C  C62  1  0.47406000  0.19804000  0.29032000  1.0
  C  C63  1  0.52593000  0.80196000  0.70969000  1.0
  C  C64  1  0.53613000  0.07858000  0.36224000  1.0
  C  C65  1  0.46386000  0.92143000  0.63777000  1.0
  C  C66  1  0.67507000  0.09185000  0.38568000  1.0
  C  C67  1  0.32493000  0.90816000  0.61433000  1.0
  C  C68  1  0.70060000  0.21854000  0.32898000  1.0
  C  C69  1  0.29939000  0.78146000  0.67102000  1.0
  C  C70  1  0.57759000  0.28413000  0.27053000  1.0
  C  C71  1  0.42241000  0.71586000  0.72947000  1.0
  C  C72  1  0.58672000  0.35672000  0.79656000  1.0
  C  C73  1  0.41329000  0.64327000  0.20344000  1.0
  C  C74  1  0.69136000  0.41472000  0.71966000  1.0
  C  C75  1  0.30865000  0.58528000  0.28033000  1.0
  C  C76  1  0.70219000  0.40884000  0.61208000  1.0
  C  C77  1  0.29780000  0.59117000  0.38791000  1.0
  C  C78  1  0.61013000  0.34369000  0.58231000  1.0
  C  C79  1  0.38986000  0.65632000  0.41768000  1.0
  C  C80  1  0.50754000  0.28406000  0.66058000  1.0
  C  C81  1  0.49246000  0.71595000  0.33941000  1.0
  C  C82  1  0.49412000  0.29142000  0.76745000  1.0
  C  C83  1  0.50589000  0.70858000  0.23254000  1.0
  C  C84  1  0.20461000  0.22016000  0.37550000  1.0
  C  C85  1  0.79539000  0.77983000  0.62450000  1.0
  C  C86  1  0.08027000  0.16291000  0.40524000  1.0
  C  C87  1  0.91973000  0.83709000  0.59475000  1.0
  C  C88  1  0.00914000  0.15362000  0.50648000  1.0
  C  C89  1  0.99086000  0.84638000  0.49351000  1.0
  C  C90  1  0.06050000  0.20217000  0.57824000  1.0
  C  C91  1  0.93950000  0.79783000  0.42175000  1.0
  C  C92  1  0.18419000  0.25947000  0.54872000  1.0
  C  C93  1  0.81581000  0.74053000  0.45128000  1.0
  C  C94  1  0.25636000  0.26796000  0.44847000  1.0
  C  C95  1  0.74364000  0.73203000  0.55153000  1.0
  C  C96  1  0.24395000  0.13074000  0.19344000  1.0
  C  C97  1  0.75605000  0.86926000  0.80655000  1.0
  C  C98  1  0.19555000  0.17311000  0.08153000  1.0
  C  C99  1  0.80444000  0.82689000  0.91847000  1.0
  C  C100  1  0.15658000  0.09059000  0.03799000  1.0
  C  C101  1  0.84341000  0.90942000  0.96200000  1.0
  C  C102  1  0.16588000  0.96510000  0.10559000  1.0
  C  C103  1  0.83411000  0.03490000  0.89440000  1.0
  C  C104  1  0.21307000  0.92240000  0.21734000  1.0
  C  C105  1  0.78693000  0.07760000  0.78265000  1.0
  C  C106  1  0.25126000  0.00449000  0.26166000  1.0
  C  C107  1  0.74874000  0.99551000  0.73833000  1.0
  C  C108  1  0.89006000  0.53744000  0.27266000  1.0
  C  C109  1  0.10995000  0.46255000  0.72735000  1.0
  Se  Se110  1  0.56144000  0.37110000  0.94420000  1.0
  Se  Se111  1  0.43856000  0.62889000  0.05580000  1.0
  S  S112  1  0.92714000  0.49237000  0.14863000  1.0
  S  S113  1  0.07286000  0.50763000  0.85137000  1.0
  O  O114  1  0.04032000  0.56753000  0.08823000  1.0
  O  O115  1  0.95968000  0.43247000  0.91178000  1.0
  O  O116  1  0.96391000  0.36121000  0.19888000  1.0
  O  O117  1  0.03609000  0.63879000  0.80112000  1.0
  O  O118  1  0.79282000  0.53067000  0.09181000  1.0
  O  O119  1  0.20718000  0.46932000  0.90819000  1.0
  F  F120  1  0.99736000  0.50127000  0.34602000  1.0
  F  F121  1  0.00264000  0.49872000  0.65398000  1.0
  F  F122  1  0.86669000  0.66211000  0.23535000  1.0
  F  F123  1  0.13331000  0.33788000  0.76466000  1.0
  F  F124  1  0.77531000  0.48749000  0.33294000  1.0
  F  F125  1  0.22470000  0.51250000  0.66707000  1.0
