# generated using pymatgen
data_AlP2H5(CO)6
_symmetry_space_group_name_H-M   'P 1'
_cell_length_a   8.82960000
_cell_length_b   9.90234000
_cell_length_c   9.93054000
_cell_angle_alpha   105.38500000
_cell_angle_beta   90.00000000
_cell_angle_gamma   89.99990000
_symmetry_Int_Tables_number   1
_chemical_formula_structural   AlP2H5(CO)6
_chemical_formula_sum   'Al4 P8 H20 C24 O24'
_cell_volume   837.14953968
_cell_formula_units_Z   4
loop_
 _symmetry_equiv_pos_site_id
 _symmetry_equiv_pos_as_xyz
  1  'x, y, z'
loop_
 _atom_site_type_symbol
 _atom_site_label
 _atom_site_symmetry_multiplicity
 _atom_site_fract_x
 _atom_site_fract_y
 _atom_site_fract_z
 _atom_site_occupancy
  Al  Al0  1  0.09066000  0.98271000  0.18085000  1.0
  Al  Al1  1  0.59066000  0.01729000  0.31915000  1.0
  Al  Al2  1  0.90934000  0.01729000  0.81915000  1.0
  Al  Al3  1  0.40934000  0.98271000  0.68086000  1.0
  P  P4  1  0.80047000  0.13813000  0.12845000  1.0
  P  P5  1  0.30047000  0.86186000  0.37155000  1.0
  P  P6  1  0.19953000  0.86186000  0.87155000  1.0
  P  P7  1  0.69953000  0.13814000  0.62845000  1.0
  P  P8  1  0.80094000  0.77882000  0.11395000  1.0
  P  P9  1  0.30094000  0.22118000  0.38606000  1.0
  P  P10  1  0.19906000  0.22118000  0.88606000  1.0
  P  P11  1  0.69906000  0.77883000  0.61394000  1.0
  H  H12  1  0.72614000  0.82174000  0.91367000  1.0
  H  H13  1  0.22614000  0.17826000  0.58633000  1.0
  H  H14  1  0.27386000  0.17826000  0.08634000  1.0
  H  H15  1  0.77386000  0.82174000  0.41366000  1.0
  H  H16  1  0.61070000  0.29441000  0.98932000  1.0
  H  H17  1  0.11070000  0.70559000  0.51067000  1.0
  H  H18  1  0.38930000  0.70559000  0.01068000  1.0
  H  H19  1  0.88930000  0.29441000  0.48932000  1.0
  H  H20  1  0.61769000  0.54154000  0.97630000  1.0
  H  H21  1  0.11769000  0.45847000  0.52370000  1.0
  H  H22  1  0.38231000  0.45846000  0.02370000  1.0
  H  H23  1  0.88231000  0.54153000  0.47629000  1.0
  H  H24  1  0.01176000  0.61876000  0.24127000  1.0
  H  H25  1  0.51176000  0.38123000  0.25873000  1.0
  H  H26  1  0.98824000  0.38123000  0.75873000  1.0
  H  H27  1  0.48824000  0.61877000  0.74127000  1.0
  H  H28  1  0.00836000  0.37010000  0.25056000  1.0
  H  H29  1  0.50836000  0.62989000  0.24944000  1.0
  H  H30  1  0.99164000  0.62989000  0.74944000  1.0
  H  H31  1  0.49164000  0.37011000  0.75056000  1.0
  C  C32  1  0.80581000  0.31870000  0.12615000  1.0
  C  C33  1  0.30581000  0.68130000  0.37385000  1.0
  C  C34  1  0.19418000  0.68130000  0.87385000  1.0
  C  C35  1  0.69419000  0.31870000  0.62615000  1.0
  C  C36  1  0.69707000  0.36603000  0.04633000  1.0
  C  C37  1  0.19707000  0.63397000  0.45367000  1.0
  C  C38  1  0.30293000  0.63397000  0.95367000  1.0
  C  C39  1  0.80293000  0.36603000  0.54633000  1.0
  C  C40  1  0.70000000  0.50458000  0.03981000  1.0
  C  C41  1  0.20000000  0.49542000  0.46019000  1.0
  C  C42  1  0.30000000  0.49542000  0.96019000  1.0
  C  C43  1  0.80000000  0.50458000  0.53981000  1.0
  C  C44  1  0.81055000  0.59733000  0.11286000  1.0
  C  C45  1  0.31055000  0.40267000  0.38714000  1.0
  C  C46  1  0.18945000  0.40266000  0.88714000  1.0
  C  C47  1  0.68945000  0.59734000  0.61286000  1.0
  C  C48  1  0.92261000  0.54847000  0.18809000  1.0
  C  C49  1  0.42261000  0.45153000  0.31191000  1.0
  C  C50  1  0.07739000  0.45153000  0.81191000  1.0
  C  C51  1  0.57739000  0.54847000  0.68809000  1.0
  C  C52  1  0.92018000  0.40941000  0.19417000  1.0
  C  C53  1  0.42018000  0.59059000  0.30583000  1.0
  C  C54  1  0.07982000  0.59058000  0.80583000  1.0
  C  C55  1  0.57982000  0.40941000  0.69417000  1.0
  O  O56  1  0.93844000  0.10935000  0.21090000  1.0
  O  O57  1  0.43844000  0.89066000  0.28910000  1.0
  O  O58  1  0.06156000  0.89065000  0.78910000  1.0
  O  O59  1  0.56156000  0.10935000  0.71090000  1.0
  O  O60  1  0.79920000  0.05008000  0.97584000  1.0
  O  O61  1  0.29920000  0.94992000  0.52416000  1.0
  O  O62  1  0.20080000  0.94992000  0.02416000  1.0
  O  O63  1  0.70080000  0.05008000  0.47584000  1.0
  O  O64  1  0.65139000  0.11136000  0.19718000  1.0
  O  O65  1  0.15139000  0.88865000  0.30282000  1.0
  O  O66  1  0.34861000  0.88864000  0.80282000  1.0
  O  O67  1  0.84861000  0.11136000  0.69718000  1.0
  O  O68  1  0.69116000  0.77847000  0.98805000  1.0
  O  O69  1  0.19116000  0.22153000  0.51195000  1.0
  O  O70  1  0.30884000  0.22152000  0.01195000  1.0
  O  O71  1  0.80884000  0.77848000  0.48805000  1.0
  O  O72  1  0.72402000  0.85867000  0.25071000  1.0
  O  O73  1  0.22401000  0.14133000  0.24930000  1.0
  O  O74  1  0.27598000  0.14133000  0.74930000  1.0
  O  O75  1  0.77598000  0.85867000  0.75071000  1.0
  O  O76  1  0.95767000  0.83422000  0.09492000  1.0
  O  O77  1  0.45767000  0.16579000  0.40508000  1.0
  O  O78  1  0.04233000  0.16578000  0.90508000  1.0
  O  O79  1  0.54233000  0.83422000  0.59492000  1.0
