# generated using pymatgen
data_CdH11C17N3O4
_symmetry_space_group_name_H-M   'P 1'
_cell_length_a   7.10040000
_cell_length_b   12.18560000
_cell_length_c   17.73300000
_cell_angle_alpha   90.00000000
_cell_angle_beta   90.00000000
_cell_angle_gamma   97.61980000
_symmetry_Int_Tables_number   1
_chemical_formula_structural   CdH11C17N3O4
_chemical_formula_sum   'Cd4 H44 C68 N12 O16'
_cell_volume   1520.75760926
_cell_formula_units_Z   4
loop_
 _symmetry_equiv_pos_site_id
 _symmetry_equiv_pos_as_xyz
  1  'x, y, z'
loop_
 _atom_site_type_symbol
 _atom_site_label
 _atom_site_symmetry_multiplicity
 _atom_site_fract_x
 _atom_site_fract_y
 _atom_site_fract_z
 _atom_site_occupancy
  Cd  Cd0  1  0.72458000  0.84050000  0.89779000  1.0
  Cd  Cd1  1  0.77541000  0.65950000  0.39778000  1.0
  Cd  Cd2  1  0.27541000  0.15950000  0.10221000  1.0
  Cd  Cd3  1  0.22459000  0.34050000  0.60221000  1.0
  H  H4  1  0.49269000  0.64138000  0.79968000  1.0
  H  H5  1  0.00731000  0.85862000  0.29968000  1.0
  H  H6  1  0.50731000  0.35862000  0.20032000  1.0
  H  H7  1  0.99269000  0.14138000  0.70032000  1.0
  H  H8  1  0.06972000  0.74746000  0.82203000  1.0
  H  H9  1  0.43028000  0.75254000  0.32202000  1.0
  H  H10  1  0.93028000  0.25254000  0.17798000  1.0
  H  H11  1  0.56971000  0.24746000  0.67798000  1.0
  H  H12  1  0.29911000  0.70676000  0.89875000  1.0
  H  H13  1  0.20089000  0.79323000  0.39875000  1.0
  H  H14  1  0.70088000  0.29324000  0.10125000  1.0
  H  H15  1  0.79912000  0.20677000  0.60125000  1.0
  H  H16  1  0.12522000  0.90723000  0.98206000  1.0
  H  H17  1  0.37477000  0.59276000  0.48206000  1.0
  H  H18  1  0.87478000  0.09276000  0.01794000  1.0
  H  H19  1  0.62522000  0.40724000  0.51795000  1.0
  H  H20  1  0.80363000  0.64461000  0.16620000  1.0
  H  H21  1  0.69638000  0.85539000  0.66619000  1.0
  H  H22  1  0.19637000  0.35539000  0.83380000  1.0
  H  H23  1  0.30363000  0.14461000  0.33380000  1.0
  H  H24  1  0.54073000  0.57722000  0.13829000  1.0
  H  H25  1  0.95927000  0.92278000  0.63829000  1.0
  H  H26  1  0.45928000  0.42278000  0.86171000  1.0
  H  H27  1  0.04072000  0.07722000  0.36171000  1.0
  H  H28  1  0.21843000  0.49703000  0.09621000  1.0
  H  H29  1  0.28157000  0.00297000  0.59620000  1.0
  H  H30  1  0.78157000  0.50297000  0.90379000  1.0
  H  H31  1  0.71843000  0.99703000  0.40379000  1.0
  H  H32  1  0.15028000  0.59209000  0.74048000  1.0
  H  H33  1  0.34973000  0.90792000  0.24048000  1.0
  H  H34  1  0.84973000  0.40792000  0.25952000  1.0
  H  H35  1  0.65027000  0.09208000  0.75953000  1.0
  H  H36  1  0.13117000  0.72802000  0.19288000  1.0
  H  H37  1  0.36883000  0.77198000  0.69288000  1.0
  H  H38  1  0.86882000  0.27198000  0.80712000  1.0
  H  H39  1  0.63118000  0.22802000  0.30712000  1.0
  H  H40  1  0.09282000  0.56078000  0.97213000  1.0
  H  H41  1  0.40719000  0.93922000  0.47212000  1.0
  H  H42  1  0.90718000  0.43922000  0.02787000  1.0
  H  H43  1  0.59282000  0.06079000  0.52787000  1.0
  H  H44  1  0.29953000  0.86758000  0.09962000  1.0
  H  H45  1  0.20048000  0.63242000  0.59962000  1.0
  H  H46  1  0.70047000  0.13242000  0.90038000  1.0
  H  H47  1  0.79953000  0.36758000  0.40038000  1.0
  C  C48  1  0.63728000  0.62836000  0.78542000  1.0
  C  C49  1  0.86272000  0.87163000  0.28541000  1.0
  C  C50  1  0.36272000  0.37163000  0.21458000  1.0
  C  C51  1  0.13727000  0.12836000  0.71458000  1.0
  C  C52  1  0.59250000  0.68173000  0.03905000  1.0
  C  C53  1  0.90750000  0.81827000  0.53905000  1.0
  C  C54  1  0.40749000  0.31827000  0.96094000  1.0
  C  C55  1  0.09251000  0.18173000  0.46094000  1.0
  C  C56  1  0.85661000  0.52896000  0.71908000  1.0
  C  C57  1  0.64340000  0.97104000  0.21907000  1.0
  C  C58  1  0.14340000  0.47103000  0.28093000  1.0
  C  C59  1  0.35659000  0.02896000  0.78093000  1.0
  C  C60  1  0.66825000  0.54276000  0.73634000  1.0
  C  C61  1  0.83175000  0.95724000  0.23633000  1.0
  C  C62  1  0.33175000  0.45724000  0.26366000  1.0
  C  C63  1  0.16824000  0.04276000  0.76366000  1.0
  C  C64  1  0.95877000  0.68660000  0.79851000  1.0
  C  C65  1  0.54123000  0.81340000  0.29851000  1.0
  C  C66  1  0.04123000  0.31340000  0.20149000  1.0
  C  C67  1  0.45876000  0.18660000  0.70149000  1.0
  C  C68  1  0.78923000  0.73072000  0.05927000  1.0
  C  C69  1  0.71077000  0.76927000  0.55926000  1.0
  C  C70  1  0.21077000  0.26928000  0.94073000  1.0
  C  C71  1  0.28923000  0.23072000  0.44073000  1.0
  C  C72  1  0.34670000  0.67305000  0.95139000  1.0
  C  C73  1  0.15330000  0.82695000  0.45139000  1.0
  C  C74  1  0.65329000  0.32696000  0.04861000  1.0
  C  C75  1  0.84671000  0.17305000  0.54861000  1.0
  C  C76  1  0.05956000  0.84999000  0.02470000  1.0
  C  C77  1  0.44043000  0.65001000  0.52470000  1.0
  C  C78  1  0.94043000  0.15002000  0.97530000  1.0
  C  C79  1  0.55957000  0.34998000  0.47530000  1.0
  C  C80  1  0.87754000  0.70258000  0.12584000  1.0
  C  C81  1  0.62247000  0.79741000  0.62583000  1.0
  C  C82  1  0.12246000  0.29742000  0.87416000  1.0
  C  C83  1  0.37754000  0.20259000  0.37416000  1.0
  C  C84  1  0.48458000  0.60290000  0.08479000  1.0
  C  C85  1  0.01542000  0.89709000  0.58479000  1.0
  C  C86  1  0.51543000  0.39710000  0.91521000  1.0
  C  C87  1  0.98458000  0.10291000  0.41521000  1.0
  C  C88  1  0.30384000  0.55794000  0.06096000  1.0
  C  C89  1  0.19616000  0.94206000  0.56095000  1.0
  C  C90  1  0.69617000  0.44206000  0.93905000  1.0
  C  C91  1  0.80384000  0.05794000  0.43905000  1.0
  C  C92  1  0.00285000  0.60267000  0.75145000  1.0
  C  C93  1  0.49716000  0.89733000  0.25145000  1.0
  C  C94  1  0.99716000  0.39733000  0.24855000  1.0
  C  C95  1  0.50283000  0.10267000  0.74855000  1.0
  C  C96  1  0.06304000  0.75082000  0.14101000  1.0
  C  C97  1  0.43696000  0.74918000  0.64101000  1.0
  C  C98  1  0.93695000  0.24918000  0.85899000  1.0
  C  C99  1  0.56305000  0.25082000  0.35899000  1.0
  C  C100  1  0.23366000  0.59274000  0.99280000  1.0
  C  C101  1  0.26634000  0.90725000  0.49280000  1.0
  C  C102  1  0.76634000  0.40726000  0.00720000  1.0
  C  C103  1  0.73366000  0.09275000  0.50720000  1.0
  C  C104  1  0.15603000  0.82604000  0.08988000  1.0
  C  C105  1  0.34397000  0.67396000  0.58987000  1.0
  C  C106  1  0.84397000  0.17397000  0.91012000  1.0
  C  C107  1  0.65604000  0.32604000  0.41013000  1.0
  C  C108  1  0.49670000  0.47322000  0.70342000  1.0
  C  C109  1  0.00330000  0.02677000  0.20342000  1.0
  C  C110  1  0.50329000  0.52677000  0.29658000  1.0
  C  C111  1  0.99669000  0.97323000  0.79657000  1.0
  C  C112  1  0.91577000  0.43622000  0.67183000  1.0
  C  C113  1  0.58424000  0.06378000  0.17183000  1.0
  C  C114  1  0.08424000  0.56378000  0.32817000  1.0
  C  C115  1  0.41576000  0.93622000  0.82817000  1.0
  N  N116  1  0.77776000  0.69902000  0.81568000  1.0
  N  N117  1  0.72224000  0.80098000  0.31568000  1.0
  N  N118  1  0.22224000  0.30097000  0.18432000  1.0
  N  N119  1  0.27776000  0.19902000  0.68432000  1.0
  N  N120  1  0.88155000  0.80351000  0.00982000  1.0
  N  N121  1  0.61845000  0.69649000  0.50982000  1.0
  N  N122  1  0.11845000  0.19649000  0.99018000  1.0
  N  N123  1  0.38155000  0.30351000  0.49018000  1.0
  N  N124  1  0.52123000  0.71550000  0.97383000  1.0
  N  N125  1  0.97877000  0.78450000  0.47383000  1.0
  N  N126  1  0.47876000  0.28450000  0.02617000  1.0
  N  N127  1  0.02123000  0.21550000  0.52617000  1.0
  O  O128  1  0.51253000  0.43955000  0.63556000  1.0
  O  O129  1  0.98748000  0.06045000  0.13555000  1.0
  O  O130  1  0.48747000  0.56044000  0.36445000  1.0
  O  O131  1  0.01251000  0.93956000  0.86444000  1.0
  O  O132  1  0.34927000  0.45545000  0.74351000  1.0
  O  O133  1  0.15072000  0.04455000  0.24351000  1.0
  O  O134  1  0.65072000  0.54455000  0.25649000  1.0
  O  O135  1  0.84927000  0.95545000  0.75648000  1.0
  O  O136  1  0.02521000  0.46788000  0.61615000  1.0
  O  O137  1  0.47481000  0.03212000  0.11614000  1.0
  O  O138  1  0.97480000  0.53212000  0.38386000  1.0
  O  O139  1  0.52519000  0.96788000  0.88386000  1.0
  O  O140  1  0.87062000  0.33805000  0.69339000  1.0
  O  O141  1  0.62938000  0.16195000  0.19339000  1.0
  O  O142  1  0.12938000  0.66195000  0.30661000  1.0
  O  O143  1  0.37062000  0.83805000  0.80661000  1.0
