# generated using pymatgen
data_ZnH16C20(N2O3)2
_symmetry_space_group_name_H-M   'P 1'
_cell_length_a   5.01494000
_cell_length_b   12.30590000
_cell_length_c   15.33650000
_cell_angle_alpha   81.81650000
_cell_angle_beta   89.97700000
_cell_angle_gamma   78.27140000
_symmetry_Int_Tables_number   1
_chemical_formula_structural   ZnH16C20(N2O3)2
_chemical_formula_sum   'Zn2 H32 C40 N8 O12'
_cell_volume   916.87190873
_cell_formula_units_Z   2
loop_
 _symmetry_equiv_pos_site_id
 _symmetry_equiv_pos_as_xyz
  1  'x, y, z'
loop_
 _atom_site_type_symbol
 _atom_site_label
 _atom_site_symmetry_multiplicity
 _atom_site_fract_x
 _atom_site_fract_y
 _atom_site_fract_z
 _atom_site_occupancy
  Zn  Zn0  1  0.97977000  0.99980000  0.25017000  1.0
  Zn  Zn1  1  0.02024000  0.00020000  0.74984000  1.0
  H  H2  1  0.70281000  0.37482000  0.56842000  1.0
  H  H3  1  0.07832000  0.62528000  0.93149000  1.0
  H  H4  1  0.29720000  0.62519000  0.43158000  1.0
  H  H5  1  0.92169000  0.37471000  0.06850000  1.0
  H  H6  1  0.01461000  0.54276000  0.33654000  1.0
  H  H7  1  0.55627000  0.45700000  0.16347000  1.0
  H  H8  1  0.98540000  0.45724000  0.66346000  1.0
  H  H9  1  0.44374000  0.54299000  0.83652000  1.0
  H  H10  1  0.64687000  0.08723000  0.46411000  1.0
  H  H11  1  0.73319000  0.91244000  0.03580000  1.0
  H  H12  1  0.35312000  0.91278000  0.53589000  1.0
  H  H13  1  0.26681000  0.08755000  0.96420000  1.0
  H  H14  1  0.24901000  0.37317000  0.27833000  1.0
  H  H15  1  0.62209000  0.62653000  0.22197000  1.0
  H  H16  1  0.75099000  0.62684000  0.72167000  1.0
  H  H17  1  0.37788000  0.37346000  0.77802000  1.0
  H  H18  1  0.35249000  0.97466000  0.40027000  1.0
  H  H19  1  0.32629000  0.02488000  0.09974000  1.0
  H  H20  1  0.64753000  0.02534000  0.59973000  1.0
  H  H21  1  0.67372000  0.97512000  0.90026000  1.0
  H  H22  1  0.98061000  0.24876000  0.22315000  1.0
  H  H23  1  0.22934000  0.75079000  0.27724000  1.0
  H  H24  1  0.01940000  0.75124000  0.77685000  1.0
  H  H25  1  0.77063000  0.24920000  0.72275000  1.0
  H  H26  1  0.75279000  0.77857000  0.42525000  1.0
  H  H27  1  0.53201000  0.22065000  0.07487000  1.0
  H  H28  1  0.24720000  0.22143000  0.57475000  1.0
  H  H29  1  0.46797000  0.77934000  0.92513000  1.0
  H  H30  1  0.74356000  0.25620000  0.47323000  1.0
  H  H31  1  0.99911000  0.74365000  0.02673000  1.0
  H  H32  1  0.25643000  0.74380000  0.52678000  1.0
  H  H33  1  0.00087000  0.25635000  0.97326000  1.0
  C  C34  1  0.67955000  0.40499000  0.38551000  1.0
  C  C35  1  0.08407000  0.59486000  0.11446000  1.0
  C  C36  1  0.32047000  0.59502000  0.61449000  1.0
  C  C37  1  0.91593000  0.40513000  0.88553000  1.0
  C  C38  1  0.47163000  0.24047000  0.37784000  1.0
  C  C39  1  0.71158000  0.75922000  0.12221000  1.0
  C  C40  1  0.52837000  0.75955000  0.62216000  1.0
  C  C41  1  0.28841000  0.24077000  0.87779000  1.0
  C  C42  1  0.83622000  0.42823000  0.53823000  1.0
  C  C43  1  0.26481000  0.57181000  0.96172000  1.0
  C  C44  1  0.16379000  0.57177000  0.46176000  1.0
  C  C45  1  0.73520000  0.42819000  0.03828000  1.0
  C  C46  1  0.84430000  0.45225000  0.44613000  1.0
  C  C47  1  0.29624000  0.54772000  0.05383000  1.0
  C  C48  1  0.15571000  0.54776000  0.55387000  1.0
  C  C49  1  0.70377000  0.45228000  0.94616000  1.0
  C  C50  1  0.00788000  0.52512000  0.40811000  1.0
  C  C51  1  0.53227000  0.47473000  0.09188000  1.0
  C  C52  1  0.99214000  0.47488000  0.59189000  1.0
  C  C53  1  0.46774000  0.52526000  0.90811000  1.0
  C  C54  1  0.49803000  0.12608000  0.41144000  1.0
  C  C55  1  0.62339000  0.87356000  0.08857000  1.0
  C  C56  1  0.50197000  0.87392000  0.58856000  1.0
  C  C57  1  0.37661000  0.12644000  0.91143000  1.0
  C  C58  1  0.28088000  0.28579000  0.30804000  1.0
  C  C59  1  0.56642000  0.71386000  0.19216000  1.0
  C  C60  1  0.71912000  0.71422000  0.69196000  1.0
  C  C61  1  0.43357000  0.28613000  0.80784000  1.0
  C  C62  1  0.33847000  0.06311000  0.37615000  1.0
  C  C63  1  0.40088000  0.93645000  0.12390000  1.0
  C  C64  1  0.66153000  0.93690000  0.62385000  1.0
  C  C65  1  0.59913000  0.06355000  0.87610000  1.0
  C  C66  1  0.13056000  0.21586000  0.27666000  1.0
  C  C67  1  0.34623000  0.78370000  0.22361000  1.0
  C  C68  1  0.86945000  0.78415000  0.72334000  1.0
  C  C69  1  0.65375000  0.21629000  0.77639000  1.0
  C  C70  1  0.88285000  0.83580000  0.39461000  1.0
  C  C71  1  0.71949000  0.16377000  0.10558000  1.0
  C  C72  1  0.11714000  0.16420000  0.60540000  1.0
  C  C73  1  0.28050000  0.83623000  0.89443000  1.0
  N  N74  1  0.15622000  0.10622000  0.30915000  1.0
  N  N75  1  0.26201000  0.89329000  0.19104000  1.0
  N  N76  1  0.84379000  0.89379000  0.69085000  1.0
  N  N77  1  0.73800000  0.10670000  0.80897000  1.0
  N  N78  1  0.63031000  0.30049000  0.41776000  1.0
  N  N79  1  0.93036000  0.69932000  0.08226000  1.0
  N  N80  1  0.36968000  0.69952000  0.58225000  1.0
  N  N81  1  0.06963000  0.30067000  0.91774000  1.0
  O  O82  1  0.78714000  0.89365000  0.32111000  1.0
  O  O83  1  0.68156000  0.10579000  0.17905000  1.0
  O  O84  1  0.21287000  0.10635000  0.67889000  1.0
  O  O85  1  0.31844000  0.89421000  0.82096000  1.0
  O  O86  1  0.10310000  0.83792000  0.43250000  1.0
  O  O87  1  0.94202000  0.16213000  0.06779000  1.0
  O  O88  1  0.89687000  0.16209000  0.56751000  1.0
  O  O89  1  0.05796000  0.83786000  0.93221000  1.0
  O  O90  1  0.59891000  0.45633000  0.31198000  1.0
  O  O91  1  0.05452000  0.54343000  0.18797000  1.0
  O  O92  1  0.40111000  0.54369000  0.68802000  1.0
  O  O93  1  0.94550000  0.45656000  0.81204000  1.0
