# generated using pymatgen
data_CuH10C18(NO)4
_symmetry_space_group_name_H-M   'P 1'
_cell_length_a   6.78596000
_cell_length_b   8.26734000
_cell_length_c   14.22030000
_cell_angle_alpha   106.23600000
_cell_angle_beta   97.54340000
_cell_angle_gamma   93.09460000
_symmetry_Int_Tables_number   1
_chemical_formula_structural   CuH10C18(NO)4
_chemical_formula_sum   'Cu2 H20 C36 N8 O8'
_cell_volume   755.88430748
_cell_formula_units_Z   2
loop_
 _symmetry_equiv_pos_site_id
 _symmetry_equiv_pos_as_xyz
  1  'x, y, z'
loop_
 _atom_site_type_symbol
 _atom_site_label
 _atom_site_symmetry_multiplicity
 _atom_site_fract_x
 _atom_site_fract_y
 _atom_site_fract_z
 _atom_site_occupancy
  Cu  Cu0  1  0.59810000  0.52082000  0.40623000  1.0
  Cu  Cu1  1  0.40190000  0.47918000  0.59377000  1.0
  H  H2  1  0.54140000  0.14687000  0.59611000  1.0
  H  H3  1  0.45857000  0.85313000  0.40390000  1.0
  H  H4  1  0.08615000  0.99888000  0.40470000  1.0
  H  H5  1  0.91384000  0.00113000  0.59530000  1.0
  H  H6  1  0.97865000  0.33293000  0.41107000  1.0
  H  H7  1  0.02135000  0.66707000  0.58893000  1.0
  H  H8  1  0.14132000  0.14822000  0.28101000  1.0
  H  H9  1  0.85867000  0.85178000  0.71898000  1.0
  H  H10  1  0.98403000  0.07990000  0.10070000  1.0
  H  H11  1  0.01598000  0.92010000  0.89930000  1.0
  H  H12  1  0.12452000  0.44842000  0.01505000  1.0
  H  H13  1  0.87549000  0.55159000  0.98495000  1.0
  H  H14  1  0.99219000  0.62520000  0.16830000  1.0
  H  H15  1  0.00782000  0.37482000  0.83169000  1.0
  H  H16  1  0.18154000  0.64752000  0.33415000  1.0
  H  H17  1  0.81846000  0.35248000  0.66585000  1.0
  H  H18  1  0.36497000  0.15035000  0.77708000  1.0
  H  H19  1  0.63504000  0.84966000  0.22291000  1.0
  H  H20  1  0.67687000  0.00950000  0.80596000  1.0
  H  H21  1  0.32314000  0.99052000  0.19403000  1.0
  C  C22  1  0.51067000  0.18967000  0.44756000  1.0
  C  C23  1  0.48932000  0.81032000  0.55245000  1.0
  C  C24  1  0.51408000  0.08444000  0.51656000  1.0
  C  C25  1  0.48589000  0.91556000  0.48345000  1.0
  C  C26  1  0.87840000  0.78762000  0.40686000  1.0
  C  C27  1  0.12159000  0.21239000  0.59314000  1.0
  C  C28  1  0.00155000  0.95231000  0.45347000  1.0
  C  C29  1  0.99843000  0.04770000  0.54653000  1.0
  C  C30  1  0.91358000  0.30449000  0.33311000  1.0
  C  C31  1  0.08642000  0.69549000  0.66689000  1.0
  C  C32  1  0.00289000  0.19778000  0.25862000  1.0
  C  C33  1  0.99711000  0.80221000  0.74138000  1.0
  C  C34  1  0.91770000  0.16226000  0.16010000  1.0
  C  C35  1  0.08231000  0.83773000  0.83990000  1.0
  C  C36  1  0.74133000  0.23501000  0.13675000  1.0
  C  C37  1  0.25867000  0.76498000  0.86324000  1.0
  C  C38  1  0.65930000  0.33883000  0.21581000  1.0
  C  C39  1  0.34070000  0.66116000  0.78419000  1.0
  C  C40  1  0.47572000  0.41307000  0.19865000  1.0
  C  C41  1  0.52428000  0.58693000  0.80135000  1.0
  C  C42  1  0.37695000  0.38889000  0.10180000  1.0
  C  C43  1  0.62304000  0.61111000  0.89820000  1.0
  C  C44  1  0.20020000  0.46702000  0.09007000  1.0
  C  C45  1  0.79980000  0.53299000  0.90993000  1.0
  C  C46  1  0.12909000  0.56278000  0.17301000  1.0
  C  C47  1  0.87091000  0.43723000  0.82699000  1.0
  C  C48  1  0.23535000  0.57730000  0.26712000  1.0
  C  C49  1  0.76466000  0.42270000  0.73288000  1.0
  C  C50  1  0.63960000  0.20860000  0.03608000  1.0
  C  C51  1  0.36040000  0.79140000  0.96392000  1.0
  C  C52  1  0.46107000  0.28535000  0.01897000  1.0
  C  C53  1  0.53893000  0.71465000  0.98103000  1.0
  C  C54  1  0.44284000  0.16694000  0.85195000  1.0
  C  C55  1  0.55717000  0.83307000  0.14805000  1.0
  C  C56  1  0.61895000  0.08968000  0.86905000  1.0
  C  C57  1  0.38106000  0.91033000  0.13095000  1.0
  N  N58  1  0.40428000  0.50530000  0.27973000  1.0
  N  N59  1  0.59572000  0.49469000  0.72027000  1.0
  N  N60  1  0.74628000  0.37235000  0.31145000  1.0
  N  N61  1  0.25373000  0.62764000  0.68855000  1.0
  N  N62  1  0.36451000  0.26431000  0.92636000  1.0
  N  N63  1  0.63550000  0.73570000  0.07364000  1.0
  N  N64  1  0.71724000  0.10955000  0.95948000  1.0
  N  N65  1  0.28277000  0.89045000  0.04052000  1.0
  O  O66  1  0.56107000  0.35347000  0.49137000  1.0
  O  O67  1  0.43893000  0.64653000  0.50863000  1.0
  O  O68  1  0.47019000  0.12817000  0.35638000  1.0
  O  O69  1  0.52980000  0.87182000  0.64362000  1.0
  O  O70  1  0.82628000  0.70428000  0.46631000  1.0
  O  O71  1  0.17371000  0.29572000  0.53369000  1.0
  O  O72  1  0.82896000  0.74275000  0.31459000  1.0
  O  O73  1  0.17104000  0.25725000  0.68542000  1.0
