# generated using pymatgen
data_NaZnH15C15NO8
_symmetry_space_group_name_H-M   'P 1'
_cell_length_a   8.77957000
_cell_length_b   9.95431000
_cell_length_c   10.75630000
_cell_angle_alpha   107.63100000
_cell_angle_beta   103.55300000
_cell_angle_gamma   100.29400000
_symmetry_Int_Tables_number   1
_chemical_formula_structural   NaZnH15C15NO8
_chemical_formula_sum   'Na2 Zn2 H30 C30 N2 O16'
_cell_volume   838.71645063
_cell_formula_units_Z   2
loop_
 _symmetry_equiv_pos_site_id
 _symmetry_equiv_pos_as_xyz
  1  'x, y, z'
loop_
 _atom_site_type_symbol
 _atom_site_label
 _atom_site_symmetry_multiplicity
 _atom_site_fract_x
 _atom_site_fract_y
 _atom_site_fract_z
 _atom_site_occupancy
  Na  Na0  1  0.42344000  0.63367000  0.55766000  1.0
  Na  Na1  1  0.57656000  0.36632000  0.44235000  1.0
  Zn  Zn2  1  0.07119000  0.43594000  0.30216000  1.0
  Zn  Zn3  1  0.92881000  0.56406000  0.69784000  1.0
  H  H4  1  0.23942000  0.31372000  0.43747000  1.0
  H  H5  1  0.76058000  0.68628000  0.56253000  1.0
  H  H6  1  0.13805000  0.39782000  0.53415000  1.0
  H  H7  1  0.86195000  0.60218000  0.46584000  1.0
  H  H8  1  0.66864000  0.52244000  0.22953000  1.0
  H  H9  1  0.33137000  0.47757000  0.77048000  1.0
  H  H10  1  0.20186000  0.46650000  0.95225000  1.0
  H  H11  1  0.79816000  0.53351000  0.04776000  1.0
  H  H12  1  0.78225000  0.97410000  0.03503000  1.0
  H  H13  1  0.21775000  0.02590000  0.96497000  1.0
  H  H14  1  0.45270000  0.22777000  0.14119000  1.0
  H  H15  1  0.54730000  0.77223000  0.85881000  1.0
  H  H16  1  0.81015000  0.77159000  0.31803000  1.0
  H  H17  1  0.18985000  0.22840000  0.68196000  1.0
  H  H18  1  0.27707000  0.99764000  0.62040000  1.0
  H  H19  1  0.72292000  0.00236000  0.37959000  1.0
  H  H20  1  0.91993000  0.92974000  0.74574000  1.0
  H  H21  1  0.08007000  0.07026000  0.25426000  1.0
  H  H22  1  0.01049000  0.15833000  0.87272000  1.0
  H  H23  1  0.98951000  0.84167000  0.12728000  1.0
  H  H24  1  0.87363000  0.21951000  0.96135000  1.0
  H  H25  1  0.12636000  0.78049000  0.03864000  1.0
  H  H26  1  0.89909000  0.27802000  0.82426000  1.0
  H  H27  1  0.10090000  0.72198000  0.17574000  1.0
  H  H28  1  0.51728000  0.97726000  0.65153000  1.0
  H  H29  1  0.48272000  0.02274000  0.34847000  1.0
  H  H30  1  0.60477000  0.16413000  0.67705000  1.0
  H  H31  1  0.39523000  0.83587000  0.32295000  1.0
  H  H32  1  0.56283000  0.11758000  0.81688000  1.0
  H  H33  1  0.43717000  0.88241000  0.18312000  1.0
  C  C34  1  0.35027000  0.48606000  0.21208000  1.0
  C  C35  1  0.64974000  0.51394000  0.78793000  1.0
  C  C36  1  0.42743000  0.49529000  0.10267000  1.0
  C  C37  1  0.57258000  0.50472000  0.89734000  1.0
  C  C38  1  0.59570000  0.51445000  0.12936000  1.0
  C  C39  1  0.40431000  0.48556000  0.87065000  1.0
  C  C40  1  0.33243000  0.48101000  0.97232000  1.0
  C  C41  1  0.66759000  0.51900000  0.02769000  1.0
  C  C42  1  0.76835000  0.23649000  0.20474000  1.0
  C  C43  1  0.23165000  0.76351000  0.79526000  1.0
  C  C44  1  0.63102000  0.11271000  0.09923000  1.0
  C  C45  1  0.36898000  0.88729000  0.90077000  1.0
  C  C46  1  0.65830000  0.98449000  0.01952000  1.0
  C  C47  1  0.34170000  0.01550000  0.98048000  1.0
  C  C48  1  0.47200000  0.12735000  0.07897000  1.0
  C  C49  1  0.52799000  0.87265000  0.92103000  1.0
  C  C50  1  0.10765000  0.73652000  0.42859000  1.0
  C  C51  1  0.89235000  0.26348000  0.57141000  1.0
  C  C52  1  0.04936000  0.87114000  0.46653000  1.0
  C  C53  1  0.95064000  0.12886000  0.53346000  1.0
  C  C54  1  0.89263000  0.87163000  0.39793000  1.0
  C  C55  1  0.10737000  0.12837000  0.60207000  1.0
  C  C56  1  0.15588000  0.99999000  0.56865000  1.0
  C  C57  1  0.84412000  0.00001000  0.43134000  1.0
  C  C58  1  0.79137000  0.93031000  0.71038000  1.0
  C  C59  1  0.20863000  0.06969000  0.28962000  1.0
  C  C60  1  0.89388000  0.18610000  0.86079000  1.0
  C  C61  1  0.10612000  0.81390000  0.13921000  1.0
  C  C62  1  0.60153000  0.08107000  0.72497000  1.0
  C  C63  1  0.39847000  0.91893000  0.27503000  1.0
  N  N64  1  0.76332000  0.05957000  0.76277000  1.0
  N  N65  1  0.23668000  0.94042000  0.23723000  1.0
  O  O66  1  0.19379000  0.46181000  0.17561000  1.0
  O  O67  1  0.80622000  0.53819000  0.82439000  1.0
  O  O68  1  0.43767000  0.49954000  0.32857000  1.0
  O  O69  1  0.56234000  0.50046000  0.67143000  1.0
  O  O70  1  0.74219000  0.32451000  0.30296000  1.0
  O  O71  1  0.25782000  0.67549000  0.69704000  1.0
  O  O72  1  0.90960000  0.24619000  0.18465000  1.0
  O  O73  1  0.09040000  0.75381000  0.81535000  1.0
  O  O74  1  0.25577000  0.74727000  0.44951000  1.0
  O  O75  1  0.74423000  0.25273000  0.55049000  1.0
  O  O76  1  0.99372000  0.61224000  0.37156000  1.0
  O  O77  1  0.00629000  0.38776000  0.62843000  1.0
  O  O78  1  0.68468000  0.81532000  0.62732000  1.0
  O  O79  1  0.31532000  0.18468000  0.37268000  1.0
  O  O80  1  0.19862000  0.40378000  0.46725000  1.0
  O  O81  1  0.80138000  0.59622000  0.53274000  1.0
