# generated using pymatgen
data_FeH14C20N2O5
_symmetry_space_group_name_H-M   'P 1'
_cell_length_a   9.14557000
_cell_length_b   10.11020000
_cell_length_c   11.29100000
_cell_angle_alpha   112.22000000
_cell_angle_beta   93.96970000
_cell_angle_gamma   114.41200000
_symmetry_Int_Tables_number   1
_chemical_formula_structural   FeH14C20N2O5
_chemical_formula_sum   'Fe2 H28 C40 N4 O10'
_cell_volume   847.99143758
_cell_formula_units_Z   2
loop_
 _symmetry_equiv_pos_site_id
 _symmetry_equiv_pos_as_xyz
  1  'x, y, z'
loop_
 _atom_site_type_symbol
 _atom_site_label
 _atom_site_symmetry_multiplicity
 _atom_site_fract_x
 _atom_site_fract_y
 _atom_site_fract_z
 _atom_site_occupancy
  Fe  Fe0  1  0.47158000  0.85729000  0.19962000  1.0
  Fe  Fe1  1  0.52617000  0.12312000  0.78965000  1.0
  H  H2  1  0.63258000  0.88858000  0.46462000  1.0
  H  H3  1  0.35991000  0.12313000  0.52667000  1.0
  H  H4  1  0.83596000  0.80929000  0.52543000  1.0
  H  H5  1  0.15539000  0.20762000  0.47392000  1.0
  H  H6  1  0.94424000  0.66260000  0.34952000  1.0
  H  H7  1  0.05000000  0.34653000  0.65693000  1.0
  H  H8  1  0.83200000  0.50379000  0.87378000  1.0
  H  H9  1  0.16605000  0.49150000  0.12604000  1.0
  H  H10  1  0.93650000  0.54498000  0.09983000  1.0
  H  H11  1  0.05867000  0.45336000  0.90113000  1.0
  H  H12  1  0.65696000  0.55616000  0.72168000  1.0
  H  H13  1  0.34112000  0.44332000  0.27425000  1.0
  H  H14  1  0.46501000  0.67078000  0.70531000  1.0
  H  H15  1  0.53710000  0.33326000  0.29407000  1.0
  H  H16  1  0.38110000  0.79888000  0.90590000  1.0
  H  H17  1  0.61995000  0.20329000  0.09296000  1.0
  H  H18  1  0.95350000  0.29450000  0.27262000  1.0
  H  H19  1  0.03894000  0.70602000  0.72475000  1.0
  H  H20  1  0.78065000  0.43828000  0.61967000  1.0
  H  H21  1  0.21047000  0.56357000  0.37631000  1.0
  H  H22  1  0.20922000  0.90959000  0.91765000  1.0
  H  H23  1  0.79911000  0.08136000  0.08723000  1.0
  H  H24  1  0.97830000  0.03969000  0.23060000  1.0
  H  H25  1  0.03182000  0.95391000  0.77563000  1.0
  H  H26  1  0.26214000  0.86237000  0.31042000  1.0
  H  H27  1  0.75720000  0.14137000  0.69355000  1.0
  H  H28  1  0.36071000  0.81730000  0.40214000  1.0
  H  H29  1  0.66264000  0.19298000  0.60390000  1.0
  C  C30  1  0.67936000  0.82593000  0.38856000  1.0
  C  C31  1  0.31214000  0.18166000  0.60457000  1.0
  C  C32  1  0.79449000  0.77901000  0.42148000  1.0
  C  C33  1  0.19757000  0.23161000  0.57601000  1.0
  C  C34  1  0.85451000  0.69919000  0.32456000  1.0
  C  C35  1  0.13951000  0.30722000  0.67666000  1.0
  C  C36  1  0.79865000  0.66774000  0.19244000  1.0
  C  C37  1  0.19671000  0.33233000  0.80660000  1.0
  C  C38  1  0.68327000  0.71966000  0.16738000  1.0
  C  C39  1  0.31124000  0.27688000  0.82668000  1.0
  C  C40  1  0.62563000  0.69830000  0.03900000  1.0
  C  C41  1  0.37147000  0.29699000  0.95594000  1.0
  C  C42  1  0.68045000  0.62354000  0.93151000  1.0
  C  C43  1  0.31740000  0.37276000  0.06420000  1.0
  C  C44  1  0.79376000  0.56694000  0.95699000  1.0
  C  C45  1  0.20363000  0.42988000  0.04156000  1.0
  C  C46  1  0.85039000  0.58865000  0.08197000  1.0
  C  C47  1  0.14547000  0.40989000  0.91779000  1.0
  C  C48  1  0.61934000  0.61257000  0.80824000  1.0
  C  C49  1  0.37960000  0.38633000  0.18842000  1.0
  C  C50  1  0.51215000  0.67544000  0.79879000  1.0
  C  C51  1  0.48857000  0.32626000  0.19989000  1.0
  C  C52  1  0.46376000  0.74746000  0.91041000  1.0
  C  C53  1  0.53608000  0.25349000  0.08802000  1.0
  C  C54  1  0.97223000  0.38517000  0.37143000  1.0
  C  C55  1  0.01951000  0.61588000  0.62560000  1.0
  C  C56  1  0.85004000  0.34928000  0.43970000  1.0
  C  C57  1  0.14212000  0.65180000  0.55763000  1.0
  C  C58  1  0.87528000  0.46703000  0.56687000  1.0
  C  C59  1  0.11650000  0.53491000  0.42980000  1.0
  C  C60  1  0.69622000  0.18685000  0.38224000  1.0
  C  C61  1  0.29486000  0.81377000  0.62199000  1.0
  C  C62  1  0.20916000  0.94245000  0.16756000  1.0
  C  C63  1  0.80213000  0.05022000  0.83725000  1.0
  C  C64  1  0.10521000  0.97187000  0.08310000  1.0
  C  C65  1  0.90547000  0.02133000  0.92282000  1.0
  C  C66  1  0.11897000  0.94653000  0.95461000  1.0
  C  C67  1  0.89102000  0.04619000  0.05122000  1.0
  C  C68  1  0.99038000  0.02213000  0.13114000  1.0
  C  C69  1  0.02024000  0.97134000  0.87510000  1.0
  N  N70  1  0.62212000  0.79658000  0.26305000  1.0
  N  N71  1  0.36807000  0.20287000  0.72668000  1.0
  N  N72  1  0.51779000  0.75766000  0.02858000  1.0
  N  N73  1  0.47993000  0.23983000  0.96915000  1.0
  O  O74  1  0.66778000  0.08935000  0.26065000  1.0
  O  O75  1  0.31990000  0.90265000  0.74540000  1.0
  O  O76  1  0.60179000  0.15151000  0.45477000  1.0
  O  O77  1  0.39620000  0.86388000  0.55784000  1.0
  O  O78  1  0.31374000  0.89846000  0.11601000  1.0
  O  O79  1  0.69654000  0.09320000  0.88602000  1.0
  O  O80  1  0.18808000  0.95812000  0.28066000  1.0
  O  O81  1  0.82485000  0.03450000  0.72437000  1.0
  O  O82  1  0.32098000  0.79339000  0.30711000  1.0
  O  O83  1  0.70279000  0.21307000  0.69817000  1.0
