# generated using pymatgen
data_NiH5C5O4
_symmetry_space_group_name_H-M   'P 1'
_cell_length_a   6.75431000
_cell_length_b   15.10142053
_cell_length_c   15.10400000
_cell_angle_alpha   117.80895013
_cell_angle_beta   98.57340000
_cell_angle_gamma   98.57348235
_symmetry_Int_Tables_number   1
_chemical_formula_structural   NiH5C5O4
_chemical_formula_sum   'Ni6 H30 C30 O24'
_cell_volume   1304.67403654
_cell_formula_units_Z   6
loop_
 _symmetry_equiv_pos_site_id
 _symmetry_equiv_pos_as_xyz
  1  'x, y, z'
loop_
 _atom_site_type_symbol
 _atom_site_label
 _atom_site_symmetry_multiplicity
 _atom_site_fract_x
 _atom_site_fract_y
 _atom_site_fract_z
 _atom_site_occupancy
  Ni  Ni0  1  0.87626000  0.67924000  0.41228000  1.0
  Ni  Ni1  1  0.46387000  0.58770000  0.26695000  1.0
  Ni  Ni2  1  0.19701000  0.73306000  0.32071000  1.0
  Ni  Ni3  1  0.12374000  0.32076000  0.58772000  1.0
  Ni  Ni4  1  0.53612000  0.41229000  0.73304000  1.0
  Ni  Ni5  1  0.80298000  0.26694000  0.67929000  1.0
  H  H6  1  0.62745000  0.44038000  0.98034000  1.0
  H  H7  1  0.64717000  0.01968000  0.45991000  1.0
  H  H8  1  0.18725000  0.54001000  0.55983000  1.0
  H  H9  1  0.37255000  0.55962000  0.01966000  1.0
  H  H10  1  0.35282000  0.98033000  0.54010000  1.0
  H  H11  1  0.81274000  0.46000000  0.44018000  1.0
  H  H12  1  0.95711000  0.82886000  0.58428000  1.0
  H  H13  1  0.37212000  0.41585000  0.24489000  1.0
  H  H14  1  0.12765000  0.75539000  0.17105000  1.0
  H  H15  1  0.04289000  0.17113000  0.41570000  1.0
  H  H16  1  0.62789000  0.58415000  0.75511000  1.0
  H  H17  1  0.87235000  0.24461000  0.82894000  1.0
  H  H18  1  0.75086000  0.67915000  0.62731000  1.0
  H  H19  1  0.12351000  0.37255000  0.05197000  1.0
  H  H20  1  0.07204000  0.94830000  0.32082000  1.0
  H  H21  1  0.24914000  0.32085000  0.37269000  1.0
  H  H22  1  0.87648000  0.62744000  0.94803000  1.0
  H  H23  1  0.92797000  0.05170000  0.67918000  1.0
  H  H24  1  0.89132000  0.80872000  0.72293000  1.0
  H  H25  1  0.16799000  0.27707000  0.08623000  1.0
  H  H26  1  0.08241000  0.91417000  0.19115000  1.0
  H  H27  1  0.10869000  0.19127000  0.27706000  1.0
  H  H28  1  0.83202000  0.72293000  0.91378000  1.0
  H  H29  1  0.91760000  0.08584000  0.80885000  1.0
  H  H30  1  0.02490000  0.71599000  0.64701000  1.0
  H  H31  1  0.37777000  0.35282000  0.06937000  1.0
  H  H32  1  0.30894000  0.93092000  0.28372000  1.0
  H  H33  1  0.97511000  0.28400000  0.35298000  1.0
  H  H34  1  0.62224000  0.64718000  0.93064000  1.0
  H  H35  1  0.69108000  0.06908000  0.71628000  1.0
  C  C36  1  0.79236000  0.46607000  0.98942000  1.0
  C  C37  1  0.80301000  0.01061000  0.47660000  1.0
  C  C38  1  0.32644000  0.52341000  0.53406000  1.0
  C  C39  1  0.20763000  0.53392000  0.01058000  1.0
  C  C40  1  0.19700000  0.98940000  0.52340000  1.0
  C  C41  1  0.67354000  0.47659000  0.46594000  1.0
  C  C42  1  0.81767000  0.56490000  0.17640000  1.0
  C  C43  1  0.64118000  0.82362000  0.38850000  1.0
  C  C44  1  0.25267000  0.61154000  0.43517000  1.0
  C  C45  1  0.18232000  0.43509000  0.82360000  1.0
  C  C46  1  0.35883000  0.17639000  0.61150000  1.0
  C  C47  1  0.74733000  0.38846000  0.56484000  1.0
  C  C48  1  0.91866000  0.53511000  0.08879000  1.0
  C  C49  1  0.82986000  0.91118000  0.44618000  1.0
  C  C50  1  0.38353000  0.55379000  0.46501000  1.0
  C  C51  1  0.08136000  0.46488000  0.91121000  1.0
  C  C52  1  0.17013000  0.08882000  0.55381000  1.0
  C  C53  1  0.61647000  0.44621000  0.53499000  1.0
  C  C54  1  0.86516000  0.42904000  0.89943000  1.0
  C  C55  1  0.96577000  0.10060000  0.52968000  1.0
  C  C56  1  0.43622000  0.47029000  0.57091000  1.0
  C  C57  1  0.13482000  0.57095000  0.10058000  1.0
  C  C58  1  0.03423000  0.89940000  0.47031000  1.0
  C  C59  1  0.56376000  0.52971000  0.42909000  1.0
  C  C60  1  0.88220000  0.74265000  0.64676000  1.0
  C  C61  1  0.23513000  0.35315000  0.09617000  1.0
  C  C62  1  0.13955000  0.90414000  0.25725000  1.0
  C  C63  1  0.11781000  0.25735000  0.35323000  1.0
  C  C64  1  0.76486000  0.64684000  0.90383000  1.0
  C  C65  1  0.86045000  0.09586000  0.74274000  1.0
  O  O66  1  0.93338000  0.62220000  0.26904000  1.0
  O  O67  1  0.66422000  0.73095000  0.35313000  1.0
  O  O68  1  0.31085000  0.64681000  0.37775000  1.0
  O  O69  1  0.06663000  0.37781000  0.73097000  1.0
  O  O70  1  0.33579000  0.26906000  0.64688000  1.0
  O  O71  1  0.68914000  0.35320000  0.62225000  1.0
  O  O72  1  0.62344000  0.53155000  0.15724000  1.0
  O  O73  1  0.46609000  0.84281000  0.37446000  1.0
  O  O74  1  0.09173000  0.62567000  0.46847000  1.0
  O  O75  1  0.37655000  0.46843000  0.84275000  1.0
  O  O76  1  0.53391000  0.15719000  0.62554000  1.0
  O  O77  1  0.90827000  0.37434000  0.53154000  1.0
  O  O78  1  0.72579000  0.36195000  0.80930000  1.0
  O  O79  1  0.91651000  0.19075000  0.55276000  1.0
  O  O80  1  0.36402000  0.44722000  0.63799000  1.0
  O  O81  1  0.27421000  0.63805000  0.19070000  1.0
  O  O82  1  0.08348000  0.80925000  0.44722000  1.0
  O  O83  1  0.63597000  0.55278000  0.36201000  1.0
  O  O84  1  0.84271000  0.77153000  0.56829000  1.0
  O  O85  1  0.27395000  0.43183000  0.20342000  1.0
  O  O86  1  0.07107000  0.79683000  0.22855000  1.0
  O  O87  1  0.15730000  0.22847000  0.43171000  1.0
  O  O88  1  0.72606000  0.56817000  0.79658000  1.0
  O  O89  1  0.92893000  0.20317000  0.77145000  1.0
