# generated using pymatgen
data_ZnH11C14N3O5
_symmetry_space_group_name_H-M   'P 1'
_cell_length_a   9.13919000
_cell_length_b   10.75850000
_cell_length_c   18.50960000
_cell_angle_alpha   76.98770000
_cell_angle_beta   75.72110000
_cell_angle_gamma   64.87700000
_symmetry_Int_Tables_number   1
_chemical_formula_structural   ZnH11C14N3O5
_chemical_formula_sum   'Zn4 H44 C56 N12 O20'
_cell_volume   1581.74681275
_cell_formula_units_Z   4
loop_
 _symmetry_equiv_pos_site_id
 _symmetry_equiv_pos_as_xyz
  1  'x, y, z'
loop_
 _atom_site_type_symbol
 _atom_site_label
 _atom_site_symmetry_multiplicity
 _atom_site_fract_x
 _atom_site_fract_y
 _atom_site_fract_z
 _atom_site_occupancy
  Zn  Zn0  1  0.49107000  0.97367000  0.79999000  1.0
  Zn  Zn1  1  0.26475000  0.52630000  0.70006000  1.0
  Zn  Zn2  1  0.50893000  0.02633000  0.20001000  1.0
  Zn  Zn3  1  0.73525000  0.47370000  0.29994000  1.0
  H  H4  1  0.63817000  0.12025000  0.92518000  1.0
  H  H5  1  0.68345000  0.37977000  0.57486000  1.0
  H  H6  1  0.36183000  0.87975000  0.07482000  1.0
  H  H7  1  0.31654000  0.62023000  0.42514000  1.0
  H  H8  1  0.13115000  0.20209000  0.85261000  1.0
  H  H9  1  0.18565000  0.29797000  0.64728000  1.0
  H  H10  1  0.86885000  0.79791000  0.14739000  1.0
  H  H11  1  0.81434000  0.70203000  0.35272000  1.0
  H  H12  1  0.03887000  0.83007000  0.78211000  1.0
  H  H13  1  0.65119000  0.66995000  0.71799000  1.0
  H  H14  1  0.96113000  0.16993000  0.21788000  1.0
  H  H15  1  0.34881000  0.33005000  0.28201000  1.0
  H  H16  1  0.31799000  0.81775000  0.77932000  1.0
  H  H17  1  0.91528000  0.68213000  0.72080000  1.0
  H  H18  1  0.68201000  0.18225000  0.22068000  1.0
  H  H19  1  0.08472000  0.31787000  0.27920000  1.0
  H  H20  1  0.54010000  0.79454000  0.59863000  1.0
  H  H21  1  0.93311000  0.70556000  0.90142000  1.0
  H  H22  1  0.45990000  0.20546000  0.40137000  1.0
  H  H23  1  0.06689000  0.29444000  0.09858000  1.0
  H  H24  1  0.45277000  0.22635000  0.53382000  1.0
  H  H25  1  0.21301000  0.27377000  0.96611000  1.0
  H  H26  1  0.54724000  0.77365000  0.46618000  1.0
  H  H27  1  0.78699000  0.72623000  0.03389000  1.0
  H  H28  1  0.50893000  0.58050000  0.86268000  1.0
  H  H29  1  0.95228000  0.91968000  0.63734000  1.0
  H  H30  1  0.49107000  0.41950000  0.13732000  1.0
  H  H31  1  0.04771000  0.08032000  0.36266000  1.0
  H  H32  1  0.48827000  0.65340000  0.08539000  1.0
  H  H33  1  0.22698000  0.84655000  0.41467000  1.0
  H  H34  1  0.51174000  0.34660000  0.91461000  1.0
  H  H35  1  0.77302000  0.15345000  0.58533000  1.0
  H  H36  1  0.38828000  0.20283000  0.86399000  1.0
  H  H37  1  0.45503000  0.29720000  0.63600000  1.0
  H  H38  1  0.61172000  0.79717000  0.13601000  1.0
  H  H39  1  0.54497000  0.70280000  0.36400000  1.0
  H  H40  1  0.43651000  0.04752000  0.92509000  1.0
  H  H41  1  0.40906000  0.45256000  0.57492000  1.0
  H  H42  1  0.56349000  0.95248000  0.07491000  1.0
  H  H43  1  0.59094000  0.54744000  0.42508000  1.0
  H  H44  1  0.84231000  0.22632000  0.86458000  1.0
  H  H45  1  0.93290000  0.27379000  0.63543000  1.0
  H  H46  1  0.15769000  0.77368000  0.13542000  1.0
  H  H47  1  0.06710000  0.72621000  0.36457000  1.0
  C  C48  1  0.49211000  0.77488000  0.93744000  1.0
  C  C49  1  0.20460000  0.72520000  0.56260000  1.0
  C  C50  1  0.50789000  0.22512000  0.06256000  1.0
  C  C51  1  0.79540000  0.27480000  0.43740000  1.0
  C  C52  1  0.49683000  0.63299000  0.97051000  1.0
  C  C53  1  0.10038000  0.86708000  0.52952000  1.0
  C  C54  1  0.50317000  0.36701000  0.02949000  1.0
  C  C55  1  0.89962000  0.13292000  0.47048000  1.0
  C  C56  1  0.75266000  0.03502000  0.82255000  1.0
  C  C57  1  0.61015000  0.46507000  0.67748000  1.0
  C  C58  1  0.24734000  0.96497000  0.17745000  1.0
  C  C59  1  0.38984000  0.53494000  0.32252000  1.0
  C  C60  1  0.10489000  0.12004000  0.83992000  1.0
  C  C61  1  0.06473000  0.37998000  0.66006000  1.0
  C  C62  1  0.89511000  0.87996000  0.16008000  1.0
  C  C63  1  0.93527000  0.62002000  0.33994000  1.0
  C  C64  1  0.05352000  0.91378000  0.79930000  1.0
  C  C65  1  0.76664000  0.58625000  0.70077000  1.0
  C  C66  1  0.94648000  0.08623000  0.20070000  1.0
  C  C67  1  0.23336000  0.41375000  0.29923000  1.0
  C  C68  1  0.49144000  0.02207000  0.65379000  1.0
  C  C69  1  0.16729000  0.47811000  0.84623000  1.0
  C  C70  1  0.50857000  0.97793000  0.34621000  1.0
  C  C71  1  0.83271000  0.52189000  0.15377000  1.0
  C  C72  1  0.20948000  0.90661000  0.79752000  1.0
  C  C73  1  0.91369000  0.59336000  0.70255000  1.0
  C  C74  1  0.79052000  0.09340000  0.20248000  1.0
  C  C75  1  0.08631000  0.40665000  0.29745000  1.0
  C  C76  1  0.49649000  0.01117000  0.57427000  1.0
  C  C77  1  0.08192000  0.48895000  0.92574000  1.0
  C  C78  1  0.50351000  0.98882000  0.42574000  1.0
  C  C79  1  0.91808000  0.51105000  0.07426000  1.0
  C  C80  1  0.52367000  0.88354000  0.55488000  1.0
  C  C81  1  0.96202000  0.61651000  0.94515000  1.0
  C  C82  1  0.47634000  0.11645000  0.44512000  1.0
  C  C83  1  0.03798000  0.38349000  0.05485000  1.0
  C  C84  1  0.47259000  0.12746000  0.51892000  1.0
  C  C85  1  0.11906000  0.37262000  0.98105000  1.0
  C  C86  1  0.52742000  0.87253000  0.48108000  1.0
  C  C87  1  0.88094000  0.62738000  0.01895000  1.0
  C  C88  1  0.50561000  0.54465000  0.92277000  1.0
  C  C89  1  0.97313000  0.95544000  0.57725000  1.0
  C  C90  1  0.49439000  0.45535000  0.07723000  1.0
  C  C91  1  0.02686000  0.04456000  0.42275000  1.0
  C  C92  1  0.49149000  0.58711000  0.04786000  1.0
  C  C93  1  0.12639000  0.91288000  0.45215000  1.0
  C  C94  1  0.50851000  0.41289000  0.95214000  1.0
  C  C95  1  0.87360000  0.08712000  0.54785000  1.0
  C  C96  1  0.94392000  0.13359000  0.84575000  1.0
  C  C97  1  0.92307000  0.36647000  0.65427000  1.0
  C  C98  1  0.05608000  0.86641000  0.15425000  1.0
  C  C99  1  0.07692000  0.63353000  0.34573000  1.0
  C  C100  1  0.91781000  0.02892000  0.82422000  1.0
  C  C101  1  0.77087000  0.47116000  0.67583000  1.0
  C  C102  1  0.08219000  0.97108000  0.17578000  1.0
  C  C103  1  0.22913000  0.52884000  0.32417000  1.0
  N  N104  1  0.62687000  0.09912000  0.87494000  1.0
  N  N105  1  0.60081000  0.40096000  0.62509000  1.0
  N  N106  1  0.37313000  0.90088000  0.12506000  1.0
  N  N107  1  0.39919000  0.59904000  0.37491000  1.0
  N  N108  1  0.23521000  0.00872000  0.81639000  1.0
  N  N109  1  0.06031000  0.49126000  0.68363000  1.0
  N  N110  1  0.76478000  0.99128000  0.18361000  1.0
  N  N111  1  0.93969000  0.50874000  0.31637000  1.0
  N  N112  1  0.47192000  0.10096000  0.87468000  1.0
  N  N113  1  0.44748000  0.39909000  0.62533000  1.0
  N  N114  1  0.52808000  0.89904000  0.12532000  1.0
  N  N115  1  0.55252000  0.60091000  0.37467000  1.0
  O  O116  1  0.73608000  0.98163000  0.77299000  1.0
  O  O117  1  0.49065000  0.51847000  0.72703000  1.0
  O  O118  1  0.26392000  0.01837000  0.22701000  1.0
  O  O119  1  0.50935000  0.48154000  0.27297000  1.0
  O  O120  1  0.54980000  0.78951000  0.86700000  1.0
  O  O121  1  0.20615000  0.71050000  0.63309000  1.0
  O  O122  1  0.45020000  0.21049000  0.13300000  1.0
  O  O123  1  0.79385000  0.28950000  0.36691000  1.0
  O  O124  1  0.43182000  0.87073000  0.97890000  1.0
  O  O125  1  0.28206000  0.62950000  0.52108000  1.0
  O  O126  1  0.56818000  0.12927000  0.02110000  1.0
  O  O127  1  0.71793000  0.37051000  0.47892000  1.0
  O  O128  1  0.53270000  0.90877000  0.69967000  1.0
  O  O129  1  0.14126000  0.59141000  0.80036000  1.0
  O  O130  1  0.46730000  0.09123000  0.30033000  1.0
  O  O131  1  0.85874000  0.40859000  0.19964000  1.0
  O  O132  1  0.44459000  0.13932000  0.67508000  1.0
  O  O133  1  0.25888000  0.36086000  0.82493000  1.0
  O  O134  1  0.55541000  0.86068000  0.32492000  1.0
  O  O135  1  0.74112000  0.63914000  0.17507000  1.0
