# generated using pymatgen
data_Zn2Te2H10C3N2
_symmetry_space_group_name_H-M   'P 1'
_cell_length_a   6.83916000
_cell_length_b   6.98513000
_cell_length_c   10.68961146
_cell_angle_alpha   70.92717090
_cell_angle_beta   90.00023465
_cell_angle_gamma   89.99990000
_symmetry_Int_Tables_number   1
_chemical_formula_structural   Zn2Te2H10C3N2
_chemical_formula_sum   'Zn4 Te4 H20 C6 N4'
_cell_volume   482.63495109
_cell_formula_units_Z   2
loop_
 _symmetry_equiv_pos_site_id
 _symmetry_equiv_pos_as_xyz
  1  'x, y, z'
loop_
 _atom_site_type_symbol
 _atom_site_label
 _atom_site_symmetry_multiplicity
 _atom_site_fract_x
 _atom_site_fract_y
 _atom_site_fract_z
 _atom_site_occupancy
  Zn  Zn0  1  0.63060000  0.95185000  0.41147000  1.0
  Zn  Zn1  1  0.13060000  0.04815000  0.58853000  1.0
  Zn  Zn2  1  0.63035000  0.36308000  0.58859000  1.0
  Zn  Zn3  1  0.13035000  0.63693000  0.41141000  1.0
  Te  Te4  1  0.50877000  0.98542000  0.63528000  1.0
  Te  Te5  1  0.00876000  0.01458000  0.36472000  1.0
  Te  Te6  1  0.50868000  0.62084000  0.36467000  1.0
  Te  Te7  1  0.00868000  0.37916000  0.63533000  1.0
  H  H8  1  0.35139000  0.15299000  0.26064000  1.0
  H  H9  1  0.85140000  0.84701000  0.73935000  1.0
  H  H10  1  0.35119000  0.41351000  0.73946000  1.0
  H  H11  1  0.85119000  0.58649000  0.26054000  1.0
  H  H12  1  0.52370000  0.31815000  0.26173000  1.0
  H  H13  1  0.02371000  0.68185000  0.73827000  1.0
  H  H14  1  0.52352000  0.57975000  0.73824000  1.0
  H  H15  1  0.02352000  0.42026000  0.26176000  1.0
  H  H16  1  0.54772000  0.01619000  0.12194000  1.0
  H  H17  1  0.04772000  0.98381000  0.87806000  1.0
  H  H18  1  0.54766000  0.13801000  0.87820000  1.0
  H  H19  1  0.04767000  0.86199000  0.12180000  1.0
  H  H20  1  0.73018000  0.19495000  0.12035000  1.0
  H  H21  1  0.23018000  0.80505000  0.87965000  1.0
  H  H22  1  0.73001000  0.31536000  0.87967000  1.0
  H  H23  1  0.23001000  0.68464000  0.12034000  1.0
  H  H24  1  0.31786000  0.29574000  0.00012000  1.0
  H  H25  1  0.81787000  0.70426000  0.99988000  1.0
  H  H26  1  0.49815000  0.47880000  0.00009000  1.0
  H  H27  1  0.99816000  0.52120000  0.99991000  1.0
  C  C28  1  0.57064000  0.17196000  0.12273000  1.0
  C  C29  1  0.07065000  0.82805000  0.87726000  1.0
  C  C30  1  0.57045000  0.29466000  0.87732000  1.0
  C  C31  1  0.07045000  0.70533000  0.12268000  1.0
  C  C32  1  0.47690000  0.32230000  0.00005000  1.0
  C  C33  1  0.97691000  0.67770000  0.99995000  1.0
  N  N34  1  0.50020000  0.17841000  0.25114000  1.0
  N  N35  1  0.00021000  0.82159000  0.74886000  1.0
  N  N36  1  0.49999000  0.42941000  0.74889000  1.0
  N  N37  1  0.99999000  0.57060000  0.25110000  1.0
