# generated using pymatgen
data_CdH9C15S2NOF8
_symmetry_space_group_name_H-M   'P 1'
_cell_length_a   7.42412000
_cell_length_b   13.77190000
_cell_length_c   19.18230000
_cell_angle_alpha   110.01700000
_cell_angle_beta   90.00000000
_cell_angle_gamma   90.00000000
_symmetry_Int_Tables_number   1
_chemical_formula_structural   CdH9C15S2NOF8
_chemical_formula_sum   'Cd4 H36 C60 S8 N4 O4 F32'
_cell_volume   1842.80090466
_cell_formula_units_Z   4
loop_
 _symmetry_equiv_pos_site_id
 _symmetry_equiv_pos_as_xyz
  1  'x, y, z'
loop_
 _atom_site_type_symbol
 _atom_site_label
 _atom_site_symmetry_multiplicity
 _atom_site_fract_x
 _atom_site_fract_y
 _atom_site_fract_z
 _atom_site_occupancy
  Cd  Cd0  1  0.75811000  0.46261000  0.98416000  1.0
  Cd  Cd1  1  0.25811000  0.03739000  0.51584000  1.0
  Cd  Cd2  1  0.24189000  0.53739000  0.01584000  1.0
  Cd  Cd3  1  0.74189000  0.96261000  0.48416000  1.0
  H  H4  1  0.74588000  0.98936000  0.02851000  1.0
  H  H5  1  0.24590000  0.51064000  0.47150000  1.0
  H  H6  1  0.25411000  0.01064000  0.97149000  1.0
  H  H7  1  0.75411000  0.48935000  0.52850000  1.0
  H  H8  1  0.60848000  0.79863000  0.78386000  1.0
  H  H9  1  0.10848000  0.70137000  0.71613000  1.0
  H  H10  1  0.39152000  0.20137000  0.21614000  1.0
  H  H11  1  0.89151000  0.29863000  0.28386000  1.0
  H  H12  1  0.69596000  0.06423000  0.69731000  1.0
  H  H13  1  0.19596000  0.43577000  0.80269000  1.0
  H  H14  1  0.30405000  0.93577000  0.30269000  1.0
  H  H15  1  0.80405000  0.56423000  0.19731000  1.0
  H  H16  1  0.55339000  0.17463000  0.72193000  1.0
  H  H17  1  0.05338000  0.32538000  0.77807000  1.0
  H  H18  1  0.44663000  0.82538000  0.27807000  1.0
  H  H19  1  0.94663000  0.67463000  0.22193000  1.0
  H  H20  1  0.49185000  0.06561000  0.74733000  1.0
  H  H21  1  0.99184000  0.43439000  0.75267000  1.0
  H  H22  1  0.50816000  0.93439000  0.25267000  1.0
  H  H23  1  0.00816000  0.56561000  0.24733000  1.0
  H  H24  1  0.68380000  0.02225000  0.83577000  1.0
  H  H25  1  0.18380000  0.47775000  0.66422000  1.0
  H  H26  1  0.31620000  0.97775000  0.16423000  1.0
  H  H27  1  0.81621000  0.52225000  0.33577000  1.0
  H  H28  1  0.79015000  0.12936000  0.90480000  1.0
  H  H29  1  0.29015000  0.37063000  0.59519000  1.0
  H  H30  1  0.20984000  0.87065000  0.09520000  1.0
  H  H31  1  0.70985000  0.62936000  0.40480000  1.0
  H  H32  1  0.90837000  0.05913000  0.82193000  1.0
  H  H33  1  0.40837000  0.44086000  0.67806000  1.0
  H  H34  1  0.09164000  0.94087000  0.17807000  1.0
  H  H35  1  0.59163000  0.55913000  0.32193000  1.0
  H  H36  1  0.65190000  0.30581000  0.81283000  1.0
  H  H37  1  0.15189000  0.19419000  0.68717000  1.0
  H  H38  1  0.34812000  0.69419000  0.18717000  1.0
  H  H39  1  0.84811000  0.80581000  0.31283000  1.0
  C  C40  1  0.45241000  0.68562000  0.90536000  1.0
  C  C41  1  0.95241000  0.81438000  0.59464000  1.0
  C  C42  1  0.54759000  0.31438000  0.09464000  1.0
  C  C43  1  0.04758000  0.18562000  0.40536000  1.0
  C  C44  1  0.94414000  0.76241000  0.92322000  1.0
  C  C45  1  0.44416000  0.73758000  0.57678000  1.0
  C  C46  1  0.05585000  0.23759000  0.07677000  1.0
  C  C47  1  0.55584000  0.26241000  0.42322000  1.0
  C  C48  1  0.81190000  0.74552000  0.03164000  1.0
  C  C49  1  0.31191000  0.75448000  0.46837000  1.0
  C  C50  1  0.18811000  0.25447000  0.96836000  1.0
  C  C51  1  0.68809000  0.24552000  0.53163000  1.0
  C  C52  1  0.60486000  0.56216000  0.80444000  1.0
  C  C53  1  0.10486000  0.93784000  0.69555000  1.0
  C  C54  1  0.39514000  0.43785000  0.19556000  1.0
  C  C55  1  0.89513000  0.06216000  0.30444000  1.0
  C  C56  1  0.48702000  0.76131000  0.87423000  1.0
  C  C57  1  0.98701000  0.73868000  0.62576000  1.0
  C  C58  1  0.51299000  0.23869000  0.12577000  1.0
  C  C59  1  0.01297000  0.26131000  0.37423000  1.0
  C  C60  1  0.64155000  0.63852000  0.77418000  1.0
  C  C61  1  0.14154000  0.86148000  0.72582000  1.0
  C  C62  1  0.35845000  0.36148000  0.22582000  1.0
  C  C63  1  0.85844000  0.13852000  0.27418000  1.0
  C  C64  1  0.88718000  0.86479000  0.94573000  1.0
  C  C65  1  0.38720000  0.63521000  0.55428000  1.0
  C  C66  1  0.11281000  0.13521000  0.05427000  1.0
  C  C67  1  0.61280000  0.36479000  0.44573000  1.0
  C  C68  1  0.79162000  0.90955000  0.01117000  1.0
  C  C69  1  0.29163000  0.59045000  0.48884000  1.0
  C  C70  1  0.20837000  0.09044000  0.98884000  1.0
  C  C71  1  0.70836000  0.40955000  0.51116000  1.0
  C  C72  1  0.58167000  0.73940000  0.80815000  1.0
  C  C73  1  0.08167000  0.76060000  0.69185000  1.0
  C  C74  1  0.41834000  0.26060000  0.19185000  1.0
  C  C75  1  0.91833000  0.23940000  0.30815000  1.0
  C  C76  1  0.60486000  0.11275000  0.74032000  1.0
  C  C77  1  0.10486000  0.38726000  0.75968000  1.0
  C  C78  1  0.39514000  0.88726000  0.25968000  1.0
  C  C79  1  0.89515000  0.61275000  0.24032000  1.0
  C  C80  1  0.77559000  0.08785000  0.84519000  1.0
  C  C81  1  0.27559000  0.41215000  0.65481000  1.0
  C  C82  1  0.22441000  0.91215000  0.15481000  1.0
  C  C83  1  0.72442000  0.58785000  0.34519000  1.0
  C  C84  1  0.75489000  0.84785000  0.05352000  1.0
  C  C85  1  0.25490000  0.65215000  0.44649000  1.0
  C  C86  1  0.24511000  0.15215000  0.94648000  1.0
  C  C87  1  0.74510000  0.34785000  0.55351000  1.0
  C  C88  1  0.72072000  0.25932000  0.84159000  1.0
  C  C89  1  0.22071000  0.24068000  0.65841000  1.0
  C  C90  1  0.27929000  0.74068000  0.15841000  1.0
  C  C91  1  0.77929000  0.75931000  0.34158000  1.0
  C  C92  1  0.90650000  0.69883000  0.96519000  1.0
  C  C93  1  0.40651000  0.80117000  0.53482000  1.0
  C  C94  1  0.09350000  0.30117000  0.03481000  1.0
  C  C95  1  0.59349000  0.19883000  0.46519000  1.0
  C  C96  1  0.50832000  0.58292000  0.87097000  1.0
  C  C97  1  0.00832000  0.91707000  0.62903000  1.0
  C  C98  1  0.49168000  0.41707000  0.12903000  1.0
  C  C99  1  0.99168000  0.08292000  0.37097000  1.0
  S  S100  1  0.97197000  0.56909000  0.93134000  1.0
  S  S101  1  0.47197000  0.93091000  0.56866000  1.0
  S  S102  1  0.02804000  0.43091000  0.06866000  1.0
  S  S103  1  0.52803000  0.06909000  0.43134000  1.0
  S  S104  1  0.46429000  0.48246000  0.90453000  1.0
  S  S105  1  0.96429000  0.01753000  0.59547000  1.0
  S  S106  1  0.53571000  0.51754000  0.09547000  1.0
  S  S107  1  0.03570000  0.98246000  0.40453000  1.0
  N  N108  1  0.70072000  0.15761000  0.81018000  1.0
  N  N109  1  0.20072000  0.34239000  0.68982000  1.0
  N  N110  1  0.29928000  0.84239000  0.18982000  1.0
  N  N111  1  0.79928000  0.65761000  0.31018000  1.0
  O  O112  1  0.80989000  0.30060000  0.90020000  1.0
  O  O113  1  0.30990000  0.19939000  0.59980000  1.0
  O  O114  1  0.19012000  0.69940000  0.09981000  1.0
  O  O115  1  0.69010000  0.80061000  0.40020000  1.0
  F  F116  1  0.03483000  0.72311000  0.85812000  1.0
  F  F117  1  0.53485000  0.77689000  0.64189000  1.0
  F  F118  1  0.96516000  0.27689000  0.14188000  1.0
  F  F119  1  0.46515000  0.22311000  0.35812000  1.0
  F  F120  1  0.36454000  0.71385000  0.97142000  1.0
  F  F121  1  0.86454000  0.78614000  0.52857000  1.0
  F  F122  1  0.63547000  0.28614000  0.02857000  1.0
  F  F123  1  0.13546000  0.21386000  0.47142000  1.0
  F  F124  1  0.66416000  0.46442000  0.76806000  1.0
  F  F125  1  0.16415000  0.03558000  0.73194000  1.0
  F  F126  1  0.33584000  0.53559000  0.23194000  1.0
  F  F127  1  0.83584000  0.96441000  0.26806000  1.0
  F  F128  1  0.73819000  0.61319000  0.71049000  1.0
  F  F129  1  0.23817000  0.88681000  0.78951000  1.0
  F  F130  1  0.26182000  0.38681000  0.28951000  1.0
  F  F131  1  0.76181000  0.11319000  0.21048000  1.0
  F  F132  1  0.42889000  0.85924000  0.91070000  1.0
  F  F133  1  0.92888000  0.64075000  0.58930000  1.0
  F  F134  1  0.57112000  0.14076000  0.08930000  1.0
  F  F135  1  0.07110000  0.35925000  0.41070000  1.0
  F  F136  1  0.92283000  0.92109000  0.90123000  1.0
  F  F137  1  0.42286000  0.57891000  0.59877000  1.0
  F  F138  1  0.07716000  0.07890000  0.09876000  1.0
  F  F139  1  0.57714000  0.42109000  0.40124000  1.0
  F  F140  1  0.66012000  0.88732000  0.11761000  1.0
  F  F141  1  0.16013000  0.61268000  0.38240000  1.0
  F  F142  1  0.33988000  0.11268000  0.88239000  1.0
  F  F143  1  0.83988000  0.38731000  0.61761000  1.0
  F  F144  1  0.77065000  0.69005000  0.07601000  1.0
  F  F145  1  0.27064000  0.80995000  0.42400000  1.0
  F  F146  1  0.22936000  0.30995000  0.92399000  1.0
  F  F147  1  0.72935000  0.19005000  0.57601000  1.0
