# generated using pymatgen
data_Zr3H11C69(Br15O8)2
_symmetry_space_group_name_H-M   'P 1'
_cell_length_a   19.96720000
_cell_length_b   20.00520000
_cell_length_c   20.03630000
_cell_angle_alpha   94.42280000
_cell_angle_beta   93.36650000
_cell_angle_gamma   94.15770000
_symmetry_Int_Tables_number   1
_chemical_formula_structural   Zr3H11C69(Br15O8)2
_chemical_formula_sum   'Zr6 H22 C138 Br60 O32'
_cell_volume   7941.96036502
_cell_formula_units_Z   2
loop_
 _symmetry_equiv_pos_site_id
 _symmetry_equiv_pos_as_xyz
  1  'x, y, z'
loop_
 _atom_site_type_symbol
 _atom_site_label
 _atom_site_symmetry_multiplicity
 _atom_site_fract_x
 _atom_site_fract_y
 _atom_site_fract_z
 _atom_site_occupancy
  Zr  Zr0  1  0.81246000  0.96458000  0.86861000  1.0
  Zr  Zr1  1  0.77603000  0.86194000  0.00103000  1.0
  Zr  Zr2  1  0.98002000  0.99863000  0.93820000  1.0
  Zr  Zr3  1  0.91321000  0.83129000  0.90212000  1.0
  Zr  Zr4  1  0.84111000  0.03125000  0.03528000  1.0
  Zr  Zr5  1  0.94135000  0.89781000  0.07123000  1.0
  H  H6  1  0.92739000  0.30311000  0.60089000  1.0
  H  H7  1  0.93520000  0.28234000  0.38608000  1.0
  H  H8  1  0.96348000  0.11220000  0.50038000  1.0
  H  H9  1  0.79830000  0.75171000  0.44062000  1.0
  H  H10  1  0.84496000  0.58984000  0.56040000  1.0
  H  H11  1  0.84431000  0.56169000  0.34497000  1.0
  H  H12  1  0.24931000  0.55229000  0.99897000  1.0
  H  H13  1  0.21236000  0.33652000  0.98755000  1.0
  H  H14  1  0.05214000  0.46287000  0.03061000  1.0
  H  H15  1  0.50447000  0.31081000  0.91823000  1.0
  H  H16  1  0.54787000  0.52569000  0.94209000  1.0
  H  H17  1  0.70808000  0.39610000  0.91201000  1.0
  H  H18  1  0.48919000  0.88939000  0.32094000  1.0
  H  H19  1  0.27582000  0.90848000  0.30663000  1.0
  H  H20  1  0.39838000  0.98563000  0.15692000  1.0
  H  H21  1  0.25440000  0.84518000  0.59452000  1.0
  H  H22  1  0.47018000  0.85695000  0.62749000  1.0
  H  H23  1  0.34567000  0.85305000  0.79537000  1.0
  H  H24  1  0.77436000  0.82358000  0.86148000  1.0
  H  H25  1  0.87863000  0.08972000  0.91737000  1.0
  H  H26  1  0.03700000  0.87933000  0.97349000  1.0
  H  H27  1  0.82001000  0.93196000  0.12710000  1.0
  C  C28  1  0.94874000  0.20521000  0.55769000  1.0
  C  C29  1  0.93625000  0.27290000  0.55506000  1.0
  C  C30  1  0.93203000  0.30095000  0.49311000  1.0
  C  C31  1  0.94069000  0.26100000  0.43436000  1.0
  C  C32  1  0.95132000  0.19273000  0.43632000  1.0
  C  C33  1  0.95682000  0.16560000  0.49830000  1.0
  C  C34  1  0.81877000  0.65922000  0.38542000  1.0
  C  C35  1  0.80944000  0.69949000  0.44404000  1.0
  C  C36  1  0.81920000  0.67508000  0.50701000  1.0
  C  C37  1  0.83582000  0.60885000  0.51136000  1.0
  C  C38  1  0.84384000  0.56760000  0.45316000  1.0
  C  C39  1  0.83548000  0.59289000  0.39015000  1.0
  C  C40  1  0.14812000  0.51474000  0.01627000  1.0
  C  C41  1  0.21530000  0.50787000  0.00314000  1.0
  C  C42  1  0.23851000  0.44365000  0.99298000  1.0
  C  C43  1  0.19441000  0.38643000  0.99645000  1.0
  C  C44  1  0.12735000  0.39322000  0.01080000  1.0
  C  C45  1  0.10472000  0.45736000  0.02094000  1.0
  C  C46  1  0.60888000  0.34592000  0.91379000  1.0
  C  C47  1  0.54052000  0.35457000  0.91991000  1.0
  C  C48  1  0.51844000  0.41903000  0.93134000  1.0
  C  C49  1  0.56469000  0.47528000  0.93326000  1.0
  C  C50  1  0.63274000  0.46697000  0.92477000  1.0
  C  C51  1  0.65469000  0.40242000  0.91616000  1.0
  C  C52  1  0.45213000  0.93748000  0.23438000  1.0
  C  C53  1  0.44549000  0.90688000  0.29448000  1.0
  C  C54  1  0.38291000  0.90050000  0.32243000  1.0
  C  C55  1  0.32502000  0.91675000  0.28643000  1.0
  C  C56  1  0.33072000  0.94494000  0.22517000  1.0
  C  C57  1  0.39433000  0.95943000  0.20227000  1.0
  C  C58  1  0.29255000  0.84762000  0.69791000  1.0
  C  C59  1  0.29902000  0.84621000  0.62868000  1.0
  C  C60  1  0.36283000  0.84998000  0.60319000  1.0
  C  C61  1  0.42033000  0.85236000  0.64696000  1.0
  C  C62  1  0.41393000  0.85217000  0.71605000  1.0
  C  C63  1  0.35027000  0.85025000  0.74130000  1.0
  C  C64  1  0.92437000  0.05360000  0.79612000  1.0
  C  C65  1  0.66536000  0.89174000  0.88081000  1.0
  C  C66  1  0.84191000  0.84585000  0.75594000  1.0
  C  C67  1  0.74663000  0.10003000  0.93024000  1.0
  C  C68  1  0.83232000  0.80398000  0.14165000  1.0
  C  C69  1  0.08757000  0.97373000  0.06142000  1.0
  C  C70  1  0.79797000  0.71599000  0.93171000  1.0
  C  C71  1  0.69848000  0.96452000  0.09179000  1.0
  C  C72  1  0.96132000  0.14471000  0.01375000  1.0
  C  C73  1  0.05143000  0.89054000  0.84219000  1.0
  C  C74  1  0.99773000  0.75508000  0.01069000  1.0
  C  C75  1  0.91747000  0.02792000  0.17960000  1.0
  C  C76  1  0.14543000  0.81760000  0.80753000  1.0
  C  C77  1  0.11025000  0.87554000  0.80029000  1.0
  C  C78  1  0.13196000  0.92023000  0.75355000  1.0
  C  C79  1  0.19054000  0.91069000  0.71968000  1.0
  C  C80  1  0.22688000  0.85384000  0.72811000  1.0
  C  C81  1  0.20179000  0.80630000  0.77059000  1.0
  C  C82  1  0.50496000  0.80620000  0.78843000  1.0
  C  C83  1  0.47465000  0.86107000  0.76332000  1.0
  C  C84  1  0.50210000  0.92636000  0.78509000  1.0
  C  C85  1  0.56217000  0.93648000  0.82550000  1.0
  C  C86  1  0.59490000  0.88114000  0.84751000  1.0
  C  C87  1  0.56336000  0.81591000  0.83202000  1.0
  C  C88  1  0.24130000  0.01770000  0.18287000  1.0
  C  C89  1  0.27067000  0.95594000  0.18097000  1.0
  C  C90  1  0.24422000  0.90394000  0.13293000  1.0
  C  C91  1  0.18993000  0.91398000  0.08850000  1.0
  C  C92  1  0.15759000  0.97375000  0.09470000  1.0
  C  C93  1  0.18463000  0.02650000  0.14046000  1.0
  C  C94  1  0.63893000  0.96922000  0.20095000  1.0
  C  C95  1  0.63583000  0.96585000  0.13093000  1.0
  C  C96  1  0.57283000  0.95016000  0.09605000  1.0
  C  C97  1  0.51632000  0.93233000  0.13059000  1.0
  C  C98  1  0.51658000  0.94526000  0.20125000  1.0
  C  C99  1  0.57944000  0.96624000  0.23550000  1.0
  C  C100  1  0.38133000  0.92603000  0.51143000  1.0
  C  C101  1  0.36931000  0.86021000  0.53082000  1.0
  C  C102  1  0.36256000  0.80666000  0.48054000  1.0
  C  C103  1  0.36706000  0.81852000  0.41262000  1.0
  C  C104  1  0.37880000  0.88417000  0.39340000  1.0
  C  C105  1  0.38609000  0.93780000  0.44375000  1.0
  C  C106  1  0.66054000  0.17891000  0.97003000  1.0
  C  C107  1  0.70359000  0.15827000  0.92005000  1.0
  C  C108  1  0.70915000  0.19653000  0.86404000  1.0
  C  C109  1  0.67427000  0.25484000  0.85956000  1.0
  C  C110  1  0.63603000  0.27862000  0.91209000  1.0
  C  C111  1  0.62914000  0.23917000  0.96694000  1.0
  C  C112  1  0.72687000  0.54740000  0.98029000  1.0
  C  C113  1  0.68208000  0.52628000  0.92435000  1.0
  C  C114  1  0.68616000  0.56124000  0.86619000  1.0
  C  C115  1  0.72975000  0.61944000  0.86582000  1.0
  C  C116  1  0.76816000  0.64411000  0.92440000  1.0
  C  C117  1  0.77042000  0.60551000  0.97981000  1.0
  C  C118  1  0.02978000  0.24439000  0.07744000  1.0
  C  C119  1  0.99236000  0.21625000  0.01957000  1.0
  C  C120  1  0.99030000  0.25224000  0.96232000  1.0
  C  C121  1  0.03422000  0.30954000  0.95895000  1.0
  C  C122  1  0.07890000  0.33345000  0.01430000  1.0
  C  C123  1  0.07381000  0.30197000  0.07444000  1.0
  C  C124  1  0.07642000  0.68107000  0.07419000  1.0
  C  C125  1  0.03414000  0.69161000  0.01699000  1.0
  C  C126  1  0.03170000  0.64255000  0.96099000  1.0
  C  C127  1  0.07705000  0.59223000  0.95939000  1.0
  C  C128  1  0.11605000  0.57973000  0.01715000  1.0
  C  C129  1  0.11486000  0.62453000  0.07434000  1.0
  C  C130  1  0.42905000  0.43616000  0.01307000  1.0
  C  C131  1  0.44682000  0.42649000  0.94617000  1.0
  C  C132  1  0.39509000  0.42242000  0.89489000  1.0
  C  C133  1  0.32764000  0.42746000  0.90990000  1.0
  C  C134  1  0.30994000  0.43685000  0.97678000  1.0
  C  C135  1  0.36163000  0.44099000  0.02811000  1.0
  C  C136  1  0.76992000  0.71933000  0.21228000  1.0
  C  C137  1  0.82295000  0.76914000  0.20562000  1.0
  C  C138  1  0.87163000  0.78302000  0.26062000  1.0
  C  C139  1  0.87212000  0.74264000  0.31471000  1.0
  C  C140  1  0.81971000  0.69306000  0.32151000  1.0
  C  C141  1  0.76856000  0.68273000  0.26979000  1.0
  C  C142  1  0.76362000  0.74006000  0.59993000  1.0
  C  C143  1  0.82161000  0.72246000  0.56834000  1.0
  C  C144  1  0.88448000  0.75315000  0.59457000  1.0
  C  C145  1  0.88891000  0.79994000  0.65045000  1.0
  C  C146  1  0.83158000  0.81211000  0.68557000  1.0
  C  C147  1  0.76840000  0.78426000  0.65852000  1.0
  C  C148  1  0.99574000  0.10918000  0.34987000  1.0
  C  C149  1  0.94481000  0.14860000  0.37261000  1.0
  C  C150  1  0.88400000  0.14524000  0.33263000  1.0
  C  C151  1  0.87752000  0.11197000  0.26792000  1.0
  C  C152  1  0.92714000  0.06849000  0.24696000  1.0
  C  C153  1  0.98530000  0.06599000  0.29060000  1.0
  C  C154  1  0.89110000  0.12049000  0.62395000  1.0
  C  C155  1  0.94446000  0.16985000  0.62028000  1.0
  C  C156  1  0.99324000  0.17937000  0.67426000  1.0
  C  C157  1  0.98883000  0.14193000  0.73103000  1.0
  C  C158  1  0.93591000  0.09091000  0.73385000  1.0
  C  C159  1  0.88929000  0.07849000  0.67683000  1.0
  C  C160  1  0.93432000  0.48597000  0.45764000  1.0
  C  C161  1  0.86616000  0.49896000  0.46136000  1.0
  C  C162  1  0.82066000  0.44661000  0.47773000  1.0
  C  C163  1  0.84249000  0.38333000  0.49041000  1.0
  C  C164  1  0.91058000  0.37014000  0.48611000  1.0
  C  C165  1  0.95609000  0.42254000  0.46984000  1.0
  Br  Br166  1  0.24547000  0.72549000  0.77639000  1.0
  Br  Br167  1  0.11882000  0.75433000  0.86849000  1.0
  Br  Br168  1  0.22372000  0.97773000  0.66530000  1.0
  Br  Br169  1  0.08073000  0.99279000  0.73356000  1.0
  Br  Br170  1  0.59889000  0.74042000  0.86829000  1.0
  Br  Br171  1  0.46490000  0.71867000  0.76170000  1.0
  Br  Br172  1  0.59625000  0.02566000  0.85272000  1.0
  Br  Br173  1  0.45584000  0.00055000  0.75902000  1.0
  Br  Br174  1  0.14096000  0.10725000  0.14557000  1.0
  Br  Br175  1  0.27811000  0.08852000  0.24552000  1.0
  Br  Br176  1  0.15995000  0.84865000  0.01672000  1.0
  Br  Br177  1  0.28029000  0.81880000  0.13110000  1.0
  Br  Br178  1  0.58586000  0.99438000  0.32859000  1.0
  Br  Br179  1  0.72445000  0.96964000  0.24807000  1.0
  Br  Br180  1  0.44257000  0.88314000  0.08010000  1.0
  Br  Br181  1  0.56539000  0.95227000  0.00207000  1.0
  Br  Br182  1  0.40181000  0.02675000  0.41838000  1.0
  Br  Br183  1  0.39073000  0.99909000  0.57818000  1.0
  Br  Br184  1  0.35725000  0.74668000  0.34448000  1.0
  Br  Br185  1  0.34763000  0.71808000  0.50682000  1.0
  Br  Br186  1  0.58102000  0.27084000  0.04057000  1.0
  Br  Br187  1  0.64281000  0.12537000  0.04142000  1.0
  Br  Br188  1  0.67784000  0.30332000  0.78180000  1.0
  Br  Br189  1  0.76684000  0.17262000  0.79541000  1.0
  Br  Br190  1  0.83556000  0.63307000  0.05116000  1.0
  Br  Br191  1  0.72596000  0.49771000  0.05703000  1.0
  Br  Br192  1  0.73731000  0.66588000  0.78743000  1.0
  Br  Br193  1  0.63176000  0.52867000  0.78813000  1.0
  Br  Br194  1  0.12785000  0.33822000  0.15143000  1.0
  Br  Br195  1  0.01705000  0.20539000  0.15946000  1.0
  Br  Br196  1  0.03487000  0.35501000  0.87962000  1.0
  Br  Br197  1  0.92173000  0.22424000  0.89360000  1.0
  Br  Br198  1  0.16692000  0.60529000  0.15189000  1.0
  Br  Br199  1  0.08215000  0.73939000  0.15374000  1.0
  Br  Br200  1  0.08764000  0.53879000  0.87876000  1.0
  Br  Br201  1  0.96393000  0.63362000  0.88987000  1.0
  Br  Br202  1  0.33787000  0.45238000  0.11830000  1.0
  Br  Br203  1  0.49801000  0.44226000  0.08303000  1.0
  Br  Br204  1  0.25850000  0.42245000  0.84027000  1.0
  Br  Br205  1  0.41883000  0.41124000  0.80467000  1.0
  Br  Br206  1  0.69633000  0.61829000  0.28106000  1.0
  Br  Br207  1  0.69733000  0.70092000  0.14670000  1.0
  Br  Br208  1  0.94506000  0.75367000  0.38084000  1.0
  Br  Br209  1  0.93307000  0.86066000  0.26978000  1.0
  Br  Br210  1  0.68985000  0.80574000  0.70212000  1.0
  Br  Br211  1  0.67890000  0.70087000  0.56317000  1.0
  Br  Br212  1  0.97030000  0.85158000  0.67733000  1.0
  Br  Br213  1  0.96445000  0.72848000  0.55606000  1.0
  Br  Br214  1  0.05282000  0.00688000  0.27069000  1.0
  Br  Br215  1  0.07939000  0.11632000  0.40093000  1.0
  Br  Br216  1  0.80109000  0.13101000  0.21376000  1.0
  Br  Br217  1  0.80875000  0.18484000  0.36877000  1.0
  Br  Br218  1  0.82751000  0.00168000  0.66390000  1.0
  Br  Br219  1  0.81976000  0.11253000  0.55585000  1.0
  Br  Br220  1  0.05688000  0.16219000  0.80110000  1.0
  Br  Br221  1  0.06647000  0.24397000  0.66737000  1.0
  Br  Br222  1  0.04812000  0.40580000  0.46578000  1.0
  Br  Br223  1  0.99670000  0.55628000  0.43697000  1.0
  Br  Br224  1  0.77984000  0.31394000  0.51283000  1.0
  Br  Br225  1  0.72860000  0.46342000  0.48156000  1.0
  O  O226  1  0.97271000  0.04771000  0.83881000  1.0
  O  O227  1  0.67949000  0.86401000  0.93396000  1.0
  O  O228  1  0.81516000  0.89989000  0.77123000  1.0
  O  O229  1  0.75285000  0.05714000  0.88158000  1.0
  O  O230  1  0.77533000  0.10013000  0.98885000  1.0
  O  O231  1  0.87715000  0.81296000  0.79513000  1.0
  O  O232  1  0.70611000  0.92750000  0.84890000  1.0
  O  O233  1  0.86357000  0.03158000  0.80208000  1.0
  O  O234  1  0.79232000  0.95773000  0.96814000  1.0
  O  O235  1  0.90776000  0.93181000  0.88630000  1.0
  O  O236  1  0.80334000  0.85422000  0.89252000  1.0
  O  O237  1  0.87859000  0.04464000  0.93257000  1.0
  O  O238  1  0.78335000  0.80796000  0.09938000  1.0
  O  O239  1  0.07615000  0.00314000  0.00890000  1.0
  O  O240  1  0.85011000  0.73268000  0.90256000  1.0
  O  O241  1  0.73850000  0.01598000  0.08948000  1.0
  O  O242  1  0.90640000  0.13071000  0.03926000  1.0
  O  O243  1  0.00527000  0.84381000  0.84408000  1.0
  O  O244  1  0.99216000  0.79651000  0.06073000  1.0
  O  O245  1  0.94219000  0.97184000  0.16941000  1.0
  O  O246  1  0.97672000  0.76413000  0.95085000  1.0
  O  O247  1  0.88193000  0.05506000  0.13579000  1.0
  O  O248  1  0.76318000  0.75453000  0.96721000  1.0
  O  O249  1  0.05351000  0.94877000  0.87320000  1.0
  O  O250  1  0.99649000  0.10456000  0.98045000  1.0
  O  O251  1  0.70426000  0.90579000  0.06393000  1.0
  O  O252  1  0.89247000  0.82741000  0.13410000  1.0
  O  O253  1  0.04499000  0.93915000  0.09270000  1.0
  O  O254  1  0.93115000  0.98683000  0.02527000  1.0
  O  O255  1  0.87690000  0.84772000  0.99664000  1.0
  O  O256  1  0.99169000  0.89469000  0.97206000  1.0
  O  O257  1  0.83686000  0.93136000  0.08254000  1.0
