# generated using pymatgen
data_Al3H24(C22O7)2
_symmetry_space_group_name_H-M   'P 1'
_cell_length_a   12.66730000
_cell_length_b   12.80370000
_cell_length_c   28.66520000
_cell_angle_alpha   89.88140000
_cell_angle_beta   89.89660000
_cell_angle_gamma   60.88970000
_symmetry_Int_Tables_number   1
_chemical_formula_structural   Al3H24(C22O7)2
_chemical_formula_sum   'Al6 H48 C88 O28'
_cell_volume   4061.89021680
_cell_formula_units_Z   2
loop_
 _symmetry_equiv_pos_site_id
 _symmetry_equiv_pos_as_xyz
  1  'x, y, z'
loop_
 _atom_site_type_symbol
 _atom_site_label
 _atom_site_symmetry_multiplicity
 _atom_site_fract_x
 _atom_site_fract_y
 _atom_site_fract_z
 _atom_site_occupancy
  Al  Al0  1  0.58767000  0.59045000  0.50108000  1.0
  Al  Al1  1  0.34164000  0.57648000  0.49938000  1.0
  Al  Al2  1  0.57534000  0.34500000  0.49947000  1.0
  Al  Al3  1  0.08024000  0.07833000  0.00014000  1.0
  Al  Al4  1  0.09004000  0.32477000  0.00053000  1.0
  Al  Al5  1  0.32504000  0.09460000  0.00091000  1.0
  H  H6  1  0.20684000  0.52988000  0.22027000  1.0
  H  H7  1  0.79072000  0.52197000  0.29322000  1.0
  H  H8  1  0.47811000  0.82742000  0.29970000  1.0
  H  H9  1  0.48073000  0.86504000  0.21474000  1.0
  H  H10  1  0.16011000  0.83351000  0.19746000  1.0
  H  H11  1  0.52971000  0.22674000  0.71148000  1.0
  H  H12  1  0.51398000  0.21208000  0.79760000  1.0
  H  H13  1  0.12962000  0.45114000  0.78993000  1.0
  H  H14  1  0.14538000  0.46598000  0.70383000  1.0
  H  H15  1  0.99743000  0.30758000  0.69234000  1.0
  H  H16  1  0.14436000  0.40499000  0.28730000  1.0
  H  H17  1  0.03465000  0.30395000  0.77766000  1.0
  H  H18  1  0.68507000  0.33616000  0.80538000  1.0
  H  H19  1  0.64774000  0.34012000  0.72003000  1.0
  H  H20  1  0.14250000  0.93619000  0.70264000  1.0
  H  H21  1  0.13705000  0.98022000  0.78776000  1.0
  H  H22  1  0.52286000  0.75328000  0.79482000  1.0
  H  H23  1  0.54044000  0.25000000  0.21279000  1.0
  H  H24  1  0.25868000  0.19617000  0.23173000  1.0
  H  H25  1  0.82655000  0.18023000  0.19941000  1.0
  H  H26  1  0.82886000  0.51476000  0.20716000  1.0
  H  H27  1  0.16600000  0.71526000  0.35601000  1.0
  H  H28  1  0.07788000  0.87222000  0.35025000  1.0
  H  H29  1  0.01316000  0.77948000  0.33819000  1.0
  H  H30  1  0.04942000  0.83549000  0.26287000  1.0
  H  H31  1  0.15846000  0.68633000  0.27104000  1.0
  H  H32  1  0.68663000  0.71759000  0.74376000  1.0
  H  H33  1  0.67804000  0.58909000  0.76200000  1.0
  H  H34  1  0.75665000  0.58428000  0.71025000  1.0
  H  H35  1  0.55651000  0.60431000  0.68999000  1.0
  H  H36  1  0.56874000  0.72651000  0.67014000  1.0
  H  H37  1  0.54342000  0.45002000  0.20556000  1.0
  H  H38  1  0.39587000  0.57548000  0.20473000  1.0
  H  H39  1  0.51344000  0.58306000  0.23524000  1.0
  H  H40  1  0.38178000  0.55318000  0.29297000  1.0
  H  H41  1  0.52624000  0.42633000  0.29213000  1.0
  H  H42  1  0.55436000  0.03128000  0.20966000  1.0
  H  H43  1  0.70191000  0.82325000  0.23127000  1.0
  H  H44  1  0.73785000  0.76285000  0.31521000  1.0
  H  H45  1  0.62338000  0.91277000  0.37687000  1.0
  H  H46  1  0.47643000  0.12105000  0.35520000  1.0
  H  H47  1  0.74852000  0.07292000  0.23343000  1.0
  H  H48  1  0.90310000  0.00986000  0.24888000  1.0
  H  H49  1  0.80229000  0.98331000  0.28393000  1.0
  H  H50  1  0.84002000  0.13227000  0.32411000  1.0
  H  H51  1  0.68973000  0.19853000  0.30656000  1.0
  H  H52  1  0.70157000  0.67649000  0.47360000  1.0
  H  H53  1  0.97676000  0.98350000  0.97041000  1.0
  C  C54  1  0.37953000  0.71177000  0.43290000  1.0
  C  C55  1  0.36785000  0.36220000  0.38815000  1.0
  C  C56  1  0.29531000  0.25555000  0.24014000  1.0
  C  C57  1  0.33000000  0.32451000  0.20219000  1.0
  C  C58  1  0.41891000  0.21460000  0.26632000  1.0
  C  C59  1  0.35373000  0.33147000  0.29795000  1.0
  C  C60  1  0.45185000  0.28494000  0.22943000  1.0
  C  C61  1  0.38966000  0.40066000  0.25971000  1.0
  C  C62  1  0.31553000  0.31678000  0.15360000  1.0
  C  C63  1  0.36228000  0.34506000  0.34651000  1.0
  C  C64  1  0.75059000  0.36458000  0.38504000  1.0
  C  C65  1  0.38827000  0.38894000  0.43471000  1.0
  C  C66  1  0.79634000  0.25679000  0.26836000  1.0
  C  C67  1  0.81753000  0.25460000  0.22064000  1.0
  C  C68  1  0.81943000  0.44404000  0.22458000  1.0
  C  C69  1  0.79874000  0.44765000  0.27216000  1.0
  C  C70  1  0.78809000  0.35488000  0.29449000  1.0
  C  C71  1  0.83026000  0.34630000  0.19836000  1.0
  C  C72  1  0.85956000  0.33558000  0.15043000  1.0
  C  C73  1  0.76840000  0.36027000  0.34311000  1.0
  C  C74  1  0.89112000  0.31933000  0.10973000  1.0
  C  C75  1  0.35022000  0.75900000  0.38647000  1.0
  C  C76  1  0.70834000  0.38594000  0.43235000  1.0
  C  C77  1  0.40898000  0.82848000  0.27684000  1.0
  C  C78  1  0.41060000  0.84960000  0.22968000  1.0
  C  C79  1  0.22979000  0.83141000  0.22041000  1.0
  C  C80  1  0.22751000  0.80718000  0.26788000  1.0
  C  C81  1  0.31889000  0.80680000  0.29668000  1.0
  C  C82  1  0.31973000  0.85200000  0.20069000  1.0
  C  C83  1  0.31827000  0.87728000  0.15263000  1.0
  C  C84  1  0.32990000  0.78178000  0.34508000  1.0
  C  C85  1  0.31609000  0.90272000  0.11155000  1.0
  C  C86  1  0.36125000  0.36824000  0.61139000  1.0
  C  C87  1  0.37643000  0.71268000  0.56629000  1.0
  C  C88  1  0.44256000  0.27597000  0.72890000  1.0
  C  C89  1  0.43386000  0.26779000  0.77689000  1.0
  C  C90  1  0.21688000  0.40225000  0.77254000  1.0
  C  C91  1  0.22560000  0.41042000  0.72453000  1.0
  C  C92  1  0.33865000  0.34768000  0.70191000  1.0
  C  C93  1  0.32085000  0.33083000  0.79954000  1.0
  C  C94  1  0.31144000  0.31996000  0.84837000  1.0
  C  C95  1  0.34925000  0.35821000  0.65313000  1.0
  C  C96  1  0.30314000  0.30754000  0.89019000  1.0
  C  C97  1  0.76798000  0.34464000  0.61112000  1.0
  C  C98  1  0.38757000  0.39071000  0.56487000  1.0
  C  C99  1  0.92966000  0.31340000  0.71724000  1.0
  C  C100  1  0.95015000  0.31186000  0.76481000  1.0
  C  C101  1  0.75311000  0.32961000  0.78046000  1.0
  C  C102  1  0.73260000  0.33129000  0.73290000  1.0
  C  C103  1  0.82023000  0.32386000  0.70059000  1.0
  C  C104  1  0.86201000  0.32044000  0.79712000  1.0
  C  C105  1  0.88433000  0.31827000  0.84550000  1.0
  C  C106  1  0.79492000  0.33212000  0.65230000  1.0
  C  C107  1  0.90673000  0.31417000  0.88697000  1.0
  C  C108  1  0.34724000  0.76477000  0.61200000  1.0
  C  C109  1  0.71518000  0.37760000  0.56538000  1.0
  C  C110  1  0.22528000  0.89650000  0.72320000  1.0
  C  C111  1  0.22208000  0.92110000  0.77040000  1.0
  C  C112  1  0.44057000  0.79228000  0.77402000  1.0
  C  C113  1  0.44570000  0.76598000  0.72669000  1.0
  C  C114  1  0.33553000  0.81944000  0.70099000  1.0
  C  C115  1  0.33030000  0.86858000  0.79639000  1.0
  C  C116  1  0.32669000  0.89273000  0.84465000  1.0
  C  C117  1  0.33813000  0.79289000  0.65303000  1.0
  C  C118  1  0.31831000  0.91600000  0.88616000  1.0
  C  C119  1  0.94992000  0.28495000  0.06517000  1.0
  C  C120  1  0.23220000  0.37113000  0.27023000  1.0
  C  C121  1  0.27337000  0.28443000  0.06598000  1.0
  C  C122  1  0.29202000  0.95468000  0.06575000  1.0
  C  C123  1  0.95419000  0.29042000  0.93368000  1.0
  C  C124  1  0.28162000  0.28011000  0.93668000  1.0
  C  C125  1  0.28782000  0.96236000  0.93270000  1.0
  C  C126  1  0.26685000  0.44020000  0.23381000  1.0
  C  C127  1  0.30085000  0.30764000  0.11203000  1.0
  C  C128  1  0.13055000  0.77776000  0.28343000  1.0
  C  C129  1  0.09585000  0.78663000  0.33490000  1.0
  C  C130  1  0.56263000  0.68277000  0.70241000  1.0
  C  C131  1  0.67694000  0.64147000  0.73139000  1.0
  C  C132  1  0.44451000  0.47813000  0.27086000  1.0
  C  C133  1  0.47600000  0.52421000  0.22663000  1.0
  C  C134  1  0.50451000  0.09072000  0.28096000  1.0
  C  C135  1  0.56903000  0.00526000  0.24641000  1.0
  C  C136  1  0.65222000  0.88816000  0.25857000  1.0
  C  C137  1  0.67250000  0.85435000  0.30556000  1.0
  C  C138  1  0.60856000  0.93842000  0.34017000  1.0
  C  C139  1  0.52503000  0.05583000  0.32796000  1.0
  C  C140  1  0.78267000  0.15954000  0.29270000  1.0
  C  C141  1  0.81084000  0.05061000  0.26302000  1.0
  O  O142  1  0.69154000  0.48219000  0.45099000  1.0
  O  O143  1  0.30971000  0.48711000  0.54490000  1.0
  O  O144  1  0.49005000  0.31521000  0.54782000  1.0
  O  O145  1  0.69649000  0.29976000  0.54373000  1.0
  O  O146  1  0.50096000  0.50257000  0.49971000  1.0
  O  O147  1  0.19499000  0.97247000  0.04667000  1.0
  O  O148  1  0.98419000  0.17915000  0.05212000  1.0
  O  O149  1  0.96638000  0.36416000  0.04328000  1.0
  O  O150  1  0.16946000  0.35831000  0.04933000  1.0
  O  O151  1  0.35178000  0.18893000  0.04572000  1.0
  O  O152  1  0.36919000  0.98340000  0.04889000  1.0
  O  O153  1  0.48135000  0.68837000  0.44911000  1.0
  O  O154  1  0.18252000  0.99024000  0.94647000  1.0
  O  O155  1  0.97003000  0.19487000  0.95259000  1.0
  O  O156  1  0.98142000  0.36701000  0.95117000  1.0
  O  O157  1  0.18461000  0.35648000  0.95691000  1.0
  O  O158  1  0.35834000  0.17820000  0.95328000  1.0
  O  O159  1  0.36754000  0.97597000  0.95598000  1.0
  O  O160  1  0.16582000  0.16731000  0.00023000  1.0
  O  O161  1  0.29960000  0.69278000  0.45366000  1.0
  O  O162  1  0.31165000  0.49010000  0.45187000  1.0
  O  O163  1  0.48506000  0.31171000  0.45515000  1.0
  O  O164  1  0.68646000  0.30667000  0.45110000  1.0
  O  O165  1  0.68729000  0.48111000  0.55133000  1.0
  O  O166  1  0.47857000  0.68893000  0.55014000  1.0
  O  O167  1  0.29834000  0.69023000  0.54631000  1.0
  O  O168  1  0.66677000  0.67072000  0.50287000  1.0
  O  O169  1  0.00263000  0.99663000  0.00049000  1.0
