# generated using pymatgen
data_DyPH11C9SNO9
_symmetry_space_group_name_H-M   'P 1'
_cell_length_a   6.71815000
_cell_length_b   13.34150000
_cell_length_c   14.97290000
_cell_angle_alpha   90.54090000
_cell_angle_beta   89.99990000
_cell_angle_gamma   89.99990000
_symmetry_Int_Tables_number   1
_chemical_formula_structural   DyPH11C9SNO9
_chemical_formula_sum   'Dy4 P4 H44 C36 S4 N4 O36'
_cell_volume   1341.96419299
_cell_formula_units_Z   4
loop_
 _symmetry_equiv_pos_site_id
 _symmetry_equiv_pos_as_xyz
  1  'x, y, z'
loop_
 _atom_site_type_symbol
 _atom_site_label
 _atom_site_symmetry_multiplicity
 _atom_site_fract_x
 _atom_site_fract_y
 _atom_site_fract_z
 _atom_site_occupancy
  Dy  Dy0  1  0.87497000  0.45252000  0.38089000  1.0
  Dy  Dy1  1  0.37497000  0.54748000  0.11910000  1.0
  Dy  Dy2  1  0.12503000  0.54748000  0.61911000  1.0
  Dy  Dy3  1  0.62503000  0.45252000  0.88089000  1.0
  P  P4  1  0.86953000  0.62222000  0.19668000  1.0
  P  P5  1  0.36953000  0.37778000  0.30332000  1.0
  P  P6  1  0.13047000  0.37778000  0.80332000  1.0
  P  P7  1  0.63047000  0.62222000  0.69668000  1.0
  H  H8  1  0.85658000  0.77486000  0.05595000  1.0
  H  H9  1  0.35659000  0.22515000  0.44405000  1.0
  H  H10  1  0.14341000  0.22515000  0.94405000  1.0
  H  H11  1  0.64342000  0.77485000  0.55595000  1.0
  H  H12  1  0.85866000  0.96219000  0.06195000  1.0
  H  H13  1  0.35866000  0.03781000  0.43805000  1.0
  H  H14  1  0.14134000  0.03781000  0.93805000  1.0
  H  H15  1  0.64134000  0.96219000  0.56195000  1.0
  H  H16  1  0.85605000  0.12172000  0.15486000  1.0
  H  H17  1  0.35605000  0.87828000  0.34515000  1.0
  H  H18  1  0.14395000  0.87828000  0.84515000  1.0
  H  H19  1  0.64395000  0.12172000  0.65485000  1.0
  H  H20  1  0.86134000  0.20176000  0.30485000  1.0
  H  H21  1  0.36135000  0.79824000  0.19515000  1.0
  H  H22  1  0.13866000  0.79824000  0.69515000  1.0
  H  H23  1  0.63866000  0.20176000  0.80485000  1.0
  H  H24  1  0.86470000  0.09978000  0.44045000  1.0
  H  H25  1  0.36470000  0.90022000  0.05955000  1.0
  H  H26  1  0.13530000  0.90022000  0.55955000  1.0
  H  H27  1  0.63530000  0.09977000  0.94045000  1.0
  H  H28  1  0.86681000  0.91086000  0.42967000  1.0
  H  H29  1  0.36680000  0.08914000  0.07033000  1.0
  H  H30  1  0.13319000  0.08914000  0.57033000  1.0
  H  H31  1  0.63319000  0.91086000  0.92967000  1.0
  H  H32  1  0.86646000  0.76855000  0.33771000  1.0
  H  H33  1  0.36645000  0.23145000  0.16229000  1.0
  H  H34  1  0.13354000  0.23145000  0.66229000  1.0
  H  H35  1  0.63354000  0.76855000  0.83771000  1.0
  H  H36  1  0.05559000  0.38988000  0.20874000  1.0
  H  H37  1  0.55559000  0.61012000  0.29126000  1.0
  H  H38  1  0.94441000  0.61012000  0.79126000  1.0
  H  H39  1  0.44442000  0.38988000  0.70874000  1.0
  H  H40  1  0.83687000  0.34885000  0.19001000  1.0
  H  H41  1  0.33687000  0.65115000  0.30999000  1.0
  H  H42  1  0.16313000  0.65115000  0.80999000  1.0
  H  H43  1  0.66313000  0.34885000  0.69001000  1.0
  H  H44  1  0.71017000  0.63240000  0.44913000  1.0
  H  H45  1  0.21017000  0.36760000  0.05087000  1.0
  H  H46  1  0.28983000  0.36760000  0.55087000  1.0
  H  H47  1  0.78983000  0.63240000  0.94913000  1.0
  H  H48  1  0.66535000  0.55700000  0.52379000  1.0
  H  H49  1  0.16535000  0.44300000  0.97621000  1.0
  H  H50  1  0.33465000  0.44300000  0.47621000  1.0
  H  H51  1  0.83465000  0.55700000  0.02379000  1.0
  C  C52  1  0.86121000  0.75994000  0.19908000  1.0
  C  C53  1  0.36121000  0.24006000  0.30092000  1.0
  C  C54  1  0.13879000  0.24006000  0.80092000  1.0
  C  C55  1  0.63879000  0.75994000  0.69908000  1.0
  C  C56  1  0.86063000  0.81519000  0.11933000  1.0
  C  C57  1  0.36062000  0.18481000  0.38066000  1.0
  C  C58  1  0.13937000  0.18481000  0.88067000  1.0
  C  C59  1  0.63938000  0.81519000  0.61933000  1.0
  C  C60  1  0.86031000  0.91846000  0.12322000  1.0
  C  C61  1  0.36031000  0.08154000  0.37678000  1.0
  C  C62  1  0.13969000  0.08154000  0.87678000  1.0
  C  C63  1  0.63969000  0.91846000  0.62322000  1.0
  C  C64  1  0.86135000  0.96991000  0.20629000  1.0
  C  C65  1  0.36134000  0.03009000  0.29371000  1.0
  C  C66  1  0.13866000  0.03009000  0.79371000  1.0
  C  C67  1  0.63866000  0.96991000  0.70629000  1.0
  C  C68  1  0.86068000  0.07578000  0.21471000  1.0
  C  C69  1  0.36068000  0.92422000  0.28529000  1.0
  C  C70  1  0.13932000  0.92422000  0.78529000  1.0
  C  C71  1  0.63933000  0.07578000  0.71471000  1.0
  C  C72  1  0.86165000  0.12052000  0.29806000  1.0
  C  C73  1  0.36165000  0.87948000  0.20194000  1.0
  C  C74  1  0.13835000  0.87948000  0.70194000  1.0
  C  C75  1  0.63835000  0.12052000  0.79806000  1.0
  C  C76  1  0.86378000  0.06137000  0.37593000  1.0
  C  C77  1  0.36378000  0.93863000  0.12407000  1.0
  C  C78  1  0.13622000  0.93863000  0.62407000  1.0
  C  C79  1  0.63622000  0.06137000  0.87593000  1.0
  C  C80  1  0.86403000  0.95799000  0.37067000  1.0
  C  C81  1  0.36402000  0.04201000  0.12934000  1.0
  C  C82  1  0.13598000  0.04201000  0.62933000  1.0
  C  C83  1  0.63598000  0.95799000  0.87066000  1.0
  C  C84  1  0.86234000  0.91152000  0.28554000  1.0
  C  C85  1  0.36234000  0.08848000  0.21446000  1.0
  C  C86  1  0.13766000  0.08848000  0.71446000  1.0
  C  C87  1  0.63766000  0.91152000  0.78554000  1.0
  S  S88  1  0.91100000  0.30758000  0.53827000  1.0
  S  S89  1  0.41101000  0.69242000  0.96173000  1.0
  S  S90  1  0.08899000  0.69242000  0.46173000  1.0
  S  S91  1  0.58899000  0.30758000  0.03827000  1.0
  N  N92  1  0.86158000  0.80896000  0.27737000  1.0
  N  N93  1  0.36158000  0.19104000  0.22263000  1.0
  N  N94  1  0.13842000  0.19104000  0.72263000  1.0
  N  N95  1  0.63842000  0.80896000  0.77737000  1.0
  O  O96  1  0.82696000  0.59050000  0.29295000  1.0
  O  O97  1  0.32696000  0.40950000  0.20705000  1.0
  O  O98  1  0.17304000  0.40950000  0.70705000  1.0
  O  O99  1  0.67304000  0.59050000  0.79295000  1.0
  O  O100  1  0.70728000  0.59036000  0.13086000  1.0
  O  O101  1  0.20728000  0.40964000  0.36914000  1.0
  O  O102  1  0.29272000  0.40964000  0.86914000  1.0
  O  O103  1  0.79272000  0.59036000  0.63086000  1.0
  O  O104  1  0.07724000  0.59879000  0.16427000  1.0
  O  O105  1  0.57724000  0.40121000  0.33573000  1.0
  O  O106  1  0.92276000  0.40121000  0.83573000  1.0
  O  O107  1  0.42276000  0.59879000  0.66427000  1.0
  O  O108  1  0.84519000  0.28517000  0.44530000  1.0
  O  O109  1  0.34520000  0.71483000  0.05470000  1.0
  O  O110  1  0.15481000  0.71483000  0.55470000  1.0
  O  O111  1  0.65481000  0.28518000  0.94530000  1.0
  O  O112  1  0.92648000  0.42122000  0.54047000  1.0
  O  O113  1  0.42648000  0.57878000  0.95953000  1.0
  O  O114  1  0.07352000  0.57878000  0.45953000  1.0
  O  O115  1  0.57352000  0.42122000  0.04047000  1.0
  O  O116  1  0.11305000  0.26393000  0.55474000  1.0
  O  O117  1  0.61304000  0.73608000  0.94525000  1.0
  O  O118  1  0.88695000  0.73607000  0.44526000  1.0
  O  O119  1  0.38695000  0.26393000  0.05474000  1.0
  O  O120  1  0.76996000  0.27237000  0.60589000  1.0
  O  O121  1  0.26996000  0.72763000  0.89411000  1.0
  O  O122  1  0.23004000  0.72763000  0.39411000  1.0
  O  O123  1  0.73004000  0.27237000  0.10589000  1.0
  O  O124  1  0.92590000  0.37602000  0.23711000  1.0
  O  O125  1  0.42590000  0.62398000  0.26289000  1.0
  O  O126  1  0.07410000  0.62398000  0.76289000  1.0
  O  O127  1  0.57411000  0.37602000  0.73711000  1.0
  O  O128  1  0.65026000  0.56555000  0.45859000  1.0
  O  O129  1  0.15026000  0.43445000  0.04141000  1.0
  O  O130  1  0.34974000  0.43445000  0.54141000  1.0
  O  O131  1  0.84974000  0.56555000  0.95859000  1.0
