# generated using pymatgen
data_Zn5H16C24S2(N9O4)2
_symmetry_space_group_name_H-M   'P 1'
_cell_length_a   15.82860234
_cell_length_b   15.82870000
_cell_length_c   15.82860000
_cell_angle_alpha   108.52000000
_cell_angle_beta   111.39075881
_cell_angle_gamma   108.52026659
_symmetry_Int_Tables_number   1
_chemical_formula_structural   Zn5H16C24S2(N9O4)2
_chemical_formula_sum   'Zn10 H32 C48 S4 N36 O16'
_cell_volume   3050.28603603
_cell_formula_units_Z   2
loop_
 _symmetry_equiv_pos_site_id
 _symmetry_equiv_pos_as_xyz
  1  'x, y, z'
loop_
 _atom_site_type_symbol
 _atom_site_label
 _atom_site_symmetry_multiplicity
 _atom_site_fract_x
 _atom_site_fract_y
 _atom_site_fract_z
 _atom_site_occupancy
  Zn  Zn0  1  0.98098000  0.78414000  0.03267000  1.0
  Zn  Zn1  1  0.24853000  0.21586000  0.19684000  1.0
  Zn  Zn2  1  0.96733000  0.94831000  0.75147000  1.0
  Zn  Zn3  1  0.80316000  0.05169000  0.01902000  1.0
  Zn  Zn4  1  0.00148000  0.44832000  0.71734000  1.0
  Zn  Zn5  1  0.26902000  0.55168000  0.55316000  1.0
  Zn  Zn6  1  0.44684000  0.71586000  0.99852000  1.0
  Zn  Zn7  1  0.28266000  0.28413000  0.73097000  1.0
  Zn  Zn8  1  0.00000000  0.00000000  0.00000000  1.0
  Zn  Zn9  1  0.25000000  0.50000000  0.75000000  1.0
  H  H10  1  0.07374000  0.53098000  0.06436000  1.0
  H  H11  1  0.79213000  0.74421000  0.08811000  1.0
  H  H12  1  0.70535000  0.87360000  0.08448000  1.0
  H  H13  1  0.21986000  0.89461000  0.24254000  1.0
  H  H14  1  0.53339000  0.46902000  0.54276000  1.0
  H  H15  1  0.34389000  0.25579000  0.04792000  1.0
  H  H16  1  0.21087000  0.12640000  0.83175000  1.0
  H  H17  1  0.34793000  0.10538000  0.32525000  1.0
  H  H18  1  0.93564000  0.00938000  0.46662000  1.0
  H  H19  1  0.91190000  0.70403000  0.65611000  1.0
  H  H20  1  0.91553000  0.62088000  0.78913000  1.0
  H  H21  1  0.75745000  0.97732000  0.65207000  1.0
  H  H22  1  0.45724000  0.99062000  0.92625000  1.0
  H  H23  1  0.95208000  0.29598000  0.20787000  1.0
  H  H24  1  0.16826000  0.37913000  0.29465000  1.0
  H  H25  1  0.67475000  0.02268000  0.78014000  1.0
  H  H26  1  0.71662000  0.50938000  0.68564000  1.0
  H  H27  1  0.90610000  0.20403000  0.66189000  1.0
  H  H28  1  0.03912000  0.12088000  0.66552000  1.0
  H  H29  1  0.90207000  0.47732000  0.50746000  1.0
  H  H30  1  0.17626000  0.49062000  0.20724000  1.0
  H  H31  1  0.45786000  0.79596000  0.70207000  1.0
  H  H32  1  0.54465000  0.87912000  0.91825000  1.0
  H  H33  1  0.03014000  0.52269000  0.42476000  1.0
  H  H34  1  0.79276000  0.96902000  0.28338000  1.0
  H  H35  1  0.29793000  0.75579000  0.09390000  1.0
  H  H36  1  0.08175000  0.62640000  0.96087000  1.0
  H  H37  1  0.57525000  0.60538000  0.09793000  1.0
  H  H38  1  0.31437000  0.03099000  0.82374000  1.0
  H  H39  1  0.33811000  0.24421000  0.54213000  1.0
  H  H40  1  0.33447000  0.37360000  0.45535000  1.0
  H  H41  1  0.49254000  0.39461000  0.96986000  1.0
  C  C42  1  0.02515000  0.69401000  0.13634000  1.0
  C  C43  1  0.07676000  0.64656000  0.18700000  1.0
  C  C44  1  0.09775000  0.56964000  0.14605000  1.0
  C  C45  1  0.80690000  0.80496000  0.06862000  1.0
  C  C46  1  0.76505000  0.86972000  0.06739000  1.0
  C  C47  1  0.20712000  0.94798000  0.21745000  1.0
  C  C48  1  0.44234000  0.30599000  0.33114000  1.0
  C  C49  1  0.54045000  0.35344000  0.43020000  1.0
  C  C50  1  0.57642000  0.43036000  0.52812000  1.0
  C  C51  1  0.26366000  0.19504000  0.00194000  1.0
  C  C52  1  0.19766000  0.13028000  0.89533000  1.0
  C  C53  1  0.26947000  0.05202000  0.25914000  1.0
  C  C54  1  0.86366000  0.88881000  0.55767000  1.0
  C  C55  1  0.81300000  0.88976000  0.45956000  1.0
  C  C56  1  0.85394000  0.95170000  0.42359000  1.0
  C  C57  1  0.93138000  0.73828000  0.73634000  1.0
  C  C58  1  0.93262000  0.69767000  0.80234000  1.0
  C  C59  1  0.78255000  0.98967000  0.73053000  1.0
  C  C60  1  0.66886000  0.11119000  0.97485000  1.0
  C  C61  1  0.56980000  0.11024000  0.92323000  1.0
  C  C62  1  0.47189000  0.04830000  0.90224000  1.0
  C  C63  1  0.99806000  0.26172000  0.19310000  1.0
  C  C64  1  0.10467000  0.30234000  0.23496000  1.0
  C  C65  1  0.74086000  0.01033000  0.79288000  1.0
  C  C66  1  0.80767000  0.38881000  0.61366000  1.0
  C  C67  1  0.70956000  0.38976000  0.56300000  1.0
  C  C68  1  0.67359000  0.45170000  0.60394000  1.0
  C  C69  1  0.98633000  0.23828000  0.68137000  1.0
  C  C70  1  0.05233000  0.19767000  0.68261000  1.0
  C  C71  1  0.98053000  0.48967000  0.53255000  1.0
  C  C72  1  0.22485000  0.61120000  0.41886000  1.0
  C  C73  1  0.17324000  0.61024000  0.31980000  1.0
  C  C74  1  0.15224000  0.54830000  0.22188000  1.0
  C  C75  1  0.44310000  0.76171000  0.74805000  1.0
  C  C76  1  0.48495000  0.80233000  0.85466000  1.0
  C  C77  1  0.04288000  0.51034000  0.49086000  1.0
  C  C78  1  0.58114000  0.80599000  0.19233000  1.0
  C  C79  1  0.68020000  0.85344000  0.29044000  1.0
  C  C80  1  0.77811000  0.93035000  0.32641000  1.0
  C  C81  1  0.25195000  0.69505000  0.01367000  1.0
  C  C82  1  0.14534000  0.63029000  0.94767000  1.0
  C  C83  1  0.50914000  0.55202000  0.01947000  1.0
  C  C84  1  0.38635000  0.19402000  0.77516000  1.0
  C  C85  1  0.43701000  0.14656000  0.82677000  1.0
  C  C86  1  0.39606000  0.06965000  0.84776000  1.0
  C  C87  1  0.31862000  0.30496000  0.55690000  1.0
  C  C88  1  0.31738000  0.36971000  0.51504000  1.0
  C  C89  1  0.46745000  0.44798000  0.95712000  1.0
  S  S90  1  0.12500000  0.69329000  0.31829000  1.0
  S  S91  1  0.62500000  0.30671000  0.43171000  1.0
  S  S92  1  0.68171000  0.80671000  0.37500000  1.0
  S  S93  1  0.56829000  0.19329000  0.87500000  1.0
  N  N94  1  0.88264000  0.90968000  0.02455000  1.0
  N  N95  1  0.87879000  0.83153000  0.04146000  1.0
  N  N96  1  0.81393000  0.93354000  0.04004000  1.0
  N  N97  1  0.11714000  0.91851000  0.13289000  1.0
  N  N98  1  0.11487000  0.09032000  0.97296000  1.0
  N  N99  1  0.20993000  0.16848000  0.04726000  1.0
  N  N100  1  0.10650000  0.06647000  0.88040000  1.0
  N  N101  1  0.21438000  0.08150000  0.19864000  1.0
  N  N102  1  0.97545000  0.85810000  0.88514000  1.0
  N  N103  1  0.95854000  0.83733000  0.79007000  1.0
  N  N104  1  0.95996000  0.77389000  0.89350000  1.0
  N  N105  1  0.86712000  0.98426000  0.78563000  1.0
  N  N106  1  0.02704000  0.14191000  0.11736000  1.0
  N  N107  1  0.95274000  0.16267000  0.12122000  1.0
  N  N108  1  0.11961000  0.22611000  0.18607000  1.0
  N  N109  1  0.80137000  0.01575000  0.88287000  1.0
  N  N110  1  0.13513000  0.35809000  0.72545000  1.0
  N  N111  1  0.04007000  0.33733000  0.70855000  1.0
  N  N112  1  0.14349000  0.27388000  0.70995000  1.0
  N  N113  1  0.03562000  0.48425000  0.61711000  1.0
  N  N114  1  0.36735000  0.64190000  0.77703000  1.0
  N  N115  1  0.37121000  0.66266000  0.70273000  1.0
  N  N116  1  0.43606000  0.72610000  0.86960000  1.0
  N  N117  1  0.13286000  0.51574000  0.55136000  1.0
  N  N118  1  0.22296000  0.59032000  0.86487000  1.0
  N  N119  1  0.29727000  0.66848000  0.95994000  1.0
  N  N120  1  0.13040000  0.56647000  0.85651000  1.0
  N  N121  1  0.44863000  0.58149000  0.96437000  1.0
  N  N122  1  0.27455000  0.40968000  0.63264000  1.0
  N  N123  1  0.29145000  0.33152000  0.62878000  1.0
  N  N124  1  0.29004000  0.43354000  0.56393000  1.0
  N  N125  1  0.38288000  0.41850000  0.86713000  1.0
  N  N126  1  0.12259000  1.00000000  0.12259000  1.0
  N  N127  1  0.87741000  0.00000000  0.87741000  1.0
  N  N128  1  0.12741000  0.50000000  0.62741000  1.0
  N  N129  1  0.37259000  0.50000000  0.87259000  1.0
  O  O130  1  0.00671000  0.75823000  0.18564000  1.0
  O  O131  1  0.00481000  0.67077000  0.04148000  1.0
  O  O132  1  0.42742000  0.24177000  0.24848000  1.0
  O  O133  1  0.37072000  0.32924000  0.33405000  1.0
  O  O134  1  0.81435000  0.82106000  0.57258000  1.0
  O  O135  1  0.95852000  0.96333000  0.62929000  1.0
  O  O136  1  0.75152000  0.17893000  0.99329000  1.0
  O  O137  1  0.66596000  0.03667000  0.99519000  1.0
  O  O138  1  0.82259000  0.32107000  0.56436000  1.0
  O  O139  1  0.87929000  0.46333000  0.70853000  1.0
  O  O140  1  0.24329000  0.67894000  0.50152000  1.0
  O  O141  1  0.24519000  0.53667000  0.41595000  1.0
  O  O142  1  0.49848000  0.74177000  0.17742000  1.0
  O  O143  1  0.58404000  0.82923000  0.12071000  1.0
  O  O144  1  0.43564000  0.25823000  0.75671000  1.0
  O  O145  1  0.29148000  0.17077000  0.75481000  1.0
