# generated using pymatgen
data_ZnH11C19(NO2)2
_symmetry_space_group_name_H-M   'P 1'
_cell_length_a   11.49340000
_cell_length_b   15.22170000
_cell_length_c   18.17100000
_cell_angle_alpha   90.00000000
_cell_angle_beta   90.00000000
_cell_angle_gamma   90.00000000
_symmetry_Int_Tables_number   1
_chemical_formula_structural   ZnH11C19(NO2)2
_chemical_formula_sum   'Zn4 H44 C76 N8 O16'
_cell_volume   3178.99985588
_cell_formula_units_Z   4
loop_
 _symmetry_equiv_pos_site_id
 _symmetry_equiv_pos_as_xyz
  1  'x, y, z'
loop_
 _atom_site_type_symbol
 _atom_site_label
 _atom_site_symmetry_multiplicity
 _atom_site_fract_x
 _atom_site_fract_y
 _atom_site_fract_z
 _atom_site_occupancy
  Zn  Zn0  1  0.50000000  0.44769000  0.90165000  1.0
  Zn  Zn1  1  0.50000000  0.55231000  0.09835000  1.0
  Zn  Zn2  1  0.50000000  0.05231000  0.40165000  1.0
  Zn  Zn3  1  0.50000000  0.94769000  0.59835000  1.0
  H  H4  1  0.50000000  0.02825000  0.16716000  1.0
  H  H5  1  0.50000000  0.97175000  0.83284000  1.0
  H  H6  1  0.50000000  0.47175000  0.66716000  1.0
  H  H7  1  0.50000000  0.52825000  0.33284000  1.0
  H  H8  1  0.50000000  0.20400000  0.97964000  1.0
  H  H9  1  0.50000000  0.79600000  0.02035000  1.0
  H  H10  1  0.50000000  0.29600000  0.47964000  1.0
  H  H11  1  0.50000000  0.70400000  0.52036000  1.0
  H  H12  1  0.50000000  0.30724000  0.20089000  1.0
  H  H13  1  0.50000000  0.69276000  0.79911000  1.0
  H  H14  1  0.50000000  0.19276000  0.70089000  1.0
  H  H15  1  0.50000000  0.80724000  0.29911000  1.0
  H  H16  1  0.30235000  0.32275000  0.95212000  1.0
  H  H17  1  0.30235000  0.67725000  0.04788000  1.0
  H  H18  1  0.69765000  0.17725000  0.45212000  1.0
  H  H19  1  0.69765000  0.82275000  0.54788000  1.0
  H  H20  1  0.69765000  0.67725000  0.04788000  1.0
  H  H21  1  0.69765000  0.32275000  0.95212000  1.0
  H  H22  1  0.30235000  0.82275000  0.54788000  1.0
  H  H23  1  0.30235000  0.17725000  0.45212000  1.0
  H  H24  1  0.08698000  0.31536000  0.95266000  1.0
  H  H25  1  0.08698000  0.68464000  0.04734000  1.0
  H  H26  1  0.91302000  0.18464000  0.45266000  1.0
  H  H27  1  0.91302000  0.81536000  0.54734000  1.0
  H  H28  1  0.91302000  0.68464000  0.04734000  1.0
  H  H29  1  0.91302000  0.31536000  0.95266000  1.0
  H  H30  1  0.08698000  0.81536000  0.54734000  1.0
  H  H31  1  0.08698000  0.18464000  0.45266000  1.0
  H  H32  1  0.08662000  0.57531000  0.85512000  1.0
  H  H33  1  0.08662000  0.42469000  0.14488000  1.0
  H  H34  1  0.91338000  0.92469000  0.35512000  1.0
  H  H35  1  0.91338000  0.07531000  0.64488000  1.0
  H  H36  1  0.91338000  0.42469000  0.14488000  1.0
  H  H37  1  0.91338000  0.57531000  0.85512000  1.0
  H  H38  1  0.08662000  0.07531000  0.64488000  1.0
  H  H39  1  0.08662000  0.92469000  0.35512000  1.0
  H  H40  1  0.30176000  0.56958000  0.85801000  1.0
  H  H41  1  0.30176000  0.43042000  0.14199000  1.0
  H  H42  1  0.69824000  0.93042000  0.35801000  1.0
  H  H43  1  0.69824000  0.06958000  0.64199000  1.0
  H  H44  1  0.69824000  0.43042000  0.14199000  1.0
  H  H45  1  0.69824000  0.56958000  0.85801000  1.0
  H  H46  1  0.30176000  0.06958000  0.64199000  1.0
  H  H47  1  0.30176000  0.93042000  0.35801000  1.0
  C  C48  1  0.50000000  0.16607000  0.19198000  1.0
  C  C49  1  0.50000000  0.83393000  0.80802000  1.0
  C  C50  1  0.50000000  0.33393000  0.69198000  1.0
  C  C51  1  0.50000000  0.66607000  0.30802000  1.0
  C  C52  1  0.50000000  0.09425000  0.14407000  1.0
  C  C53  1  0.50000000  0.90575000  0.85593000  1.0
  C  C54  1  0.50000000  0.40575000  0.64407000  1.0
  C  C55  1  0.50000000  0.59425000  0.35593000  1.0
  C  C56  1  0.50000000  0.10642000  0.06714000  1.0
  C  C57  1  0.50000000  0.89358000  0.93286000  1.0
  C  C58  1  0.50000000  0.39358000  0.56713000  1.0
  C  C59  1  0.50000000  0.60642000  0.43287000  1.0
  C  C60  1  0.50000000  0.19257000  0.03890000  1.0
  C  C61  1  0.50000000  0.80743000  0.96110000  1.0
  C  C62  1  0.50000000  0.30743000  0.53890000  1.0
  C  C63  1  0.50000000  0.69257000  0.46110000  1.0
  C  C64  1  0.50000000  0.26444000  0.08700000  1.0
  C  C65  1  0.50000000  0.73556000  0.91300000  1.0
  C  C66  1  0.50000000  0.23556000  0.58700000  1.0
  C  C67  1  0.50000000  0.76444000  0.41300000  1.0
  C  C68  1  0.50000000  0.25138000  0.16340000  1.0
  C  C69  1  0.50000000  0.74862000  0.83660000  1.0
  C  C70  1  0.50000000  0.24862000  0.66340000  1.0
  C  C71  1  0.50000000  0.75138000  0.33660000  1.0
  C  C72  1  0.50000000  0.15106000  0.27420000  1.0
  C  C73  1  0.50000000  0.84894000  0.72580000  1.0
  C  C74  1  0.50000000  0.34894000  0.77420000  1.0
  C  C75  1  0.50000000  0.65106000  0.22580000  1.0
  C  C76  1  0.50000000  0.35557000  0.05583000  1.0
  C  C77  1  0.50000000  0.64443000  0.94418000  1.0
  C  C78  1  0.50000000  0.14443000  0.55582000  1.0
  C  C79  1  0.50000000  0.85557000  0.44417000  1.0
  C  C80  1  0.50000000  0.03250000  0.01965000  1.0
  C  C81  1  0.50000000  0.96750000  0.98035000  1.0
  C  C82  1  0.50000000  0.46750000  0.51965000  1.0
  C  C83  1  0.50000000  0.53250000  0.48035000  1.0
  C  C84  1  0.25006000  0.37722000  0.93144000  1.0
  C  C85  1  0.25006000  0.62278000  0.06856000  1.0
  C  C86  1  0.74994000  0.12278000  0.43144000  1.0
  C  C87  1  0.74994000  0.87722000  0.56856000  1.0
  C  C88  1  0.74994000  0.62278000  0.06856000  1.0
  C  C89  1  0.74994000  0.37722000  0.93144000  1.0
  C  C90  1  0.25006000  0.87722000  0.56856000  1.0
  C  C91  1  0.25006000  0.12278000  0.43144000  1.0
  C  C92  1  0.12916000  0.37409000  0.93132000  1.0
  C  C93  1  0.12916000  0.62591000  0.06868000  1.0
  C  C94  1  0.87084000  0.12591000  0.43132000  1.0
  C  C95  1  0.87084000  0.87409000  0.56868000  1.0
  C  C96  1  0.87084000  0.62591000  0.06868000  1.0
  C  C97  1  0.87084000  0.37409000  0.93132000  1.0
  C  C98  1  0.12916000  0.87409000  0.56868000  1.0
  C  C99  1  0.12916000  0.12591000  0.43132000  1.0
  C  C100  1  0.06452000  0.44555000  0.90438000  1.0
  C  C101  1  0.06452000  0.55445000  0.09562000  1.0
  C  C102  1  0.93548000  0.05445000  0.40438000  1.0
  C  C103  1  0.93548000  0.94555000  0.59562000  1.0
  C  C104  1  0.93548000  0.55445000  0.09562000  1.0
  C  C105  1  0.93548000  0.44555000  0.90438000  1.0
  C  C106  1  0.06452000  0.94555000  0.59562000  1.0
  C  C107  1  0.06452000  0.05445000  0.40438000  1.0
  C  C108  1  0.12888000  0.51715000  0.87746000  1.0
  C  C109  1  0.12888000  0.48285000  0.12254000  1.0
  C  C110  1  0.87112000  0.98285000  0.37746000  1.0
  C  C111  1  0.87112000  0.01715000  0.62254000  1.0
  C  C112  1  0.87112000  0.48285000  0.12254000  1.0
  C  C113  1  0.87112000  0.51715000  0.87746000  1.0
  C  C114  1  0.12888000  0.01715000  0.62254000  1.0
  C  C115  1  0.12888000  0.98285000  0.37746000  1.0
  C  C116  1  0.24974000  0.51510000  0.87901000  1.0
  C  C117  1  0.24974000  0.48490000  0.12099000  1.0
  C  C118  1  0.75026000  0.98490000  0.37901000  1.0
  C  C119  1  0.75026000  0.01510000  0.62099000  1.0
  C  C120  1  0.75026000  0.48490000  0.12099000  1.0
  C  C121  1  0.75026000  0.51510000  0.87901000  1.0
  C  C122  1  0.24974000  0.01510000  0.62099000  1.0
  C  C123  1  0.24974000  0.98490000  0.37901000  1.0
  N  N124  1  0.30992000  0.44683000  0.90632000  1.0
  N  N125  1  0.30992000  0.55317000  0.09368000  1.0
  N  N126  1  0.69008000  0.05317000  0.40632000  1.0
  N  N127  1  0.69008000  0.94683000  0.59368000  1.0
  N  N128  1  0.69008000  0.55317000  0.09368000  1.0
  N  N129  1  0.69008000  0.44683000  0.90632000  1.0
  N  N130  1  0.30992000  0.94683000  0.59368000  1.0
  N  N131  1  0.30992000  0.05317000  0.40632000  1.0
  O  O132  1  0.50000000  0.36195000  0.98607000  1.0
  O  O133  1  0.50000000  0.63805000  0.01393000  1.0
  O  O134  1  0.50000000  0.13805000  0.48607000  1.0
  O  O135  1  0.50000000  0.86195000  0.51393000  1.0
  O  O136  1  0.50000000  0.41895000  0.10145000  1.0
  O  O137  1  0.50000000  0.58105000  0.89855000  1.0
  O  O138  1  0.50000000  0.08105000  0.60145000  1.0
  O  O139  1  0.50000000  0.91895000  0.39855000  1.0
  O  O140  1  0.50000000  0.06878000  0.29333000  1.0
  O  O141  1  0.50000000  0.93122000  0.70667000  1.0
  O  O142  1  0.50000000  0.43122000  0.79333000  1.0
  O  O143  1  0.50000000  0.56878000  0.20667000  1.0
  O  O144  1  0.50000000  0.21440000  0.31790000  1.0
  O  O145  1  0.50000000  0.78560000  0.68210000  1.0
  O  O146  1  0.50000000  0.28560000  0.81790000  1.0
  O  O147  1  0.50000000  0.71440000  0.18210000  1.0
