# generated using pymatgen
data_UCuH12C12SN2O13
_symmetry_space_group_name_H-M   'P 1'
_cell_length_a   8.73302000
_cell_length_b   9.50430000
_cell_length_c   11.42530000
_cell_angle_alpha   91.80310000
_cell_angle_beta   90.74760000
_cell_angle_gamma   92.65600000
_symmetry_Int_Tables_number   1
_chemical_formula_structural   UCuH12C12SN2O13
_chemical_formula_sum   'U2 Cu2 H24 C24 S2 N4 O26'
_cell_volume   946.72639162
_cell_formula_units_Z   2
loop_
 _symmetry_equiv_pos_site_id
 _symmetry_equiv_pos_as_xyz
  1  'x, y, z'
loop_
 _atom_site_type_symbol
 _atom_site_label
 _atom_site_symmetry_multiplicity
 _atom_site_fract_x
 _atom_site_fract_y
 _atom_site_fract_z
 _atom_site_occupancy
  U  U0  1  0.93731000  0.56660000  0.24525000  1.0
  U  U1  1  0.06269000  0.43341000  0.75474000  1.0
  Cu  Cu2  1  0.38366000  0.14033000  0.80950000  1.0
  Cu  Cu3  1  0.61632000  0.85967000  0.19047000  1.0
  H  H4  1  0.59939000  0.25070000  0.95251000  1.0
  H  H5  1  0.40060000  0.74928000  0.04748000  1.0
  H  H6  1  0.44002000  0.32647000  0.96753000  1.0
  H  H7  1  0.55998000  0.67355000  0.03246000  1.0
  H  H8  1  0.18254000  0.12472000  0.97396000  1.0
  H  H9  1  0.81748000  0.87528000  0.02603000  1.0
  H  H10  1  0.25929000  0.97244000  0.96474000  1.0
  H  H11  1  0.74071000  0.02756000  0.03524000  1.0
  H  H12  1  0.62102000  0.36922000  0.74159000  1.0
  H  H13  1  0.37898000  0.63078000  0.25844000  1.0
  H  H14  1  0.51035000  0.85733000  0.79930000  1.0
  H  H15  1  0.48965000  0.14268000  0.20070000  1.0
  H  H16  1  0.61540000  0.94287000  0.89034000  1.0
  H  H17  1  0.38460000  0.05714000  0.10966000  1.0
  H  H18  1  0.39795000  0.16224000  0.37369000  1.0
  H  H19  1  0.60203000  0.83776000  0.62631000  1.0
  H  H20  1  0.11182000  0.91789000  0.80907000  1.0
  H  H21  1  0.88819000  0.08213000  0.19096000  1.0
  H  H22  1  0.25215000  0.98146000  0.39750000  1.0
  H  H23  1  0.74783000  0.01855000  0.60252000  1.0
  H  H24  1  0.97743000  0.76644000  0.65257000  1.0
  H  H25  1  0.02258000  0.23357000  0.34745000  1.0
  H  H26  1  0.71634000  0.45980000  0.55053000  1.0
  H  H27  1  0.28366000  0.54019000  0.44948000  1.0
  C  C28  1  0.03425000  0.77493000  0.41696000  1.0
  C  C29  1  0.96577000  0.22507000  0.58307000  1.0
  C  C30  1  0.28999000  0.04759000  0.57992000  1.0
  C  C31  1  0.71001000  0.95242000  0.42007000  1.0
  C  C32  1  0.57615000  0.32550000  0.65824000  1.0
  C  C33  1  0.42384000  0.67450000  0.34176000  1.0
  C  C34  1  0.40660000  0.16104000  0.56321000  1.0
  C  C35  1  0.59339000  0.83896000  0.43678000  1.0
  C  C36  1  0.10723000  0.86442000  0.51419000  1.0
  C  C37  1  0.89277000  0.13556000  0.48580000  1.0
  C  C38  1  0.45030000  0.20842000  0.45388000  1.0
  C  C39  1  0.54970000  0.79159000  0.54612000  1.0
  C  C40  1  0.56456000  0.31542000  0.44769000  1.0
  C  C41  1  0.43544000  0.68459000  0.55228000  1.0
  C  C42  1  0.14124000  0.92886000  0.71754000  1.0
  C  C43  1  0.85876000  0.07114000  0.28246000  1.0
  C  C44  1  0.62314000  0.36007000  0.32979000  1.0
  C  C45  1  0.37686000  0.63991000  0.67024000  1.0
  C  C46  1  0.21999000  0.96705000  0.48837000  1.0
  C  C47  1  0.77999000  0.03294000  0.51164000  1.0
  C  C48  1  0.06504000  0.84607000  0.63035000  1.0
  C  C49  1  0.93496000  0.15391000  0.36964000  1.0
  C  C50  1  0.62706000  0.37598000  0.55163000  1.0
  C  C51  1  0.37292000  0.62402000  0.44834000  1.0
  S  S52  1  0.10670000  0.72017000  0.98666000  1.0
  S  S53  1  0.89330000  0.27983000  0.01334000  1.0
  N  N54  1  0.25232000  0.02531000  0.69309000  1.0
  N  N55  1  0.74769000  0.97471000  0.30694000  1.0
  N  N56  1  0.47012000  0.21945000  0.66333000  1.0
  N  N57  1  0.52987000  0.78053000  0.33669000  1.0
  O  O58  1  0.08644000  0.46465000  0.30829000  1.0
  O  O59  1  0.91359000  0.53537000  0.69170000  1.0
  O  O60  1  0.79529000  0.67594000  0.17950000  1.0
  O  O61  1  0.20469000  0.32405000  0.82050000  1.0
  O  O62  1  0.09905000  0.63373000  0.09379000  1.0
  O  O63  1  0.90095000  0.36627000  0.90620000  1.0
  O  O64  1  0.74115000  0.44719000  0.33608000  1.0
  O  O65  1  0.25885000  0.55277000  0.66391000  1.0
  O  O66  1  0.50711000  0.28586000  0.90937000  1.0
  O  O67  1  0.49291000  0.71415000  0.09062000  1.0
  O  O68  1  0.08875000  0.78272000  0.31421000  1.0
  O  O69  1  0.91121000  0.21727000  0.68582000  1.0
  O  O70  1  0.92169000  0.68941000  0.43821000  1.0
  O  O71  1  0.07833000  0.31058000  0.56178000  1.0
  O  O72  1  0.11834000  0.61939000  0.88476000  1.0
  O  O73  1  0.88168000  0.38061000  0.11524000  1.0
  O  O74  1  0.28030000  0.07721000  0.95766000  1.0
  O  O75  1  0.71972000  0.92280000  0.04234000  1.0
  O  O76  1  0.25183000  0.81011000  0.99403000  1.0
  O  O77  1  0.74816000  0.18989000  0.00597000  1.0
  O  O78  1  0.97581000  0.80848000  0.97141000  1.0
  O  O79  1  0.02418000  0.19150000  0.02857000  1.0
  O  O80  1  0.56039000  0.31132000  0.23773000  1.0
  O  O81  1  0.43963000  0.68869000  0.76228000  1.0
  O  O82  1  0.55568000  0.95352000  0.81796000  1.0
  O  O83  1  0.44431000  0.04649000  0.18204000  1.0
