# generated using pymatgen
data_NdH18C11SNO12
_symmetry_space_group_name_H-M   'P 1'
_cell_length_a   10.71940000
_cell_length_b   12.85270000
_cell_length_c   17.44480000
_cell_angle_alpha   110.67900000
_cell_angle_beta   89.99970000
_cell_angle_gamma   89.99980000
_symmetry_Int_Tables_number   1
_chemical_formula_structural   NdH18C11SNO12
_chemical_formula_sum   'Nd4 H72 C44 S4 N4 O48'
_cell_volume   2248.58218375
_cell_formula_units_Z   4
loop_
 _symmetry_equiv_pos_site_id
 _symmetry_equiv_pos_as_xyz
  1  'x, y, z'
loop_
 _atom_site_type_symbol
 _atom_site_label
 _atom_site_symmetry_multiplicity
 _atom_site_fract_x
 _atom_site_fract_y
 _atom_site_fract_z
 _atom_site_occupancy
  Nd  Nd0  1  0.05201000  0.65894000  0.17523000  1.0
  Nd  Nd1  1  0.55201000  0.84106000  0.32477000  1.0
  Nd  Nd2  1  0.94799000  0.34105000  0.82477000  1.0
  Nd  Nd3  1  0.44799000  0.15894000  0.67523000  1.0
  H  H4  1  0.90477000  0.84536000  0.15154000  1.0
  H  H5  1  0.40476000  0.65465000  0.34847000  1.0
  H  H6  1  0.09524000  0.15465000  0.84847000  1.0
  H  H7  1  0.59523000  0.34535000  0.65154000  1.0
  H  H8  1  0.87673000  0.87028000  0.24654000  1.0
  H  H9  1  0.37673000  0.62973000  0.25347000  1.0
  H  H10  1  0.12327000  0.12972000  0.75346000  1.0
  H  H11  1  0.62328000  0.37027000  0.74654000  1.0
  H  H12  1  0.28847000  0.79692000  0.16875000  1.0
  H  H13  1  0.78847000  0.70309000  0.33126000  1.0
  H  H14  1  0.71153000  0.20308000  0.83126000  1.0
  H  H15  1  0.21153000  0.29691000  0.66875000  1.0
  H  H16  1  0.17555000  0.88147000  0.19562000  1.0
  H  H17  1  0.67555000  0.61853000  0.30439000  1.0
  H  H18  1  0.82447000  0.11853000  0.80439000  1.0
  H  H19  1  0.32445000  0.38147000  0.69562000  1.0
  H  H20  1  0.93063000  0.61084000  0.00382000  1.0
  H  H21  1  0.43063000  0.88916000  0.49618000  1.0
  H  H22  1  0.06938000  0.38915000  0.99618000  1.0
  H  H23  1  0.56937000  0.11085000  0.50382000  1.0
  H  H24  1  0.05888000  0.66759000  0.99747000  1.0
  H  H25  1  0.55888000  0.83240000  0.50252000  1.0
  H  H26  1  0.94113000  0.33240000  0.00252000  1.0
  H  H27  1  0.44112000  0.16760000  0.49748000  1.0
  H  H28  1  0.76672000  0.66366000  0.16140000  1.0
  H  H29  1  0.26673000  0.83634000  0.33860000  1.0
  H  H30  1  0.23328000  0.33634000  0.83860000  1.0
  H  H31  1  0.73328000  0.16366000  0.66140000  1.0
  H  H32  1  0.79952000  0.54674000  0.16652000  1.0
  H  H33  1  0.29951000  0.95327000  0.33348000  1.0
  H  H34  1  0.20049000  0.45326000  0.83348000  1.0
  H  H35  1  0.70049000  0.04673000  0.66652000  1.0
  H  H36  1  0.93322000  0.51424000  0.31262000  1.0
  H  H37  1  0.43322000  0.98576000  0.18738000  1.0
  H  H38  1  0.06678000  0.48576000  0.68738000  1.0
  H  H39  1  0.56678000  0.01424000  0.81262000  1.0
  H  H40  1  0.09454000  0.21068000  0.20811000  1.0
  H  H41  1  0.59454000  0.28932000  0.29189000  1.0
  H  H42  1  0.90545000  0.78932000  0.79189000  1.0
  H  H43  1  0.40544000  0.71068000  0.70810000  1.0
  H  H44  1  0.97575000  0.22157000  0.13782000  1.0
  H  H45  1  0.47575000  0.27843000  0.36218000  1.0
  H  H46  1  0.02424000  0.77843000  0.86218000  1.0
  H  H47  1  0.52424000  0.72157000  0.63781000  1.0
  H  H48  1  0.11077000  0.30829000  0.15603000  1.0
  H  H49  1  0.61077000  0.19171000  0.34396000  1.0
  H  H50  1  0.88922000  0.69171000  0.84396000  1.0
  H  H51  1  0.38922000  0.80830000  0.65603000  1.0
  H  H52  1  0.96764000  0.27137000  0.33692000  1.0
  H  H53  1  0.46764000  0.22863000  0.16308000  1.0
  H  H54  1  0.03236000  0.72864000  0.66309000  1.0
  H  H55  1  0.53235000  0.77136000  0.83690000  1.0
  H  H56  1  0.86393000  0.38662000  0.35300000  1.0
  H  H57  1  0.36393000  0.11338000  0.14700000  1.0
  H  H58  1  0.13607000  0.61339000  0.64700000  1.0
  H  H59  1  0.63607000  0.88661000  0.85299000  1.0
  H  H60  1  0.83356000  0.25867000  0.27148000  1.0
  H  H61  1  0.33356000  0.24134000  0.22853000  1.0
  H  H62  1  0.16644000  0.74134000  0.72853000  1.0
  H  H63  1  0.66643000  0.75866000  0.77146000  1.0
  H  H64  1  0.84283000  0.75818000  0.46088000  1.0
  H  H65  1  0.34283000  0.74183000  0.03912000  1.0
  H  H66  1  0.15717000  0.24182000  0.53912000  1.0
  H  H67  1  0.65718000  0.25818000  0.96089000  1.0
  H  H68  1  0.01243000  0.98097000  0.68114000  1.0
  H  H69  1  0.51242000  0.51902000  0.81886000  1.0
  H  H70  1  0.98757000  0.01904000  0.31887000  1.0
  H  H71  1  0.48758000  0.48098000  0.18114000  1.0
  H  H72  1  0.21198000  0.88990000  0.45320000  1.0
  H  H73  1  0.71198000  0.61010000  0.04679000  1.0
  H  H74  1  0.78802000  0.11011000  0.54680000  1.0
  H  H75  1  0.28802000  0.38989000  0.95320000  1.0
  C  C76  1  0.23287000  0.01413000  0.60834000  1.0
  C  C77  1  0.73286000  0.48586000  0.89166000  1.0
  C  C78  1  0.76713000  0.98588000  0.39166000  1.0
  C  C79  1  0.26714000  0.51413000  0.10834000  1.0
  C  C80  1  0.98550000  0.45822000  0.25977000  1.0
  C  C81  1  0.48550000  0.04177000  0.24022000  1.0
  C  C82  1  0.01450000  0.54177000  0.74023000  1.0
  C  C83  1  0.51450000  0.95822000  0.75976000  1.0
  C  C84  1  0.04492000  0.26712000  0.18398000  1.0
  C  C85  1  0.54492000  0.23289000  0.31602000  1.0
  C  C86  1  0.95508000  0.73289000  0.81602000  1.0
  C  C87  1  0.45508000  0.76712000  0.68397000  1.0
  C  C88  1  0.90748000  0.31433000  0.30676000  1.0
  C  C89  1  0.40748000  0.18568000  0.19323000  1.0
  C  C90  1  0.09251000  0.68567000  0.69324000  1.0
  C  C91  1  0.59252000  0.81431000  0.80675000  1.0
  C  C92  1  0.91932000  0.86621000  0.57534000  1.0
  C  C93  1  0.41932000  0.63379000  0.92466000  1.0
  C  C94  1  0.08068000  0.13379000  0.42466000  1.0
  C  C95  1  0.58069000  0.36621000  0.07534000  1.0
  C  C96  1  0.03519000  0.75806000  0.35614000  1.0
  C  C97  1  0.53519000  0.74194000  0.14385000  1.0
  C  C98  1  0.96481000  0.24195000  0.64386000  1.0
  C  C99  1  0.46482000  0.25805000  0.85615000  1.0
  C  C100  1  0.92312000  0.80775000  0.49110000  1.0
  C  C101  1  0.42312000  0.69226000  0.00890000  1.0
  C  C102  1  0.07688000  0.19225000  0.50890000  1.0
  C  C103  1  0.57689000  0.30775000  0.99110000  1.0
  C  C104  1  0.02924000  0.81538000  0.44652000  1.0
  C  C105  1  0.52924000  0.68462000  0.05347000  1.0
  C  C106  1  0.97076000  0.18463000  0.55348000  1.0
  C  C107  1  0.47077000  0.31537000  0.94653000  1.0
  C  C108  1  0.01883000  0.93356000  0.61575000  1.0
  C  C109  1  0.51883000  0.56644000  0.88425000  1.0
  C  C110  1  0.98117000  0.06645000  0.38425000  1.0
  C  C111  1  0.48118000  0.43356000  0.11575000  1.0
  C  C112  1  0.12499000  0.94044000  0.57087000  1.0
  C  C113  1  0.62498000  0.55956000  0.92913000  1.0
  C  C114  1  0.87500000  0.05958000  0.42913000  1.0
  C  C115  1  0.37502000  0.44043000  0.07087000  1.0
  C  C116  1  0.12990000  0.88081000  0.48686000  1.0
  C  C117  1  0.62990000  0.61919000  0.01314000  1.0
  C  C118  1  0.87009000  0.11921000  0.51315000  1.0
  C  C119  1  0.37011000  0.38080000  0.98686000  1.0
  S  S120  1  0.78436000  0.85233000  0.63159000  1.0
  S  S121  1  0.28436000  0.64767000  0.86841000  1.0
  S  S122  1  0.21564000  0.14767000  0.36841000  1.0
  S  S123  1  0.71564000  0.35233000  0.13160000  1.0
  N  N124  1  0.98231000  0.35171000  0.25181000  1.0
  N  N125  1  0.48231000  0.14829000  0.24819000  1.0
  N  N126  1  0.01768000  0.64829000  0.74819000  1.0
  N  N127  1  0.51768000  0.85170000  0.75180000  1.0
  O  O128  1  0.22381000  0.08912000  0.67966000  1.0
  O  O129  1  0.72381000  0.41087000  0.82034000  1.0
  O  O130  1  0.77619000  0.91089000  0.32034000  1.0
  O  O131  1  0.27619000  0.58912000  0.17965000  1.0
  O  O132  1  0.94104000  0.84218000  0.20178000  1.0
  O  O133  1  0.44104000  0.65782000  0.29823000  1.0
  O  O134  1  0.05896000  0.15782000  0.79823000  1.0
  O  O135  1  0.55896000  0.34218000  0.70178000  1.0
  O  O136  1  0.33379000  0.00419000  0.56726000  1.0
  O  O137  1  0.83378000  0.49580000  0.93274000  1.0
  O  O138  1  0.66620000  0.99582000  0.43273000  1.0
  O  O139  1  0.16622000  0.50419000  0.06726000  1.0
  O  O140  1  0.19668000  0.80505000  0.16163000  1.0
  O  O141  1  0.69668000  0.69495000  0.33838000  1.0
  O  O142  1  0.80332000  0.19495000  0.83838000  1.0
  O  O143  1  0.30332000  0.30505000  0.66163000  1.0
  O  O144  1  0.99146000  0.66717000  0.03616000  1.0
  O  O145  1  0.49146000  0.83283000  0.46383000  1.0
  O  O146  1  0.00854000  0.33283000  0.96384000  1.0
  O  O147  1  0.50854000  0.16717000  0.53617000  1.0
  O  O148  1  0.77509000  0.96085000  0.70065000  1.0
  O  O149  1  0.27509000  0.53915000  0.79936000  1.0
  O  O150  1  0.22491000  0.03915000  0.29936000  1.0
  O  O151  1  0.72491000  0.46085000  0.20065000  1.0
  O  O152  1  0.04345000  0.49514000  0.21201000  1.0
  O  O153  1  0.54346000  0.00486000  0.28798000  1.0
  O  O154  1  0.95654000  0.50486000  0.78799000  1.0
  O  O155  1  0.45654000  0.99514000  0.71201000  1.0
  O  O156  1  0.81040000  0.75994000  0.65927000  1.0
  O  O157  1  0.31039000  0.74006000  0.84072000  1.0
  O  O158  1  0.18961000  0.24006000  0.34073000  1.0
  O  O159  1  0.68961000  0.25995000  0.15928000  1.0
  O  O160  1  0.67963000  0.83345000  0.57439000  1.0
  O  O161  1  0.17963000  0.66656000  0.92562000  1.0
  O  O162  1  0.32037000  0.16655000  0.42562000  1.0
  O  O163  1  0.82038000  0.33345000  0.07439000  1.0
  O  O164  1  0.83487000  0.60735000  0.14920000  1.0
  O  O165  1  0.33487000  0.89265000  0.35080000  1.0
  O  O166  1  0.16513000  0.39264000  0.85080000  1.0
  O  O167  1  0.66513000  0.10735000  0.64920000  1.0
  O  O168  1  0.93923000  0.71013000  0.31574000  1.0
  O  O169  1  0.43922000  0.78987000  0.18426000  1.0
  O  O170  1  0.06077000  0.28987000  0.68426000  1.0
  O  O171  1  0.56078000  0.21012000  0.81574000  1.0
  O  O172  1  0.13745000  0.75722000  0.31775000  1.0
  O  O173  1  0.63745000  0.74277000  0.18225000  1.0
  O  O174  1  0.86255000  0.24277000  0.68226000  1.0
  O  O175  1  0.36256000  0.25722000  0.81775000  1.0
