# generated using pymatgen
data_ErH25C34(N2O3)2
_symmetry_space_group_name_H-M   'P 1'
_cell_length_a   11.66240000
_cell_length_b   12.08160000
_cell_length_c   12.77880000
_cell_angle_alpha   106.79100000
_cell_angle_beta   111.37000000
_cell_angle_gamma   104.56500000
_symmetry_Int_Tables_number   1
_chemical_formula_structural   ErH25C34(N2O3)2
_chemical_formula_sum   'Er2 H50 C68 N8 O12'
_cell_volume   1471.14358158
_cell_formula_units_Z   2
loop_
 _symmetry_equiv_pos_site_id
 _symmetry_equiv_pos_as_xyz
  1  'x, y, z'
loop_
 _atom_site_type_symbol
 _atom_site_label
 _atom_site_symmetry_multiplicity
 _atom_site_fract_x
 _atom_site_fract_y
 _atom_site_fract_z
 _atom_site_occupancy
  Er  Er0  1  0.45626000  0.01268000  0.12248000  1.0
  Er  Er1  1  0.54373000  0.98732000  0.87751000  1.0
  H  H2  1  0.44291000  0.33853000  0.42842000  1.0
  H  H3  1  0.55708000  0.66148000  0.57158000  1.0
  H  H4  1  0.47508000  0.14120000  0.53189000  1.0
  H  H5  1  0.52491000  0.85880000  0.46811000  1.0
  H  H6  1  0.57106000  0.48508000  0.60777000  1.0
  H  H7  1  0.42893000  0.51492000  0.39223000  1.0
  H  H8  1  0.60083000  0.64934000  0.79660000  1.0
  H  H9  1  0.39917000  0.35065000  0.20339000  1.0
  H  H10  1  0.57989000  0.59057000  0.96260000  1.0
  H  H11  1  0.42011000  0.40943000  0.03740000  1.0
  H  H12  1  0.51569000  0.36589000  0.93101000  1.0
  H  H13  1  0.48431000  0.63412000  0.06899000  1.0
  H  H14  1  0.41416000  0.20222000  0.97794000  1.0
  H  H15  1  0.58583000  0.79778000  0.02206000  1.0
  H  H16  1  0.24196000  0.24653000  0.82608000  1.0
  H  H17  1  0.75804000  0.75347000  0.17392000  1.0
  H  H18  1  0.99731000  0.10858000  0.73366000  1.0
  H  H19  1  0.00269000  0.89142000  0.26634000  1.0
  H  H20  1  0.82324000  0.92312000  0.71594000  1.0
  H  H21  1  0.17676000  0.07688000  0.28406000  1.0
  H  H22  1  0.76743000  0.74733000  0.77542000  1.0
  H  H23  1  0.23257000  0.25267000  0.22458000  1.0
  H  H24  1  0.84264000  0.62773000  0.89942000  1.0
  H  H25  1  0.15735000  0.37226000  0.10058000  1.0
  H  H26  1  0.03356000  0.60960000  0.05817000  1.0
  H  H27  1  0.96644000  0.39039000  0.94182000  1.0
  H  H28  1  0.26884000  0.76542000  0.14269000  1.0
  H  H29  1  0.73116000  0.23459000  0.85732000  1.0
  H  H30  1  0.75569000  0.16128000  0.31173000  1.0
  H  H31  1  0.24431000  0.83872000  0.68827000  1.0
  H  H32  1  0.67600000  0.04938000  0.33677000  1.0
  H  H33  1  0.32400000  0.95062000  0.66323000  1.0
  H  H34  1  0.66922000  0.18925000  0.12580000  1.0
  H  H35  1  0.33078000  0.81075000  0.87420000  1.0
  H  H36  1  0.67987000  0.35864000  0.08421000  1.0
  H  H37  1  0.32014000  0.64136000  0.91579000  1.0
  H  H38  1  0.81666000  0.57351000  0.11592000  1.0
  H  H39  1  0.18336000  0.42649000  0.88408000  1.0
  H  H40  1  0.05601000  0.68620000  0.28806000  1.0
  H  H41  1  0.94400000  0.31380000  0.71194000  1.0
  H  H42  1  0.24256000  0.68768000  0.46292000  1.0
  H  H43  1  0.75745000  0.31232000  0.53708000  1.0
  H  H44  1  0.33227000  0.58007000  0.58964000  1.0
  H  H45  1  0.66774000  0.41993000  0.41037000  1.0
  H  H46  1  0.30203000  0.38921000  0.63109000  1.0
  H  H47  1  0.69797000  0.61080000  0.36892000  1.0
  H  H48  1  0.15406000  0.17060000  0.58062000  1.0
  H  H49  1  0.84594000  0.82940000  0.41938000  1.0
  H  H50  1  0.91049000  0.08245000  0.42085000  1.0
  H  H51  1  0.08952000  0.91755000  0.57915000  1.0
  C  C52  1  0.42936000  0.15630000  0.31612000  1.0
  C  C53  1  0.57064000  0.84370000  0.68388000  1.0
  C  C54  1  0.44782000  0.25033000  0.43127000  1.0
  C  C55  1  0.55218000  0.74967000  0.56873000  1.0
  C  C56  1  0.47603000  0.23295000  0.53574000  1.0
  C  C57  1  0.52396000  0.76705000  0.46426000  1.0
  C  C58  1  0.50686000  0.32972000  0.65326000  1.0
  C  C59  1  0.49314000  0.67027000  0.34674000  1.0
  C  C60  1  0.55269000  0.45848000  0.67667000  1.0
  C  C61  1  0.44731000  0.54152000  0.32333000  1.0
  C  C62  1  0.57512000  0.55165000  0.78482000  1.0
  C  C63  1  0.42489000  0.44835000  0.21518000  1.0
  C  C64  1  0.56038000  0.51835000  0.87669000  1.0
  C  C65  1  0.43962000  0.48165000  0.12331000  1.0
  C  C66  1  0.52300000  0.39293000  0.85871000  1.0
  C  C67  1  0.47701000  0.60707000  0.14129000  1.0
  C  C68  1  0.49261000  0.29781000  0.74715000  1.0
  C  C69  1  0.50739000  0.70218000  0.25285000  1.0
  C  C70  1  0.44275000  0.16402000  0.73332000  1.0
  C  C71  1  0.55725000  0.83598000  0.26668000  1.0
  C  C72  1  0.30667000  0.14647000  0.93652000  1.0
  C  C73  1  0.69333000  0.85353000  0.06348000  1.0
  C  C74  1  0.20988000  0.17011000  0.85158000  1.0
  C  C75  1  0.79011000  0.82989000  0.14842000  1.0
  C  C76  1  0.07557000  0.09400000  0.80038000  1.0
  C  C77  1  0.92442000  0.90600000  0.19962000  1.0
  C  C78  1  0.03866000  0.99370000  0.83332000  1.0
  C  C79  1  0.96133000  0.00630000  0.16668000  1.0
  C  C80  1  0.90226000  0.90864000  0.78181000  1.0
  C  C81  1  0.09773000  0.09136000  0.21818000  1.0
  C  C82  1  0.87154000  0.81113000  0.81423000  1.0
  C  C83  1  0.12845000  0.18886000  0.18577000  1.0
  C  C84  1  0.97419000  0.79225000  0.90189000  1.0
  C  C85  1  0.02580000  0.20774000  0.09811000  1.0
  C  C86  1  0.94640000  0.69381000  0.93932000  1.0
  C  C87  1  0.05359000  0.30618000  0.06067000  1.0
  C  C88  1  0.05126000  0.68371000  0.02639000  1.0
  C  C89  1  0.94873000  0.31629000  0.97361000  1.0
  C  C90  1  0.18331000  0.77092000  0.07473000  1.0
  C  C91  1  0.81669000  0.22908000  0.92527000  1.0
  C  C92  1  0.11092000  0.87543000  0.95541000  1.0
  C  C93  1  0.88907000  0.12457000  0.04459000  1.0
  C  C94  1  0.14367000  0.97698000  0.91940000  1.0
  C  C95  1  0.85632000  0.02302000  0.08060000  1.0
  C  C96  1  0.78334000  0.41105000  0.15876000  1.0
  C  C97  1  0.21667000  0.58895000  0.84124000  1.0
  C  C98  1  0.86058000  0.53142000  0.17640000  1.0
  C  C99  1  0.13943000  0.46858000  0.82360000  1.0
  C  C100  1  0.99172000  0.59263000  0.27028000  1.0
  C  C101  1  0.00829000  0.40737000  0.72972000  1.0
  C  C102  1  0.04463000  0.53333000  0.34506000  1.0
  C  C103  1  0.95538000  0.46668000  0.65495000  1.0
  C  C104  1  0.17998000  0.59279000  0.44335000  1.0
  C  C105  1  0.82003000  0.40721000  0.55666000  1.0
  C  C106  1  0.22975000  0.53319000  0.51336000  1.0
  C  C107  1  0.77025000  0.46681000  0.48665000  1.0
  C  C108  1  0.14766000  0.40955000  0.48985000  1.0
  C  C109  1  0.85234000  0.59045000  0.51017000  1.0
  C  C110  1  0.19793000  0.34429000  0.55850000  1.0
  C  C111  1  0.80207000  0.65571000  0.44151000  1.0
  C  C112  1  0.11563000  0.22476000  0.53233000  1.0
  C  C113  1  0.88437000  0.77524000  0.46767000  1.0
  C  C114  1  0.98091000  0.17446000  0.44095000  1.0
  C  C115  1  0.01909000  0.82554000  0.55905000  1.0
  C  C116  1  0.01097000  0.34807000  0.39498000  1.0
  C  C117  1  0.98903000  0.65194000  0.60502000  1.0
  C  C118  1  0.95799000  0.41097000  0.31969000  1.0
  C  C119  1  0.04201000  0.58903000  0.68031000  1.0
  N  N120  1  0.27506000  0.05309000  0.96965000  1.0
  N  N121  1  0.72494000  0.94691000  0.03035000  1.0
  N  N122  1  0.21294000  0.86346000  0.03988000  1.0
  N  N123  1  0.78705000  0.13654000  0.96012000  1.0
  N  N124  1  0.82928000  0.35211000  0.22714000  1.0
  N  N125  1  0.17073000  0.64789000  0.77286000  1.0
  N  N126  1  0.92991000  0.23333000  0.37460000  1.0
  N  N127  1  0.07010000  0.76667000  0.62540000  1.0
  O  O128  1  0.43703000  0.19564000  0.23417000  1.0
  O  O129  1  0.56296000  0.80436000  0.76582000  1.0
  O  O130  1  0.41027000  0.04302000  0.29983000  1.0
  O  O131  1  0.58974000  0.95699000  0.70017000  1.0
  O  O132  1  0.33830000  0.08086000  0.63635000  1.0
  O  O133  1  0.66170000  0.91914000  0.36365000  1.0
  O  O134  1  0.51151000  0.14850000  0.82794000  1.0
  O  O135  1  0.48849000  0.85150000  0.17206000  1.0
  O  O136  1  0.66547000  0.11135000  0.29978000  1.0
  O  O137  1  0.33453000  0.88865000  0.70021000  1.0
  O  O138  1  0.58178000  0.12107000  0.06231000  1.0
  O  O139  1  0.41822000  0.87893000  0.93768000  1.0
