# generated using pymatgen
data_CuH14C13IN2
_symmetry_space_group_name_H-M   'P 1'
_cell_length_a   8.18035000
_cell_length_b   10.33790000
_cell_length_c   10.33790000
_cell_angle_alpha   79.63590000
_cell_angle_beta   84.85170000
_cell_angle_gamma   84.85180000
_symmetry_Int_Tables_number   1
_chemical_formula_structural   CuH14C13IN2
_chemical_formula_sum   'Cu2 H28 C26 I2 N4'
_cell_volume   854.09886796
_cell_formula_units_Z   2
loop_
 _symmetry_equiv_pos_site_id
 _symmetry_equiv_pos_as_xyz
  1  'x, y, z'
loop_
 _atom_site_type_symbol
 _atom_site_label
 _atom_site_symmetry_multiplicity
 _atom_site_fract_x
 _atom_site_fract_y
 _atom_site_fract_z
 _atom_site_occupancy
  Cu  Cu0  1  0.61947000  0.43692000  0.43691000  1.0
  Cu  Cu1  1  0.38052000  0.56308000  0.56309000  1.0
  H  H2  1  0.56039000  0.15609000  0.44035000  1.0
  H  H3  1  0.43960000  0.55966000  0.84391000  1.0
  H  H4  1  0.43960000  0.84390000  0.55966000  1.0
  H  H5  1  0.56039000  0.44036000  0.15609000  1.0
  H  H6  1  0.69005000  0.93346000  0.53436000  1.0
  H  H7  1  0.30994000  0.46565000  0.06654000  1.0
  H  H8  1  0.30995000  0.06654000  0.46566000  1.0
  H  H9  1  0.69005000  0.53437000  0.93345000  1.0
  H  H10  1  0.02702000  0.13348000  0.71267000  1.0
  H  H11  1  0.97299000  0.28731000  0.86655000  1.0
  H  H12  1  0.97300000  0.86654000  0.28732000  1.0
  H  H13  1  0.02701000  0.71268000  0.13347000  1.0
  H  H14  1  0.88018000  0.34686000  0.61459000  1.0
  H  H15  1  0.11982000  0.38537000  0.65315000  1.0
  H  H16  1  0.11983000  0.65315000  0.38538000  1.0
  H  H17  1  0.88018000  0.61461000  0.34685000  1.0
  H  H18  1  0.07877000  0.89507000  0.70695000  1.0
  H  H19  1  0.92123000  0.29305000  0.10494000  1.0
  H  H20  1  0.92124000  0.10494000  0.29306000  1.0
  H  H21  1  0.07878000  0.70695000  0.89506000  1.0
  H  H22  1  0.94798000  0.81313000  0.62580000  1.0
  H  H23  1  0.05203000  0.37420000  0.18689000  1.0
  H  H24  1  0.05204000  0.18688000  0.37420000  1.0
  H  H25  1  0.94798000  0.62580000  0.81312000  1.0
  H  H26  1  0.73341000  0.81257000  0.81257000  1.0
  H  H27  1  0.26660000  0.18743000  0.18743000  1.0
  H  H28  1  0.86012000  0.89580000  0.89580000  1.0
  H  H29  1  0.13988000  0.10420000  0.10420000  1.0
  C  C30  1  0.66372000  0.14593000  0.50229000  1.0
  C  C31  1  0.33626000  0.49770000  0.85407000  1.0
  C  C32  1  0.33627000  0.85407000  0.49771000  1.0
  C  C33  1  0.66372000  0.50230000  0.14592000  1.0
  C  C34  1  0.73553000  0.02308000  0.55531000  1.0
  C  C35  1  0.26447000  0.44469000  0.97692000  1.0
  C  C36  1  0.26447000  0.97691000  0.44470000  1.0
  C  C37  1  0.73552000  0.55532000  0.02308000  1.0
  C  C38  1  0.86891000  0.01428000  0.63350000  1.0
  C  C39  1  0.13109000  0.36649000  0.98572000  1.0
  C  C40  1  0.13110000  0.98572000  0.36649000  1.0
  C  C41  1  0.86890000  0.63351000  0.01428000  1.0
  C  C42  1  0.92202000  0.13337000  0.65450000  1.0
  C  C43  1  0.07798000  0.34547000  0.86664000  1.0
  C  C44  1  0.07798000  0.86664000  0.34548000  1.0
  C  C45  1  0.92201000  0.65452000  0.13336000  1.0
  C  C46  1  0.84323000  0.25242000  0.59906000  1.0
  C  C47  1  0.15678000  0.40092000  0.74759000  1.0
  C  C48  1  0.15678000  0.74758000  0.40093000  1.0
  C  C49  1  0.84323000  0.59908000  0.25242000  1.0
  C  C50  1  0.94918000  0.88393000  0.69336000  1.0
  C  C51  1  0.05083000  0.30663000  0.11608000  1.0
  C  C52  1  0.05084000  0.11608000  0.30664000  1.0
  C  C53  1  0.94918000  0.69337000  0.88392000  1.0
  C  C54  1  0.86232000  0.82629000  0.82628000  1.0
  C  C55  1  0.13768000  0.17371000  0.17372000  1.0
  I  I56  1  0.31146000  0.39881000  0.39879000  1.0
  I  I57  1  0.68852000  0.60120000  0.60120000  1.0
  N  N58  1  0.71546000  0.26052000  0.52318000  1.0
  N  N59  1  0.28454000  0.47680000  0.73949000  1.0
  N  N60  1  0.28454000  0.73948000  0.47681000  1.0
  N  N61  1  0.71545000  0.52320000  0.26051000  1.0
