# generated using pymatgen
data_Zr6H15C52S10O34F5
_symmetry_space_group_name_H-M   'P 1'
_cell_length_a   16.45240000
_cell_length_b   16.45220000
_cell_length_c   16.45017681
_cell_angle_alpha   119.70173157
_cell_angle_beta   91.16027759
_cell_angle_gamma   60.30280000
_symmetry_Int_Tables_number   1
_chemical_formula_structural   Zr6H15C52S10O34F5
_chemical_formula_sum   'Zr6 H15 C52 S10 O34 F5'
_cell_volume   3206.53009182
_cell_formula_units_Z   1
loop_
 _symmetry_equiv_pos_site_id
 _symmetry_equiv_pos_as_xyz
  1  'x, y, z'
loop_
 _atom_site_type_symbol
 _atom_site_label
 _atom_site_symmetry_multiplicity
 _atom_site_fract_x
 _atom_site_fract_y
 _atom_site_fract_z
 _atom_site_occupancy
  Zr  Zr0  1  0.09724000  0.51496000  0.40259000  1.0
  Zr  Zr1  1  0.89779000  0.49014000  0.60196000  1.0
  Zr  Zr2  1  0.10667000  0.29086000  0.39284000  1.0
  Zr  Zr3  1  0.88842000  0.71350000  0.61105000  1.0
  Zr  Zr4  1  0.10684000  0.50214000  0.61099000  1.0
  Zr  Zr5  1  0.88873000  0.50217000  0.39269000  1.0
  H  H6  1  0.24743000  0.34572000  0.42286000  1.0
  H  H7  1  0.91844000  0.65915000  0.75201000  1.0
  H  H8  1  0.91855000  0.32693000  0.41004000  1.0
  H  H9  1  0.90570000  0.67806000  0.42290000  1.0
  H  H10  1  0.38843000  0.51243000  0.63792000  1.0
  H  H11  1  0.87226000  0.49179000  0.10170000  1.0
  H  H12  1  0.87463000  0.01511000  0.88319000  1.0
  H  H13  1  0.60497000  0.01455000  0.63597000  1.0
  H  H14  1  0.36034000  0.03260000  0.13219000  1.0
  H  H15  1  0.34608000  0.30733000  0.14836000  1.0
  H  H16  1  0.62734000  0.97268000  0.86516000  1.0
  H  H17  1  0.64392000  0.69784000  0.85089000  1.0
  H  H18  1  0.12319000  0.76829000  0.38941000  1.0
  H  H19  1  0.43939000  0.87653000  0.05994000  1.0
  H  H20  1  0.55598000  0.12752000  0.94436000  1.0
  C  C21  1  0.26111000  0.52117000  0.51535000  1.0
  C  C22  1  0.01180000  0.48330000  0.76503000  1.0
  C  C23  1  0.72787000  0.49729000  0.49489000  1.0
  C  C24  1  0.99135000  0.50767000  0.23201000  1.0
  C  C25  1  0.25928000  0.25429000  0.23432000  1.0
  C  C26  1  0.99306000  0.78311000  0.51420000  1.0
  C  C27  1  0.72963000  0.75115000  0.76403000  1.0
  C  C28  1  0.00882000  0.22294000  0.49852000  1.0
  C  C29  1  0.26997000  0.23103000  0.50319000  1.0
  C  C30  1  0.00345000  0.23166000  0.22239000  1.0
  C  C31  1  0.71843000  0.77307000  0.50703000  1.0
  C  C32  1  0.99962000  0.77360000  0.77394000  1.0
  C  C33  1  0.57783000  0.50946000  0.43699000  1.0
  C  C34  1  0.40751000  0.51431000  0.57626000  1.0
  C  C35  1  0.63618000  0.50338000  0.49863000  1.0
  C  C36  1  0.35102000  0.51974000  0.51338000  1.0
  C  C37  1  0.49015000  0.51104000  0.54820000  1.0
  C  C38  1  0.49430000  0.51392000  0.46414000  1.0
  C  C39  1  0.07278000  0.48935000  0.91233000  1.0
  C  C40  1  0.93407000  0.49331000  0.08233000  1.0
  C  C41  1  0.01115000  0.48334000  0.85397000  1.0
  C  C42  1  0.99617000  0.50048000  0.13951000  1.0
  C  C43  1  0.96266000  0.48889000  0.99914000  1.0
  C  C44  1  0.04628000  0.49263000  0.99535000  1.0
  C  C45  1  0.07022000  0.02597000  0.08295000  1.0
  C  C46  1  0.93665000  0.97837000  0.90767000  1.0
  C  C47  1  0.00485000  0.14224000  0.13284000  1.0
  C  C48  1  0.00232000  0.86288000  0.86027000  1.0
  C  C49  1  0.96195000  0.03761000  0.98881000  1.0
  C  C50  1  0.04688000  0.96514000  0.00099000  1.0
  C  C51  1  0.40618000  0.02517000  0.43949000  1.0
  C  C52  1  0.58049000  0.97766000  0.57400000  1.0
  C  C53  1  0.35633000  0.14146000  0.50483000  1.0
  C  C54  1  0.62889000  0.86219000  0.50741000  1.0
  C  C55  1  0.49888000  0.03682000  0.54910000  1.0
  C  C56  1  0.48735000  0.96432000  0.46357000  1.0
  C  C57  1  0.39244000  0.05895000  0.10084000  1.0
  C  C58  1  0.38269000  0.21662000  0.11128000  1.0
  C  C59  1  0.46443000  0.14297000  0.03054000  1.0
  C  C60  1  0.51335000  0.02332000  0.98069000  1.0
  C  C61  1  0.59604000  0.94630000  0.89729000  1.0
  C  C62  1  0.60675000  0.78855000  0.88745000  1.0
  C  C63  1  0.52585000  0.86211000  0.96917000  1.0
  C  C64  1  0.47589000  0.98183000  0.01813000  1.0
  C  C65  1  0.34674000  0.17407000  0.14626000  1.0
  C  C66  1  0.64161000  0.83116000  0.85151000  1.0
  C  C67  1  0.94255000  0.15200000  0.56900000  1.0
  C  C68  1  0.06408000  0.85261000  0.44851000  1.0
  C  C69  1  0.00881000  0.13613000  0.50264000  1.0
  C  C70  1  0.99627000  0.87109000  0.51492000  1.0
  C  C71  1  0.04440000  0.95559000  0.46874000  1.0
  C  C72  1  0.96169000  0.05012000  0.55072000  1.0
  S  S73  1  0.58820000  0.50321000  0.59196000  1.0
  S  S74  1  0.39709000  0.52095000  0.41986000  1.0
  S  S75  1  0.91886000  0.48112000  0.90109000  1.0
  S  S76  1  0.08983000  0.50128000  0.09322000  1.0
  S  S77  1  0.91285000  0.17809000  0.07800000  1.0
  S  S78  1  0.09552000  0.82498000  0.91318000  1.0
  S  S79  1  0.40986000  0.17729000  0.59810000  1.0
  S  S80  1  0.57597000  0.82419000  0.41423000  1.0
  S  S81  1  0.09680000  0.99364000  0.41629000  1.0
  S  S82  1  0.90840000  0.01293000  0.60278000  1.0
  O  O83  1  0.22280000  0.52528000  0.44786000  1.0
  O  O84  1  0.94346000  0.48029000  0.72779000  1.0
  O  O85  1  0.76670000  0.49086000  0.56150000  1.0
  O  O86  1  0.05715000  0.51507000  0.27179000  1.0
  O  O87  1  0.22898000  0.21365000  0.26529000  1.0
  O  O88  1  0.92488000  0.81392000  0.58022000  1.0
  O  O89  1  0.76054000  0.79198000  0.73376000  1.0
  O  O90  1  0.07520000  0.19125000  0.43009000  1.0
  O  O91  1  0.23743000  0.33296000  0.57261000  1.0
  O  O92  1  0.93263000  0.33350000  0.25645000  1.0
  O  O93  1  0.75318000  0.67113000  0.43639000  1.0
  O  O94  1  0.06871000  0.67151000  0.74077000  1.0
  O  O95  1  0.07227000  0.20013000  0.25985000  1.0
  O  O96  1  0.75476000  0.80570000  0.57670000  1.0
  O  O97  1  0.92749000  0.80608000  0.74026000  1.0
  O  O98  1  0.23504000  0.19978000  0.43191000  1.0
  O  O99  1  0.22159000  0.35938000  0.27379000  1.0
  O  O100  1  0.93983000  0.32480000  0.56445000  1.0
  O  O101  1  0.76914000  0.64616000  0.72628000  1.0
  O  O102  1  0.05951000  0.68171000  0.44496000  1.0
  O  O103  1  0.92222000  0.50713000  0.26539000  1.0
  O  O104  1  0.22987000  0.51599000  0.58207000  1.0
  O  O105  1  0.07815000  0.48855000  0.73308000  1.0
  O  O106  1  0.76199000  0.49782000  0.42608000  1.0
  O  O107  1  0.93082000  0.62874000  0.44597000  1.0
  O  O108  1  0.94150000  0.37637000  0.43521000  1.0
  O  O109  1  0.94154000  0.61452000  0.68100000  1.0
  O  O110  1  0.17642000  0.39082000  0.44614000  1.0
  O  O111  1  0.04682000  0.40976000  0.54336000  1.0
  O  O112  1  0.03887000  0.59568000  0.55162000  1.0
  O  O113  1  0.86586000  0.58491000  0.54302000  1.0
  O  O114  1  0.03866000  0.42016000  0.37034000  1.0
  O  O115  1  0.49569000  0.81650000  0.00128000  1.0
  O  O116  1  0.49690000  0.18824000  0.00008000  1.0
  F  F117  1  0.59747000  0.51067000  0.35880000  1.0
  F  F118  1  0.14980000  0.49283000  0.89373000  1.0
  F  F119  1  0.14828000  0.97398000  0.10875000  1.0
  F  F120  1  0.38153000  0.97331000  0.36029000  1.0
  F  F121  1  0.86670000  0.25281000  0.64341000  1.0
