# generated using pymatgen
data_CdH19C26N5O3
_symmetry_space_group_name_H-M   'P 1'
_cell_length_a   8.39056000
_cell_length_b   8.42024000
_cell_length_c   33.81390000
_cell_angle_alpha   87.40480000
_cell_angle_beta   87.38880000
_cell_angle_gamma   80.46720000
_symmetry_Int_Tables_number   1
_chemical_formula_structural   CdH19C26N5O3
_chemical_formula_sum   'Cd4 H76 C104 N20 O12'
_cell_volume   2351.80723321
_cell_formula_units_Z   4
loop_
 _symmetry_equiv_pos_site_id
 _symmetry_equiv_pos_as_xyz
  1  'x, y, z'
loop_
 _atom_site_type_symbol
 _atom_site_label
 _atom_site_symmetry_multiplicity
 _atom_site_fract_x
 _atom_site_fract_y
 _atom_site_fract_z
 _atom_site_occupancy
  Cd  Cd0  1  0.04250000  0.31612000  0.13745000  1.0
  Cd  Cd1  1  0.68434000  0.95795000  0.36251000  1.0
  Cd  Cd2  1  0.95753000  0.68389000  0.86255000  1.0
  Cd  Cd3  1  0.31563000  0.04206000  0.63750000  1.0
  H  H4  1  0.08140000  0.26792000  0.06192000  1.0
  H  H5  1  0.73177000  0.91835000  0.43806000  1.0
  H  H6  1  0.91869000  0.73204000  0.93808000  1.0
  H  H7  1  0.26823000  0.08160000  0.56194000  1.0
  H  H8  1  0.29979000  0.91769000  0.23257000  1.0
  H  H9  1  0.08291000  0.70009000  0.26733000  1.0
  H  H10  1  0.70025000  0.08232000  0.76741000  1.0
  H  H11  1  0.91704000  0.29994000  0.73269000  1.0
  H  H12  1  0.45889000  0.82870000  0.29374000  1.0
  H  H13  1  0.17223000  0.54119000  0.20619000  1.0
  H  H14  1  0.54113000  0.17129000  0.70625000  1.0
  H  H15  1  0.82774000  0.45884000  0.79382000  1.0
  H  H16  1  0.63356000  0.25843000  0.29407000  1.0
  H  H17  1  0.74110000  0.36666000  0.20604000  1.0
  H  H18  1  0.36645000  0.74158000  0.70592000  1.0
  H  H19  1  0.25887000  0.63340000  0.79395000  1.0
  H  H20  1  0.48443000  0.36281000  0.23195000  1.0
  H  H21  1  0.63638000  0.51546000  0.26815000  1.0
  H  H22  1  0.51557000  0.63722000  0.76805000  1.0
  H  H23  1  0.36356000  0.48458000  0.73184000  1.0
  H  H24  1  0.96038000  0.99481000  0.19217000  1.0
  H  H25  1  0.00562000  0.04023000  0.30784000  1.0
  H  H26  1  0.03965000  0.00511000  0.80782000  1.0
  H  H27  1  0.99435000  0.95974000  0.69216000  1.0
  H  H28  1  0.76902000  0.79253000  0.19557000  1.0
  H  H29  1  0.20852000  0.23107000  0.30428000  1.0
  H  H30  1  0.23100000  0.20741000  0.80443000  1.0
  H  H31  1  0.79150000  0.76886000  0.69571000  1.0
  H  H32  1  0.52070000  0.85193000  0.15476000  1.0
  H  H33  1  0.14904000  0.47883000  0.34502000  1.0
  H  H34  1  0.47930000  0.14802000  0.84525000  1.0
  H  H35  1  0.85099000  0.52111000  0.65497000  1.0
  H  H36  1  0.46724000  0.11025000  0.11541000  1.0
  H  H37  1  0.88990000  0.53208000  0.38446000  1.0
  H  H38  1  0.53280000  0.88970000  0.88460000  1.0
  H  H39  1  0.11014000  0.46795000  0.61554000  1.0
  H  H40  1  0.42496000  0.33430000  0.08964000  1.0
  H  H41  1  0.66574000  0.57431000  0.41027000  1.0
  H  H42  1  0.57507000  0.66564000  0.91036000  1.0
  H  H43  1  0.33432000  0.42571000  0.58973000  1.0
  H  H44  1  0.63272000  0.75617000  0.05490000  1.0
  H  H45  1  0.24268000  0.36700000  0.44528000  1.0
  H  H46  1  0.36728000  0.24376000  0.94510000  1.0
  H  H47  1  0.75734000  0.63302000  0.55473000  1.0
  H  H48  1  0.79971000  0.88874000  0.06484000  1.0
  H  H49  1  0.11031000  0.19977000  0.43517000  1.0
  H  H50  1  0.20023000  0.11124000  0.93515000  1.0
  H  H51  1  0.88972000  0.80028000  0.56483000  1.0
  H  H52  1  0.03260000  0.03518000  0.07675000  1.0
  H  H53  1  0.96364000  0.96728000  0.42336000  1.0
  H  H54  1  0.96730000  0.96483000  0.92324000  1.0
  H  H55  1  0.03632000  0.03282000  0.57666000  1.0
  H  H56  1  0.25368000  0.90115000  0.11707000  1.0
  H  H57  1  0.09864000  0.74702000  0.38308000  1.0
  H  H58  1  0.74624000  0.09897000  0.88293000  1.0
  H  H59  1  0.90130000  0.25306000  0.61693000  1.0
  H  H60  1  0.25318000  0.61070000  0.14160000  1.0
  H  H61  1  0.38999000  0.74801000  0.35848000  1.0
  H  H62  1  0.74681000  0.38940000  0.85840000  1.0
  H  H63  1  0.60996000  0.25200000  0.64152000  1.0
  H  H64  1  0.41306000  0.85556000  0.03154000  1.0
  H  H65  1  0.14336000  0.58688000  0.46859000  1.0
  H  H66  1  0.58691000  0.14443000  0.96847000  1.0
  H  H67  1  0.85668000  0.41315000  0.53141000  1.0
  H  H68  1  0.20402000  0.91805000  0.98189000  1.0
  H  H69  1  0.08079000  0.79586000  0.51811000  1.0
  H  H70  1  0.79596000  0.08195000  0.01812000  1.0
  H  H71  1  0.91925000  0.20415000  0.48190000  1.0
  H  H72  1  0.11193000  0.44973000  0.98785000  1.0
  H  H73  1  0.55082000  0.88771000  0.51190000  1.0
  H  H74  1  0.88811000  0.55021000  0.01214000  1.0
  H  H75  1  0.44920000  0.11226000  0.48812000  1.0
  H  H76  1  0.30310000  0.36872000  0.04033000  1.0
  H  H77  1  0.63200000  0.69655000  0.45957000  1.0
  H  H78  1  0.69696000  0.63123000  0.95966000  1.0
  H  H79  1  0.36804000  0.30342000  0.54045000  1.0
  C  C80  1  0.29026000  0.20541000  0.19126000  1.0
  C  C81  1  0.79433000  0.70973000  0.30872000  1.0
  C  C82  1  0.70974000  0.79462000  0.80873000  1.0
  C  C83  1  0.20559000  0.29027000  0.69128000  1.0
  C  C84  1  0.38281000  0.14680000  0.22775000  1.0
  C  C85  1  0.85304000  0.61723000  0.27224000  1.0
  C  C86  1  0.61722000  0.85322000  0.77224000  1.0
  C  C87  1  0.14691000  0.38280000  0.72776000  1.0
  C  C88  1  0.37372000  0.99529000  0.24550000  1.0
  C  C89  1  0.00506000  0.62628000  0.25444000  1.0
  C  C90  1  0.62630000  0.00473000  0.75449000  1.0
  C  C91  1  0.99490000  0.37375000  0.74556000  1.0
  C  C92  1  0.45957000  0.94702000  0.27939000  1.0
  C  C93  1  0.05349000  0.54052000  0.22058000  1.0
  C  C94  1  0.54041000  0.05300000  0.72061000  1.0
  C  C95  1  0.94647000  0.45952000  0.77943000  1.0
  C  C96  1  0.55838000  0.18662000  0.27944000  1.0
  C  C97  1  0.81311000  0.44180000  0.22063000  1.0
  C  C98  1  0.44159000  0.81341000  0.72056000  1.0
  C  C99  1  0.18685000  0.55826000  0.77936000  1.0
  C  C100  1  0.47702000  0.24405000  0.24533000  1.0
  C  C101  1  0.75551000  0.52303000  0.25474000  1.0
  C  C102  1  0.52298000  0.75597000  0.75467000  1.0
  C  C103  1  0.24443000  0.47702000  0.74526000  1.0
  C  C104  1  0.84854000  0.01516000  0.17604000  1.0
  C  C105  1  0.98531000  0.15174000  0.32395000  1.0
  C  C106  1  0.15148000  0.98480000  0.82396000  1.0
  C  C107  1  0.01468000  0.84824000  0.67606000  1.0
  C  C108  1  0.74296000  0.90323000  0.17741000  1.0
  C  C109  1  0.09754000  0.25707000  0.32248000  1.0
  C  C110  1  0.25705000  0.09673000  0.82259000  1.0
  C  C111  1  0.90246000  0.74289000  0.67752000  1.0
  C  C112  1  0.60561000  0.93699000  0.15480000  1.0
  C  C113  1  0.06380000  0.39411000  0.34504000  1.0
  C  C114  1  0.39440000  0.06295000  0.84521000  1.0
  C  C115  1  0.93621000  0.60585000  0.65496000  1.0
  C  C116  1  0.57607000  0.08141000  0.13250000  1.0
  C  C117  1  0.91901000  0.42361000  0.36739000  1.0
  C  C118  1  0.42397000  0.91854000  0.86751000  1.0
  C  C119  1  0.08099000  0.57640000  0.63261000  1.0
  C  C120  1  0.68607000  0.18992000  0.13351000  1.0
  C  C121  1  0.81030000  0.31386000  0.36648000  1.0
  C  C122  1  0.31396000  0.81006000  0.86650000  1.0
  C  C123  1  0.18969000  0.68616000  0.63352000  1.0
  C  C124  1  0.66082000  0.34993000  0.11182000  1.0
  C  C125  1  0.65005000  0.33911000  0.38822000  1.0
  C  C126  1  0.33920000  0.65003000  0.88818000  1.0
  C  C127  1  0.34997000  0.66090000  0.61179000  1.0
  C  C128  1  0.52311000  0.40455000  0.08999000  1.0
  C  C129  1  0.59532000  0.47644000  0.41001000  1.0
  C  C130  1  0.47691000  0.59540000  0.91001000  1.0
  C  C131  1  0.40472000  0.52358000  0.58999000  1.0
  C  C132  1  0.51265000  0.55174000  0.06820000  1.0
  C  C133  1  0.44779000  0.48686000  0.43189000  1.0
  C  C134  1  0.48738000  0.44818000  0.93179000  1.0
  C  C135  1  0.55225000  0.51314000  0.56812000  1.0
  C  C136  1  0.63594000  0.64298000  0.07181000  1.0
  C  C137  1  0.35626000  0.36383000  0.42833000  1.0
  C  C138  1  0.36408000  0.35695000  0.92819000  1.0
  C  C139  1  0.64376000  0.63618000  0.57168000  1.0
  C  C140  1  0.76827000  0.58328000  0.09490000  1.0
  C  C141  1  0.41618000  0.23186000  0.40521000  1.0
  C  C142  1  0.23176000  0.41668000  0.90509000  1.0
  C  C143  1  0.58382000  0.76815000  0.59479000  1.0
  C  C144  1  0.90457000  0.67403000  0.09847000  1.0
  C  C145  1  0.32569000  0.09563000  0.40158000  1.0
  C  C146  1  0.09542000  0.32596000  0.90153000  1.0
  C  C147  1  0.67431000  0.90438000  0.59842000  1.0
  C  C148  1  0.90178000  0.83001000  0.08178000  1.0
  C  C149  1  0.16928000  0.09801000  0.41827000  1.0
  C  C150  1  0.09815000  0.16998000  0.91822000  1.0
  C  C151  1  0.83073000  0.90202000  0.58173000  1.0
  C  C152  1  0.02849000  0.91219000  0.08812000  1.0
  C  C153  1  0.08706000  0.97156000  0.41197000  1.0
  C  C154  1  0.97142000  0.08784000  0.91188000  1.0
  C  C155  1  0.91291000  0.02849000  0.58804000  1.0
  C  C156  1  0.15593000  0.83661000  0.11083000  1.0
  C  C157  1  0.16318000  0.84464000  0.38927000  1.0
  C  C158  1  0.84400000  0.16349000  0.88916000  1.0
  C  C159  1  0.83678000  0.15542000  0.61073000  1.0
  C  C160  1  0.15398000  0.67929000  0.12507000  1.0
  C  C161  1  0.32103000  0.84688000  0.37500000  1.0
  C  C162  1  0.84600000  0.32079000  0.87493000  1.0
  C  C163  1  0.67894000  0.15315000  0.62499000  1.0
  C  C164  1  0.38339000  0.60294000  0.03982000  1.0
  C  C165  1  0.39687000  0.61613000  0.46022000  1.0
  C  C166  1  0.61665000  0.39702000  0.96017000  1.0
  C  C167  1  0.60317000  0.38388000  0.53979000  1.0
  C  C168  1  0.35117000  0.75953000  0.02268000  1.0
  C  C169  1  0.23976000  0.64861000  0.47740000  1.0
  C  C170  1  0.64883000  0.24045000  0.97733000  1.0
  C  C171  1  0.76027000  0.35141000  0.52260000  1.0
  C  C172  1  0.23278000  0.79554000  0.99460000  1.0
  C  C173  1  0.20373000  0.76702000  0.50539000  1.0
  C  C174  1  0.76721000  0.20445000  0.00541000  1.0
  C  C175  1  0.79630000  0.23300000  0.49462000  1.0
  C  C176  1  0.17972000  0.53830000  0.99829000  1.0
  C  C177  1  0.46189000  0.81991000  0.50154000  1.0
  C  C178  1  0.82031000  0.46164000  0.00170000  1.0
  C  C179  1  0.53812000  0.18009000  0.49847000  1.0
  C  C180  1  0.29213000  0.49092000  0.02727000  1.0
  C  C181  1  0.50934000  0.70739000  0.47265000  1.0
  C  C182  1  0.70789000  0.50903000  0.97272000  1.0
  C  C183  1  0.49069000  0.29261000  0.52736000  1.0
  N  N184  1  0.55099000  0.04042000  0.29627000  1.0
  N  N185  1  0.95976000  0.44926000  0.20375000  1.0
  N  N186  1  0.44901000  0.95958000  0.70372000  1.0
  N  N187  1  0.04021000  0.55078000  0.79625000  1.0
  N  N188  1  0.82115000  0.15406000  0.15454000  1.0
  N  N189  1  0.84609000  0.17906000  0.34551000  1.0
  N  N190  1  0.17889000  0.84593000  0.84546000  1.0
  N  N191  1  0.15389000  0.82095000  0.65449000  1.0
  N  N192  1  0.77965000  0.43837000  0.11373000  1.0
  N  N193  1  0.56150000  0.22061000  0.38635000  1.0
  N  N194  1  0.22039000  0.56158000  0.88626000  1.0
  N  N195  1  0.43852000  0.77940000  0.61365000  1.0
  N  N196  1  0.03147000  0.60044000  0.11909000  1.0
  N  N197  1  0.39984000  0.96925000  0.38094000  1.0
  N  N198  1  0.96854000  0.39960000  0.88091000  1.0
  N  N199  1  0.60016000  0.03075000  0.61906000  1.0
  N  N200  1  0.14713000  0.68769000  0.98187000  1.0
  N  N201  1  0.31200000  0.85255000  0.51801000  1.0
  N  N202  1  0.85292000  0.31226000  0.01813000  1.0
  N  N203  1  0.68801000  0.14746000  0.48200000  1.0
  O  O204  1  0.31507000  0.33637000  0.17411000  1.0
  O  O205  1  0.66299000  0.68503000  0.32592000  1.0
  O  O206  1  0.68495000  0.66363000  0.82588000  1.0
  O  O207  1  0.33693000  0.31496000  0.67408000  1.0
  O  O208  1  0.18932000  0.11890000  0.18075000  1.0
  O  O209  1  0.88120000  0.81046000  0.31913000  1.0
  O  O210  1  0.81068000  0.88112000  0.81924000  1.0
  O  O211  1  0.11872000  0.18954000  0.68087000  1.0
  O  O212  1  0.16242000  0.23276000  0.08177000  1.0
  O  O213  1  0.76710000  0.83776000  0.41817000  1.0
  O  O214  1  0.83766000  0.76725000  0.91824000  1.0
  O  O215  1  0.23290000  0.16220000  0.58182000  1.0
