# generated using pymatgen
data_HRuC7N(O2F3)2
_symmetry_space_group_name_H-M   'P 1'
_cell_length_a   8.93239000
_cell_length_b   13.14920000
_cell_length_c   13.14910000
_cell_angle_alpha   102.97300000
_cell_angle_beta   93.31980000
_cell_angle_gamma   93.31650000
_symmetry_Int_Tables_number   1
_chemical_formula_structural   HRuC7N(O2F3)2
_chemical_formula_sum   'H4 Ru4 C28 N4 O16 F24'
_cell_volume   1498.47637800
_cell_formula_units_Z   4
loop_
 _symmetry_equiv_pos_site_id
 _symmetry_equiv_pos_as_xyz
  1  'x, y, z'
loop_
 _atom_site_type_symbol
 _atom_site_label
 _atom_site_symmetry_multiplicity
 _atom_site_fract_x
 _atom_site_fract_y
 _atom_site_fract_z
 _atom_site_occupancy
  H  H0  1  0.89475000  0.84110000  0.05154000  1.0
  H  H1  1  0.10524000  0.94846000  0.15890000  1.0
  H  H2  1  0.10526000  0.15889000  0.94845000  1.0
  H  H3  1  0.89477000  0.05153000  0.84109000  1.0
  Ru  Ru4  1  0.54987000  0.57327000  0.97378000  1.0
  Ru  Ru5  1  0.45011000  0.02622000  0.42672000  1.0
  Ru  Ru6  1  0.45013000  0.42673000  0.02623000  1.0
  Ru  Ru7  1  0.54989000  0.97378000  0.57328000  1.0
  C  C8  1  0.74740000  0.40658000  0.95589000  1.0
  C  C9  1  0.25265000  0.04408000  0.59340000  1.0
  C  C10  1  0.25260000  0.59343000  0.04410000  1.0
  C  C11  1  0.74735000  0.95592000  0.40659000  1.0
  C  C12  1  0.89535000  0.35225000  0.93581000  1.0
  C  C13  1  0.10469000  0.06418000  0.64776000  1.0
  C  C14  1  0.10464000  0.64775000  0.06419000  1.0
  C  C15  1  0.89531000  0.93582000  0.35224000  1.0
  C  C16  1  0.62265000  0.57574000  0.19014000  1.0
  C  C17  1  0.37742000  0.80989000  0.42427000  1.0
  C  C18  1  0.37735000  0.42426000  0.80986000  1.0
  C  C19  1  0.62258000  0.19011000  0.57573000  1.0
  C  C20  1  0.69978000  0.61963000  0.30117000  1.0
  C  C21  1  0.30028000  0.69886000  0.38039000  1.0
  C  C22  1  0.30023000  0.38037000  0.69884000  1.0
  C  C23  1  0.69972000  0.30114000  0.61961000  1.0
  C  C24  1  0.69404000  0.78440000  0.90003000  1.0
  C  C25  1  0.30597000  0.09996000  0.21559000  1.0
  C  C26  1  0.30596000  0.21560000  0.09997000  1.0
  C  C27  1  0.69404000  0.90004000  0.78441000  1.0
  C  C28  1  0.75685000  0.87427000  0.87428000  1.0
  C  C29  1  0.24316000  0.12573000  0.12572000  1.0
  C  C30  1  0.87933000  0.93784000  0.93785000  1.0
  C  C31  1  0.12068000  0.06215000  0.06215000  1.0
  C  C32  1  0.94112000  0.91058000  0.02906000  1.0
  C  C33  1  0.05888000  0.97094000  0.08941000  1.0
  C  C34  1  0.05889000  0.08941000  0.97094000  1.0
  C  C35  1  0.94113000  0.02905000  0.91058000  1.0
  N  N36  1  0.64288000  0.70969000  0.92383000  1.0
  N  N37  1  0.35709000  0.07615000  0.29029000  1.0
  N  N38  1  0.35710000  0.29030000  0.07618000  1.0
  N  N39  1  0.64291000  0.92386000  0.70971000  1.0
  O  O40  1  0.74150000  0.49733000  0.93853000  1.0
  O  O41  1  0.25849000  0.06143000  0.50267000  1.0
  O  O42  1  0.25850000  0.50266000  0.06147000  1.0
  O  O43  1  0.74151000  0.93857000  0.49733000  1.0
  O  O44  1  0.64339000  0.63138000  0.12403000  1.0
  O  O45  1  0.35665000  0.87597000  0.36863000  1.0
  O  O46  1  0.35661000  0.36862000  0.87598000  1.0
  O  O47  1  0.64336000  0.12404000  0.63137000  1.0
  O  O48  1  0.64480000  0.35487000  0.98988000  1.0
  O  O49  1  0.35521000  0.01013000  0.64513000  1.0
  O  O50  1  0.35519000  0.64513000  0.01013000  1.0
  O  O51  1  0.64480000  0.98988000  0.35487000  1.0
  O  O52  1  0.54742000  0.48811000  0.17421000  1.0
  O  O53  1  0.45263000  0.82579000  0.51188000  1.0
  O  O54  1  0.45257000  0.51190000  0.82579000  1.0
  O  O55  1  0.54737000  0.17421000  0.48813000  1.0
  F  F56  1  0.99469000  0.40918000  0.89372000  1.0
  F  F57  1  0.00534000  0.10627000  0.59083000  1.0
  F  F58  1  0.00531000  0.59081000  0.10629000  1.0
  F  F59  1  0.99465000  0.89371000  0.40917000  1.0
  F  F60  1  0.86774000  0.25669000  0.86955000  1.0
  F  F61  1  0.13230000  0.13043000  0.74331000  1.0
  F  F62  1  0.13225000  0.74331000  0.13045000  1.0
  F  F63  1  0.86769000  0.86957000  0.25669000  1.0
  F  F64  1  0.95968000  0.33816000  0.02755000  1.0
  F  F65  1  0.04035000  0.97244000  0.66184000  1.0
  F  F66  1  0.04030000  0.66184000  0.97245000  1.0
  F  F67  1  0.95966000  0.02755000  0.33816000  1.0
  F  F68  1  0.65650000  0.56305000  0.36931000  1.0
  F  F69  1  0.34361000  0.63071000  0.43695000  1.0
  F  F70  1  0.34351000  0.43695000  0.63069000  1.0
  F  F71  1  0.65640000  0.36929000  0.56304000  1.0
  F  F72  1  0.66482000  0.72044000  0.33806000  1.0
  F  F73  1  0.33516000  0.66197000  0.27957000  1.0
  F  F74  1  0.33518000  0.27956000  0.66194000  1.0
  F  F75  1  0.66484000  0.33803000  0.72043000  1.0
  F  F76  1  0.85126000  0.62006000  0.29811000  1.0
  F  F77  1  0.14881000  0.70193000  0.38001000  1.0
  F  F78  1  0.14874000  0.37994000  0.70189000  1.0
  F  F79  1  0.85120000  0.29807000  0.61998000  1.0
