# generated using pymatgen
data_Cd3H30C28(N5O)4
_symmetry_space_group_name_H-M   'P 1'
_cell_length_a   6.96248000
_cell_length_b   12.07530000
_cell_length_c   12.66572052
_cell_angle_alpha   89.62392448
_cell_angle_beta   74.91076966
_cell_angle_gamma   82.47600000
_symmetry_Int_Tables_number   1
_chemical_formula_structural   Cd3H30C28(N5O)4
_chemical_formula_sum   'Cd3 H30 C28 N20 O4'
_cell_volume   1018.86993148
_cell_formula_units_Z   1
loop_
 _symmetry_equiv_pos_site_id
 _symmetry_equiv_pos_as_xyz
  1  'x, y, z'
loop_
 _atom_site_type_symbol
 _atom_site_label
 _atom_site_symmetry_multiplicity
 _atom_site_fract_x
 _atom_site_fract_y
 _atom_site_fract_z
 _atom_site_occupancy
  Cd  Cd0  1  0.00000000  0.00000000  0.00000000  1.0
  Cd  Cd1  1  0.50655000  0.12343000  0.93058000  1.0
  Cd  Cd2  1  0.49344000  0.87657000  0.06942000  1.0
  H  H3  1  0.39655000  0.92300000  0.87828000  1.0
  H  H4  1  0.60345000  0.07700000  0.12172000  1.0
  H  H5  1  0.68990000  0.29469000  0.02421000  1.0
  H  H6  1  0.31008000  0.70531000  0.97579000  1.0
  H  H7  1  0.46957000  0.34155000  0.01517000  1.0
  H  H8  1  0.53041000  0.65845000  0.98484000  1.0
  H  H9  1  0.45258000  0.80671000  0.28198000  1.0
  H  H10  1  0.54742000  0.19330000  0.71802000  1.0
  H  H11  1  0.67875000  0.85554000  0.24617000  1.0
  H  H12  1  0.32124000  0.14446000  0.75383000  1.0
  H  H13  1  0.38872000  0.77725000  0.78346000  1.0
  H  H14  1  0.61129000  0.22275000  0.21653000  1.0
  H  H15  1  0.60714000  0.75390000  0.81947000  1.0
  H  H16  1  0.39287000  0.24609000  0.18053000  1.0
  H  H17  1  0.58986000  0.42007000  0.20660000  1.0
  H  H18  1  0.41014000  0.57993000  0.79340000  1.0
  H  H19  1  0.41865000  0.61195000  0.25539000  1.0
  H  H20  1  0.58135000  0.38805000  0.74461000  1.0
  H  H21  1  0.99223000  0.73553000  0.16825000  1.0
  H  H22  1  0.00777000  0.26447000  0.83175000  1.0
  H  H23  1  0.16259000  0.54510000  0.11749000  1.0
  H  H24  1  0.83740000  0.45490000  0.88252000  1.0
  H  H25  1  0.56175000  0.90780000  0.42524000  1.0
  H  H26  1  0.43825000  0.09219000  0.57476000  1.0
  H  H27  1  0.37143000  0.86377000  0.61009000  1.0
  H  H28  1  0.62859000  0.13622000  0.38991000  1.0
  H  H29  1  0.92470000  0.79269000  0.70567000  1.0
  H  H30  1  0.07530000  0.20732000  0.29433000  1.0
  H  H31  1  0.11531000  0.83687000  0.51948000  1.0
  H  H32  1  0.88470000  0.16314000  0.48052000  1.0
  C  C33  1  0.98561000  0.35746000  0.11480000  1.0
  C  C34  1  0.01440000  0.64254000  0.88519000  1.0
  C  C35  1  0.88851000  0.46853000  0.15599000  1.0
  C  C36  1  0.11149000  0.53147000  0.84402000  1.0
  C  C37  1  0.67865000  0.48920000  0.19749000  1.0
  C  C38  1  0.32137000  0.51080000  0.80250000  1.0
  C  C39  1  0.58185000  0.59685000  0.22580000  1.0
  C  C40  1  0.41815000  0.40315000  0.77420000  1.0
  C  C41  1  0.69285000  0.68751000  0.21321000  1.0
  C  C42  1  0.30715000  0.31249000  0.78679000  1.0
  C  C43  1  0.90344000  0.66654000  0.17726000  1.0
  C  C44  1  0.09656000  0.33346000  0.82275000  1.0
  C  C45  1  0.99969000  0.55864000  0.14882000  1.0
  C  C46  1  0.00030000  0.44136000  0.85118000  1.0
  C  C47  1  0.96135000  0.90062000  0.34845000  1.0
  C  C48  1  0.03864000  0.09938000  0.65155000  1.0
  C  C49  1  0.85262000  0.87473000  0.45855000  1.0
  C  C50  1  0.14737000  0.12527000  0.54146000  1.0
  C  C51  1  0.64241000  0.88108000  0.48585000  1.0
  C  C52  1  0.35759000  0.11891000  0.51415000  1.0
  C  C53  1  0.53487000  0.85596000  0.58960000  1.0
  C  C54  1  0.46513000  0.14403000  0.41041000  1.0
  C  C55  1  0.63483000  0.82338000  0.67010000  1.0
  C  C56  1  0.36517000  0.17662000  0.32990000  1.0
  C  C57  1  0.84544000  0.81715000  0.64355000  1.0
  C  C58  1  0.15456000  0.18286000  0.35645000  1.0
  C  C59  1  0.95227000  0.84217000  0.53932000  1.0
  C  C60  1  0.04773000  0.15785000  0.46069000  1.0
  N  N61  1  0.88460000  0.27328000  0.09786000  1.0
  N  N62  1  0.11540000  0.72672000  0.90214000  1.0
  N  N63  1  0.02627000  0.18847000  0.05337000  1.0
  N  N64  1  0.97374000  0.81153000  0.94662000  1.0
  N  N65  1  0.20416000  0.21873000  0.04414000  1.0
  N  N66  1  0.79584000  0.78127000  0.95586000  1.0
  N  N67  1  0.18580000  0.32426000  0.08198000  1.0
  N  N68  1  0.81419000  0.67574000  0.91802000  1.0
  N  N69  1  0.59379000  0.79739000  0.22891000  1.0
  N  N70  1  0.40622000  0.20261000  0.77108000  1.0
  N  N71  1  0.87050000  0.94386000  0.27172000  1.0
  N  N72  1  0.12949000  0.05614000  0.72828000  1.0
  N  N73  1  0.01961000  0.95104000  0.18214000  1.0
  N  N74  1  0.98039000  0.04896000  0.81786000  1.0
  N  N75  1  0.19279000  0.91463000  0.20339000  1.0
  N  N76  1  0.80720000  0.08537000  0.79661000  1.0
  N  N77  1  0.16269000  0.88205000  0.30675000  1.0
  N  N78  1  0.83731000  0.11795000  0.69324000  1.0
  N  N79  1  0.52613000  0.80222000  0.77564000  1.0
  N  N80  1  0.47388000  0.19777000  0.22436000  1.0
  O  O81  1  0.34225000  0.96936000  0.94636000  1.0
  O  O82  1  0.65777000  0.03063000  0.05363000  1.0
  O  O83  1  0.60127000  0.30310000  0.97354000  1.0
  O  O84  1  0.39872000  0.69689000  0.02646000  1.0
