# generated using pymatgen
data_TbH34C38(NO6)2
_symmetry_space_group_name_H-M   'P 1'
_cell_length_a   10.08690000
_cell_length_b   17.35360000
_cell_length_c   19.21270000
_cell_angle_alpha   89.99800000
_cell_angle_beta   89.99950000
_cell_angle_gamma   89.99950000
_symmetry_Int_Tables_number   1
_chemical_formula_structural   TbH34C38(NO6)2
_chemical_formula_sum   'Tb4 H136 C152 N8 O48'
_cell_volume   3363.06839138
_cell_formula_units_Z   4
loop_
 _symmetry_equiv_pos_site_id
 _symmetry_equiv_pos_as_xyz
  1  'x, y, z'
loop_
 _atom_site_type_symbol
 _atom_site_label
 _atom_site_symmetry_multiplicity
 _atom_site_fract_x
 _atom_site_fract_y
 _atom_site_fract_z
 _atom_site_occupancy
  Tb  Tb0  1  0.95089000  0.24996000  0.74989000  1.0
  Tb  Tb1  1  0.54921000  0.74997000  0.24995000  1.0
  Tb  Tb2  1  0.04919000  0.75003000  0.24995000  1.0
  Tb  Tb3  1  0.45089000  0.25005000  0.74989000  1.0
  H  H4  1  0.86295000  0.13397000  0.53704000  1.0
  H  H5  1  0.86283000  0.36597000  0.96281000  1.0
  H  H6  1  0.63696000  0.86596000  0.03710000  1.0
  H  H7  1  0.63734000  0.63384000  0.46281000  1.0
  H  H8  1  0.13732000  0.86610000  0.46281000  1.0
  H  H9  1  0.13693000  0.63410000  0.03710000  1.0
  H  H10  1  0.36282000  0.13396000  0.96276000  1.0
  H  H11  1  0.36295000  0.36609000  0.53706000  1.0
  H  H12  1  0.80987000  0.11247000  0.41138000  1.0
  H  H13  1  0.80958000  0.38747000  0.08844000  1.0
  H  H14  1  0.68992000  0.88737000  0.91141000  1.0
  H  H15  1  0.69057000  0.61230000  0.58844000  1.0
  H  H16  1  0.19054000  0.88762000  0.58844000  1.0
  H  H17  1  0.18985000  0.61273000  0.91141000  1.0
  H  H18  1  0.30964000  0.11241000  0.08839000  1.0
  H  H19  1  0.30987000  0.38762000  0.41141000  1.0
  H  H20  1  0.49239000  0.25092000  0.56518000  1.0
  H  H21  1  0.49222000  0.24907000  0.93452000  1.0
  H  H22  1  0.00765000  0.74914000  0.06524000  1.0
  H  H23  1  0.00769000  0.75104000  0.43462000  1.0
  H  H24  1  0.50771000  0.74897000  0.43459000  1.0
  H  H25  1  0.50765000  0.75086000  0.06526000  1.0
  H  H26  1  0.99227000  0.25093000  0.93455000  1.0
  H  H27  1  0.99242000  0.24909000  0.56516000  1.0
  H  H28  1  0.44118000  0.23448000  0.43944000  1.0
  H  H29  1  0.44089000  0.26553000  0.06023000  1.0
  H  H30  1  0.05876000  0.76551000  0.93948000  1.0
  H  H31  1  0.05897000  0.73458000  0.56034000  1.0
  H  H32  1  0.55901000  0.76541000  0.56032000  1.0
  H  H33  1  0.55875000  0.73450000  0.93950000  1.0
  H  H34  1  0.94102000  0.23445000  0.06027000  1.0
  H  H35  1  0.94125000  0.26556000  0.43942000  1.0
  H  H36  1  0.59822000  0.16259000  0.36258000  1.0
  H  H37  1  0.59782000  0.33742000  0.13713000  1.0
  H  H38  1  0.90159000  0.83729000  0.86262000  1.0
  H  H39  1  0.90215000  0.66255000  0.63719000  1.0
  H  H40  1  0.40217000  0.83741000  0.63718000  1.0
  H  H41  1  0.40155000  0.66279000  0.86262000  1.0
  H  H42  1  0.09796000  0.16253000  0.13713000  1.0
  H  H43  1  0.09828000  0.33748000  0.36258000  1.0
  H  H44  1  0.02625000  0.44391000  0.70417000  1.0
  H  H45  1  0.02638000  0.05597000  0.79555000  1.0
  H  H46  1  0.47381000  0.55601000  0.20416000  1.0
  H  H47  1  0.47386000  0.94394000  0.29561000  1.0
  H  H48  1  0.97380000  0.55605000  0.29561000  1.0
  H  H49  1  0.97384000  0.94399000  0.20415000  1.0
  H  H50  1  0.52634000  0.44400000  0.79557000  1.0
  H  H51  1  0.52631000  0.05611000  0.70417000  1.0
  H  H52  1  0.80945000  0.42243000  0.47623000  1.0
  H  H53  1  0.80952000  0.07730000  0.02351000  1.0
  H  H54  1  0.69056000  0.57768000  0.97620000  1.0
  H  H55  1  0.69054000  0.92254000  0.52360000  1.0
  H  H56  1  0.19045000  0.57742000  0.52359000  1.0
  H  H57  1  0.19061000  0.92232000  0.97620000  1.0
  H  H58  1  0.30946000  0.42272000  0.02351000  1.0
  H  H59  1  0.30951000  0.07751000  0.47622000  1.0
  H  H60  1  0.73086000  0.35160000  0.57907000  1.0
  H  H61  1  0.73101000  0.14824000  0.92071000  1.0
  H  H62  1  0.76914000  0.64844000  0.07908000  1.0
  H  H63  1  0.76908000  0.85159000  0.42083000  1.0
  H  H64  1  0.26903000  0.64838000  0.42083000  1.0
  H  H65  1  0.26919000  0.85157000  0.07909000  1.0
  H  H66  1  0.23095000  0.35176000  0.92073000  1.0
  H  H67  1  0.23094000  0.14838000  0.57904000  1.0
  H  H68  1  0.11673000  0.52171000  0.60698000  1.0
  H  H69  1  0.11666000  0.97798000  0.89267000  1.0
  H  H70  1  0.38333000  0.47829000  0.10691000  1.0
  H  H71  1  0.38354000  0.02194000  0.39273000  1.0
  H  H72  1  0.88348000  0.47804000  0.39271000  1.0
  H  H73  1  0.88336000  0.02171000  0.10691000  1.0
  H  H74  1  0.61662000  0.52200000  0.89268000  1.0
  H  H75  1  0.61678000  0.97827000  0.60700000  1.0
  H  H76  1  0.16286000  0.36346000  0.79822000  1.0
  H  H77  1  0.16280000  0.13651000  0.70151000  1.0
  H  H78  1  0.33719000  0.63654000  0.29827000  1.0
  H  H79  1  0.33729000  0.86348000  0.20157000  1.0
  H  H80  1  0.83726000  0.63653000  0.20157000  1.0
  H  H81  1  0.83720000  0.86347000  0.29826000  1.0
  H  H82  1  0.66277000  0.36350000  0.70153000  1.0
  H  H83  1  0.66288000  0.13654000  0.79820000  1.0
  H  H84  1  0.03364000  0.39310000  0.83939000  1.0
  H  H85  1  0.03342000  0.10655000  0.66060000  1.0
  H  H86  1  0.46635000  0.60684000  0.33945000  1.0
  H  H87  1  0.46662000  0.89331000  0.16059000  1.0
  H  H88  1  0.96662000  0.60669000  0.16060000  1.0
  H  H89  1  0.96635000  0.89315000  0.33946000  1.0
  H  H90  1  0.53342000  0.39345000  0.66060000  1.0
  H  H91  1  0.53368000  0.10687000  0.83936000  1.0
  H  H92  1  0.13859000  0.95745000  0.29692000  1.0
  H  H93  1  0.13896000  0.54211000  0.20367000  1.0
  H  H94  1  0.36142000  0.04256000  0.79667000  1.0
  H  H95  1  0.36102000  0.45803000  0.70375000  1.0
  H  H96  1  0.86096000  0.04198000  0.70378000  1.0
  H  H97  1  0.86140000  0.45747000  0.79674000  1.0
  H  H98  1  0.63894000  0.95790000  0.20365000  1.0
  H  H99  1  0.63859000  0.54254000  0.29685000  1.0
  H  H100  1  0.17674000  0.17749000  0.40097000  1.0
  H  H101  1  0.17768000  0.32222000  0.09943000  1.0
  H  H102  1  0.32331000  0.82256000  0.90080000  1.0
  H  H103  1  0.32192000  0.67785000  0.59939000  1.0
  H  H104  1  0.82200000  0.82214000  0.59945000  1.0
  H  H105  1  0.82326000  0.67748000  0.90085000  1.0
  H  H106  1  0.67771000  0.17780000  0.09939000  1.0
  H  H107  1  0.67675000  0.32253000  0.40096000  1.0
  H  H108  1  0.32903000  0.22208000  0.30853000  1.0
  H  H109  1  0.33022000  0.27770000  0.19179000  1.0
  H  H110  1  0.17125000  0.77785000  0.80832000  1.0
  H  H111  1  0.16922000  0.72229000  0.69170000  1.0
  H  H112  1  0.66919000  0.77770000  0.69172000  1.0
  H  H113  1  0.67116000  0.72215000  0.80837000  1.0
  H  H114  1  0.83012000  0.22232000  0.19181000  1.0
  H  H115  1  0.82904000  0.27792000  0.30854000  1.0
  H  H116  1  0.28872000  0.00296000  0.20439000  1.0
  H  H117  1  0.28927000  0.49663000  0.29617000  1.0
  H  H118  1  0.21155000  0.99690000  0.70405000  1.0
  H  H119  1  0.21055000  0.50346000  0.79621000  1.0
  H  H120  1  0.71039000  0.99655000  0.79621000  1.0
  H  H121  1  0.71148000  0.50309000  0.70414000  1.0
  H  H122  1  0.78912000  0.00340000  0.29620000  1.0
  H  H123  1  0.78873000  0.49700000  0.20434000  1.0
  H  H124  1  0.38960000  0.13355000  0.21069000  1.0
  H  H125  1  0.39052000  0.36614000  0.28971000  1.0
  H  H126  1  0.11087000  0.86627000  0.71036000  1.0
  H  H127  1  0.10903000  0.63388000  0.78965000  1.0
  H  H128  1  0.60886000  0.86614000  0.78963000  1.0
  H  H129  1  0.61075000  0.63371000  0.71044000  1.0
  H  H130  1  0.89032000  0.13390000  0.28976000  1.0
  H  H131  1  0.88961000  0.36642000  0.21068000  1.0
  H  H132  1  0.03248000  0.05700000  0.51432000  1.0
  H  H133  1  0.03282000  0.44259000  0.98624000  1.0
  H  H134  1  0.46753000  0.94301000  0.01411000  1.0
  H  H135  1  0.46710000  0.55747000  0.48632000  1.0
  H  H136  1  0.96716000  0.94253000  0.48637000  1.0
  H  H137  1  0.96752000  0.55703000  0.01417000  1.0
  H  H138  1  0.53294000  0.05743000  0.98619000  1.0
  H  H139  1  0.53249000  0.44302000  0.51429000  1.0
  C  C140  1  0.71062000  0.20212000  0.63444000  1.0
  C  C141  1  0.71060000  0.29786000  0.86535000  1.0
  C  C142  1  0.78943000  0.79791000  0.13450000  1.0
  C  C143  1  0.78947000  0.70211000  0.36540000  1.0
  C  C144  1  0.28948000  0.79789000  0.36539000  1.0
  C  C145  1  0.28942000  0.70210000  0.13452000  1.0
  C  C146  1  0.21059000  0.20212000  0.86534000  1.0
  C  C147  1  0.21061000  0.29791000  0.63444000  1.0
  C  C148  1  0.68108000  0.19314000  0.55838000  1.0
  C  C149  1  0.68100000  0.30681000  0.94140000  1.0
  C  C150  1  0.81891000  0.80686000  0.05844000  1.0
  C  C151  1  0.81903000  0.69317000  0.44145000  1.0
  C  C152  1  0.31904000  0.80681000  0.44144000  1.0
  C  C153  1  0.31890000  0.69315000  0.05845000  1.0
  C  C154  1  0.18102000  0.19317000  0.94139000  1.0
  C  C155  1  0.18110000  0.30688000  0.55838000  1.0
  C  C156  1  0.77111000  0.15529000  0.51464000  1.0
  C  C157  1  0.77098000  0.34462000  0.98517000  1.0
  C  C158  1  0.72881000  0.84465000  0.01470000  1.0
  C  C159  1  0.72911000  0.65526000  0.48519000  1.0
  C  C160  1  0.22910000  0.84469000  0.48519000  1.0
  C  C161  1  0.22879000  0.65540000  0.01471000  1.0
  C  C162  1  0.27101000  0.15533000  0.98514000  1.0
  C  C163  1  0.27113000  0.34474000  0.51465000  1.0
  C  C164  1  0.74111000  0.14399000  0.44463000  1.0
  C  C165  1  0.74089000  0.35594000  0.05517000  1.0
  C  C166  1  0.75872000  0.85591000  0.94468000  1.0
  C  C167  1  0.75918000  0.64392000  0.55519000  1.0
  C  C168  1  0.25920000  0.85603000  0.55519000  1.0
  C  C169  1  0.25868000  0.64416000  0.94467000  1.0
  C  C170  1  0.24096000  0.14398000  0.05514000  1.0
  C  C171  1  0.24116000  0.35606000  0.44464000  1.0
  C  C172  1  0.56241000  0.22183000  0.53082000  1.0
  C  C173  1  0.56223000  0.27816000  0.96890000  1.0
  C  C174  1  0.93759000  0.77819000  0.03087000  1.0
  C  C175  1  0.93772000  0.72189000  0.46898000  1.0
  C  C176  1  0.43774000  0.77810000  0.46897000  1.0
  C  C177  1  0.43758000  0.72182000  0.03088000  1.0
  C  C178  1  0.06229000  0.22183000  0.96892000  1.0
  C  C179  1  0.06244000  0.27819000  0.53081000  1.0
  C  C180  1  0.53385000  0.21187000  0.46034000  1.0
  C  C181  1  0.53357000  0.28813000  0.03935000  1.0
  C  C182  1  0.96608000  0.78810000  0.96039000  1.0
  C  C183  1  0.96634000  0.71192000  0.53944000  1.0
  C  C184  1  0.46638000  0.78806000  0.53942000  1.0
  C  C185  1  0.46607000  0.71192000  0.96040000  1.0
  C  C186  1  0.03369000  0.21185000  0.03938000  1.0
  C  C187  1  0.03391000  0.28816000  0.46033000  1.0
  C  C188  1  0.62209000  0.17212000  0.41729000  1.0
  C  C189  1  0.62177000  0.32787000  0.08243000  1.0
  C  C190  1  0.87776000  0.82780000  0.91734000  1.0
  C  C191  1  0.87820000  0.67210000  0.58249000  1.0
  C  C192  1  0.37824000  0.82788000  0.58248000  1.0
  C  C193  1  0.37773000  0.67225000  0.91734000  1.0
  C  C194  1  0.12189000  0.17209000  0.08244000  1.0
  C  C195  1  0.12214000  0.32794000  0.41728000  1.0
  C  C196  1  0.98314000  0.44393000  0.65239000  1.0
  C  C197  1  0.98318000  0.05588000  0.84731000  1.0
  C  C198  1  0.51689000  0.55605000  0.15236000  1.0
  C  C199  1  0.51700000  0.94401000  0.34739000  1.0
  C  C200  1  0.01696000  0.55597000  0.34738000  1.0
  C  C201  1  0.01692000  0.94396000  0.15237000  1.0
  C  C202  1  0.48314000  0.44410000  0.84733000  1.0
  C  C203  1  0.48320000  0.05607000  0.65238000  1.0
  C  C204  1  0.86126000  0.43095000  0.52508000  1.0
  C  C205  1  0.86134000  0.06880000  0.97466000  1.0
  C  C206  1  0.63876000  0.56912000  0.02504000  1.0
  C  C207  1  0.63878000  0.93106000  0.47473000  1.0
  C  C208  1  0.13871000  0.56890000  0.47472000  1.0
  C  C209  1  0.13880000  0.93087000  0.02505000  1.0
  C  C210  1  0.36129000  0.43120000  0.97467000  1.0
  C  C211  1  0.36132000  0.06901000  0.52507000  1.0
  C  C212  1  0.97403000  0.47965000  0.52958000  1.0
  C  C213  1  0.97401000  0.02003000  0.97010000  1.0
  C  C214  1  0.52601000  0.52041000  0.02954000  1.0
  C  C215  1  0.52613000  0.97985000  0.47016000  1.0
  C  C216  1  0.02607000  0.52011000  0.47015000  1.0
  C  C217  1  0.02604000  0.97958000  0.02953000  1.0
  C  C218  1  0.47396000  0.47996000  0.97010000  1.0
  C  C219  1  0.47409000  0.02031000  0.52959000  1.0
  C  C220  1  0.81466000  0.39078000  0.58147000  1.0
  C  C221  1  0.81479000  0.10903000  0.91830000  1.0
  C  C222  1  0.68534000  0.60925000  0.08146000  1.0
  C  C223  1  0.68534000  0.89082000  0.41839000  1.0
  C  C224  1  0.18528000  0.60915000  0.41839000  1.0
  C  C225  1  0.18538000  0.89074000  0.08146000  1.0
  C  C226  1  0.31474000  0.39097000  0.91831000  1.0
  C  C227  1  0.31473000  0.10920000  0.58145000  1.0
  C  C228  1  0.03150000  0.48507000  0.59700000  1.0
  C  C229  1  0.03145000  0.01464000  0.90267000  1.0
  C  C230  1  0.46855000  0.51495000  0.09695000  1.0
  C  C231  1  0.46871000  0.98526000  0.40273000  1.0
  C  C232  1  0.96867000  0.51471000  0.40272000  1.0
  C  C233  1  0.96858000  0.98506000  0.09695000  1.0
  C  C234  1  0.53141000  0.48535000  0.90268000  1.0
  C  C235  1  0.53156000  0.01491000  0.59701000  1.0
  C  C236  1  0.06954000  0.03594000  0.41475000  1.0
  C  C237  1  0.07006000  0.46370000  0.08581000  1.0
  C  C238  1  0.43048000  0.96410000  0.91452000  1.0
  C  C239  1  0.42986000  0.53641000  0.58587000  1.0
  C  C240  1  0.92987000  0.96359000  0.58592000  1.0
  C  C241  1  0.93046000  0.53591000  0.91459000  1.0
  C  C242  1  0.57011000  0.03630000  0.08576000  1.0
  C  C243  1  0.56954000  0.46408000  0.41471000  1.0
  C  C244  1  0.14670000  0.06480000  0.35526000  1.0
  C  C245  1  0.14737000  0.43484000  0.14526000  1.0
  C  C246  1  0.35336000  0.93522000  0.85502000  1.0
  C  C247  1  0.35245000  0.56527000  0.64529000  1.0
  C  C248  1  0.85246000  0.93473000  0.64533000  1.0
  C  C249  1  0.85332000  0.56480000  0.85509000  1.0
  C  C250  1  0.64738000  0.06517000  0.14522000  1.0
  C  C251  1  0.64670000  0.43520000  0.35521000  1.0
  C  C252  1  0.17712000  0.01601000  0.29892000  1.0
  C  C253  1  0.17765000  0.48358000  0.20164000  1.0
  C  C254  1  0.32299000  0.98398000  0.79866000  1.0
  C  C255  1  0.32223000  0.51654000  0.70169000  1.0
  C  C256  1  0.82219000  0.98347000  0.70172000  1.0
  C  C257  1  0.82294000  0.51605000  0.79873000  1.0
  C  C258  1  0.67762000  0.01643000  0.20161000  1.0
  C  C259  1  0.67711000  0.48398000  0.29886000  1.0
  C  C260  1  0.20089000  0.13969000  0.35759000  1.0
  C  C261  1  0.20175000  0.36000000  0.14284000  1.0
  C  C262  1  0.29922000  0.86032000  0.85737000  1.0
  C  C263  1  0.29790000  0.64007000  0.64280000  1.0
  C  C264  1  0.79791000  0.85992000  0.64285000  1.0
  C  C265  1  0.79916000  0.63970000  0.85744000  1.0
  C  C266  1  0.70173000  0.14002000  0.14281000  1.0
  C  C267  1  0.70089000  0.36032000  0.35757000  1.0
  C  C268  1  0.28646000  0.16443000  0.30552000  1.0
  C  C269  1  0.28743000  0.33529000  0.19487000  1.0
  C  C270  1  0.21377000  0.83550000  0.80529000  1.0
  C  C271  1  0.21211000  0.66473000  0.69481000  1.0
  C  C272  1  0.71208000  0.83526000  0.69483000  1.0
  C  C273  1  0.71369000  0.66450000  0.80535000  1.0
  C  C274  1  0.78734000  0.16473000  0.19487000  1.0
  C  C275  1  0.78649000  0.33556000  0.30551000  1.0
  C  C276  1  0.26281000  0.04160000  0.24691000  1.0
  C  C277  1  0.26349000  0.45804000  0.25359000  1.0
  C  C278  1  0.23741000  0.95832000  0.74663000  1.0
  C  C279  1  0.23631000  0.54204000  0.75361000  1.0
  C  C280  1  0.73621000  0.95796000  0.75362000  1.0
  C  C281  1  0.73734000  0.54168000  0.74671000  1.0
  C  C282  1  0.76338000  0.04198000  0.25360000  1.0
  C  C283  1  0.76282000  0.45838000  0.24687000  1.0
  C  C284  1  0.31916000  0.11511000  0.25044000  1.0
  C  C285  1  0.32004000  0.38459000  0.24998000  1.0
  C  C286  1  0.18115000  0.88479000  0.75016000  1.0
  C  C287  1  0.17956000  0.61544000  0.74994000  1.0
  C  C288  1  0.67949000  0.88456000  0.74995000  1.0
  C  C289  1  0.68106000  0.61521000  0.75023000  1.0
  C  C290  1  0.81989000  0.11544000  0.25000000  1.0
  C  C291  1  0.81918000  0.38487000  0.25042000  1.0
  N  N292  1  0.87631000  0.39628000  0.64453000  1.0
  N  N293  1  0.87641000  0.10356000  0.85522000  1.0
  N  N294  1  0.62372000  0.60370000  0.14453000  1.0
  N  N295  1  0.62374000  0.89630000  0.35530000  1.0
  N  N296  1  0.12370000  0.60368000  0.35530000  1.0
  N  N297  1  0.12375000  0.89630000  0.14453000  1.0
  N  N298  1  0.37637000  0.39642000  0.85523000  1.0
  N  N299  1  0.37638000  0.10372000  0.64452000  1.0
  O  O300  1  0.61281000  0.21303000  0.67483000  1.0
  O  O301  1  0.61280000  0.28703000  0.82494000  1.0
  O  O302  1  0.88726000  0.78705000  0.17489000  1.0
  O  O303  1  0.88726000  0.71303000  0.32501000  1.0
  O  O304  1  0.38727000  0.78699000  0.32499000  1.0
  O  O305  1  0.38725000  0.71296000  0.17490000  1.0
  O  O306  1  0.11279000  0.21298000  0.82494000  1.0
  O  O307  1  0.11280000  0.28700000  0.67483000  1.0
  O  O308  1  0.83086000  0.19873000  0.65425000  1.0
  O  O309  1  0.83086000  0.30119000  0.84555000  1.0
  O  O310  1  0.66919000  0.80125000  0.15433000  1.0
  O  O311  1  0.66922000  0.69866000  0.34558000  1.0
  O  O312  1  0.16923000  0.80132000  0.34557000  1.0
  O  O313  1  0.16918000  0.69875000  0.15435000  1.0
  O  O314  1  0.33085000  0.19877000  0.84553000  1.0
  O  O315  1  0.33086000  0.30130000  0.65426000  1.0
  O  O316  1  0.82977000  0.35639000  0.69982000  1.0
  O  O317  1  0.82990000  0.14352000  0.79997000  1.0
  O  O318  1  0.67027000  0.64355000  0.19983000  1.0
  O  O319  1  0.67025000  0.85635000  0.30005000  1.0
  O  O320  1  0.17022000  0.64363000  0.30005000  1.0
  O  O321  1  0.17029000  0.85644000  0.19983000  1.0
  O  O322  1  0.32985000  0.35646000  0.79998000  1.0
  O  O323  1  0.32981000  0.14362000  0.69979000  1.0
  O  O324  1  0.06379000  0.36932000  0.79597000  1.0
  O  O325  1  0.06375000  0.13064000  0.70385000  1.0
  O  O326  1  0.43625000  0.63062000  0.29602000  1.0
  O  O327  1  0.43634000  0.86933000  0.20389000  1.0
  O  O328  1  0.93631000  0.63069000  0.20389000  1.0
  O  O329  1  0.93626000  0.86940000  0.29602000  1.0
  O  O330  1  0.56372000  0.36938000  0.70386000  1.0
  O  O331  1  0.56382000  0.13069000  0.79596000  1.0
  O  O332  1  0.06887000  0.08247000  0.46938000  1.0
  O  O333  1  0.06928000  0.41716000  0.03120000  1.0
  O  O334  1  0.43113000  0.91757000  0.96915000  1.0
  O  O335  1  0.43064000  0.58294000  0.53125000  1.0
  O  O336  1  0.93073000  0.91705000  0.53131000  1.0
  O  O337  1  0.93115000  0.58246000  0.96920000  1.0
  O  O338  1  0.56937000  0.08285000  0.03115000  1.0
  O  O339  1  0.56886000  0.41755000  0.46934000  1.0
  O  O340  1  0.01281000  0.97114000  0.41531000  1.0
  O  O341  1  0.01331000  0.52850000  0.08528000  1.0
  O  O342  1  0.48720000  0.02890000  0.91506000  1.0
  O  O343  1  0.48664000  0.47162000  0.58536000  1.0
  O  O344  1  0.98662000  0.02838000  0.58540000  1.0
  O  O345  1  0.98714000  0.47110000  0.91514000  1.0
  O  O346  1  0.51335000  0.97151000  0.08523000  1.0
  O  O347  1  0.51281000  0.52888000  0.41525000  1.0
