# generated using pymatgen
data_CuH3C4(NCl)2
_symmetry_space_group_name_H-M   'P 1'
_cell_length_a   6.74227000
_cell_length_b   6.80599000
_cell_length_c   7.42561941
_cell_angle_alpha   62.89625704
_cell_angle_beta   89.60258388
_cell_angle_gamma   89.25960000
_symmetry_Int_Tables_number   1
_chemical_formula_structural   CuH3C4(NCl)2
_chemical_formula_sum   'Cu2 H6 C8 N4 Cl4'
_cell_volume   303.30033279
_cell_formula_units_Z   2
loop_
 _symmetry_equiv_pos_site_id
 _symmetry_equiv_pos_as_xyz
  1  'x, y, z'
loop_
 _atom_site_type_symbol
 _atom_site_label
 _atom_site_symmetry_multiplicity
 _atom_site_fract_x
 _atom_site_fract_y
 _atom_site_fract_z
 _atom_site_occupancy
  Cu  Cu0  1  0.49963000  0.70918000  0.58249000  1.0
  Cu  Cu1  1  0.50038000  0.29082000  0.41751000  1.0
  H  H2  1  0.92851000  0.17111000  0.99980000  1.0
  H  H3  1  0.07149000  0.82888000  0.00021000  1.0
  H  H4  1  0.09649000  0.43155000  0.67120000  1.0
  H  H5  1  0.90304000  0.89746000  0.67139000  1.0
  H  H6  1  0.90351000  0.56846000  0.32879000  1.0
  H  H7  1  0.09695000  0.10255000  0.32861000  1.0
  C  C8  1  0.40727000  0.44628000  0.99999000  1.0
  C  C9  1  0.59273000  0.55370000  0.00002000  1.0
  C  C10  1  0.06805000  0.24970000  0.99988000  1.0
  C  C11  1  0.93194000  0.75030000  0.00013000  1.0
  C  C12  1  0.15877000  0.39247000  0.81874000  1.0
  C  C13  1  0.84095000  0.78900000  0.81890000  1.0
  C  C14  1  0.84123000  0.60754000  0.18126000  1.0
  C  C15  1  0.15906000  0.21100000  0.18110000  1.0
  N  N16  1  0.32920000  0.49198000  0.82013000  1.0
  N  N17  1  0.67044000  0.68820000  0.82025000  1.0
  N  N18  1  0.67080000  0.50801000  0.17987000  1.0
  N  N19  1  0.32956000  0.31179000  0.17975000  1.0
  Cl  Cl20  1  0.29356000  0.69811000  0.34992000  1.0
  Cl  Cl21  1  0.70619000  0.95185000  0.35004000  1.0
  Cl  Cl22  1  0.70645000  0.30191000  0.65007000  1.0
  Cl  Cl23  1  0.29381000  0.04816000  0.64995000  1.0
