# generated using pymatgen
data_CuH16C17NO4
_symmetry_space_group_name_H-M   'P 1'
_cell_length_a   9.65680000
_cell_length_b   10.12530000
_cell_length_c   10.55260000
_cell_angle_alpha   71.99680000
_cell_angle_beta   63.88090000
_cell_angle_gamma   63.06840000
_symmetry_Int_Tables_number   1
_chemical_formula_structural   CuH16C17NO4
_chemical_formula_sum   'Cu2 H32 C34 N2 O8'
_cell_volume   818.18067182
_cell_formula_units_Z   2
loop_
 _symmetry_equiv_pos_site_id
 _symmetry_equiv_pos_as_xyz
  1  'x, y, z'
loop_
 _atom_site_type_symbol
 _atom_site_label
 _atom_site_symmetry_multiplicity
 _atom_site_fract_x
 _atom_site_fract_y
 _atom_site_fract_z
 _atom_site_occupancy
  Cu  Cu0  1  0.37123000  0.48771000  0.50531000  1.0
  Cu  Cu1  1  0.62879000  0.51229000  0.49470000  1.0
  H  H2  1  0.39126000  0.65326000  0.07229000  1.0
  H  H3  1  0.60873000  0.34674000  0.92774000  1.0
  H  H4  1  0.42137000  0.79138000  0.82696000  1.0
  H  H5  1  0.57860000  0.20861000  0.17306000  1.0
  H  H6  1  0.61362000  0.93087000  0.71209000  1.0
  H  H7  1  0.38638000  0.06909000  0.28791000  1.0
  H  H8  1  0.77784000  0.92652000  0.84206000  1.0
  H  H9  1  0.22214000  0.07348000  0.15793000  1.0
  H  H10  1  0.75063000  0.78422000  0.08421000  1.0
  H  H11  1  0.24937000  0.21579000  0.91579000  1.0
  H  H12  1  0.99928000  0.90650000  0.62986000  1.0
  H  H13  1  0.00073000  0.09352000  0.37012000  1.0
  H  H14  1  0.81951000  0.15936000  0.71108000  1.0
  H  H15  1  0.18049000  0.84065000  0.28892000  1.0
  H  H16  1  0.94384000  0.30055000  0.75312000  1.0
  H  H17  1  0.05615000  0.69946000  0.24689000  1.0
  H  H18  1  0.24970000  0.20329000  0.69700000  1.0
  H  H19  1  0.75029000  0.79673000  0.30301000  1.0
  H  H20  1  0.42687000  0.95377000  0.61283000  1.0
  H  H21  1  0.57313000  0.04626000  0.38716000  1.0
  H  H22  1  0.27266000  0.36398000  0.34003000  1.0
  H  H23  1  0.72737000  0.63602000  0.65999000  1.0
  H  H24  1  0.00817000  0.38118000  0.32716000  1.0
  H  H25  1  0.99186000  0.61883000  0.67285000  1.0
  H  H26  1  0.93945000  0.40674000  0.93691000  1.0
  H  H27  1  0.06052000  0.59325000  0.06307000  1.0
  H  H28  1  0.93968000  0.22689000  0.03463000  1.0
  H  H29  1  0.06030000  0.77310000  0.96535000  1.0
  H  H30  1  0.74757000  0.38339000  0.05162000  1.0
  H  H31  1  0.25241000  0.61659000  0.94836000  1.0
  H  H32  1  0.88560000  0.37590000  0.12575000  1.0
  H  H33  1  0.11438000  0.62408000  0.87423000  1.0
  C  C34  1  0.54882000  0.62854000  0.24052000  1.0
  C  C35  1  0.45119000  0.37145000  0.75948000  1.0
  C  C36  1  0.56875000  0.71079000  0.09299000  1.0
  C  C37  1  0.43125000  0.28920000  0.90701000  1.0
  C  C38  1  0.47589000  0.71325000  0.02026000  1.0
  C  C39  1  0.52410000  0.28675000  0.97975000  1.0
  C  C40  1  0.49295000  0.79093000  0.88326000  1.0
  C  C41  1  0.50704000  0.20906000  0.11675000  1.0
  C  C42  1  0.60134000  0.86829000  0.81877000  1.0
  C  C43  1  0.39865000  0.13169000  0.18123000  1.0
  C  C44  1  0.69405000  0.86588000  0.89101000  1.0
  C  C45  1  0.30594000  0.13411000  0.10899000  1.0
  C  C46  1  0.67869000  0.78679000  0.02735000  1.0
  C  C47  1  0.32131000  0.21320000  0.97265000  1.0
  C  C48  1  0.32718000  0.76108000  0.57843000  1.0
  C  C49  1  0.67283000  0.23893000  0.42157000  1.0
  C  C50  1  0.22235000  0.91402000  0.62072000  1.0
  C  C51  1  0.77766000  0.08599000  0.37927000  1.0
  C  C52  1  0.05151000  0.97232000  0.64658000  1.0
  C  C53  1  0.94850000  0.02769000  0.35341000  1.0
  C  C54  1  0.95203000  0.11194000  0.69266000  1.0
  C  C55  1  0.04797000  0.88807000  0.30734000  1.0
  C  C56  1  0.02282000  0.19289000  0.71427000  1.0
  C  C57  1  0.97718000  0.80712000  0.28573000  1.0
  C  C58  1  0.19375000  0.13768000  0.68472000  1.0
  C  C59  1  0.80624000  0.86234000  0.31528000  1.0
  C  C60  1  0.29337000  0.99870000  0.63724000  1.0
  C  C61  1  0.70663000  0.00132000  0.36275000  1.0
  C  C62  1  0.15020000  0.42469000  0.41154000  1.0
  C  C63  1  0.84983000  0.57532000  0.58847000  1.0
  C  C64  1  0.00526000  0.43469000  0.40401000  1.0
  C  C65  1  0.99477000  0.56531000  0.59600000  1.0
  C  C66  1  0.87840000  0.34784000  0.03715000  1.0
  C  C67  1  0.12157000  0.65215000  0.96282000  1.0
  N  N68  1  0.14450000  0.48985000  0.50760000  1.0
  N  N69  1  0.85553000  0.51015000  0.49242000  1.0
  O  O70  1  0.42776000  0.58334000  0.30210000  1.0
  O  O71  1  0.57225000  0.41665000  0.69791000  1.0
  O  O72  1  0.65270000  0.61099000  0.29403000  1.0
  O  O73  1  0.34732000  0.38900000  0.70597000  1.0
  O  O74  1  0.25354000  0.69013000  0.56689000  1.0
  O  O75  1  0.74647000  0.30987000  0.43312000  1.0
  O  O76  1  0.48168000  0.71277000  0.55808000  1.0
  O  O77  1  0.51833000  0.28723000  0.44192000  1.0
