# generated using pymatgen
data_ZnH5C9S2NO11
_symmetry_space_group_name_H-M   'P 1'
_cell_length_a   9.95153000
_cell_length_b   10.86280000
_cell_length_c   13.62090000
_cell_angle_alpha   91.67100000
_cell_angle_beta   98.39430000
_cell_angle_gamma   90.00270000
_symmetry_Int_Tables_number   1
_chemical_formula_structural   ZnH5C9S2NO11
_chemical_formula_sum   'Zn2 H10 C18 S4 N2 O22'
_cell_volume   1456.03175893
_cell_formula_units_Z   2
loop_
 _symmetry_equiv_pos_site_id
 _symmetry_equiv_pos_as_xyz
  1  'x, y, z'
loop_
 _atom_site_type_symbol
 _atom_site_label
 _atom_site_symmetry_multiplicity
 _atom_site_fract_x
 _atom_site_fract_y
 _atom_site_fract_z
 _atom_site_occupancy
  Zn  Zn0  1  0.64290000  0.51687000  0.49048000  1.0
  Zn  Zn1  1  0.35397000  0.48286000  0.49722000  1.0
  H  H2  1  0.65816000  0.47914000  0.02945000  1.0
  H  H3  1  0.13861000  0.78468000  0.45598000  1.0
  H  H4  1  0.32056000  0.86994000  0.36395000  1.0
  H  H5  1  0.53494000  0.92391000  0.54923000  1.0
  H  H6  1  0.87992000  0.46458000  0.43747000  1.0
  H  H7  1  0.24783000  0.37169000  0.72771000  1.0
  H  H8  1  0.16081000  0.51028000  0.03410000  1.0
  H  H9  1  0.09349000  0.05405000  0.28970000  1.0
  H  H10  1  0.69195000  0.24414000  0.37510000  1.0
  H  H11  1  0.92594000  0.81541000  0.54833000  1.0
  C  C12  1  0.51021000  0.26151000  0.45412000  1.0
  C  C13  1  0.47277000  0.73486000  0.50267000  1.0
  C  C14  1  0.44526000  0.50863000  0.30527000  1.0
  C  C15  1  0.42992000  0.50401000  0.19806000  1.0
  C  C16  1  0.44473000  0.48419000  0.00814000  1.0
  C  C17  1  0.56714000  0.47776000  0.97372000  1.0
  C  C18  1  0.58117000  0.47209000  0.87342000  1.0
  C  C19  1  0.43317000  0.49441000  0.10899000  1.0
  C  C20  1  0.90016000  0.72513000  0.57827000  1.0
  C  C21  1  0.11580000  0.69063000  0.42376000  1.0
  C  C22  1  0.58366000  0.47195000  0.78426000  1.0
  C  C23  1  0.38883000  0.92408000  0.41855000  1.0
  C  C24  1  0.46619000  0.87024000  0.49451000  1.0
  C  C25  1  0.38776000  0.05832000  0.41558000  1.0
  C  C26  1  0.50124000  0.12840000  0.42067000  1.0
  C  C27  1  0.93430000  0.61145000  0.51727000  1.0
  C  C28  1  0.07699000  0.59553000  0.49682000  1.0
  C  C29  1  0.56025000  0.47833000  0.67754000  1.0
  S  S30  1  0.08554000  0.40457000  0.61019000  1.0
  S  S31  1  0.28915000  0.48992000  0.92141000  1.0
  S  S32  1  0.21748000  0.11846000  0.42240000  1.0
  S  S33  1  0.65734000  0.05573000  0.39140000  1.0
  N  N34  1  0.84214000  0.53618000  0.47609000  1.0
  N  N35  1  0.15468000  0.50653000  0.52945000  1.0
  O  O36  1  0.61277000  0.32526000  0.43668000  1.0
  O  O37  1  0.00439000  0.32059000  0.54367000  1.0
  O  O38  1  0.21596000  0.33923000  0.65734000  1.0
  O  O39  1  0.26445000  0.61529000  0.89422000  1.0
  O  O40  1  0.29010000  0.39232000  0.84713000  1.0
  O  O41  1  0.17885000  0.44437000  0.98700000  1.0
  O  O42  1  0.19103000  0.09582000  0.52076000  1.0
  O  O43  1  0.18939000  0.23309000  0.37344000  1.0
  O  O44  1  0.13174000  0.01381000  0.35092000  1.0
  O  O45  1  0.74253000  0.03324000  0.48425000  1.0
  O  O46  1  0.62604000  0.95662000  0.31959000  1.0
  O  O47  1  0.41775000  0.30123000  0.50066000  1.0
  O  O48  1  0.71519000  0.16484000  0.33626000  1.0
  O  O49  1  0.85091000  0.71571000  0.65366000  1.0
  O  O50  1  0.10374000  0.66368000  0.33580000  1.0
  O  O51  1  0.65842000  0.45677000  0.62956000  1.0
  O  O52  1  0.43887000  0.50645000  0.64208000  1.0
  O  O53  1  0.59066000  0.69152000  0.52815000  1.0
  O  O54  1  0.36334000  0.67199000  0.48240000  1.0
  O  O55  1  0.56057000  0.54812000  0.34739000  1.0
  O  O56  1  0.34648000  0.47084000  0.34590000  1.0
  O  O57  1  0.03010000  0.48141000  0.68174000  1.0
