# generated using pymatgen
data_AgH4(C3N)2
_symmetry_space_group_name_H-M   'P 1'
_cell_length_a   7.52601000
_cell_length_b   7.52889000
_cell_length_c   11.14820000
_cell_angle_alpha   100.06300000
_cell_angle_beta   103.08900000
_cell_angle_gamma   113.88200000
_symmetry_Int_Tables_number   1
_chemical_formula_structural   AgH4(C3N)2
_chemical_formula_sum   'Ag4 H16 C24 N8'
_cell_volume   536.83388917
_cell_formula_units_Z   4
loop_
 _symmetry_equiv_pos_site_id
 _symmetry_equiv_pos_as_xyz
  1  'x, y, z'
loop_
 _atom_site_type_symbol
 _atom_site_label
 _atom_site_symmetry_multiplicity
 _atom_site_fract_x
 _atom_site_fract_y
 _atom_site_fract_z
 _atom_site_occupancy
  Ag  Ag0  1  0.35559000  0.60535000  0.74986000  1.0
  Ag  Ag1  1  0.64442000  0.39465000  0.25014000  1.0
  Ag  Ag2  1  0.50000000  0.50000000  0.50000000  1.0
  Ag  Ag3  1  0.50000000  0.00000000  0.00000000  1.0
  H  H4  1  0.14828000  0.85537000  0.34482000  1.0
  H  H5  1  0.01058000  0.80325000  0.15512000  1.0
  H  H6  1  0.85172000  0.14463000  0.65518000  1.0
  H  H7  1  0.98942000  0.19675000  0.84488000  1.0
  H  H8  1  0.44763000  0.01968000  0.27568000  1.0
  H  H9  1  0.24350000  0.17168000  0.22432000  1.0
  H  H10  1  0.55237000  0.98033000  0.72432000  1.0
  H  H11  1  0.75650000  0.82832000  0.77568000  1.0
  H  H12  1  0.88737000  0.51276000  0.72391000  1.0
  H  H13  1  0.28938000  0.16392000  0.77610000  1.0
  H  H14  1  0.11264000  0.48725000  0.27609000  1.0
  H  H15  1  0.71062000  0.83607000  0.22391000  1.0
  H  H16  1  0.88651000  0.82694000  0.44720000  1.0
  H  H17  1  0.87977000  0.43974000  0.05320000  1.0
  H  H18  1  0.11349000  0.17306000  0.55281000  1.0
  H  H19  1  0.12023000  0.56026000  0.94681000  1.0
  C  C20  1  0.32620000  0.90244000  0.53895000  1.0
  C  C21  1  0.86382000  0.78730000  0.96100000  1.0
  C  C22  1  0.67380000  0.09756000  0.46105000  1.0
  C  C23  1  0.13618000  0.21270000  0.03900000  1.0
  C  C24  1  0.30311000  0.92136000  0.41370000  1.0
  C  C25  1  0.00764000  0.88923000  0.08624000  1.0
  C  C26  1  0.69689000  0.07865000  0.58630000  1.0
  C  C27  1  0.99236000  0.11077000  0.91376000  1.0
  C  C28  1  0.47210000  0.01597000  0.37521000  1.0
  C  C29  1  0.14047000  0.09676000  0.12481000  1.0
  C  C30  1  0.52791000  0.98403000  0.62479000  1.0
  C  C31  1  0.85953000  0.90324000  0.87519000  1.0
  C  C32  1  0.94259000  0.60678000  0.66377000  1.0
  C  C33  1  0.44351000  0.27913000  0.83627000  1.0
  C  C34  1  0.05741000  0.39321000  0.33623000  1.0
  C  C35  1  0.55649000  0.72087000  0.16374000  1.0
  C  C36  1  0.94532000  0.76793000  0.51992000  1.0
  C  C37  1  0.74816000  0.42570000  0.98030000  1.0
  C  C38  1  0.05468000  0.23207000  0.48008000  1.0
  C  C39  1  0.25184000  0.57430000  0.01971000  1.0
  C  C40  1  0.14446000  0.79789000  0.57415000  1.0
  C  C41  1  0.72417000  0.57043000  0.92578000  1.0
  C  C42  1  0.85554000  0.20211000  0.42585000  1.0
  C  C43  1  0.27583000  0.42957000  0.07422000  1.0
  N  N44  1  0.13975000  0.69518000  0.66666667  1.0
  N  N45  1  0.52906000  0.47317000  0.83311000  1.0
  N  N46  1  0.86026000  0.30482000  0.33329000  1.0
  N  N47  1  0.47093000  0.52683000  0.16689000  1.0
  N  N48  1  0.81952000  0.64694000  0.57644000  1.0
  N  N49  1  0.57074000  0.24350000  0.92385000  1.0
  N  N50  1  0.18048000  0.35305000  0.42356000  1.0
  N  N51  1  0.42926000  0.75650000  0.07616000  1.0
