# generated using pymatgen
data_CdH26C24SN8O7
_symmetry_space_group_name_H-M   'P 1'
_cell_length_a   10.64690000
_cell_length_b   14.54950000
_cell_length_c   18.80040000
_cell_angle_alpha   90.00000000
_cell_angle_beta   90.00010000
_cell_angle_gamma   92.21360000
_symmetry_Int_Tables_number   1
_chemical_formula_structural   CdH26C24SN8O7
_chemical_formula_sum   'Cd4 H104 C96 S4 N32 O28'
_cell_volume   2910.14166969
_cell_formula_units_Z   4
loop_
 _symmetry_equiv_pos_site_id
 _symmetry_equiv_pos_as_xyz
  1  'x, y, z'
loop_
 _atom_site_type_symbol
 _atom_site_label
 _atom_site_symmetry_multiplicity
 _atom_site_fract_x
 _atom_site_fract_y
 _atom_site_fract_z
 _atom_site_occupancy
  Cd  Cd0  1  0.00929000  0.22855000  0.71242000  1.0
  Cd  Cd1  1  0.49071000  0.27145000  0.21242000  1.0
  Cd  Cd2  1  0.99071000  0.77145000  0.28758000  1.0
  Cd  Cd3  1  0.50929000  0.72855000  0.78758000  1.0
  H  H4  1  0.14195000  0.13565000  0.83963000  1.0
  H  H5  1  0.35805000  0.36435000  0.33963000  1.0
  H  H6  1  0.85805000  0.86435000  0.16037000  1.0
  H  H7  1  0.64195000  0.63565000  0.66037000  1.0
  H  H8  1  0.34981000  0.07422000  0.87728000  1.0
  H  H9  1  0.15019000  0.42578000  0.37728000  1.0
  H  H10  1  0.65019000  0.92578000  0.12272000  1.0
  H  H11  1  0.84981000  0.57422000  0.62272000  1.0
  H  H12  1  0.53474000  0.09354000  0.79548000  1.0
  H  H13  1  0.96526000  0.40646000  0.29549000  1.0
  H  H14  1  0.46526000  0.90646000  0.20452000  1.0
  H  H15  1  0.03474000  0.59354000  0.70452000  1.0
  H  H16  1  0.29256000  0.22910000  0.64772000  1.0
  H  H17  1  0.20744000  0.27090000  0.14772000  1.0
  H  H18  1  0.70744000  0.77090000  0.35228000  1.0
  H  H19  1  0.79256000  0.72910000  0.85228000  1.0
  H  H20  1  0.77736000  0.21905000  0.48767000  1.0
  H  H21  1  0.72264000  0.28095000  0.98768000  1.0
  H  H22  1  0.22264000  0.78095000  0.51232000  1.0
  H  H23  1  0.27736000  0.71905000  0.01233000  1.0
  H  H24  1  0.66167000  0.30166000  0.50002000  1.0
  H  H25  1  0.83833000  0.19835000  0.00002000  1.0
  H  H26  1  0.33833000  0.69835000  0.49998000  1.0
  H  H27  1  0.16167000  0.80166000  0.99998000  1.0
  H  H28  1  0.56584000  0.05497000  0.49305000  1.0
  H  H29  1  0.93416000  0.44503000  0.99305000  1.0
  H  H30  1  0.43415000  0.94503000  0.50695000  1.0
  H  H31  1  0.06584000  0.55497000  0.00695000  1.0
  H  H32  1  0.43174000  0.98956000  0.39233000  1.0
  H  H33  1  0.06826000  0.51044000  0.89232000  1.0
  H  H34  1  0.56826000  0.01044000  0.60767000  1.0
  H  H35  1  0.93174000  0.48957000  0.10768000  1.0
  H  H36  1  0.39829000  0.08696000  0.28624000  1.0
  H  H37  1  0.10172000  0.41304000  0.78624000  1.0
  H  H38  1  0.60172000  0.91304000  0.71376000  1.0
  H  H39  1  0.89828000  0.58697000  0.21376000  1.0
  H  H40  1  0.61473000  0.30378000  0.37089000  1.0
  H  H41  1  0.88527000  0.19622000  0.87090000  1.0
  H  H42  1  0.38527000  0.69622000  0.62911000  1.0
  H  H43  1  0.11473000  0.80378000  0.12910000  1.0
  H  H44  1  0.05938000  0.02903000  0.66666667  1.0
  H  H45  1  0.44063000  0.47097000  0.16662000  1.0
  H  H46  1  0.94062000  0.97097000  0.33338000  1.0
  H  H47  1  0.55937000  0.52903000  0.83338000  1.0
  H  H48  1  0.15766000  0.93788000  0.56989000  1.0
  H  H49  1  0.34234000  0.56212000  0.06989000  1.0
  H  H50  1  0.84234000  0.06212000  0.43011000  1.0
  H  H51  1  0.65766000  0.43788000  0.93011000  1.0
  H  H52  1  0.20034000  0.01505000  0.45109000  1.0
  H  H53  1  0.29965000  0.48495000  0.95109000  1.0
  H  H54  1  0.79966000  0.98495000  0.54891000  1.0
  H  H55  1  0.70034000  0.51505000  0.04891000  1.0
  H  H56  1  0.05089000  0.26067000  0.53938000  1.0
  H  H57  1  0.44911000  0.23932000  0.03938000  1.0
  H  H58  1  0.94911000  0.73933000  0.46062000  1.0
  H  H59  1  0.55089000  0.76068000  0.96062000  1.0
  H  H60  1  0.16755000  0.11978000  0.32175000  1.0
  H  H61  1  0.33245000  0.38022000  0.82175000  1.0
  H  H62  1  0.83244000  0.88022000  0.67825000  1.0
  H  H63  1  0.66755000  0.61978000  0.17825000  1.0
  H  H64  1  0.59592000  0.14908000  0.08539000  1.0
  H  H65  1  0.90407000  0.35092000  0.58539000  1.0
  H  H66  1  0.40408000  0.85092000  0.91461000  1.0
  H  H67  1  0.09592000  0.64908000  0.41461000  1.0
  H  H68  1  0.77796000  0.05185000  0.05514000  1.0
  H  H69  1  0.72204000  0.44815000  0.55514000  1.0
  H  H70  1  0.22205000  0.94815000  0.94486000  1.0
  H  H71  1  0.27796000  0.55185000  0.44486000  1.0
  H  H72  1  0.95454000  0.04161000  0.14293000  1.0
  H  H73  1  0.54546000  0.45839000  0.64293000  1.0
  H  H74  1  0.04546000  0.95839000  0.85707000  1.0
  H  H75  1  0.45454000  0.54161000  0.35707000  1.0
  H  H76  1  0.75551000  0.22355000  0.28031000  1.0
  H  H77  1  0.74449000  0.27645000  0.78031000  1.0
  H  H78  1  0.24449000  0.77645000  0.71969000  1.0
  H  H79  1  0.25551000  0.72355000  0.21969000  1.0
  H  H80  1  0.60968000  0.13315000  0.68637000  1.0
  H  H81  1  0.89032000  0.36685000  0.18637000  1.0
  H  H82  1  0.39032000  0.86685000  0.31363000  1.0
  H  H83  1  0.10968000  0.63315000  0.81363000  1.0
  H  H84  1  0.71981000  0.15984000  0.59792000  1.0
  H  H85  1  0.78019000  0.34016000  0.09792000  1.0
  H  H86  1  0.28019000  0.84016000  0.40208000  1.0
  H  H87  1  0.21981000  0.65984000  0.90208000  1.0
  H  H88  1  0.04617000  0.09262000  0.24415000  1.0
  H  H89  1  0.45383000  0.40738000  0.74415000  1.0
  H  H90  1  0.95383000  0.90738000  0.75585000  1.0
  H  H91  1  0.54617000  0.59262000  0.25585000  1.0
  H  H92  1  0.11428000  0.26516000  0.42354000  1.0
  H  H93  1  0.38572000  0.23484000  0.92353000  1.0
  H  H94  1  0.88572000  0.73484000  0.57647000  1.0
  H  H95  1  0.61428000  0.76516000  0.07646000  1.0
  H  H96  1  0.25714000  0.20819000  0.41292000  1.0
  H  H97  1  0.24286000  0.29181000  0.91292000  1.0
  H  H98  1  0.74286000  0.79181000  0.58708000  1.0
  H  H99  1  0.75714000  0.70819000  0.08708000  1.0
  H  H100  1  0.19915000  0.39501000  0.68174000  1.0
  H  H101  1  0.30085000  0.10499000  0.18174000  1.0
  H  H102  1  0.80085000  0.60499000  0.31826000  1.0
  H  H103  1  0.69915000  0.89501000  0.81826000  1.0
  H  H104  1  0.07351000  0.41961000  0.64652000  1.0
  H  H105  1  0.42649000  0.08040000  0.14652000  1.0
  H  H106  1  0.92649000  0.58040000  0.35347000  1.0
  H  H107  1  0.57351000  0.91961000  0.85347000  1.0
  C  C108  1  0.22511000  0.14196000  0.80590000  1.0
  C  C109  1  0.27489000  0.35804000  0.30591000  1.0
  C  C110  1  0.77489000  0.85804000  0.19410000  1.0
  C  C111  1  0.72511000  0.64196000  0.69409000  1.0
  C  C112  1  0.34015000  0.10758000  0.82586000  1.0
  C  C113  1  0.15985000  0.39242000  0.32586000  1.0
  C  C114  1  0.65985000  0.89242000  0.17414000  1.0
  C  C115  1  0.84015000  0.60758000  0.67414000  1.0
  C  C116  1  0.44195000  0.11652000  0.78017000  1.0
  C  C117  1  0.05805000  0.38348000  0.28017000  1.0
  C  C118  1  0.55805000  0.88348000  0.21983000  1.0
  C  C119  1  0.94195000  0.61652000  0.71983000  1.0
  C  C120  1  0.42670000  0.15954000  0.71374000  1.0
  C  C121  1  0.07330000  0.34046000  0.21374000  1.0
  C  C122  1  0.57330000  0.84046000  0.28626000  1.0
  C  C123  1  0.92670000  0.65954000  0.78626000  1.0
  C  C124  1  0.30830000  0.19393000  0.69776000  1.0
  C  C125  1  0.19170000  0.30607000  0.19777000  1.0
  C  C126  1  0.69170000  0.80607000  0.30223000  1.0
  C  C127  1  0.80830000  0.69393000  0.80223000  1.0
  C  C128  1  0.53637000  0.20191000  0.60094000  1.0
  C  C129  1  0.96363000  0.29810000  0.10094000  1.0
  C  C130  1  0.46363000  0.79810000  0.39906000  1.0
  C  C131  1  0.03637000  0.70190000  0.89906000  1.0
  C  C132  1  0.67714000  0.22730000  0.49947000  1.0
  C  C133  1  0.82286000  0.27270000  0.99948000  1.0
  C  C134  1  0.32286000  0.77270000  0.50052000  1.0
  C  C135  1  0.17714000  0.72730000  0.00052000  1.0
  C  C136  1  0.59880000  0.18431000  0.44038000  1.0
  C  C137  1  0.90120000  0.31569000  0.94039000  1.0
  C  C138  1  0.40119000  0.81569000  0.55962000  1.0
  C  C139  1  0.09880000  0.68431000  0.05961000  1.0
  C  C140  1  0.54816000  0.09483000  0.44535000  1.0
  C  C141  1  0.95184000  0.40517000  0.94535000  1.0
  C  C142  1  0.45184000  0.90517000  0.55465000  1.0
  C  C143  1  0.04815000  0.59483000  0.05465000  1.0
  C  C144  1  0.47470000  0.05852000  0.39018000  1.0
  C  C145  1  0.02531000  0.44148000  0.89018000  1.0
  C  C146  1  0.52531000  0.94148000  0.60982000  1.0
  C  C147  1  0.97469000  0.55852000  0.10982000  1.0
  C  C148  1  0.45565000  0.11251000  0.33049000  1.0
  C  C149  1  0.04435000  0.38749000  0.83049000  1.0
  C  C150  1  0.54435000  0.88749000  0.66951000  1.0
  C  C151  1  0.95565000  0.61251000  0.16951000  1.0
  C  C152  1  0.57543000  0.23391000  0.37845000  1.0
  C  C153  1  0.92457000  0.26609000  0.87845000  1.0
  C  C154  1  0.42457000  0.76609000  0.62155000  1.0
  C  C155  1  0.07543000  0.73391000  0.12155000  1.0
  C  C156  1  0.08012000  0.05906000  0.61465000  1.0
  C  C157  1  0.41988000  0.44094000  0.11465000  1.0
  C  C158  1  0.91988000  0.94095000  0.38536000  1.0
  C  C159  1  0.58012000  0.55906000  0.88535000  1.0
  C  C160  1  0.13535000  0.00932000  0.56039000  1.0
  C  C161  1  0.36466000  0.49067000  0.06039000  1.0
  C  C162  1  0.86465000  0.99068000  0.43961000  1.0
  C  C163  1  0.63535000  0.50933000  0.93961000  1.0
  C  C164  1  0.15915000  0.05225000  0.49526000  1.0
  C  C165  1  0.34085000  0.44775000  0.99526000  1.0
  C  C166  1  0.84085000  0.94775000  0.50474000  1.0
  C  C167  1  0.65915000  0.55225000  0.00474000  1.0
  C  C168  1  0.12809000  0.14406000  0.48640000  1.0
  C  C169  1  0.37191000  0.35594000  0.98640000  1.0
  C  C170  1  0.87192000  0.85594000  0.51360000  1.0
  C  C171  1  0.62808000  0.64406000  0.01360000  1.0
  C  C172  1  0.07376000  0.18841000  0.54372000  1.0
  C  C173  1  0.42624000  0.31159000  0.04372000  1.0
  C  C174  1  0.92625000  0.81159000  0.45628000  1.0
  C  C175  1  0.57375000  0.68841000  0.95628000  1.0
  C  C176  1  0.67357000  0.14149000  0.12243000  1.0
  C  C177  1  0.82642000  0.35851000  0.62243000  1.0
  C  C178  1  0.32643000  0.85851000  0.87757000  1.0
  C  C179  1  0.17357000  0.64149000  0.37757000  1.0
  C  C180  1  0.77532000  0.08812000  0.10583000  1.0
  C  C181  1  0.72468000  0.41189000  0.60583000  1.0
  C  C182  1  0.22468000  0.91189000  0.89416000  1.0
  C  C183  1  0.27532000  0.58811000  0.39417000  1.0
  C  C184  1  0.87308000  0.08245000  0.15412000  1.0
  C  C185  1  0.62692000  0.41755000  0.65412000  1.0
  C  C186  1  0.12692000  0.91755000  0.84588000  1.0
  C  C187  1  0.37308000  0.58245000  0.34588000  1.0
  C  C188  1  0.86784000  0.13082000  0.21896000  1.0
  C  C189  1  0.63216000  0.36918000  0.71896000  1.0
  C  C190  1  0.13216000  0.86918000  0.78104000  1.0
  C  C191  1  0.36784000  0.63082000  0.28104000  1.0
  C  C192  1  0.76174000  0.18348000  0.23167000  1.0
  C  C193  1  0.73826000  0.31652000  0.73167000  1.0
  C  C194  1  0.23826000  0.81651000  0.76833000  1.0
  C  C195  1  0.26174000  0.68348000  0.26833000  1.0
  C  C196  1  0.98780000  0.16496000  0.33109000  1.0
  C  C197  1  0.51220000  0.33503000  0.83109000  1.0
  C  C198  1  0.01219000  0.83504000  0.66891000  1.0
  C  C199  1  0.48780000  0.66496000  0.16891000  1.0
  C  C200  1  0.15486000  0.19717000  0.41880000  1.0
  C  C201  1  0.34514000  0.30283000  0.91880000  1.0
  C  C202  1  0.84514000  0.80283000  0.58120000  1.0
  C  C203  1  0.65486000  0.69717000  0.08120000  1.0
  S  S204  1  0.80315000  0.05305000  0.76000000  1.0
  S  S205  1  0.69685000  0.44695000  0.26000000  1.0
  S  S206  1  0.19685000  0.94695000  0.24000000  1.0
  S  S207  1  0.30315000  0.55305000  0.74000000  1.0
  N  N208  1  0.10800000  0.15365000  0.35447000  1.0
  N  N209  1  0.39200000  0.34635000  0.85447000  1.0
  N  N210  1  0.89200000  0.84636000  0.64553000  1.0
  N  N211  1  0.60800000  0.65365000  0.14553000  1.0
  N  N212  1  0.21139000  0.18477000  0.74336000  1.0
  N  N213  1  0.28861000  0.31524000  0.24336000  1.0
  N  N214  1  0.78861000  0.81524000  0.25664000  1.0
  N  N215  1  0.71139000  0.68477000  0.75664000  1.0
  N  N216  1  0.52977000  0.16516000  0.66891000  1.0
  N  N217  1  0.97023000  0.33484000  0.16892000  1.0
  N  N218  1  0.47023000  0.83484000  0.33109000  1.0
  N  N219  1  0.02977000  0.66516000  0.83108000  1.0
  N  N220  1  0.65013000  0.18748000  0.56864000  1.0
  N  N221  1  0.84987000  0.31252000  0.06864000  1.0
  N  N222  1  0.34987000  0.81252000  0.43136000  1.0
  N  N223  1  0.15013000  0.68748000  0.93136000  1.0
  N  N224  1  0.04951000  0.14734000  0.60647000  1.0
  N  N225  1  0.45049000  0.35266000  0.10647000  1.0
  N  N226  1  0.95049000  0.85266000  0.39353000  1.0
  N  N227  1  0.54951000  0.64734000  0.89353000  1.0
  N  N228  1  0.66790000  0.18794000  0.18417000  1.0
  N  N229  1  0.83210000  0.31206000  0.68417000  1.0
  N  N230  1  0.33210000  0.81206000  0.81583000  1.0
  N  N231  1  0.16790000  0.68794000  0.31583000  1.0
  N  N232  1  0.96909000  0.12589000  0.26412000  1.0
  N  N233  1  0.53091000  0.37411000  0.76412000  1.0
  N  N234  1  0.03090000  0.87411000  0.73588000  1.0
  N  N235  1  0.46909000  0.62589000  0.23588000  1.0
  N  N236  1  0.50590000  0.19849000  0.32463000  1.0
  N  N237  1  0.99410000  0.30151000  0.82463000  1.0
  N  N238  1  0.49410000  0.80151000  0.67537000  1.0
  N  N239  1  0.00590000  0.69849000  0.17537000  1.0
  O  O240  1  0.90635000  0.20413000  0.36584000  1.0
  O  O241  1  0.59365000  0.29587000  0.86584000  1.0
  O  O242  1  0.09365000  0.79587000  0.63416000  1.0
  O  O243  1  0.40635000  0.70413000  0.13416000  1.0
  O  O244  1  0.45063000  0.24215000  0.57093000  1.0
  O  O245  1  0.04937000  0.25785000  0.07093000  1.0
  O  O246  1  0.54937000  0.75785000  0.42907000  1.0
  O  O247  1  0.95063000  0.74215000  0.92907000  1.0
  O  O248  1  0.12417000  0.36675000  0.65602000  1.0
  O  O249  1  0.37583000  0.13325000  0.15602000  1.0
  O  O250  1  0.87583000  0.63325000  0.34398000  1.0
  O  O251  1  0.62417000  0.86675000  0.84398000  1.0
  O  O252  1  0.93709000  0.08903000  0.76472000  1.0
  O  O253  1  0.56291000  0.41097000  0.26472000  1.0
  O  O254  1  0.06291000  0.91097000  0.23528000  1.0
  O  O255  1  0.43709000  0.58903000  0.73528000  1.0
  O  O256  1  0.80562000  0.94883000  0.76645000  1.0
  O  O257  1  0.69438000  0.55117000  0.26645000  1.0
  O  O258  1  0.19438000  0.05117000  0.23355000  1.0
  O  O259  1  0.30561000  0.44883000  0.73355000  1.0
  O  O260  1  0.72668000  0.08923000  0.81786000  1.0
  O  O261  1  0.77332000  0.41077000  0.31786000  1.0
  O  O262  1  0.27332000  0.91077000  0.18214000  1.0
  O  O263  1  0.22668000  0.58923000  0.68214000  1.0
  O  O264  1  0.75144000  0.07548000  0.68842000  1.0
  O  O265  1  0.74856000  0.42452000  0.18842000  1.0
  O  O266  1  0.24856000  0.92452000  0.31159000  1.0
  O  O267  1  0.25144000  0.57548000  0.81159000  1.0
