# generated using pymatgen
data_HgH16C22Br4(N3O)2
_symmetry_space_group_name_H-M   'P 1'
_cell_length_a   3.93929000
_cell_length_b   15.10500000
_cell_length_c   20.82900000
_cell_angle_alpha   90.99220000
_cell_angle_beta   90.00000000
_cell_angle_gamma   90.00000000
_symmetry_Int_Tables_number   1
_chemical_formula_structural   HgH16C22Br4(N3O)2
_chemical_formula_sum   'Hg2 H32 C44 Br8 N12 O4'
_cell_volume   1239.20164410
_cell_formula_units_Z   2
loop_
 _symmetry_equiv_pos_site_id
 _symmetry_equiv_pos_as_xyz
  1  'x, y, z'
loop_
 _atom_site_type_symbol
 _atom_site_label
 _atom_site_symmetry_multiplicity
 _atom_site_fract_x
 _atom_site_fract_y
 _atom_site_fract_z
 _atom_site_occupancy
  Hg  Hg0  1  0.00000000  0.00000000  0.00000000  1.0
  Hg  Hg1  1  0.50000000  0.50000000  0.50000000  1.0
  H  H2  1  0.59007000  0.81454000  0.77109000  1.0
  H  H3  1  0.09007000  0.68546000  0.72891000  1.0
  H  H4  1  0.40993000  0.18546000  0.22891000  1.0
  H  H5  1  0.90993000  0.31454000  0.27109000  1.0
  H  H6  1  0.68985000  0.94329000  0.84873000  1.0
  H  H7  1  0.18985000  0.55670000  0.65127000  1.0
  H  H8  1  0.31015000  0.05670000  0.15127000  1.0
  H  H9  1  0.81015000  0.44330000  0.34873000  1.0
  H  H10  1  0.17659000  0.77471000  0.97455000  1.0
  H  H11  1  0.67659000  0.72529000  0.52545000  1.0
  H  H12  1  0.82341000  0.22529000  0.02545000  1.0
  H  H13  1  0.32340000  0.27471000  0.47455000  1.0
  H  H14  1  0.88812000  0.28205000  0.77108000  1.0
  H  H15  1  0.38812000  0.21795000  0.72892000  1.0
  H  H16  1  0.11188000  0.71795000  0.22892000  1.0
  H  H17  1  0.61189000  0.78205000  0.27108000  1.0
  H  H18  1  0.17434000  0.20932000  0.86265000  1.0
  H  H19  1  0.67434000  0.29068000  0.63734000  1.0
  H  H20  1  0.82566000  0.79068000  0.13734000  1.0
  H  H21  1  0.32566000  0.70932000  0.36266000  1.0
  H  H22  1  0.39206000  0.30233000  0.95469000  1.0
  H  H23  1  0.89207000  0.19766000  0.54531000  1.0
  H  H24  1  0.60794000  0.69766000  0.04531000  1.0
  H  H25  1  0.10793000  0.80234000  0.45469000  1.0
  H  H26  1  0.31346000  0.46417000  0.95540000  1.0
  H  H27  1  0.81349000  0.03583000  0.54460000  1.0
  H  H28  1  0.68654000  0.53583000  0.04460000  1.0
  H  H29  1  0.18651000  0.96417000  0.45540000  1.0
  H  H30  1  0.85966000  0.57988000  0.82532000  1.0
  H  H31  1  0.35966000  0.92013000  0.67468000  1.0
  H  H32  1  0.14034000  0.42012000  0.17468000  1.0
  H  H33  1  0.64034000  0.07988000  0.32532000  1.0
  C  C34  1  0.72255000  0.80536000  0.81662000  1.0
  C  C35  1  0.22255000  0.69463000  0.68338000  1.0
  C  C36  1  0.27745000  0.19464000  0.18338000  1.0
  C  C37  1  0.77744000  0.30537000  0.31662000  1.0
  C  C38  1  0.77856000  0.87653000  0.85906000  1.0
  C  C39  1  0.27856000  0.62347000  0.64094000  1.0
  C  C40  1  0.22144000  0.12347000  0.14094000  1.0
  C  C41  1  0.72144000  0.37653000  0.35906000  1.0
  C  C42  1  0.04659000  0.78372000  0.92886000  1.0
  C  C43  1  0.54659000  0.71628000  0.57114000  1.0
  C  C44  1  0.95341000  0.21628000  0.07114000  1.0
  C  C45  1  0.45339000  0.28372000  0.42886000  1.0
  C  C46  1  0.99129000  0.71251000  0.88610000  1.0
  C  C47  1  0.49129000  0.78748000  0.61390000  1.0
  C  C48  1  0.00871000  0.28749000  0.11390000  1.0
  C  C49  1  0.50869000  0.21252000  0.38610000  1.0
  C  C50  1  0.12093000  0.62216000  0.90304000  1.0
  C  C51  1  0.62093000  0.87784000  0.59696000  1.0
  C  C52  1  0.87907000  0.37784000  0.09696000  1.0
  C  C53  1  0.37906000  0.12216000  0.40304000  1.0
  C  C54  1  0.05895000  0.46606000  0.86388000  1.0
  C  C55  1  0.55897000  0.03394000  0.63612000  1.0
  C  C56  1  0.94105000  0.53394000  0.13612000  1.0
  C  C57  1  0.44103000  0.96607000  0.36388000  1.0
  C  C58  1  0.94245000  0.41271000  0.81222000  1.0
  C  C59  1  0.44246000  0.08729000  0.68778000  1.0
  C  C60  1  0.05756000  0.58729000  0.18778000  1.0
  C  C61  1  0.55755000  0.91271000  0.31222000  1.0
  C  C62  1  0.98212000  0.32136000  0.81160000  1.0
  C  C63  1  0.48212000  0.17864000  0.68840000  1.0
  C  C64  1  0.01788000  0.67864000  0.18840000  1.0
  C  C65  1  0.51788000  0.82136000  0.31160000  1.0
  C  C66  1  0.14248000  0.28100000  0.86318000  1.0
  C  C67  1  0.64249000  0.21900000  0.63682000  1.0
  C  C68  1  0.85752000  0.71900000  0.13682000  1.0
  C  C69  1  0.35752000  0.78100000  0.36318000  1.0
  C  C70  1  0.26115000  0.33263000  0.91462000  1.0
  C  C71  1  0.76117000  0.16737000  0.58538000  1.0
  C  C72  1  0.73885000  0.66737000  0.08538000  1.0
  C  C73  1  0.23883000  0.83263000  0.41462000  1.0
  C  C74  1  0.22007000  0.42414000  0.91537000  1.0
  C  C75  1  0.72010000  0.07585000  0.58463000  1.0
  C  C76  1  0.77993000  0.57586000  0.08463000  1.0
  C  C77  1  0.27991000  0.92414000  0.41537000  1.0
  Br  Br78  1  0.60057000  0.09282000  0.93182000  1.0
  Br  Br79  1  0.10057000  0.40718000  0.56818000  1.0
  Br  Br80  1  0.39943000  0.90718000  0.06818000  1.0
  Br  Br81  1  0.89943000  0.59282000  0.43182000  1.0
  Br  Br82  1  0.72942000  0.46585000  0.73992000  1.0
  Br  Br83  1  0.22942000  0.03415000  0.76007000  1.0
  Br  Br84  1  0.27058000  0.53415000  0.26008000  1.0
  Br  Br85  1  0.77059000  0.96585000  0.23992000  1.0
  N  N86  1  0.82751000  0.72341000  0.83017000  1.0
  N  N87  1  0.32751000  0.77659000  0.66983000  1.0
  N  N88  1  0.17250000  0.27659000  0.16983000  1.0
  N  N89  1  0.67248000  0.22341000  0.33017000  1.0
  N  N90  1  0.93939000  0.86512000  0.91494000  1.0
  N  N91  1  0.43939000  0.63488000  0.58506000  1.0
  N  N92  1  0.06061000  0.13488000  0.08506000  1.0
  N  N93  1  0.56060000  0.36513000  0.41494000  1.0
  N  N94  1  0.00748000  0.55742000  0.86204000  1.0
  N  N95  1  0.50748000  0.94258000  0.63796000  1.0
  N  N96  1  0.99253000  0.44258000  0.13797000  1.0
  N  N97  1  0.49252000  0.05742000  0.36204000  1.0
  O  O98  1  0.31267000  0.61261000  0.94950000  1.0
  O  O99  1  0.81266000  0.88738000  0.55050000  1.0
  O  O100  1  0.68734000  0.38738000  0.05050000  1.0
  O  O101  1  0.18733000  0.11262000  0.44950000  1.0
