# generated using pymatgen
data_MnH24C24(N3O2)2
_symmetry_space_group_name_H-M   'P 1'
_cell_length_a   4.91139000
_cell_length_b   9.26338000
_cell_length_c   11.61510000
_cell_angle_alpha   90.01370000
_cell_angle_beta   91.39190000
_cell_angle_gamma   101.17200000
_symmetry_Int_Tables_number   1
_chemical_formula_structural   MnH24C24(N3O2)2
_chemical_formula_sum   'Mn1 H24 C24 N6 O4'
_cell_volume   518.26787831
_cell_formula_units_Z   1
loop_
 _symmetry_equiv_pos_site_id
 _symmetry_equiv_pos_as_xyz
  1  'x, y, z'
loop_
 _atom_site_type_symbol
 _atom_site_label
 _atom_site_symmetry_multiplicity
 _atom_site_fract_x
 _atom_site_fract_y
 _atom_site_fract_z
 _atom_site_occupancy
  Mn  Mn0  1  0.49606000  0.50080000  0.00054000  1.0
  H  H1  1  0.56942000  0.28843000  0.49102000  1.0
  H  H2  1  0.44070000  0.70919000  0.50800000  1.0
  H  H3  1  0.63259000  0.16128000  0.38790000  1.0
  H  H4  1  0.37019000  0.83762000  0.60856000  1.0
  H  H5  1  0.22497000  0.83661000  0.25701000  1.0
  H  H6  1  0.77065000  0.16540000  0.73902000  1.0
  H  H7  1  0.53045000  0.94227000  0.32071000  1.0
  H  H8  1  0.47091000  0.05213000  0.67730000  1.0
  H  H9  1  0.30635000  0.02695000  0.23328000  1.0
  H  H10  1  0.70288000  0.97574000  0.76702000  1.0
  H  H11  1  0.77585000  0.71502000  0.29850000  1.0
  H  H12  1  0.22900000  0.28043000  0.70316000  1.0
  H  H13  1  0.73250000  0.62940000  0.43560000  1.0
  H  H14  1  0.28465000  0.36794000  0.56738000  1.0
  H  H15  1  0.06060000  0.66854000  0.37552000  1.0
  H  H16  1  0.95265000  0.33293000  0.62412000  1.0
  H  H17  1  0.06310000  0.52966000  0.20968000  1.0
  H  H18  1  0.93523000  0.47216000  0.79491000  1.0
  H  H19  1  0.69368000  0.28280000  0.19607000  1.0
  H  H20  1  0.30248000  0.71836000  0.80163000  1.0
  H  H21  1  0.68504000  0.82896000  0.12605000  1.0
  H  H22  1  0.30454000  0.17151000  0.87356000  1.0
  H  H23  1  0.61578000  0.08553000  0.10097000  1.0
  H  H24  1  0.37218000  0.91464000  0.89768000  1.0
  C  C25  1  0.22331000  0.10618000  0.46087000  1.0
  C  C26  1  0.78256000  0.89315000  0.53851000  1.0
  C  C27  1  0.15157000  0.96968000  0.40289000  1.0
  C  C28  1  0.85356000  0.02984000  0.59628000  1.0
  C  C29  1  0.93247000  0.86080000  0.44292000  1.0
  C  C30  1  0.07414000  0.13832000  0.55679000  1.0
  C  C31  1  0.47174000  0.21652000  0.42050000  1.0
  C  C32  1  0.53382000  0.78265000  0.57837000  1.0
  C  C33  1  0.31102000  0.94180000  0.29866000  1.0
  C  C34  1  0.69182000  0.05785000  0.69973000  1.0
  C  C35  1  0.86949000  0.71158000  0.38530000  1.0
  C  C36  1  0.14084000  0.28672000  0.61573000  1.0
  C  C37  1  0.20621000  0.45922000  0.23530000  1.0
  C  C38  1  0.79252000  0.54211000  0.76762000  1.0
  C  C39  1  0.52470000  0.33289000  0.22354000  1.0
  C  C40  1  0.47320000  0.66839000  0.77608000  1.0
  C  C41  1  0.03241000  0.85394000  0.01337000  1.0
  C  C42  1  0.95713000  0.14654000  0.98622000  1.0
  C  C43  1  0.82098000  0.90481000  0.07145000  1.0
  C  C44  1  0.16829000  0.09566000  0.92803000  1.0
  C  C45  1  0.78404000  0.04851000  0.05788000  1.0
  C  C46  1  0.20468000  0.95182000  0.94126000  1.0
  C  C47  1  0.07287000  0.70130000  0.03169000  1.0
  C  C48  1  0.91846000  0.29959000  0.96899000  1.0
  N  N49  1  0.40436000  0.31022000  0.32657000  1.0
  N  N50  1  0.59838000  0.69080000  0.67402000  1.0
  N  N51  1  0.20042000  0.39000000  0.33578000  1.0
  N  N52  1  0.80291000  0.61105000  0.66696000  1.0
  N  N53  1  0.40274000  0.42710000  0.16260000  1.0
  N  N54  1  0.59247000  0.57437000  0.83848000  1.0
  O  O55  1  0.86894000  0.60441000  0.06727000  1.0
  O  O56  1  0.12401000  0.39651000  0.93493000  1.0
  O  O57  1  0.31835000  0.67597000  0.01713000  1.0
  O  O58  1  0.67316000  0.32540000  0.98309000  1.0
