# generated using pymatgen
data_MnHgH2C4S4N4O
_symmetry_space_group_name_H-M   'P 1'
_cell_length_a   8.35820000
_cell_length_b   11.79680000
_cell_length_c   16.96200000
_cell_angle_alpha   90.00000000
_cell_angle_beta   89.98770000
_cell_angle_gamma   93.03180000
_symmetry_Int_Tables_number   1
_chemical_formula_structural   MnHgH2C4S4N4O
_chemical_formula_sum   'Mn4 Hg4 H8 C16 S16 N16 O4'
_cell_volume   1670.11251813
_cell_formula_units_Z   4
loop_
 _symmetry_equiv_pos_site_id
 _symmetry_equiv_pos_as_xyz
  1  'x, y, z'
loop_
 _atom_site_type_symbol
 _atom_site_label
 _atom_site_symmetry_multiplicity
 _atom_site_fract_x
 _atom_site_fract_y
 _atom_site_fract_z
 _atom_site_occupancy
  Mn  Mn0  1  0.98689000  0.50557000  0.87291000  1.0
  Mn  Mn1  1  0.51320000  0.99418000  0.37277000  1.0
  Mn  Mn2  1  0.01305000  0.49445000  0.12720000  1.0
  Mn  Mn3  1  0.48703000  0.00549000  0.62724000  1.0
  Hg  Hg4  1  0.49231000  0.51134000  0.66666667  1.0
  Hg  Hg5  1  0.00779000  0.98864000  0.16660000  1.0
  Hg  Hg6  1  0.50758000  0.48857000  0.33333333  1.0
  Hg  Hg7  1  0.99227000  0.01143000  0.83333000  1.0
  H  H8  1  0.19690000  0.57441000  0.98883000  1.0
  H  H9  1  0.22669000  0.44575000  0.98891000  1.0
  H  H10  1  0.30304000  0.92567000  0.48878000  1.0
  H  H11  1  0.27375000  0.05447000  0.48876000  1.0
  H  H12  1  0.80313000  0.42566000  0.01126000  1.0
  H  H13  1  0.77339000  0.55433000  0.01119000  1.0
  H  H14  1  0.69688000  0.07436000  0.51113000  1.0
  H  H15  1  0.72657000  0.94566000  0.51103000  1.0
  C  C16  1  0.13720000  0.43028000  0.71007000  1.0
  C  C17  1  0.63248000  0.58101000  0.83689000  1.0
  C  C18  1  0.98098000  0.25513000  0.93896000  1.0
  C  C19  1  0.12573000  0.76309000  0.85129000  1.0
  C  C20  1  0.36280000  0.06974000  0.21003000  1.0
  C  C21  1  0.86777000  0.91897000  0.33687000  1.0
  C  C22  1  0.51900000  0.24479000  0.43886000  1.0
  C  C23  1  0.37398000  0.73681000  0.35130000  1.0
  C  C24  1  0.86257000  0.56992000  0.28994000  1.0
  C  C25  1  0.36756000  0.41910000  0.16308000  1.0
  C  C26  1  0.01899000  0.74489000  0.06108000  1.0
  C  C27  1  0.87424000  0.23694000  0.14875000  1.0
  C  C28  1  0.63728000  0.93020000  0.79006000  1.0
  C  C29  1  0.13248000  0.08101000  0.66311000  1.0
  C  C30  1  0.48092000  0.75511000  0.56108000  1.0
  C  C31  1  0.62585000  0.26302000  0.64867000  1.0
  S  S32  1  0.22978000  0.39588000  0.62954000  1.0
  S  S33  1  0.47649000  0.63057000  0.79309000  1.0
  S  S34  1  0.05552000  0.13419000  0.96028000  1.0
  S  S35  1  0.22690000  0.87857000  0.82338000  1.0
  S  S36  1  0.27028000  0.10425000  0.12953000  1.0
  S  S37  1  0.02390000  0.86953000  0.29308000  1.0
  S  S38  1  0.44454000  0.36574000  0.46027000  1.0
  S  S39  1  0.27290000  0.62134000  0.32334000  1.0
  S  S40  1  0.76990000  0.60437000  0.37043000  1.0
  S  S41  1  0.52359000  0.36954000  0.20684000  1.0
  S  S42  1  0.94443000  0.86581000  0.03971000  1.0
  S  S43  1  0.77312000  0.12145000  0.17667000  1.0
  S  S44  1  0.72986000  0.89579000  0.87055000  1.0
  S  S45  1  0.97633000  0.13051000  0.70686000  1.0
  S  S46  1  0.55540000  0.63416000  0.53970000  1.0
  S  S47  1  0.72694000  0.37853000  0.67655000  1.0
  N  N48  1  0.06859000  0.45469000  0.76796000  1.0
  N  N49  1  0.74479000  0.54721000  0.87029000  1.0
  N  N50  1  0.93051000  0.34561000  0.92656000  1.0
  N  N51  1  0.05824000  0.67736000  0.87108000  1.0
  N  N52  1  0.43140000  0.04522000  0.26789000  1.0
  N  N53  1  0.75531000  0.95268000  0.37021000  1.0
  N  N54  1  0.56941000  0.15431000  0.42637000  1.0
  N  N55  1  0.44154000  0.82252000  0.37109000  1.0
  N  N56  1  0.93128000  0.54546000  0.23210000  1.0
  N  N57  1  0.25517000  0.45288000  0.12974000  1.0
  N  N58  1  0.06943000  0.65442000  0.07352000  1.0
  N  N59  1  0.94169000  0.32269000  0.12896000  1.0
  N  N60  1  0.56866000  0.95463000  0.73218000  1.0
  N  N61  1  0.24493000  0.04722000  0.62980000  1.0
  N  N62  1  0.43054000  0.84560000  0.57355000  1.0
  N  N63  1  0.55842000  0.17725000  0.62891000  1.0
  O  O64  1  0.20235000  0.50818000  0.95381000  1.0
  O  O65  1  0.29757000  0.99186000  0.45372000  1.0
  O  O66  1  0.79767000  0.49189000  0.04628000  1.0
  O  O67  1  0.70236000  0.00811000  0.54615000  1.0
