# generated using pymatgen
data_H22PbC20SN2O7
_symmetry_space_group_name_H-M   'P 1'
_cell_length_a   8.19161000
_cell_length_b   10.35910000
_cell_length_c   14.12900000
_cell_angle_alpha   108.50600000
_cell_angle_beta   105.06200000
_cell_angle_gamma   95.19310000
_symmetry_Int_Tables_number   1
_chemical_formula_structural   H22PbC20SN2O7
_chemical_formula_sum   'H44 Pb2 C40 S2 N4 O14'
_cell_volume   1078.12717327
_cell_formula_units_Z   2
loop_
 _symmetry_equiv_pos_site_id
 _symmetry_equiv_pos_as_xyz
  1  'x, y, z'
loop_
 _atom_site_type_symbol
 _atom_site_label
 _atom_site_symmetry_multiplicity
 _atom_site_fract_x
 _atom_site_fract_y
 _atom_site_fract_z
 _atom_site_occupancy
  H  H0  1  0.57789000  0.83710000  0.76968000  1.0
  H  H1  1  0.42203000  0.16289000  0.23033000  1.0
  H  H2  1  0.25441000  0.81021000  0.34241000  1.0
  H  H3  1  0.74562000  0.18980000  0.65755000  1.0
  H  H4  1  0.36866000  0.22470000  0.71098000  1.0
  H  H5  1  0.63134000  0.77529000  0.28902000  1.0
  H  H6  1  0.51400000  0.17216000  0.80303000  1.0
  H  H7  1  0.48597000  0.82781000  0.19695000  1.0
  H  H8  1  0.42093000  0.15566000  0.94087000  1.0
  H  H9  1  0.57908000  0.84435000  0.05911000  1.0
  H  H10  1  0.18979000  0.11745000  0.01854000  1.0
  H  H11  1  0.81021000  0.88257000  0.98144000  1.0
  H  H12  1  0.88220000  0.04312000  0.90511000  1.0
  H  H13  1  0.11779000  0.95689000  0.09490000  1.0
  H  H14  1  0.81192000  0.00808000  0.71563000  1.0
  H  H15  1  0.18807000  0.99195000  0.28438000  1.0
  H  H16  1  0.04123000  0.05448000  0.64009000  1.0
  H  H17  1  0.95873000  0.94550000  0.35989000  1.0
  H  H18  1  0.19897000  0.37687000  0.08073000  1.0
  H  H19  1  0.80098000  0.62310000  0.91924000  1.0
  H  H20  1  0.18452000  0.55400000  0.10119000  1.0
  H  H21  1  0.81543000  0.44597000  0.89879000  1.0
  H  H22  1  0.92158000  0.63421000  0.11484000  1.0
  H  H23  1  0.07841000  0.36579000  0.88521000  1.0
  H  H24  1  0.61419000  0.58040000  0.10347000  1.0
  H  H25  1  0.38579000  0.41958000  0.89655000  1.0
  H  H26  1  0.49392000  0.35377000  0.10933000  1.0
  H  H27  1  0.50605000  0.64620000  0.89066000  1.0
  H  H28  1  0.68115000  0.17979000  0.12198000  1.0
  H  H29  1  0.31884000  0.82019000  0.87804000  1.0
  H  H30  1  0.98733000  0.23238000  0.12929000  1.0
  H  H31  1  0.01265000  0.76761000  0.87073000  1.0
  H  H32  1  0.93402000  0.61583000  0.32739000  1.0
  H  H33  1  0.06604000  0.38416000  0.67263000  1.0
  H  H34  1  0.78569000  0.69069000  0.39193000  1.0
  H  H35  1  0.21438000  0.30934000  0.60807000  1.0
  H  H36  1  0.83624000  0.52495000  0.39574000  1.0
  H  H37  1  0.16378000  0.47508000  0.60429000  1.0
  H  H38  1  0.06660000  0.74329000  0.68254000  1.0
  H  H39  1  0.93348000  0.25673000  0.31748000  1.0
  H  H40  1  0.90453000  0.59617000  0.58727000  1.0
  H  H41  1  0.09554000  0.40386000  0.41277000  1.0
  H  H42  1  0.86940000  0.77340000  0.61086000  1.0
  H  H43  1  0.13068000  0.22663000  0.38918000  1.0
  Pb  Pb44  1  0.48525000  0.70589000  0.50691000  1.0
  Pb  Pb45  1  0.51478000  0.29411000  0.49308000  1.0
  C  C46  1  0.33153000  0.00507000  0.54026000  1.0
  C  C47  1  0.66848000  0.99492000  0.45973000  1.0
  C  C48  1  0.39852000  0.01595000  0.65345000  1.0
  C  C49  1  0.60150000  0.98406000  0.34655000  1.0
  C  C50  1  0.38935000  0.14016000  0.74111000  1.0
  C  C51  1  0.61063000  0.85986000  0.25890000  1.0
  C  C52  1  0.24730000  0.11026000  0.78618000  1.0
  C  C53  1  0.75265000  0.88971000  0.21381000  1.0
  C  C54  1  0.28665000  0.12521000  0.89208000  1.0
  C  C55  1  0.71331000  0.87477000  0.10791000  1.0
  C  C56  1  0.15649000  0.10211000  0.93530000  1.0
  C  C57  1  0.84347000  0.89790000  0.06468000  1.0
  C  C58  1  0.98489000  0.06045000  0.87207000  1.0
  C  C59  1  0.01506000  0.93956000  0.12792000  1.0
  C  C60  1  0.94521000  0.04198000  0.76578000  1.0
  C  C61  1  0.05477000  0.95803000  0.23423000  1.0
  C  C62  1  0.07491000  0.06782000  0.72311000  1.0
  C  C63  1  0.92504000  0.93214000  0.27687000  1.0
  C  C64  1  0.35896000  0.40473000  0.28106000  1.0
  C  C65  1  0.64105000  0.59528000  0.71893000  1.0
  C  C66  1  0.27522000  0.50893000  0.24043000  1.0
  C  C67  1  0.72480000  0.49107000  0.75955000  1.0
  C  C68  1  0.16289000  0.46848000  0.12928000  1.0
  C  C69  1  0.83708000  0.53149000  0.87072000  1.0
  C  C70  1  0.97443000  0.43639000  0.12201000  1.0
  C  C71  1  0.02554000  0.56359000  0.87800000  1.0
  C  C72  1  0.86843000  0.53415000  0.11541000  1.0
  C  C73  1  0.13156000  0.46584000  0.88462000  1.0
  C  C74  1  0.69574000  0.50408000  0.10995000  1.0
  C  C75  1  0.30425000  0.49592000  0.89008000  1.0
  C  C76  1  0.62805000  0.37715000  0.11269000  1.0
  C  C77  1  0.37193000  0.62283000  0.88732000  1.0
  C  C78  1  0.73309000  0.27925000  0.11972000  1.0
  C  C79  1  0.26690000  0.72073000  0.88030000  1.0
  C  C80  1  0.90512000  0.30863000  0.12396000  1.0
  C  C81  1  0.09487000  0.69136000  0.87605000  1.0
  C  C82  1  0.88459000  0.62605000  0.39397000  1.0
  C  C83  1  0.11545000  0.37396000  0.60605000  1.0
  C  C84  1  0.96356000  0.70456000  0.60751000  1.0
  C  C85  1  0.03651000  0.29547000  0.39251000  1.0
  S  S86  1  0.05898000  0.72173000  0.51039000  1.0
  S  S87  1  0.94107000  0.27828000  0.48963000  1.0
  N  N88  1  0.46372000  0.91252000  0.66938000  1.0
  N  N89  1  0.53624000  0.08746000  0.33059000  1.0
  N  N90  1  0.30234000  0.63172000  0.30953000  1.0
  N  N91  1  0.69770000  0.36829000  0.69044000  1.0
  O  O92  1  0.33578000  0.89226000  0.46898000  1.0
  O  O93  1  0.66421000  0.10775000  0.53098000  1.0
  O  O94  1  0.27594000  0.10669000  0.52178000  1.0
  O  O95  1  0.72412000  0.89330000  0.47819000  1.0
  O  O96  1  0.52441000  0.92385000  0.77183000  1.0
  O  O97  1  0.47555000  0.07618000  0.22816000  1.0
  O  O98  1  0.45437000  0.44749000  0.37652000  1.0
  O  O99  1  0.54570000  0.55254000  0.62347000  1.0
  O  O100  1  0.32685000  0.28148000  0.21692000  1.0
  O  O101  1  0.67310000  0.71852000  0.78309000  1.0
  O  O102  1  0.22302000  0.72670000  0.27536000  1.0
  O  O103  1  0.77700000  0.27332000  0.72461000  1.0
  O  O104  1  0.19661000  0.62905000  0.51211000  1.0
  O  O105  1  0.80343000  0.37096000  0.48790000  1.0
