# generated using pymatgen
data_CuH12C24N6(ClO3)2
_symmetry_space_group_name_H-M   'P 1'
_cell_length_a   11.78420000
_cell_length_b   11.78410000
_cell_length_c   12.68870000
_cell_angle_alpha   103.64700000
_cell_angle_beta   103.64800000
_cell_angle_gamma   104.15200000
_symmetry_Int_Tables_number   1
_chemical_formula_structural   CuH12C24N6(ClO3)2
_chemical_formula_sum   'Cu2 H24 C48 N12 Cl4 O12'
_cell_volume   1577.63976835
_cell_formula_units_Z   2
loop_
 _symmetry_equiv_pos_site_id
 _symmetry_equiv_pos_as_xyz
  1  'x, y, z'
loop_
 _atom_site_type_symbol
 _atom_site_label
 _atom_site_symmetry_multiplicity
 _atom_site_fract_x
 _atom_site_fract_y
 _atom_site_fract_z
 _atom_site_occupancy
  Cu  Cu0  1  0.43732000  0.56268000  0.25000000  1.0
  Cu  Cu1  1  0.56268000  0.43732000  0.75000000  1.0
  H  H2  1  0.82330000  0.28917000  0.04224000  1.0
  H  H3  1  0.71084000  0.17670000  0.45777000  1.0
  H  H4  1  0.17669000  0.71082000  0.95776000  1.0
  H  H5  1  0.28917000  0.82330000  0.54223000  1.0
  H  H6  1  0.20643000  0.37207000  0.06374000  1.0
  H  H7  1  0.62793000  0.79358000  0.43625000  1.0
  H  H8  1  0.79358000  0.62793000  0.93626000  1.0
  H  H9  1  0.37207000  0.20642000  0.56375000  1.0
  H  H10  1  0.36022000  0.43109000  0.41106000  1.0
  H  H11  1  0.56890000  0.63979000  0.08894000  1.0
  H  H12  1  0.63980000  0.56890000  0.58894000  1.0
  H  H13  1  0.43109000  0.36020000  0.91106000  1.0
  H  H14  1  0.02642000  0.42480000  0.42314000  1.0
  H  H15  1  0.57521000  0.97358000  0.07686000  1.0
  H  H16  1  0.97359000  0.57521000  0.57686000  1.0
  H  H17  1  0.42478000  0.02640000  0.92314000  1.0
  H  H18  1  0.65569000  0.53498000  0.42150000  1.0
  H  H19  1  0.46503000  0.34431000  0.07852000  1.0
  H  H20  1  0.34430000  0.46504000  0.57850000  1.0
  H  H21  1  0.53496000  0.65569000  0.92150000  1.0
  H  H22  1  0.03228000  0.06540000  0.44089000  1.0
  H  H23  1  0.93459000  0.96772000  0.05910000  1.0
  H  H24  1  0.96772000  0.93460000  0.55910000  1.0
  H  H25  1  0.06540000  0.03227000  0.94090000  1.0
  C  C26  1  0.80321000  0.19614000  0.04839000  1.0
  C  C27  1  0.80387000  0.19679000  0.45162000  1.0
  C  C28  1  0.19679000  0.80386000  0.95162000  1.0
  C  C29  1  0.19613000  0.80320000  0.54837000  1.0
  C  C30  1  0.88892000  0.13353000  0.04813000  1.0
  C  C31  1  0.86648000  0.11107000  0.45187000  1.0
  C  C32  1  0.11108000  0.86647000  0.95188000  1.0
  C  C33  1  0.13352000  0.88892000  0.54812000  1.0
  C  C34  1  0.09516000  0.25827000  0.14046000  1.0
  C  C35  1  0.74174000  0.90484000  0.35953000  1.0
  C  C36  1  0.90484000  0.74173000  0.85953000  1.0
  C  C37  1  0.25825000  0.09515000  0.64047000  1.0
  C  C38  1  0.19857000  0.34670000  0.13943000  1.0
  C  C39  1  0.65330000  0.80143000  0.36057000  1.0
  C  C40  1  0.80143000  0.65329000  0.86056000  1.0
  C  C41  1  0.34671000  0.19858000  0.63943000  1.0
  C  C42  1  0.28358000  0.38102000  0.33344000  1.0
  C  C43  1  0.61897000  0.71643000  0.16656000  1.0
  C  C44  1  0.71644000  0.61897000  0.66656000  1.0
  C  C45  1  0.38103000  0.28358000  0.83345000  1.0
  C  C46  1  0.17539000  0.29644000  0.33025000  1.0
  C  C47  1  0.70356000  0.82462000  0.16974000  1.0
  C  C48  1  0.82462000  0.70356000  0.66975000  1.0
  C  C49  1  0.29643000  0.17537000  0.83025000  1.0
  C  C50  1  0.04180000  0.24872000  0.43536000  1.0
  C  C51  1  0.75128000  0.95820000  0.06463000  1.0
  C  C52  1  0.95820000  0.75129000  0.56463000  1.0
  C  C53  1  0.24871000  0.04179000  0.93537000  1.0
  C  C54  1  0.98200000  0.33709000  0.43272000  1.0
  C  C55  1  0.66291000  0.01800000  0.06728000  1.0
  C  C56  1  0.01800000  0.66292000  0.56728000  1.0
  C  C57  1  0.33708000  0.98199000  0.93273000  1.0
  C  C58  1  0.86368000  0.30911000  0.44100000  1.0
  C  C59  1  0.69090000  0.13633000  0.05901000  1.0
  C  C60  1  0.13633000  0.69090000  0.55900000  1.0
  C  C61  1  0.30910000  0.86367000  0.94100000  1.0
  C  C62  1  0.71658000  0.38360000  0.34402000  1.0
  C  C63  1  0.61642000  0.28343000  0.15599000  1.0
  C  C64  1  0.28343000  0.61641000  0.65598000  1.0
  C  C65  1  0.38359000  0.71657000  0.84402000  1.0
  C  C66  1  0.64376000  0.46141000  0.34570000  1.0
  C  C67  1  0.53860000  0.35625000  0.15431000  1.0
  C  C68  1  0.35625000  0.53860000  0.65431000  1.0
  C  C69  1  0.46140000  0.64375000  0.84569000  1.0
  C  C70  1  0.98569000  0.13462000  0.44427000  1.0
  C  C71  1  0.86538000  0.01431000  0.05572000  1.0
  C  C72  1  0.01431000  0.86539000  0.55572000  1.0
  C  C73  1  0.13461000  0.98569000  0.94428000  1.0
  N  N74  1  0.29036000  0.40813000  0.23742000  1.0
  N  N75  1  0.59187000  0.70964000  0.26257000  1.0
  N  N76  1  0.70965000  0.59186000  0.76257000  1.0
  N  N77  1  0.40814000  0.29035000  0.73744000  1.0
  N  N78  1  0.08213000  0.23566000  0.23502000  1.0
  N  N79  1  0.76434000  0.91787000  0.26498000  1.0
  N  N80  1  0.91788000  0.76433000  0.76498000  1.0
  N  N81  1  0.23565000  0.08213000  0.73502000  1.0
  N  N82  1  0.70360000  0.29642000  0.25000000  1.0
  N  N83  1  0.29641000  0.70360000  0.75000000  1.0
  N  N84  1  0.55544000  0.44457000  0.25001000  1.0
  N  N85  1  0.44457000  0.55543000  0.75000000  1.0
  Cl  Cl86  1  0.34788000  0.55078000  0.06387000  1.0
  Cl  Cl87  1  0.44923000  0.65212000  0.43612000  1.0
  Cl  Cl88  1  0.65211000  0.44924000  0.93613000  1.0
  Cl  Cl89  1  0.55076000  0.34788000  0.56387000  1.0
  O  O90  1  0.00324000  0.19521000  0.03943000  1.0
  O  O91  1  0.80480000  0.99676000  0.46056000  1.0
  O  O92  1  0.99675000  0.80478000  0.96057000  1.0
  O  O93  1  0.19521000  0.00325000  0.53943000  1.0
  O  O94  1  0.16281000  0.27671000  0.42983000  1.0
  O  O95  1  0.72329000  0.83719000  0.07016000  1.0
  O  O96  1  0.83720000  0.72329000  0.57017000  1.0
  O  O97  1  0.27670000  0.16280000  0.92984000  1.0
  O  O98  1  0.80450000  0.39898000  0.44246000  1.0
  O  O99  1  0.60103000  0.19551000  0.05755000  1.0
  O  O100  1  0.19550000  0.60103000  0.55754000  1.0
  O  O101  1  0.39896000  0.80449000  0.94246000  1.0
