# generated using pymatgen
data_LiHCN4
_symmetry_space_group_name_H-M   'P 1'
_cell_length_a   9.89857000
_cell_length_b   9.89857000
_cell_length_c   13.94600000
_cell_angle_alpha   89.99980000
_cell_angle_beta   89.99980000
_cell_angle_gamma   86.13050000
_symmetry_Int_Tables_number   1
_chemical_formula_structural   LiHCN4
_chemical_formula_sum   'Li16 H16 C16 N64'
_cell_volume   1363.33757919
_cell_formula_units_Z   16
loop_
 _symmetry_equiv_pos_site_id
 _symmetry_equiv_pos_as_xyz
  1  'x, y, z'
loop_
 _atom_site_type_symbol
 _atom_site_label
 _atom_site_symmetry_multiplicity
 _atom_site_fract_x
 _atom_site_fract_y
 _atom_site_fract_z
 _atom_site_occupancy
  Li  Li0  1  0.52622000  0.52622000  0.75000000  1.0
  Li  Li1  1  0.47378000  0.47378000  0.25000000  1.0
  Li  Li2  1  0.08361000  0.08361000  0.25000000  1.0
  Li  Li3  1  0.91639000  0.91640000  0.75000000  1.0
  Li  Li4  1  0.02372000  0.97628000  0.50000000  1.0
  Li  Li5  1  0.97628000  0.02372000  1.00000000  1.0
  Li  Li6  1  0.02082000  0.58963000  0.50002000  1.0
  Li  Li7  1  0.97918000  0.41037000  0.00002000  1.0
  Li  Li8  1  0.41037000  0.97918000  0.49998000  1.0
  Li  Li9  1  0.58963000  0.02082000  0.99998000  1.0
  Li  Li10  1  0.40949000  0.59051000  0.50000000  1.0
  Li  Li11  1  0.59051000  0.40949000  0.00000000  1.0
  Li  Li12  1  0.52723000  0.91286000  0.74965000  1.0
  Li  Li13  1  0.47277000  0.08714000  0.24965000  1.0
  Li  Li14  1  0.08714000  0.47277000  0.25035000  1.0
  Li  Li15  1  0.91286000  0.52723000  0.75035000  1.0
  H  H16  1  0.70672000  0.67260000  0.42883000  1.0
  H  H17  1  0.29328000  0.32740000  0.92883000  1.0
  H  H18  1  0.32738000  0.29327000  0.57117000  1.0
  H  H19  1  0.67260000  0.70672000  0.07117000  1.0
  H  H20  1  0.16902000  0.77445000  0.17905000  1.0
  H  H21  1  0.83098000  0.22555000  0.67905000  1.0
  H  H22  1  0.22555000  0.83098000  0.82095000  1.0
  H  H23  1  0.77445000  0.16902000  0.32095000  1.0
  H  H24  1  0.48983000  0.21986000  0.67219000  1.0
  H  H25  1  0.51016000  0.78014000  0.17218000  1.0
  H  H26  1  0.78014000  0.51016000  0.32781000  1.0
  H  H27  1  0.21986000  0.48983000  0.82781000  1.0
  H  H28  1  0.98804000  0.28713000  0.57851000  1.0
  H  H29  1  0.01196000  0.71288000  0.07851000  1.0
  H  H30  1  0.71288000  0.01197000  0.42149000  1.0
  H  H31  1  0.28713000  0.98804000  0.92149000  1.0
  C  C32  1  0.12854000  0.77597000  0.25125000  1.0
  C  C33  1  0.87147000  0.22404000  0.75125000  1.0
  C  C34  1  0.22403000  0.87146000  0.74875000  1.0
  C  C35  1  0.77597000  0.12853000  0.24875000  1.0
  C  C36  1  0.51976000  0.21918000  0.74692000  1.0
  C  C37  1  0.48023000  0.78082000  0.24692000  1.0
  C  C38  1  0.78082000  0.48023000  0.25308000  1.0
  C  C39  1  0.21918000  0.51976000  0.75308000  1.0
  C  C40  1  0.71126000  0.63242000  0.50113000  1.0
  C  C41  1  0.28874000  0.36758000  0.00113000  1.0
  C  C42  1  0.36757000  0.28874000  0.49887000  1.0
  C  C43  1  0.63242000  0.71126000  0.99887000  1.0
  C  C44  1  0.01678000  0.28382000  0.50354000  1.0
  C  C45  1  0.98322000  0.71618000  0.00354000  1.0
  C  C46  1  0.71619000  0.98322000  0.49646000  1.0
  C  C47  1  0.28382000  0.01678000  0.99646000  1.0
  N  N48  1  0.60230000  0.60329000  0.55221000  1.0
  N  N49  1  0.39770000  0.39671000  0.05221000  1.0
  N  N50  1  0.39670000  0.39770000  0.44779000  1.0
  N  N51  1  0.60329000  0.60230000  0.94779000  1.0
  N  N52  1  0.10086000  0.66546000  0.30111000  1.0
  N  N53  1  0.89914000  0.33454000  0.80111000  1.0
  N  N54  1  0.33454000  0.89914000  0.69890000  1.0
  N  N55  1  0.66546000  0.10086000  0.19889000  1.0
  N  N56  1  0.58161000  0.28295000  0.88489000  1.0
  N  N57  1  0.41840000  0.71705000  0.38489000  1.0
  N  N58  1  0.71705000  0.41839000  0.11511000  1.0
  N  N59  1  0.28295000  0.58160000  0.61511000  1.0
  N  N60  1  0.05692000  0.71291000  0.38682000  1.0
  N  N61  1  0.94308000  0.28709000  0.88683000  1.0
  N  N62  1  0.28709000  0.94308000  0.61318000  1.0
  N  N63  1  0.71291000  0.05692000  0.11317000  1.0
  N  N64  1  0.10250000  0.88915000  0.30259000  1.0
  N  N65  1  0.89750000  0.11085000  0.80259000  1.0
  N  N66  1  0.11085000  0.89750000  0.69741000  1.0
  N  N67  1  0.88915000  0.10250000  0.19741000  1.0
  N  N68  1  0.05804000  0.84630000  0.38759000  1.0
  N  N69  1  0.94197000  0.15370000  0.88759000  1.0
  N  N70  1  0.15370000  0.94196000  0.61241000  1.0
  N  N71  1  0.84630000  0.05804000  0.11241000  1.0
  N  N72  1  0.54521000  0.32986000  0.79733000  1.0
  N  N73  1  0.45478000  0.67014000  0.29733000  1.0
  N  N74  1  0.67014000  0.45478000  0.20267000  1.0
  N  N75  1  0.32986000  0.54521000  0.70267000  1.0
  N  N76  1  0.03918000  0.39350000  0.45115000  1.0
  N  N77  1  0.96082000  0.60650000  0.95115000  1.0
  N  N78  1  0.60650000  0.96083000  0.54885000  1.0
  N  N79  1  0.39350000  0.03918000  0.04885000  1.0
  N  N80  1  0.07517000  0.34487000  0.36420000  1.0
  N  N81  1  0.92483000  0.65513000  0.86420000  1.0
  N  N82  1  0.65513000  0.92483000  0.63580000  1.0
  N  N83  1  0.34487000  0.07518000  0.13580000  1.0
  N  N84  1  0.53859000  0.10667000  0.80001000  1.0
  N  N85  1  0.46141000  0.89333000  0.30000000  1.0
  N  N86  1  0.89333000  0.46141000  0.20000000  1.0
  N  N87  1  0.10667000  0.53858000  0.70000000  1.0
  N  N88  1  0.82576000  0.60809000  0.55130000  1.0
  N  N89  1  0.17425000  0.39191000  0.05130000  1.0
  N  N90  1  0.39190000  0.17424000  0.44870000  1.0
  N  N91  1  0.60809000  0.82576000  0.94870000  1.0
  N  N92  1  0.65179000  0.56037000  0.63737000  1.0
  N  N93  1  0.34821000  0.43963000  0.13737000  1.0
  N  N94  1  0.43963000  0.34821000  0.36264000  1.0
  N  N95  1  0.56037000  0.65179000  0.86264000  1.0
  N  N96  1  0.07371000  0.21177000  0.36458000  1.0
  N  N97  1  0.92630000  0.78823000  0.86458000  1.0
  N  N98  1  0.78823000  0.92630000  0.63542000  1.0
  N  N99  1  0.21177000  0.07371000  0.13542000  1.0
  N  N100  1  0.57760000  0.15007000  0.88631000  1.0
  N  N101  1  0.42240000  0.84993000  0.38630000  1.0
  N  N102  1  0.84993000  0.42240000  0.11370000  1.0
  N  N103  1  0.15007000  0.57759000  0.61370000  1.0
  N  N104  1  0.78508000  0.56314000  0.63698000  1.0
  N  N105  1  0.21492000  0.43686000  0.13698000  1.0
  N  N106  1  0.43686000  0.21491000  0.36302000  1.0
  N  N107  1  0.56314000  0.78508000  0.86302000  1.0
  N  N108  1  0.03706000  0.16993000  0.45209000  1.0
  N  N109  1  0.96295000  0.83007000  0.95209000  1.0
  N  N110  1  0.83007000  0.96295000  0.54791000  1.0
  N  N111  1  0.16993000  0.03706000  0.04791000  1.0
