# generated using pymatgen
data_AgH8C5S2N3
_symmetry_space_group_name_H-M   'P 1'
_cell_length_a   6.57557000
_cell_length_b   12.11850000
_cell_length_c   12.11850000
_cell_angle_alpha   69.38220000
_cell_angle_beta   77.11020000
_cell_angle_gamma   77.11030000
_symmetry_Int_Tables_number   1
_chemical_formula_structural   AgH8C5S2N3
_chemical_formula_sum   'Ag4 H32 C20 S8 N12'
_cell_volume   869.92468272
_cell_formula_units_Z   4
loop_
 _symmetry_equiv_pos_site_id
 _symmetry_equiv_pos_as_xyz
  1  'x, y, z'
loop_
 _atom_site_type_symbol
 _atom_site_label
 _atom_site_symmetry_multiplicity
 _atom_site_fract_x
 _atom_site_fract_y
 _atom_site_fract_z
 _atom_site_occupancy
  Ag  Ag0  1  0.84702000  0.88470000  0.88868000  1.0
  Ag  Ag1  1  0.65298000  0.11132000  0.11530000  1.0
  Ag  Ag2  1  0.15298000  0.11530000  0.11132000  1.0
  Ag  Ag3  1  0.34701000  0.88868000  0.88470000  1.0
  H  H4  1  0.54396000  0.12450000  0.74532000  1.0
  H  H5  1  0.95604000  0.25469000  0.87550000  1.0
  H  H6  1  0.45604000  0.87550000  0.25469000  1.0
  H  H7  1  0.04396000  0.74531000  0.12450000  1.0
  H  H8  1  0.78214000  0.97972000  0.48031000  1.0
  H  H9  1  0.71786000  0.51969000  0.02028000  1.0
  H  H10  1  0.21787000  0.02028000  0.51969000  1.0
  H  H11  1  0.28213000  0.48031000  0.97972000  1.0
  H  H12  1  0.90018000  0.19416000  0.39529000  1.0
  H  H13  1  0.59983000  0.60471000  0.80584000  1.0
  H  H14  1  0.09983000  0.80584000  0.60472000  1.0
  H  H15  1  0.40017000  0.39529000  0.19416000  1.0
  H  H16  1  0.70968000  0.16366000  0.33017000  1.0
  H  H17  1  0.79032000  0.66983000  0.83634000  1.0
  H  H18  1  0.29032000  0.83634000  0.66983000  1.0
  H  H19  1  0.20968000  0.33017000  0.16366000  1.0
  H  H20  1  0.41556000  0.25058000  0.45014000  1.0
  H  H21  1  0.08444000  0.54986000  0.74942000  1.0
  H  H22  1  0.58444000  0.74942000  0.54986000  1.0
  H  H23  1  0.91556000  0.45014000  0.25058000  1.0
  H  H24  1  0.59523000  0.35558000  0.38673000  1.0
  H  H25  1  0.90478000  0.61327000  0.64442000  1.0
  H  H26  1  0.40477000  0.64442000  0.61327000  1.0
  H  H27  1  0.09522000  0.38673000  0.35558000  1.0
  H  H28  1  0.73690000  0.29159000  0.57537000  1.0
  H  H29  1  0.76310000  0.42463000  0.70841000  1.0
  H  H30  1  0.26310000  0.70841000  0.42464000  1.0
  H  H31  1  0.23690000  0.57536000  0.29159000  1.0
  H  H32  1  0.45600000  0.31741000  0.61204000  1.0
  H  H33  1  0.04400000  0.38796000  0.68259000  1.0
  H  H34  1  0.54400000  0.68259000  0.38797000  1.0
  H  H35  1  0.95600000  0.61203000  0.31741000  1.0
  C  C36  1  0.08201000  0.11137000  0.69573000  1.0
  C  C37  1  0.41800000  0.30426000  0.88863000  1.0
  C  C38  1  0.91801000  0.88864000  0.30425000  1.0
  C  C39  1  0.58199000  0.69575000  0.11136000  1.0
  C  C40  1  0.66047000  0.04312000  0.61918000  1.0
  C  C41  1  0.83953000  0.38082000  0.95688000  1.0
  C  C42  1  0.33953000  0.95688000  0.38082000  1.0
  C  C43  1  0.16047000  0.61918000  0.04312000  1.0
  C  C44  1  0.74003000  0.17220000  0.41199000  1.0
  C  C45  1  0.75997000  0.58801000  0.82780000  1.0
  C  C46  1  0.25997000  0.82780000  0.58801000  1.0
  C  C47  1  0.24003000  0.41199000  0.17220000  1.0
  C  C48  1  0.57331000  0.26693000  0.45031000  1.0
  C  C49  1  0.92669000  0.54969000  0.73307000  1.0
  C  C50  1  0.42669000  0.73307000  0.54969000  1.0
  C  C51  1  0.07331000  0.45031000  0.26693000  1.0
  C  C52  1  0.59056000  0.26124000  0.57575000  1.0
  C  C53  1  0.90944000  0.42425000  0.73876000  1.0
  C  C54  1  0.40944000  0.73875000  0.42425000  1.0
  C  C55  1  0.09056000  0.57574000  0.26124000  1.0
  S  S56  1  0.03792000  0.06733000  0.84318000  1.0
  S  S57  1  0.46207000  0.15681000  0.93268000  1.0
  S  S58  1  0.96208000  0.93268000  0.15681000  1.0
  S  S59  1  0.53792000  0.84319000  0.06732000  1.0
  S  S60  1  0.66254000  0.89849000  0.71701000  1.0
  S  S61  1  0.83746000  0.28299000  0.10151000  1.0
  S  S62  1  0.33746000  0.10151000  0.28299000  1.0
  S  S63  1  0.16254000  0.71701000  0.89849000  1.0
  N  N64  1  0.59149000  0.13854000  0.65585000  1.0
  N  N65  1  0.90851000  0.34415000  0.86145000  1.0
  N  N66  1  0.40851000  0.86145000  0.34415000  1.0
  N  N67  1  0.09149000  0.65585000  0.13855000  1.0
  N  N68  1  0.73048000  0.05615000  0.50423000  1.0
  N  N69  1  0.76952000  0.49577000  0.94385000  1.0
  N  N70  1  0.26953000  0.94385000  0.49577000  1.0
  N  N71  1  0.23047000  0.50423000  0.05615000  1.0
  N  N72  1  0.11303000  0.14447000  0.59015000  1.0
  N  N73  1  0.38696000  0.40984000  0.85553000  1.0
  N  N74  1  0.88697000  0.85554000  0.40985000  1.0
  N  N75  1  0.61303000  0.59016000  0.14446000  1.0
