# generated using pymatgen
data_MnH13C15NO8
_symmetry_space_group_name_H-M   'P 1'
_cell_length_a   7.73600000
_cell_length_b   10.08170000
_cell_length_c   11.60220000
_cell_angle_alpha   66.71060000
_cell_angle_beta   76.15710000
_cell_angle_gamma   71.41220000
_symmetry_Int_Tables_number   1
_chemical_formula_structural   MnH13C15NO8
_chemical_formula_sum   'Mn2 H26 C30 N2 O16'
_cell_volume   781.10188173
_cell_formula_units_Z   2
loop_
 _symmetry_equiv_pos_site_id
 _symmetry_equiv_pos_as_xyz
  1  'x, y, z'
loop_
 _atom_site_type_symbol
 _atom_site_label
 _atom_site_symmetry_multiplicity
 _atom_site_fract_x
 _atom_site_fract_y
 _atom_site_fract_z
 _atom_site_occupancy
  Mn  Mn0  1  0.85550000  0.90877000  0.93963000  1.0
  Mn  Mn1  1  0.14450000  0.09123000  0.06037000  1.0
  H  H2  1  0.14167000  0.54301000  0.06643000  1.0
  H  H3  1  0.85834000  0.45699000  0.93356000  1.0
  H  H4  1  0.61462000  0.20365000  0.21700000  1.0
  H  H5  1  0.38538000  0.79635000  0.78300000  1.0
  H  H6  1  0.55430000  0.66500000  0.16515000  1.0
  H  H7  1  0.44569000  0.33500000  0.83485000  1.0
  H  H8  1  0.85719000  0.26810000  0.25961000  1.0
  H  H9  1  0.14280000  0.73190000  0.74038000  1.0
  H  H10  1  0.88272000  0.44940000  0.16090000  1.0
  H  H11  1  0.11728000  0.55059000  0.83910000  1.0
  H  H12  1  0.85796000  0.62301000  0.24031000  1.0
  H  H13  1  0.14204000  0.37698000  0.75969000  1.0
  H  H14  1  0.73276000  0.53148000  0.64148000  1.0
  H  H15  1  0.26724000  0.46852000  0.35852000  1.0
  H  H16  1  0.67206000  0.28814000  0.66571000  1.0
  H  H17  1  0.32794000  0.71186000  0.33429000  1.0
  H  H18  1  0.70477000  0.23097000  0.46678000  1.0
  H  H19  1  0.29523000  0.76902000  0.53323000  1.0
  H  H20  1  0.75623000  0.86800000  0.19522000  1.0
  H  H21  1  0.24377000  0.13200000  0.80478000  1.0
  H  H22  1  0.57826000  0.97089000  0.12927000  1.0
  H  H23  1  0.42174000  0.02911000  0.87073000  1.0
  H  H24  1  0.04899000  0.03927000  0.70607000  1.0
  H  H25  1  0.95101000  0.96072000  0.29393000  1.0
  H  H26  1  0.89987000  0.97467000  0.68328000  1.0
  H  H27  1  0.10012000  0.02534000  0.31672000  1.0
  C  C28  1  0.22519000  0.77737000  0.08127000  1.0
  C  C29  1  0.77481000  0.22264000  0.91872000  1.0
  C  C30  1  0.33275000  0.61797000  0.11940000  1.0
  C  C31  1  0.66725000  0.38203000  0.88060000  1.0
  C  C32  1  0.26840000  0.51003000  0.10727000  1.0
  C  C33  1  0.73159000  0.48997000  0.89272000  1.0
  C  C34  1  0.36893000  0.36102000  0.14302000  1.0
  C  C35  1  0.63107000  0.63898000  0.85698000  1.0
  C  C36  1  0.30438000  0.25031000  0.11923000  1.0
  C  C37  1  0.69562000  0.74969000  0.88077000  1.0
  C  C38  1  0.53552000  0.31981000  0.19117000  1.0
  C  C39  1  0.46448000  0.68019000  0.80883000  1.0
  C  C40  1  0.60422000  0.42860000  0.19818000  1.0
  C  C41  1  0.39577000  0.57141000  0.80182000  1.0
  C  C42  1  0.50224000  0.57739000  0.16291000  1.0
  C  C43  1  0.49775000  0.42261000  0.83709000  1.0
  C  C44  1  0.79210000  0.38785000  0.23695000  1.0
  C  C45  1  0.20790000  0.61214000  0.76305000  1.0
  C  C46  1  0.81487000  0.55536000  0.33623000  1.0
  C  C47  1  0.18513000  0.44464000  0.66377000  1.0
  C  C48  1  0.79630000  0.59642000  0.44054000  1.0
  C  C49  1  0.20370000  0.40357000  0.55946000  1.0
  C  C50  1  0.74276000  0.50018000  0.55997000  1.0
  C  C51  1  0.25725000  0.49982000  0.44003000  1.0
  C  C52  1  0.70815000  0.36703000  0.57290000  1.0
  C  C53  1  0.29185000  0.63297000  0.42710000  1.0
  C  C54  1  0.72814000  0.33244000  0.46560000  1.0
  C  C55  1  0.27186000  0.66756000  0.53441000  1.0
  C  C56  1  0.84230000  0.73839000  0.42741000  1.0
  C  C57  1  0.15770000  0.26160000  0.57260000  1.0
  N  N58  1  0.78006000  0.42637000  0.35017000  1.0
  N  N59  1  0.21994000  0.57362000  0.64984000  1.0
  O  O60  1  0.10552000  0.81933000  0.00733000  1.0
  O  O61  1  0.89449000  0.18068000  0.99266000  1.0
  O  O62  1  0.26320000  0.86130000  0.12469000  1.0
  O  O63  1  0.73680000  0.13870000  0.87532000  1.0
  O  O64  1  0.38529000  0.11197000  0.15813000  1.0
  O  O65  1  0.61472000  0.88803000  0.84187000  1.0
  O  O66  1  0.16662000  0.30057000  0.05710000  1.0
  O  O67  1  0.83338000  0.69943000  0.94290000  1.0
  O  O68  1  0.86838000  0.82841000  0.31301000  1.0
  O  O69  1  0.13163000  0.17158000  0.68699000  1.0
  O  O70  1  0.85658000  0.75343000  0.52598000  1.0
  O  O71  1  0.14342000  0.24656000  0.47402000  1.0
  O  O72  1  0.68815000  0.88847000  0.12392000  1.0
  O  O73  1  0.31185000  0.11153000  0.87609000  1.0
  O  O74  1  0.99564000  0.94873000  0.73534000  1.0
  O  O75  1  0.00436000  0.05127000  0.26467000  1.0
