# generated using pymatgen
data_MoH9C7(NO)3
_symmetry_space_group_name_H-M   'P 1'
_cell_length_a   12.06580000
_cell_length_b   12.28040000
_cell_length_c   14.83170000
_cell_angle_alpha   90.00000000
_cell_angle_beta   89.99970000
_cell_angle_gamma   89.99990000
_symmetry_Int_Tables_number   1
_chemical_formula_structural   MoH9C7(NO)3
_chemical_formula_sum   'Mo8 H72 C56 N24 O24'
_cell_volume   2197.65526406
_cell_formula_units_Z   8
loop_
 _symmetry_equiv_pos_site_id
 _symmetry_equiv_pos_as_xyz
  1  'x, y, z'
loop_
 _atom_site_type_symbol
 _atom_site_label
 _atom_site_symmetry_multiplicity
 _atom_site_fract_x
 _atom_site_fract_y
 _atom_site_fract_z
 _atom_site_occupancy
  Mo  Mo0  1  0.40134000  0.09308000  0.93333000  1.0
  Mo  Mo1  1  0.59866000  0.59308000  0.56667000  1.0
  Mo  Mo2  1  0.09867000  0.40692000  0.43333000  1.0
  Mo  Mo3  1  0.90134000  0.90692000  0.06667000  1.0
  Mo  Mo4  1  0.59867000  0.90692000  0.06667000  1.0
  Mo  Mo5  1  0.40133000  0.40692000  0.43333000  1.0
  Mo  Mo6  1  0.90133000  0.59308000  0.56667000  1.0
  Mo  Mo7  1  0.09867000  0.09308000  0.93333000  1.0
  H  H8  1  0.42578000  0.04713000  0.17733000  1.0
  H  H9  1  0.57422000  0.54714000  0.32267000  1.0
  H  H10  1  0.07422000  0.45287000  0.67733000  1.0
  H  H11  1  0.92579000  0.95287000  0.82267000  1.0
  H  H12  1  0.57422000  0.95287000  0.82267000  1.0
  H  H13  1  0.42578000  0.45287000  0.67733000  1.0
  H  H14  1  0.92578000  0.54713000  0.32267000  1.0
  H  H15  1  0.07422000  0.04713000  0.17733000  1.0
  H  H16  1  0.42592000  0.70565000  0.43271000  1.0
  H  H17  1  0.57408000  0.20565000  0.06728000  1.0
  H  H18  1  0.07408000  0.79435000  0.93272000  1.0
  H  H19  1  0.92592000  0.29435000  0.56729000  1.0
  H  H20  1  0.57408000  0.29435000  0.56729000  1.0
  H  H21  1  0.42592000  0.79435000  0.93272000  1.0
  H  H22  1  0.92592000  0.20566000  0.06728000  1.0
  H  H23  1  0.07409000  0.70565000  0.43272000  1.0
  H  H24  1  0.32406000  0.86069000  0.28579000  1.0
  H  H25  1  0.67594000  0.36069000  0.21421000  1.0
  H  H26  1  0.17595000  0.63931000  0.78580000  1.0
  H  H27  1  0.82405000  0.13931000  0.71420000  1.0
  H  H28  1  0.67595000  0.13931000  0.71421000  1.0
  H  H29  1  0.32405000  0.63931000  0.78579000  1.0
  H  H30  1  0.82405000  0.36069000  0.21421000  1.0
  H  H31  1  0.17595000  0.86069000  0.28580000  1.0
  H  H32  1  0.07107000  0.88015000  0.43326000  1.0
  H  H33  1  0.92893000  0.38015000  0.06674000  1.0
  H  H34  1  0.42894000  0.61985000  0.93326000  1.0
  H  H35  1  0.57106000  0.11985000  0.56674000  1.0
  H  H36  1  0.92893000  0.11985000  0.56674000  1.0
  H  H37  1  0.07107000  0.61985000  0.93326000  1.0
  H  H38  1  0.57107000  0.38015000  0.06674000  1.0
  H  H39  1  0.42894000  0.88015000  0.43326000  1.0
  H  H40  1  0.14448000  0.89128000  0.53634000  1.0
  H  H41  1  0.85552000  0.39129000  0.96366000  1.0
  H  H42  1  0.35552000  0.60871000  0.03634000  1.0
  H  H43  1  0.64448000  0.10872000  0.46366000  1.0
  H  H44  1  0.85551000  0.10872000  0.46366000  1.0
  H  H45  1  0.14448000  0.60871000  0.03634000  1.0
  H  H46  1  0.64448000  0.39129000  0.96366000  1.0
  H  H47  1  0.35552000  0.89128000  0.53634000  1.0
  H  H48  1  0.07216000  0.07321000  0.48442000  1.0
  H  H49  1  0.92784000  0.57321000  0.01558000  1.0
  H  H50  1  0.42784000  0.42679000  0.98442000  1.0
  H  H51  1  0.57216000  0.92679000  0.51558000  1.0
  H  H52  1  0.92784000  0.92679000  0.51558000  1.0
  H  H53  1  0.07216000  0.42679000  0.98442000  1.0
  H  H54  1  0.57216000  0.57321000  0.01558000  1.0
  H  H55  1  0.42783000  0.07321000  0.48442000  1.0
  H  H56  1  0.07096000  0.03248000  0.32123000  1.0
  H  H57  1  0.92904000  0.53249000  0.17877000  1.0
  H  H58  1  0.42904000  0.46752000  0.82123000  1.0
  H  H59  1  0.57096000  0.96751000  0.67877000  1.0
  H  H60  1  0.92904000  0.96752000  0.67877000  1.0
  H  H61  1  0.07096000  0.46752000  0.82123000  1.0
  H  H62  1  0.57096000  0.53249000  0.17877000  1.0
  H  H63  1  0.42904000  0.03249000  0.32123000  1.0
  H  H64  1  0.14355000  0.15597000  0.34415000  1.0
  H  H65  1  0.85645000  0.65597000  0.15585000  1.0
  H  H66  1  0.35645000  0.34403000  0.84415000  1.0
  H  H67  1  0.64355000  0.84403000  0.65585000  1.0
  H  H68  1  0.85645000  0.84403000  0.65585000  1.0
  H  H69  1  0.14355000  0.34403000  0.84415000  1.0
  H  H70  1  0.64355000  0.65597000  0.15585000  1.0
  H  H71  1  0.35645000  0.15597000  0.34415000  1.0
  H  H72  1  0.25000000  0.06995000  0.57103000  1.0
  H  H73  1  0.75000000  0.56995000  0.92897000  1.0
  H  H74  1  0.25000000  0.43005000  0.07103000  1.0
  H  H75  1  0.75000000  0.93005000  0.42897000  1.0
  H  H76  1  0.25000000  0.17623000  0.49007000  1.0
  H  H77  1  0.75000000  0.67623000  0.00993000  1.0
  H  H78  1  0.25000000  0.32377000  0.99007000  1.0
  H  H79  1  0.75000000  0.82377000  0.50993000  1.0
  C  C80  1  0.34026000  0.05847000  0.15663000  1.0
  C  C81  1  0.65973000  0.55848000  0.34337000  1.0
  C  C82  1  0.15974000  0.44153000  0.65663000  1.0
  C  C83  1  0.84027000  0.94152000  0.84337000  1.0
  C  C84  1  0.65974000  0.94153000  0.84337000  1.0
  C  C85  1  0.34026000  0.44153000  0.65663000  1.0
  C  C86  1  0.84026000  0.55847000  0.34337000  1.0
  C  C87  1  0.15974000  0.05847000  0.15663000  1.0
  C  C88  1  0.34029000  0.67939000  0.42685000  1.0
  C  C89  1  0.65971000  0.17939000  0.07315000  1.0
  C  C90  1  0.15971000  0.82062000  0.92685000  1.0
  C  C91  1  0.84029000  0.32061000  0.57315000  1.0
  C  C92  1  0.65971000  0.32061000  0.57315000  1.0
  C  C93  1  0.34029000  0.82061000  0.92685000  1.0
  C  C94  1  0.84029000  0.17939000  0.07315000  1.0
  C  C95  1  0.15971000  0.67939000  0.42685000  1.0
  C  C96  1  0.25000000  0.02006000  0.30838000  1.0
  C  C97  1  0.75000000  0.52006000  0.19162000  1.0
  C  C98  1  0.25000000  0.47994000  0.80838000  1.0
  C  C99  1  0.75000000  0.97994000  0.69162000  1.0
  C  C100  1  0.25000000  0.89525000  0.31848000  1.0
  C  C101  1  0.75000000  0.39525000  0.18153000  1.0
  C  C102  1  0.25000000  0.60475000  0.81847000  1.0
  C  C103  1  0.75000000  0.10475000  0.68152000  1.0
  C  C104  1  0.25000000  0.86685000  0.41971000  1.0
  C  C105  1  0.75000000  0.36685000  0.08029000  1.0
  C  C106  1  0.25000000  0.63315000  0.91971000  1.0
  C  C107  1  0.75000000  0.13315000  0.58029000  1.0
  C  C108  1  0.14603000  0.91420000  0.46462000  1.0
  C  C109  1  0.85397000  0.41420000  0.03538000  1.0
  C  C110  1  0.35397000  0.58580000  0.96461000  1.0
  C  C111  1  0.64603000  0.08580000  0.53539000  1.0
  C  C112  1  0.85397000  0.08580000  0.53538000  1.0
  C  C113  1  0.14603000  0.58580000  0.96461000  1.0
  C  C114  1  0.64603000  0.41420000  0.03539000  1.0
  C  C115  1  0.35397000  0.91420000  0.46461000  1.0
  C  C116  1  0.14676000  0.03854000  0.45362000  1.0
  C  C117  1  0.85324000  0.53854000  0.04638000  1.0
  C  C118  1  0.35324000  0.46145000  0.95362000  1.0
  C  C119  1  0.64676000  0.96146000  0.54638000  1.0
  C  C120  1  0.85323000  0.96146000  0.54638000  1.0
  C  C121  1  0.14677000  0.46145000  0.95362000  1.0
  C  C122  1  0.64676000  0.53855000  0.04638000  1.0
  C  C123  1  0.35323000  0.03855000  0.45362000  1.0
  C  C124  1  0.14559000  0.06715000  0.35288000  1.0
  C  C125  1  0.85441000  0.56715000  0.14712000  1.0
  C  C126  1  0.35441000  0.43285000  0.85288000  1.0
  C  C127  1  0.64559000  0.93284000  0.64712000  1.0
  C  C128  1  0.85441000  0.93285000  0.64711000  1.0
  C  C129  1  0.14559000  0.43285000  0.85288000  1.0
  C  C130  1  0.64559000  0.56715000  0.14712000  1.0
  C  C131  1  0.35441000  0.06716000  0.35289000  1.0
  C  C132  1  0.25000000  0.08729000  0.49820000  1.0
  C  C133  1  0.75000000  0.58729000  0.00180000  1.0
  C  C134  1  0.25000000  0.41270000  0.99820000  1.0
  C  C135  1  0.75000000  0.91271000  0.50180000  1.0
  N  N136  1  0.25000000  0.04675000  0.21115000  1.0
  N  N137  1  0.75000000  0.54675000  0.28885000  1.0
  N  N138  1  0.25000000  0.45325000  0.71115000  1.0
  N  N139  1  0.75000000  0.95325000  0.78885000  1.0
  N  N140  1  0.30659000  0.07752000  0.07357000  1.0
  N  N141  1  0.69341000  0.57753000  0.42644000  1.0
  N  N142  1  0.19341000  0.42248000  0.57357000  1.0
  N  N143  1  0.80660000  0.92247000  0.92643000  1.0
  N  N144  1  0.69342000  0.92248000  0.92643000  1.0
  N  N145  1  0.30659000  0.42248000  0.57357000  1.0
  N  N146  1  0.80659000  0.57752000  0.42644000  1.0
  N  N147  1  0.19341000  0.07752000  0.07357000  1.0
  N  N148  1  0.25000000  0.74647000  0.42762000  1.0
  N  N149  1  0.75000000  0.24647000  0.07238000  1.0
  N  N150  1  0.25000000  0.75353000  0.92762000  1.0
  N  N151  1  0.75000000  0.25353000  0.57238000  1.0
  N  N152  1  0.30662000  0.57725000  0.42544000  1.0
  N  N153  1  0.69338000  0.07725000  0.07456000  1.0
  N  N154  1  0.19338000  0.92275000  0.92544000  1.0
  N  N155  1  0.80662000  0.42275000  0.57456000  1.0
  N  N156  1  0.69338000  0.42275000  0.57456000  1.0
  N  N157  1  0.30662000  0.92275000  0.92544000  1.0
  N  N158  1  0.80662000  0.07725000  0.07456000  1.0
  N  N159  1  0.19338000  0.57725000  0.42544000  1.0
  O  O160  1  0.25000000  0.13155000  0.90682000  1.0
  O  O161  1  0.75000000  0.63155000  0.59318000  1.0
  O  O162  1  0.25000000  0.36845000  0.40682000  1.0
  O  O163  1  0.75000000  0.86845000  0.09318000  1.0
  O  O164  1  0.45205000  0.21860000  0.96682000  1.0
  O  O165  1  0.54795000  0.71860000  0.53318000  1.0
  O  O166  1  0.04795000  0.28140000  0.46682000  1.0
  O  O167  1  0.95205000  0.78140000  0.03318000  1.0
  O  O168  1  0.54795000  0.78140000  0.03318000  1.0
  O  O169  1  0.45205000  0.28140000  0.46682000  1.0
  O  O170  1  0.95205000  0.71860000  0.53318000  1.0
  O  O171  1  0.04795000  0.21860000  0.96682000  1.0
  O  O172  1  0.50000000  0.00000000  1.00000000  1.0
  O  O173  1  0.50000000  0.50000000  0.50000000  1.0
  O  O174  1  0.00000000  0.50000000  0.50000000  1.0
  O  O175  1  0.00000000  0.00000000  0.00000000  1.0
  O  O176  1  0.45148000  0.07304000  0.82521000  1.0
  O  O177  1  0.54852000  0.57304000  0.67479000  1.0
  O  O178  1  0.04853000  0.42696000  0.32521000  1.0
  O  O179  1  0.95148000  0.92696000  0.17479000  1.0
  O  O180  1  0.54853000  0.92696000  0.17479000  1.0
  O  O181  1  0.45148000  0.42696000  0.32521000  1.0
  O  O182  1  0.95147000  0.57304000  0.67479000  1.0
  O  O183  1  0.04853000  0.07304000  0.82521000  1.0
