# generated using pymatgen
data_K2H10C12S2O7
_symmetry_space_group_name_H-M   'P 1'
_cell_length_a   5.74120000
_cell_length_b   10.08360000
_cell_length_c   14.49868513
_cell_angle_alpha   87.29727613
_cell_angle_beta   79.79779378
_cell_angle_gamma   73.49280000
_symmetry_Int_Tables_number   1
_chemical_formula_structural   K2H10C12S2O7
_chemical_formula_sum   'K4 H20 C24 S4 O14'
_cell_volume   792.03369332
_cell_formula_units_Z   2
loop_
 _symmetry_equiv_pos_site_id
 _symmetry_equiv_pos_as_xyz
  1  'x, y, z'
loop_
 _atom_site_type_symbol
 _atom_site_label
 _atom_site_symmetry_multiplicity
 _atom_site_fract_x
 _atom_site_fract_y
 _atom_site_fract_z
 _atom_site_occupancy
  K  K0  1  0.57760000  0.36888000  0.49871000  1.0
  K  K1  1  0.94759000  0.63182000  0.49930000  1.0
  K  K2  1  0.75753000  0.00118000  0.66644000  1.0
  K  K3  1  0.33842000  0.99988000  0.49252000  1.0
  H  H4  1  0.36890000  0.41837000  0.89498000  1.0
  H  H5  1  0.79763000  0.57668000  0.89511000  1.0
  H  H6  1  0.19674000  0.42644000  0.02351000  1.0
  H  H7  1  0.62355000  0.57507000  0.02251000  1.0
  H  H8  1  0.86417000  0.07899000  0.42681000  1.0
  H  H9  1  0.94328000  0.92115000  0.42689000  1.0
  H  H10  1  0.58914000  0.41178000  0.73402000  1.0
  H  H11  1  0.01004000  0.58500000  0.73415000  1.0
  H  H12  1  0.97666000  0.42436000  0.18443000  1.0
  H  H13  1  0.40130000  0.57633000  0.18335000  1.0
  H  H14  1  0.26341000  0.17578000  0.82351000  1.0
  H  H15  1  0.43447000  0.82994000  0.82454000  1.0
  H  H16  1  0.64806000  0.17867000  0.27120000  1.0
  H  H17  1  0.83162000  0.81814000  0.27260000  1.0
  H  H18  1  0.04800000  0.18617000  0.98593000  1.0
  H  H19  1  0.22923000  0.81889000  0.98648000  1.0
  H  H20  1  0.86948000  0.17751000  0.11114000  1.0
  H  H21  1  0.05366000  0.81888000  0.11289000  1.0
  H  H22  1  0.68704000  0.08007000  0.89384000  1.0
  H  H23  1  0.78807000  0.92097000  0.89072000  1.0
  C  C24  1  0.68726000  0.30058000  0.95517000  1.0
  C  C25  1  0.99074000  0.69922000  0.95557000  1.0
  C  C26  1  0.55235000  0.30033000  0.05251000  1.0
  C  C27  1  0.85595000  0.69885000  0.05286000  1.0
  C  C28  1  0.56514000  0.36497000  0.88136000  1.0
  C  C29  1  0.93678000  0.63262000  0.88168000  1.0
  C  C30  1  0.29879000  0.36942000  0.07626000  1.0
  C  C31  1  0.67006000  0.63076000  0.07588000  1.0
  C  C32  1  0.68853000  0.36127000  0.78943000  1.0
  C  C33  1  0.05577000  0.63718000  0.78977000  1.0
  C  C34  1  0.17177000  0.36874000  0.16741000  1.0
  C  C35  1  0.54199000  0.63119000  0.16695000  1.0
  C  C36  1  0.94049000  0.29205000  0.76835000  1.0
  C  C37  1  0.23440000  0.70918000  0.76885000  1.0
  C  C38  1  0.29724000  0.29794000  0.23728000  1.0
  C  C39  1  0.59742000  0.70110000  0.23744000  1.0
  C  C40  1  0.06772000  0.22990000  0.83981000  1.0
  C  C41  1  0.29608000  0.77360000  0.84036000  1.0
  C  C42  1  0.54868000  0.22994000  0.21616000  1.0
  C  C43  1  0.78268000  0.76784000  0.21706000  1.0
  C  C44  1  0.94255000  0.23509000  0.93187000  1.0
  C  C45  1  0.17597000  0.76791000  0.93239000  1.0
  C  C46  1  0.67335000  0.23120000  0.12481000  1.0
  C  C47  1  0.90938000  0.76651000  0.12582000  1.0
  S  S48  1  0.08906000  0.27877000  0.64885000  1.0
  S  S49  1  0.36858000  0.72271000  0.64932000  1.0
  S  S50  1  0.13715000  0.29090000  0.35359000  1.0
  S  S51  1  0.42952000  0.70835000  0.35368000  1.0
  O  O52  1  0.67407000  0.99814000  0.86403000  1.0
  O  O53  1  0.83107000  0.00025000  0.46492000  1.0
  O  O54  1  0.08609000  0.41920000  0.61721000  1.0
  O  O55  1  0.50467000  0.58215000  0.61692000  1.0
  O  O56  1  0.33128000  0.24267000  0.41126000  1.0
  O  O57  1  0.57559000  0.75614000  0.41174000  1.0
  O  O58  1  0.93844000  0.21697000  0.60091000  1.0
  O  O59  1  0.15562000  0.78502000  0.60197000  1.0
  O  O60  1  0.99694000  0.18923000  0.35018000  1.0
  O  O61  1  0.18825000  0.81061000  0.35060000  1.0
  O  O62  1  0.34010000  0.18683000  0.64680000  1.0
  O  O63  1  0.52856000  0.81423000  0.64732000  1.0
  O  O64  1  0.97424000  0.42961000  0.37788000  1.0
  O  O65  1  0.40408000  0.56987000  0.37727000  1.0
