# generated using pymatgen
data_ZnH21C23(NO2)2
_symmetry_space_group_name_H-M   'P 1'
_cell_length_a   9.59170000
_cell_length_b   10.72790000
_cell_length_c   11.06860000
_cell_angle_alpha   96.97920000
_cell_angle_beta   104.50500000
_cell_angle_gamma   115.82600000
_symmetry_Int_Tables_number   1
_chemical_formula_structural   ZnH21C23(NO2)2
_chemical_formula_sum   'Zn2 H42 C46 N4 O8'
_cell_volume   957.12439823
_cell_formula_units_Z   2
loop_
 _symmetry_equiv_pos_site_id
 _symmetry_equiv_pos_as_xyz
  1  'x, y, z'
loop_
 _atom_site_type_symbol
 _atom_site_label
 _atom_site_symmetry_multiplicity
 _atom_site_fract_x
 _atom_site_fract_y
 _atom_site_fract_z
 _atom_site_occupancy
  Zn  Zn0  1  0.46980000  0.45173000  0.11960000  1.0
  Zn  Zn1  1  0.53020000  0.54826000  0.88040000  1.0
  H  H2  1  0.02110000  0.21122000  0.13677000  1.0
  H  H3  1  0.97891000  0.78878000  0.86323000  1.0
  H  H4  1  0.92930000  0.30816000  0.19051000  1.0
  H  H5  1  0.07071000  0.69184000  0.80949000  1.0
  H  H6  1  0.98618000  0.20552000  0.28691000  1.0
  H  H7  1  0.01383000  0.79448000  0.71308000  1.0
  H  H8  1  0.22493000  0.47264000  0.22258000  1.0
  H  H9  1  0.77508000  0.52736000  0.77741000  1.0
  H  H10  1  0.19314000  0.47542000  0.37322000  1.0
  H  H11  1  0.80686000  0.52458000  0.62678000  1.0
  H  H12  1  0.71865000  0.35314000  0.26281000  1.0
  H  H13  1  0.28135000  0.64686000  0.73719000  1.0
  H  H14  1  0.83872000  0.24104000  0.41376000  1.0
  H  H15  1  0.16129000  0.75896000  0.58624000  1.0
  H  H16  1  0.72269000  0.15617000  0.58255000  1.0
  H  H17  1  0.27731000  0.84383000  0.41745000  1.0
  H  H18  1  0.48786000  0.18550000  0.61064000  1.0
  H  H19  1  0.51214000  0.81450000  0.38936000  1.0
  H  H20  1  0.19467000  0.36277000  0.51926000  1.0
  H  H21  1  0.80534000  0.63724000  0.48074000  1.0
  H  H22  1  0.33943000  0.33239000  0.62607000  1.0
  H  H23  1  0.66057000  0.66761000  0.37393000  1.0
  H  H24  1  0.15074000  0.03987000  0.34341000  1.0
  H  H25  1  0.84926000  0.96013000  0.65659000  1.0
  H  H26  1  0.06301000  0.20452000  0.67454000  1.0
  H  H27  1  0.93699000  0.79548000  0.32545000  1.0
  H  H28  1  0.35644000  0.06341000  0.73143000  1.0
  H  H29  1  0.64356000  0.93659000  0.26857000  1.0
  H  H30  1  0.36263000  0.02173000  0.88259000  1.0
  H  H31  1  0.63737000  0.97826000  0.11741000  1.0
  H  H32  1  0.52830000  0.90336000  0.88143000  1.0
  H  H33  1  0.47170000  0.09664000  0.11857000  1.0
  H  H34  1  0.79795000  0.92168000  0.90357000  1.0
  H  H35  1  0.20205000  0.07832000  0.09643000  1.0
  H  H36  1  0.02707000  0.14483000  0.89104000  1.0
  H  H37  1  0.97293000  0.85517000  0.10896000  1.0
  H  H38  1  0.70925000  0.33333333  0.83840000  1.0
  H  H39  1  0.29074000  0.66666667  0.16160000  1.0
  H  H40  1  0.98436000  0.38813000  0.74392000  1.0
  H  H41  1  0.01563000  0.61187000  0.25608000  1.0
  H  H42  1  0.00104000  0.48243000  0.89275000  1.0
  H  H43  1  0.99896000  0.51757000  0.10725000  1.0
  C  C44  1  0.02261000  0.27492000  0.22286000  1.0
  C  C45  1  0.97739000  0.72508000  0.77713000  1.0
  C  C46  1  0.19330000  0.40747000  0.29026000  1.0
  C  C47  1  0.80671000  0.59253000  0.70974000  1.0
  C  C48  1  0.32519000  0.36882000  0.33485000  1.0
  C  C49  1  0.67481000  0.63118000  0.66515000  1.0
  C  C50  1  0.53382000  0.32809000  0.35082000  1.0
  C  C51  1  0.46619000  0.67192000  0.64918000  1.0
  C  C52  1  0.66882000  0.31553000  0.33742000  1.0
  C  C53  1  0.33118000  0.68447000  0.66258000  1.0
  C  C54  1  0.73475000  0.25385000  0.42260000  1.0
  C  C55  1  0.26526000  0.74615000  0.57740000  1.0
  C  C56  1  0.66926000  0.20564000  0.51893000  1.0
  C  C57  1  0.33075000  0.79436000  0.48108000  1.0
  C  C58  1  0.53685000  0.21986000  0.53483000  1.0
  C  C59  1  0.46315000  0.78014000  0.46517000  1.0
  C  C60  1  0.47175000  0.28215000  0.44969000  1.0
  C  C61  1  0.52826000  0.71785000  0.55031000  1.0
  C  C62  1  0.25018000  0.29234000  0.52733000  1.0
  C  C63  1  0.74982000  0.70766000  0.47267000  1.0
  C  C64  1  0.12096000  0.13989000  0.50995000  1.0
  C  C65  1  0.87903000  0.86011000  0.49005000  1.0
  C  C66  1  0.08511000  0.02352000  0.41246000  1.0
  C  C67  1  0.91489000  0.97648000  0.58754000  1.0
  C  C68  1  0.03483000  0.11468000  0.59737000  1.0
  C  C69  1  0.96517000  0.88532000  0.40262000  1.0
  C  C70  1  0.43951000  0.24424000  0.88964000  1.0
  C  C71  1  0.56048000  0.75575000  0.11037000  1.0
  C  C72  1  0.42833000  0.10164000  0.83570000  1.0
  C  C73  1  0.57167000  0.89836000  0.16430000  1.0
  C  C74  1  0.59794000  0.11654000  0.85531000  1.0
  C  C75  1  0.40206000  0.88346000  0.14469000  1.0
  C  C76  1  0.62576000  0.00172000  0.87500000  1.0
  C  C77  1  0.37424000  0.99828000  0.12500000  1.0
  C  C78  1  0.77918000  0.01232000  0.88713000  1.0
  C  C79  1  0.22082000  0.98768000  0.11287000  1.0
  C  C80  1  0.90725000  0.13738000  0.88014000  1.0
  C  C81  1  0.09274000  0.86262000  0.11986000  1.0
  C  C82  1  0.88252000  0.25431000  0.86269000  1.0
  C  C83  1  0.11748000  0.74569000  0.13730000  1.0
  C  C84  1  0.72842000  0.24235000  0.85156000  1.0
  C  C85  1  0.27158000  0.75764000  0.14844000  1.0
  C  C86  1  0.01057000  0.39054000  0.84713000  1.0
  C  C87  1  0.98943000  0.60946000  0.15287000  1.0
  C  C88  1  0.18950000  0.42750000  0.90501000  1.0
  C  C89  1  0.81050000  0.57250000  0.09499000  1.0
  N  N90  1  0.43905000  0.38082000  0.28038000  1.0
  N  N91  1  0.56095000  0.61918000  0.71962000  1.0
  N  N92  1  0.34152000  0.31073000  0.43780000  1.0
  N  N93  1  0.65848000  0.68928000  0.56220000  1.0
  O  O94  1  0.42771000  0.26618000  0.00111000  1.0
  O  O95  1  0.57229000  0.73382000  0.99891000  1.0
  O  O96  1  0.46622000  0.33312000  0.82029000  1.0
  O  O97  1  0.53376000  0.66687000  0.17972000  1.0
  O  O98  1  0.23656000  0.41355000  0.01818000  1.0
  O  O99  1  0.76343000  0.58644000  0.98182000  1.0
  O  O100  1  0.27876000  0.47338000  0.83575000  1.0
  O  O101  1  0.72123000  0.52662000  0.16424000  1.0
