# generated using pymatgen
data_ZnH10C15NO4
_symmetry_space_group_name_H-M   'P 1'
_cell_length_a   10.32660000
_cell_length_b   13.19530000
_cell_length_c   13.27810000
_cell_angle_alpha   101.12300000
_cell_angle_beta   105.68000000
_cell_angle_gamma   105.89600000
_symmetry_Int_Tables_number   1
_chemical_formula_structural   ZnH10C15NO4
_chemical_formula_sum   'Zn4 H40 C60 N4 O16'
_cell_volume   1604.23845617
_cell_formula_units_Z   4
loop_
 _symmetry_equiv_pos_site_id
 _symmetry_equiv_pos_as_xyz
  1  'x, y, z'
loop_
 _atom_site_type_symbol
 _atom_site_label
 _atom_site_symmetry_multiplicity
 _atom_site_fract_x
 _atom_site_fract_y
 _atom_site_fract_z
 _atom_site_occupancy
  Zn  Zn0  1  0.09408000  0.16959000  0.72189000  1.0
  Zn  Zn1  1  0.40536000  0.27847000  0.82900000  1.0
  Zn  Zn2  1  0.90592000  0.83041000  0.27811000  1.0
  Zn  Zn3  1  0.59464000  0.72153000  0.17100000  1.0
  H  H4  1  0.40728000  0.33063000  0.15954000  1.0
  H  H5  1  0.09416000  0.83964000  0.66946000  1.0
  H  H6  1  0.59273000  0.66937000  0.84046000  1.0
  H  H7  1  0.90584000  0.16035000  0.33054000  1.0
  H  H8  1  0.40386000  0.31105000  0.33951000  1.0
  H  H9  1  0.09756000  0.65881000  0.69034000  1.0
  H  H10  1  0.59614000  0.68895000  0.66049000  1.0
  H  H11  1  0.90244000  0.34119000  0.30966000  1.0
  H  H12  1  0.98600000  0.08726000  0.00444000  1.0
  H  H13  1  0.51412000  0.99792000  0.91233000  1.0
  H  H14  1  0.01400000  0.91274000  0.99555000  1.0
  H  H15  1  0.48588000  0.00208000  0.08767000  1.0
  H  H16  1  0.64113000  0.00698000  0.38615000  1.0
  H  H17  1  0.86044000  0.61573000  0.99413000  1.0
  H  H18  1  0.35887000  0.99302000  0.61386000  1.0
  H  H19  1  0.13955000  0.38427000  0.00587000  1.0
  H  H20  1  0.90128000  0.07773000  0.49104000  1.0
  H  H21  1  0.59992000  0.51081000  0.92250000  1.0
  H  H22  1  0.09872000  0.92227000  0.50896000  1.0
  H  H23  1  0.40008000  0.48919000  0.07749000  1.0
  H  H24  1  0.83095000  0.11555000  0.78585000  1.0
  H  H25  1  0.66666667  0.21299000  0.88300000  1.0
  H  H26  1  0.16906000  0.88445000  0.21415000  1.0
  H  H27  1  0.33333333  0.78701000  0.11700000  1.0
  H  H28  1  0.56729000  0.04960000  0.69525000  1.0
  H  H29  1  0.93080000  0.30352000  0.94991000  1.0
  H  H30  1  0.43271000  0.95040000  0.30475000  1.0
  H  H31  1  0.06921000  0.69648000  0.05009000  1.0
  H  H32  1  0.98408000  0.06076000  0.18547000  1.0
  H  H33  1  0.51550000  0.81578000  0.94013000  1.0
  H  H34  1  0.01592000  0.93924000  0.81453000  1.0
  H  H35  1  0.48450000  0.18422000  0.05987000  1.0
  H  H36  1  0.39846000  0.27252000  0.48672000  1.0
  H  H37  1  0.10169000  0.51361000  0.72926000  1.0
  H  H38  1  0.60154000  0.72748000  0.51328000  1.0
  H  H39  1  0.89831000  0.48639000  0.27074000  1.0
  H  H40  1  0.08453000  0.11604000  0.37923000  1.0
  H  H41  1  0.41528000  0.62061000  0.88517000  1.0
  H  H42  1  0.91546000  0.88395000  0.62076000  1.0
  H  H43  1  0.58472000  0.37939000  0.11483000  1.0
  C  C44  1  0.20501000  0.21758000  0.96114000  1.0
  C  C45  1  0.29546000  0.03926000  0.78101000  1.0
  C  C46  1  0.79499000  0.78243000  0.03886000  1.0
  C  C47  1  0.70454000  0.96073000  0.21898000  1.0
  C  C48  1  0.19752000  0.20902000  0.07027000  1.0
  C  C49  1  0.30325000  0.93014000  0.79059000  1.0
  C  C50  1  0.80248000  0.79098000  0.92973000  1.0
  C  C51  1  0.69674000  0.06985000  0.20941000  1.0
  C  C52  1  0.31468000  0.27187000  0.16565000  1.0
  C  C53  1  0.18631000  0.83389000  0.72829000  1.0
  C  C54  1  0.68532000  0.72813000  0.83435000  1.0
  C  C55  1  0.81369000  0.16610000  0.27171000  1.0
  C  C56  1  0.31250000  0.26001000  0.26657000  1.0
  C  C57  1  0.18844000  0.73271000  0.74087000  1.0
  C  C58  1  0.68750000  0.73999000  0.73343000  1.0
  C  C59  1  0.81156000  0.26728000  0.25914000  1.0
  C  C60  1  0.07719000  0.13501000  0.07854000  1.0
  C  C61  1  0.42329000  0.92294000  0.86498000  1.0
  C  C62  1  0.92281000  0.86499000  0.92146000  1.0
  C  C63  1  0.57671000  0.07706000  0.13502000  1.0
  C  C64  1  0.67676000  0.03077000  0.47474000  1.0
  C  C65  1  0.82406000  0.52648000  0.96967000  1.0
  C  C66  1  0.32324000  0.96924000  0.52526000  1.0
  C  C67  1  0.17593000  0.47353000  0.03033000  1.0
  C  C68  1  0.82282000  0.07012000  0.53239000  1.0
  C  C69  1  0.67775000  0.46880000  0.92984000  1.0
  C  C70  1  0.17718000  0.92989000  0.46761000  1.0
  C  C71  1  0.32225000  0.53120000  0.07016000  1.0
  C  C72  1  0.78280000  0.09112000  0.69714000  1.0
  C  C73  1  0.71579000  0.30234000  0.90799000  1.0
  C  C74  1  0.21720000  0.90888000  0.30286000  1.0
  C  C75  1  0.28421000  0.69766000  0.09201000  1.0
  C  C76  1  0.63533000  0.05307000  0.64507000  1.0
  C  C77  1  0.86341000  0.35434000  0.94644000  1.0
  C  C78  1  0.36467000  0.94693000  0.35493000  1.0
  C  C79  1  0.13659000  0.64566000  0.05356000  1.0
  C  C80  1  0.07619000  0.12080000  0.17955000  1.0
  C  C81  1  0.42405000  0.82162000  0.88003000  1.0
  C  C82  1  0.92381000  0.87920000  0.82045000  1.0
  C  C83  1  0.57594000  0.17838000  0.11997000  1.0
  C  C84  1  0.57821000  0.02110000  0.53022000  1.0
  C  C85  1  0.92165000  0.46999000  0.97886000  1.0
  C  C86  1  0.42179000  0.97890000  0.46978000  1.0
  C  C87  1  0.07835000  0.53001000  0.02113000  1.0
  C  C88  1  0.19382000  0.18325000  0.27550000  1.0
  C  C89  1  0.30676000  0.72485000  0.81794000  1.0
  C  C90  1  0.80618000  0.81675000  0.72450000  1.0
  C  C91  1  0.69324000  0.27514000  0.18206000  1.0
  C  C92  1  0.18645000  0.17041000  0.38054000  1.0
  C  C93  1  0.31385000  0.61947000  0.83112000  1.0
  C  C94  1  0.81354000  0.82959000  0.61946000  1.0
  C  C95  1  0.68615000  0.38052000  0.16888000  1.0
  C  C96  1  0.29171000  0.22045000  0.47834000  1.0
  C  C97  1  0.20786000  0.52139000  0.78099000  1.0
  C  C98  1  0.70829000  0.77955000  0.52166000  1.0
  C  C99  1  0.79214000  0.47860000  0.21901000  1.0
  C  C100  1  0.27065000  0.21208000  0.58274000  1.0
  C  C101  1  0.22817000  0.41641000  0.78886000  1.0
  C  C102  1  0.72935000  0.78792000  0.41726000  1.0
  C  C103  1  0.77184000  0.58358000  0.21114000  1.0
  N  N104  1  0.87587000  0.09999000  0.64230000  1.0
  N  N105  1  0.62367000  0.35811000  0.89918000  1.0
  N  N106  1  0.12414000  0.90001000  0.35770000  1.0
  N  N107  1  0.37634000  0.64189000  0.10082000  1.0
  O  O108  1  0.08750000  0.18337000  0.88074000  1.0
  O  O109  1  0.41283000  0.12041000  0.81454000  1.0
  O  O110  1  0.91250000  0.81663000  0.11926000  1.0
  O  O111  1  0.58716000  0.87959000  0.18545000  1.0
  O  O112  1  0.14535000  0.16118000  0.58115000  1.0
  O  O113  1  0.35347000  0.41827000  0.83908000  1.0
  O  O114  1  0.85465000  0.83881000  0.41885000  1.0
  O  O115  1  0.64653000  0.58173000  0.16092000  1.0
  O  O116  1  0.38272000  0.25972000  0.66806000  1.0
  O  O117  1  0.11597000  0.33052000  0.74169000  1.0
  O  O118  1  0.61728000  0.74028000  0.33194000  1.0
  O  O119  1  0.88403000  0.66948000  0.25831000  1.0
  O  O120  1  0.33019000  0.25809000  0.95729000  1.0
  O  O121  1  0.17021000  0.04249000  0.74056000  1.0
  O  O122  1  0.66981000  0.74191000  0.04271000  1.0
  O  O123  1  0.82979000  0.95750000  0.25944000  1.0
