# generated using pymatgen
data_AgH16C10S(NO2)3
_symmetry_space_group_name_H-M   'P 1'
_cell_length_a   8.00549000
_cell_length_b   11.56897535
_cell_length_c   16.89140000
_cell_angle_alpha   81.38046526
_cell_angle_beta   89.97640000
_cell_angle_gamma   69.76407517
_symmetry_Int_Tables_number   1
_chemical_formula_structural   AgH16C10S(NO2)3
_chemical_formula_sum   'Ag4 H64 C40 S4 N12 O24'
_cell_volume   1449.03123053
_cell_formula_units_Z   4
loop_
 _symmetry_equiv_pos_site_id
 _symmetry_equiv_pos_as_xyz
  1  'x, y, z'
loop_
 _atom_site_type_symbol
 _atom_site_label
 _atom_site_symmetry_multiplicity
 _atom_site_fract_x
 _atom_site_fract_y
 _atom_site_fract_z
 _atom_site_occupancy
  Ag  Ag0  1  0.78393000  0.92238000  0.26382000  1.0
  Ag  Ag1  1  0.70650000  0.07742000  0.73627000  1.0
  Ag  Ag2  1  0.23303000  0.03624000  0.24372000  1.0
  Ag  Ag3  1  0.26936000  0.96359000  0.75640000  1.0
  H  H4  1  0.40836000  0.22708000  0.22293000  1.0
  H  H5  1  0.63529000  0.77317000  0.77708000  1.0
  H  H6  1  0.38385000  0.52133000  0.75874000  1.0
  H  H7  1  0.90545000  0.47850000  0.24139000  1.0
  H  H8  1  0.35964000  0.45372000  0.96481000  1.0
  H  H9  1  0.81349000  0.54622000  0.03540000  1.0
  H  H10  1  0.50330000  0.53979000  0.97283000  1.0
  H  H11  1  0.04321000  0.46036000  0.02725000  1.0
  H  H12  1  0.57503000  0.14314000  0.45981000  1.0
  H  H13  1  0.71855000  0.85672000  0.54019000  1.0
  H  H14  1  0.76879000  0.33708000  0.97954000  1.0
  H  H15  1  0.10551000  0.66332000  0.02042000  1.0
  H  H16  1  0.61896000  0.25526000  0.98307000  1.0
  H  H17  1  0.87381000  0.74489000  0.01692000  1.0
  H  H18  1  0.22927000  0.84716000  0.04780000  1.0
  H  H19  1  0.07637000  0.15274000  0.95203000  1.0
  H  H20  1  0.48900000  0.35712000  0.10594000  1.0
  H  H21  1  0.84609000  0.64281000  0.89416000  1.0
  H  H22  1  0.66726000  0.41438000  0.10496000  1.0
  H  H23  1  0.08157000  0.58567000  0.89511000  1.0
  H  H24  1  0.13540000  0.72949000  0.27790000  1.0
  H  H25  1  0.86500000  0.27068000  0.72197000  1.0
  H  H26  1  0.65908000  0.52034000  0.74576000  1.0
  H  H27  1  0.17952000  0.47975000  0.25428000  1.0
  H  H28  1  0.68922000  0.14106000  0.13528000  1.0
  H  H29  1  0.83008000  0.85891000  0.86467000  1.0
  H  H30  1  0.87721000  0.18025000  0.10738000  1.0
  H  H31  1  0.05722000  0.81987000  0.89252000  1.0
  H  H32  1  0.86461000  0.28636000  0.22339000  1.0
  H  H33  1  0.15084000  0.71345000  0.77657000  1.0
  H  H34  1  0.56046000  0.36742000  0.25843000  1.0
  H  H35  1  0.92721000  0.63259000  0.74166000  1.0
  H  H36  1  0.68603000  0.30959000  0.39305000  1.0
  H  H37  1  0.99576000  0.69015000  0.60702000  1.0
  H  H38  1  0.91576000  0.06261000  0.42292000  1.0
  H  H39  1  0.97876000  0.93708000  0.57705000  1.0
  H  H40  1  0.98466000  0.18810000  0.37707000  1.0
  H  H41  1  0.17299000  0.81156000  0.62294000  1.0
  H  H42  1  0.66297000  0.55294000  0.53725000  1.0
  H  H43  1  0.21609000  0.44702000  0.46275000  1.0
  H  H44  1  0.56163000  0.70907000  0.54957000  1.0
  H  H45  1  0.27076000  0.29089000  0.45046000  1.0
  H  H46  1  0.26701000  0.71362000  0.50449000  1.0
  H  H47  1  0.98072000  0.28636000  0.49565000  1.0
  H  H48  1  0.33774000  0.54983000  0.52237000  1.0
  H  H49  1  0.88767000  0.45014000  0.47767000  1.0
  H  H50  1  0.32552000  0.60221000  0.38132000  1.0
  H  H51  1  0.92772000  0.39782000  0.61876000  1.0
  H  H52  1  0.55371000  0.54404000  0.41105000  1.0
  H  H53  1  0.09760000  0.45616000  0.58893000  1.0
  H  H54  1  0.31840000  0.82062000  0.36488000  1.0
  H  H55  1  0.13912000  0.17951000  0.63506000  1.0
  H  H56  1  0.54093000  0.77171000  0.40315000  1.0
  H  H57  1  0.31263000  0.22854000  0.59671000  1.0
  H  H58  1  0.65076000  0.66347000  0.28836000  1.0
  H  H59  1  0.31456000  0.33649000  0.71155000  1.0
  H  H60  1  0.43062000  0.58946000  0.24292000  1.0
  H  H61  1  0.02056000  0.41075000  0.75699000  1.0
  H  H62  1  0.50067000  0.65178000  0.11079000  1.0
  H  H63  1  0.15246000  0.34832000  0.88914000  1.0
  H  H64  1  0.49737000  0.89510000  0.08591000  1.0
  H  H65  1  0.39221000  0.10498000  0.91399000  1.0
  H  H66  1  0.68513000  0.76493000  0.13092000  1.0
  H  H67  1  0.45002000  0.23507000  0.86896000  1.0
  C  C68  1  0.51372000  0.47521000  0.86391000  1.0
  C  C69  1  0.98906000  0.52488000  0.13618000  1.0
  C  C70  1  0.49314000  0.45586000  0.95265000  1.0
  C  C71  1  0.94905000  0.54424000  0.04746000  1.0
  C  C72  1  0.63633000  0.33963000  0.99858000  1.0
  C  C73  1  0.97573000  0.66055000  0.00146000  1.0
  C  C74  1  0.62779000  0.33809000  0.08907000  1.0
  C  C75  1  0.96575000  0.66195000  0.91098000  1.0
  C  C76  1  0.74963000  0.21326000  0.13614000  1.0
  C  C77  1  0.96272000  0.78674000  0.86382000  1.0
  C  C78  1  0.78855000  0.22358000  0.22232000  1.0
  C  C79  1  0.01209000  0.77631000  0.77766000  1.0
  C  C80  1  0.62817000  0.26573000  0.27440000  1.0
  C  C81  1  0.89371000  0.73423000  0.72563000  1.0
  C  C82  1  0.69504000  0.22841000  0.36475000  1.0
  C  C83  1  0.92352000  0.77140000  0.63527000  1.0
  C  C84  1  0.89066000  0.13902000  0.37245000  1.0
  C  C85  1  0.02993000  0.86073000  0.62754000  1.0
  C  C86  1  0.46107000  0.15646000  0.34400000  1.0
  C  C87  1  0.61760000  0.84359000  0.65599000  1.0
  C  C88  1  0.52414000  0.57868000  0.64190000  1.0
  C  C89  1  0.10299000  0.42126000  0.35816000  1.0
  C  C90  1  0.53886000  0.61988000  0.55455000  1.0
  C  C91  1  0.15888000  0.38008000  0.44548000  1.0
  C  C92  1  0.38140000  0.62829000  0.50046000  1.0
  C  C93  1  0.00976000  0.37172000  0.49961000  1.0
  C  C94  1  0.42883000  0.62325000  0.41298000  1.0
  C  C95  1  0.05207000  0.37687000  0.58705000  1.0
  C  C96  1  0.44809000  0.74357000  0.36926000  1.0
  C  C97  1  0.19174000  0.25655000  0.63067000  1.0
  C  C98  1  0.51301000  0.72992000  0.28526000  1.0
  C  C99  1  0.24306000  0.27012000  0.71466000  1.0
  C  C100  1  0.39677000  0.69134000  0.22911000  1.0
  C  C101  1  0.08822000  0.30884000  0.77081000  1.0
  C  C102  1  0.43012000  0.73240000  0.13980000  1.0
  C  C103  1  0.16248000  0.26772000  0.86013000  1.0
  C  C104  1  0.54313000  0.81693000  0.13553000  1.0
  C  C105  1  0.35993000  0.18312000  0.86437000  1.0
  C  C106  1  0.12344000  0.81052000  0.15880000  1.0
  C  C107  1  0.93394000  0.18962000  0.84108000  1.0
  S  S108  1  0.92924000  0.07405000  0.27971000  1.0
  S  S109  1  0.00346000  0.92578000  0.72023000  1.0
  S  S110  1  0.51963000  0.87721000  0.22987000  1.0
  S  S111  1  0.39675000  0.12280000  0.77004000  1.0
  N  N112  1  0.50355000  0.20055000  0.26905000  1.0
  N  N113  1  0.70405000  0.79972000  0.73098000  1.0
  N  N114  1  0.57337000  0.16955000  0.39931000  1.0
  N  N115  1  0.74313000  0.83026000  0.60069000  1.0
  N  N116  1  0.25096000  0.79635000  0.10407000  1.0
  N  N117  1  0.04709000  0.20382000  0.89585000  1.0
  N  N118  1  0.20697000  0.75606000  0.23331000  1.0
  N  N119  1  0.96284000  0.24432000  0.76663000  1.0
  N  N120  1  0.90212000  0.74021000  0.41918000  1.0
  N  N121  1  0.64217000  0.25971000  0.58080000  1.0
  N  N122  1  0.22918000  0.20270000  0.08291000  1.0
  N  N123  1  0.43196000  0.79711000  0.91712000  1.0
  O  O124  1  0.36713000  0.49472000  0.81916000  1.0
  O  O125  1  0.86214000  0.50512000  0.18099000  1.0
  O  O126  1  0.65677000  0.47502000  0.83471000  1.0
  O  O127  1  0.13185000  0.52523000  0.16531000  1.0
  O  O128  1  0.33976000  0.11238000  0.35794000  1.0
  O  O129  1  0.45229000  0.88765000  0.64206000  1.0
  O  O130  1  0.67338000  0.55108000  0.68592000  1.0
  O  O131  1  0.22454000  0.44901000  0.31409000  1.0
  O  O132  1  0.38344000  0.57148000  0.67065000  1.0
  O  O133  1  0.95513000  0.42832000  0.32947000  1.0
  O  O134  1  0.95920000  0.86364000  0.14477000  1.0
  O  O135  1  0.82307000  0.13621000  0.85512000  1.0
  O  O136  1  0.94543000  0.71636000  0.34845000  1.0
  O  O137  1  0.66199000  0.28354000  0.65148000  1.0
  O  O138  1  0.80956000  0.85223000  0.42718000  1.0
  O  O139  1  0.66130000  0.14773000  0.57284000  1.0
  O  O140  1  0.94810000  0.65469000  0.47801000  1.0
  O  O141  1  0.60259000  0.34523000  0.52196000  1.0
  O  O142  1  0.21735000  0.22773000  0.15516000  1.0
  O  O143  1  0.44546000  0.77212000  0.84487000  1.0
  O  O144  1  0.19693000  0.10771000  0.06855000  1.0
  O  O145  1  0.30432000  0.89187000  0.93149000  1.0
  O  O146  1  0.27092000  0.27280000  0.02887000  1.0
  O  O147  1  0.54385000  0.72721000  0.97115000  1.0
