# generated using pymatgen
data_AgH10C5SNO2
_symmetry_space_group_name_H-M   'P 1'
_cell_length_a   7.71862000
_cell_length_b   8.98482000
_cell_length_c   11.02920000
_cell_angle_alpha   93.86500000
_cell_angle_beta   89.99860000
_cell_angle_gamma   89.99920000
_symmetry_Int_Tables_number   1
_chemical_formula_structural   AgH10C5SNO2
_chemical_formula_sum   'Ag4 H40 C20 S4 N4 O8'
_cell_volume   763.13994571
_cell_formula_units_Z   4
loop_
 _symmetry_equiv_pos_site_id
 _symmetry_equiv_pos_as_xyz
  1  'x, y, z'
loop_
 _atom_site_type_symbol
 _atom_site_label
 _atom_site_symmetry_multiplicity
 _atom_site_fract_x
 _atom_site_fract_y
 _atom_site_fract_z
 _atom_site_occupancy
  Ag  Ag0  1  0.79127000  0.60751000  0.89982000  1.0
  Ag  Ag1  1  0.29128000  0.39248000  0.60018000  1.0
  Ag  Ag2  1  0.20874000  0.39248000  0.10018000  1.0
  Ag  Ag3  1  0.70872000  0.60753000  0.39981000  1.0
  H  H4  1  0.88420000  0.19415000  0.74219000  1.0
  H  H5  1  0.38416000  0.80585000  0.75781000  1.0
  H  H6  1  0.11580000  0.80585000  0.25781000  1.0
  H  H7  1  0.61583000  0.19415000  0.24219000  1.0
  H  H8  1  0.31646000  0.02217000  0.83918000  1.0
  H  H9  1  0.81645000  0.97782000  0.66083000  1.0
  H  H10  1  0.68357000  0.97784000  0.16080000  1.0
  H  H11  1  0.18356000  0.02215000  0.33920000  1.0
  H  H12  1  0.12746000  0.06739000  0.92667000  1.0
  H  H13  1  0.62746000  0.93261000  0.57333000  1.0
  H  H14  1  0.87256000  0.93259000  0.07330000  1.0
  H  H15  1  0.37254000  0.06739000  0.42670000  1.0
  H  H16  1  0.21185000  0.20007000  0.82684000  1.0
  H  H17  1  0.71184000  0.79992000  0.67316000  1.0
  H  H18  1  0.78817000  0.79994000  0.17315000  1.0
  H  H19  1  0.28816000  0.20004000  0.32684000  1.0
  H  H20  1  0.60077000  0.36589000  0.99974000  1.0
  H  H21  1  0.10077000  0.63411000  0.50027000  1.0
  H  H22  1  0.39924000  0.63411000  0.00027000  1.0
  H  H23  1  0.89922000  0.36590000  0.49973000  1.0
  H  H24  1  0.46627000  0.36360000  0.86908000  1.0
  H  H25  1  0.96626000  0.63642000  0.63093000  1.0
  H  H26  1  0.53373000  0.63641000  0.13093000  1.0
  H  H27  1  0.03374000  0.36359000  0.36907000  1.0
  H  H28  1  0.73536000  0.12384000  0.92770000  1.0
  H  H29  1  0.23535000  0.87617000  0.57231000  1.0
  H  H30  1  0.26465000  0.87617000  0.07231000  1.0
  H  H31  1  0.76464000  0.12385000  0.42770000  1.0
  H  H32  1  0.59821000  0.11139000  0.79762000  1.0
  H  H33  1  0.09819000  0.88862000  0.70238000  1.0
  H  H34  1  0.40178000  0.88861000  0.20238000  1.0
  H  H35  1  0.90180000  0.11138000  0.29763000  1.0
  H  H36  1  0.91111000  0.33713000  0.95692000  1.0
  H  H37  1  0.41110000  0.66286000  0.54309000  1.0
  H  H38  1  0.08890000  0.66286000  0.04308000  1.0
  H  H39  1  0.58891000  0.33715000  0.45691000  1.0
  H  H40  1  0.01856000  0.40354000  0.84032000  1.0
  H  H41  1  0.51854000  0.59646000  0.65969000  1.0
  H  H42  1  0.98144000  0.59646000  0.15968000  1.0
  H  H43  1  0.48145000  0.40353000  0.34031000  1.0
  C  C44  1  0.70314000  0.35605000  0.68882000  1.0
  C  C45  1  0.20310000  0.64395000  0.81118000  1.0
  C  C46  1  0.29687000  0.64396000  0.31118000  1.0
  C  C47  1  0.79688000  0.35606000  0.18881000  1.0
  C  C48  1  0.79725000  0.27644000  0.79027000  1.0
  C  C49  1  0.29723000  0.72357000  0.70974000  1.0
  C  C50  1  0.20275000  0.72357000  0.20974000  1.0
  C  C51  1  0.70276000  0.27643000  0.29026000  1.0
  C  C52  1  0.24516000  0.11304000  0.88789000  1.0
  C  C53  1  0.74515000  0.88695000  0.61211000  1.0
  C  C54  1  0.75486000  0.88696000  0.11210000  1.0
  C  C55  1  0.25485000  0.11303000  0.38790000  1.0
  C  C56  1  0.53669000  0.29259000  0.92986000  1.0
  C  C57  1  0.03668000  0.70742000  0.57014000  1.0
  C  C58  1  0.46331000  0.70741000  0.07014000  1.0
  C  C59  1  0.96332000  0.29259000  0.42986000  1.0
  C  C60  1  0.66593000  0.18909000  0.86234000  1.0
  C  C61  1  0.16592000  0.81092000  0.63767000  1.0
  C  C62  1  0.33407000  0.81092000  0.13767000  1.0
  C  C63  1  0.83407000  0.18908000  0.36234000  1.0
  S  S64  1  0.37542000  0.19200000  0.01251000  1.0
  S  S65  1  0.87541000  0.80800000  0.48749000  1.0
  S  S66  1  0.62458000  0.80800000  0.98748000  1.0
  S  S67  1  0.12458000  0.19200000  0.51251000  1.0
  N  N68  1  0.89698000  0.37920000  0.87244000  1.0
  N  N69  1  0.39697000  0.62079000  0.62757000  1.0
  N  N70  1  0.10302000  0.62080000  0.12757000  1.0
  N  N71  1  0.60302000  0.37921000  0.37242000  1.0
  O  O72  1  0.72763000  0.49530000  0.68196000  1.0
  O  O73  1  0.22759000  0.50471000  0.81804000  1.0
  O  O74  1  0.27236000  0.50471000  0.31805000  1.0
  O  O75  1  0.77237000  0.49527000  0.18193000  1.0
  O  O76  1  0.60781000  0.27341000  0.61838000  1.0
  O  O77  1  0.10778000  0.72661000  0.88163000  1.0
  O  O78  1  0.39220000  0.72659000  0.38161000  1.0
  O  O79  1  0.89224000  0.27339000  0.11838000  1.0
