# generated using pymatgen
data_CdH11C12N6Cl
_symmetry_space_group_name_H-M   'P 1'
_cell_length_a   8.52667000
_cell_length_b   8.53780000
_cell_length_c   10.48110000
_cell_angle_alpha   78.81210000
_cell_angle_beta   88.04750000
_cell_angle_gamma   67.74560000
_symmetry_Int_Tables_number   1
_chemical_formula_structural   CdH11C12N6Cl
_chemical_formula_sum   'Cd2 H22 C24 N12 Cl2'
_cell_volume   692.10476853
_cell_formula_units_Z   2
loop_
 _symmetry_equiv_pos_site_id
 _symmetry_equiv_pos_as_xyz
  1  'x, y, z'
loop_
 _atom_site_type_symbol
 _atom_site_label
 _atom_site_symmetry_multiplicity
 _atom_site_fract_x
 _atom_site_fract_y
 _atom_site_fract_z
 _atom_site_occupancy
  Cd  Cd0  1  0.13119000  0.38225000  0.16122000  1.0
  Cd  Cd1  1  0.86882000  0.61775000  0.83879000  1.0
  H  H2  1  0.64629000  0.41553000  0.28921000  1.0
  H  H3  1  0.35371000  0.58447000  0.71079000  1.0
  H  H4  1  0.52537000  0.41698000  0.43051000  1.0
  H  H5  1  0.47463000  0.58301000  0.56949000  1.0
  H  H6  1  0.42083000  0.50710000  0.27310000  1.0
  H  H7  1  0.57917000  0.49290000  0.72690000  1.0
  H  H8  1  0.57744000  0.73650000  0.15962000  1.0
  H  H9  1  0.42255000  0.26350000  0.84038000  1.0
  H  H10  1  0.04729000  0.18452000  0.95297000  1.0
  H  H11  1  0.95271000  0.81548000  0.04703000  1.0
  H  H12  1  0.15995000  0.89781000  0.88227000  1.0
  H  H13  1  0.84004000  0.10219000  0.11773000  1.0
  H  H14  1  0.75544000  0.69289000  0.30540000  1.0
  H  H15  1  0.24455000  0.30711000  0.69460000  1.0
  H  H16  1  0.56196000  0.70646000  0.38095000  1.0
  H  H17  1  0.43803000  0.29355000  0.61906000  1.0
  H  H18  1  0.72836000  0.72163000  0.46925000  1.0
  H  H19  1  0.27163000  0.27836000  0.53076000  1.0
  H  H20  1  0.42738000  0.66931000  0.99443000  1.0
  H  H21  1  0.57261000  0.33069000  0.00557000  1.0
  H  H22  1  0.73627000  0.03549000  0.45728000  1.0
  H  H23  1  0.26373000  0.96451000  0.54272000  1.0
  C  C24  1  0.52947000  0.40290000  0.32845000  1.0
  C  C25  1  0.47053000  0.59710000  0.67156000  1.0
  C  C26  1  0.45604000  0.83110000  0.11802000  1.0
  C  C27  1  0.54396000  0.16890000  0.88198000  1.0
  C  C28  1  0.16201000  0.07976000  0.99876000  1.0
  C  C29  1  0.83799000  0.92025000  0.00124000  1.0
  C  C30  1  0.22503000  0.92156000  0.95951000  1.0
  C  C31  1  0.77497000  0.07845000  0.04048000  1.0
  C  C32  1  0.10078000  0.67244000  0.34523000  1.0
  C  C33  1  0.89921000  0.32755000  0.65477000  1.0
  C  C34  1  0.66328000  0.75699000  0.37337000  1.0
  C  C35  1  0.33671000  0.24301000  0.62663000  1.0
  C  C36  1  0.52991000  0.23173000  0.31781000  1.0
  C  C37  1  0.47009000  0.76827000  0.68219000  1.0
  C  C38  1  0.37335000  0.79495000  0.02211000  1.0
  C  C39  1  0.62665000  0.20506000  0.97788000  1.0
  C  C40  1  0.63910000  0.06596000  0.38208000  1.0
  C  C41  1  0.36091000  0.93404000  0.61792000  1.0
  C  C42  1  0.02505000  0.74032000  0.54546000  1.0
  C  C43  1  0.97496000  0.25969000  0.45454000  1.0
  C  C44  1  0.59411000  0.94835000  0.33360000  1.0
  C  C45  1  0.40588000  0.05165000  0.66640000  1.0
  C  C46  1  0.38285000  0.99316000  0.15193000  1.0
  C  C47  1  0.61715000  0.00684000  0.84806000  1.0
  N  N48  1  0.46198000  0.04487000  0.24351000  1.0
  N  N49  1  0.53802000  0.95513000  0.75648000  1.0
  N  N50  1  0.23738000  0.11330000  0.09472000  1.0
  N  N51  1  0.76262000  0.88670000  0.90527000  1.0
  N  N52  1  0.09825000  0.61847000  0.25001000  1.0
  N  N53  1  0.90176000  0.38153000  0.75000000  1.0
  N  N54  1  0.11643000  0.73609000  0.44387000  1.0
  N  N55  1  0.88358000  0.26390000  0.55614000  1.0
  N  N56  1  0.94698000  0.75261000  0.64066000  1.0
  N  N57  1  0.05302000  0.24738000  0.35935000  1.0
  N  N58  1  0.42195000  0.21824000  0.23502000  1.0
  N  N59  1  0.57805000  0.78176000  0.76498000  1.0
  Cl  Cl60  1  0.81776000  0.47087000  0.07488000  1.0
  Cl  Cl61  1  0.18225000  0.52913000  0.92511000  1.0
