# generated using pymatgen
data_CdH5C5N6ClO
_symmetry_space_group_name_H-M   'P 1'
_cell_length_a   7.56373000
_cell_length_b   9.08173000
_cell_length_c   13.92640000
_cell_angle_alpha   90.00080000
_cell_angle_beta   90.00020000
_cell_angle_gamma   84.87630000
_symmetry_Int_Tables_number   1
_chemical_formula_structural   CdH5C5N6ClO
_chemical_formula_sum   'Cd4 H20 C20 N24 Cl4 O4'
_cell_volume   952.80634974
_cell_formula_units_Z   4
loop_
 _symmetry_equiv_pos_site_id
 _symmetry_equiv_pos_as_xyz
  1  'x, y, z'
loop_
 _atom_site_type_symbol
 _atom_site_label
 _atom_site_symmetry_multiplicity
 _atom_site_fract_x
 _atom_site_fract_y
 _atom_site_fract_z
 _atom_site_occupancy
  Cd  Cd0  1  0.71099000  0.56916000  0.95590000  1.0
  Cd  Cd1  1  0.78900000  0.93084000  0.45590000  1.0
  Cd  Cd2  1  0.28900000  0.43084000  0.04410000  1.0
  Cd  Cd3  1  0.21100000  0.06917000  0.54411000  1.0
  H  H4  1  0.83281000  0.85949000  0.96838000  1.0
  H  H5  1  0.66719000  0.64050000  0.46837000  1.0
  H  H6  1  0.16719000  0.14050000  0.03162000  1.0
  H  H7  1  0.33281000  0.35950000  0.53162000  1.0
  H  H8  1  0.73613000  0.85130000  0.86439000  1.0
  H  H9  1  0.76388000  0.64869000  0.36439000  1.0
  H  H10  1  0.26387000  0.14870000  0.13561000  1.0
  H  H11  1  0.23612000  0.35131000  0.63561000  1.0
  H  H12  1  0.39098000  0.62913000  0.78197000  1.0
  H  H13  1  0.10900000  0.87089000  0.28198000  1.0
  H  H14  1  0.60902000  0.37088000  0.21802000  1.0
  H  H15  1  0.89100000  0.12911000  0.71802000  1.0
  H  H16  1  0.37496000  0.63999000  0.59948000  1.0
  H  H17  1  0.12503000  0.86002000  0.09948000  1.0
  H  H18  1  0.62505000  0.36000000  0.40052000  1.0
  H  H19  1  0.87497000  0.13998000  0.90052000  1.0
  H  H20  1  0.90960000  0.48943000  0.58442000  1.0
  H  H21  1  0.59037000  0.01056000  0.08441000  1.0
  H  H22  1  0.09040000  0.51057000  0.41558000  1.0
  H  H23  1  0.40962000  0.98943000  0.91559000  1.0
  C  C24  1  0.96520000  0.46858000  0.77989000  1.0
  C  C25  1  0.53477000  0.03143000  0.27990000  1.0
  C  C26  1  0.03480000  0.53142000  0.22011000  1.0
  C  C27  1  0.46523000  0.96858000  0.72011000  1.0
  C  C28  1  0.80145000  0.51302000  0.72864000  1.0
  C  C29  1  0.69853000  0.98698000  0.22864000  1.0
  C  C30  1  0.19855000  0.48698000  0.27136000  1.0
  C  C31  1  0.30147000  0.01302000  0.77136000  1.0
  C  C32  1  0.50560000  0.59626000  0.73708000  1.0
  C  C33  1  0.99438000  0.90376000  0.23708000  1.0
  C  C34  1  0.49440000  0.40375000  0.26292000  1.0
  C  C35  1  0.00563000  0.09624000  0.76292000  1.0
  C  C36  1  0.49734000  0.60147000  0.63691000  1.0
  C  C37  1  0.00264000  0.89854000  0.13691000  1.0
  C  C38  1  0.50266000  0.39853000  0.36309000  1.0
  C  C39  1  0.99735000  0.10146000  0.86309000  1.0
  C  C40  1  0.79245000  0.51907000  0.62825000  1.0
  C  C41  1  0.70753000  0.98092000  0.12825000  1.0
  C  C42  1  0.20755000  0.48093000  0.37175000  1.0
  C  C43  1  0.29247000  0.01907000  0.87176000  1.0
  N  N44  1  0.97631000  0.46985000  0.87610000  1.0
  N  N45  1  0.52367000  0.03015000  0.37611000  1.0
  N  N46  1  0.02369000  0.53015000  0.12390000  1.0
  N  N47  1  0.47633000  0.96985000  0.62390000  1.0
  N  N48  1  0.14494000  0.42284000  0.89551000  1.0
  N  N49  1  0.35504000  0.07716000  0.39551000  1.0
  N  N50  1  0.85506000  0.57717000  0.10449000  1.0
  N  N51  1  0.64496000  0.92284000  0.60449000  1.0
  N  N52  1  0.23390000  0.39328000  0.81491000  1.0
  N  N53  1  0.26608000  0.10673000  0.31492000  1.0
  N  N54  1  0.76610000  0.60673000  0.18509000  1.0
  N  N55  1  0.73392000  0.89327000  0.68508000  1.0
  N  N56  1  0.12341000  0.42157000  0.74082000  1.0
  N  N57  1  0.37657000  0.07844000  0.24082000  1.0
  N  N58  1  0.87659000  0.57843000  0.25918000  1.0
  N  N59  1  0.62344000  0.92156000  0.75918000  1.0
  N  N60  1  0.65688000  0.55274000  0.78242000  1.0
  N  N61  1  0.84311000  0.94727000  0.28243000  1.0
  N  N62  1  0.34313000  0.44726000  0.21757000  1.0
  N  N63  1  0.15690000  0.05273000  0.71758000  1.0
  N  N64  1  0.64149000  0.56390000  0.58315000  1.0
  N  N65  1  0.85848000  0.93610000  0.08316000  1.0
  N  N66  1  0.35851000  0.43610000  0.41684000  1.0
  N  N67  1  0.14151000  0.06390000  0.91684000  1.0
  Cl  Cl68  1  0.39729000  0.69150000  0.00022000  1.0
  Cl  Cl69  1  0.10270000  0.80851000  0.50022000  1.0
  Cl  Cl70  1  0.60270000  0.30850000  0.99977000  1.0
  Cl  Cl71  1  0.89730000  0.19149000  0.49978000  1.0
  O  O72  1  0.81331000  0.79443000  0.91209000  1.0
  O  O73  1  0.68670000  0.70556000  0.41209000  1.0
  O  O74  1  0.18669000  0.20557000  0.08791000  1.0
  O  O75  1  0.31330000  0.29444000  0.58791000  1.0
