# generated using pymatgen
data_ZnH7C7(NO)3
_symmetry_space_group_name_H-M   'P 1'
_cell_length_a   10.11960000
_cell_length_b   16.51540000
_cell_length_c   16.51580000
_cell_angle_alpha   115.93800000
_cell_angle_beta   101.80200000
_cell_angle_gamma   101.77900000
_symmetry_Int_Tables_number   1
_chemical_formula_structural   ZnH7C7(NO)3
_chemical_formula_sum   'Zn6 H42 C42 N18 O18'
_cell_volume   2290.61657036
_cell_formula_units_Z   6
loop_
 _symmetry_equiv_pos_site_id
 _symmetry_equiv_pos_as_xyz
  1  'x, y, z'
loop_
 _atom_site_type_symbol
 _atom_site_label
 _atom_site_symmetry_multiplicity
 _atom_site_fract_x
 _atom_site_fract_y
 _atom_site_fract_z
 _atom_site_occupancy
  Zn  Zn0  1  0.52085000  0.69473000  0.31657000  1.0
  Zn  Zn1  1  0.20455000  0.68336000  0.37832000  1.0
  Zn  Zn2  1  0.82613000  0.62184000  0.30533000  1.0
  Zn  Zn3  1  0.71084000  0.37778000  0.68115000  1.0
  Zn  Zn4  1  0.02974000  0.31888000  0.69656000  1.0
  Zn  Zn5  1  0.33311000  0.30338000  0.62217000  1.0
  H  H6  1  0.63723000  0.34352000  0.37116000  1.0
  H  H7  1  0.26579000  0.62885000  0.97244000  1.0
  H  H8  1  0.29391000  0.02775000  0.65652000  1.0
  H  H9  1  0.79969000  0.66463000  0.02507000  1.0
  H  H10  1  0.77488000  0.97498000  0.63953000  1.0
  H  H11  1  0.13506000  0.36035000  0.33510000  1.0
  H  H12  1  0.36825000  0.21078000  0.34941000  1.0
  H  H13  1  0.01867000  0.65074000  0.86145000  1.0
  H  H14  1  0.15771000  0.13866000  0.78931000  1.0
  H  H15  1  0.78631000  0.55995000  0.87982000  1.0
  H  H16  1  0.90658000  0.12013000  0.67993000  1.0
  H  H17  1  0.22635000  0.31971000  0.43995000  1.0
  H  H18  1  0.72390000  0.44457000  0.32611000  1.0
  H  H19  1  0.39759000  0.67418000  0.11854000  1.0
  H  H20  1  0.27964000  0.88161000  0.55548000  1.0
  H  H21  1  0.86515000  0.78973000  0.16773000  1.0
  H  H22  1  0.69806000  0.83248000  0.62239000  1.0
  H  H23  1  0.07485000  0.37773000  0.20984000  1.0
  H  H24  1  0.32774000  0.46609000  0.82275000  1.0
  H  H25  1  0.50500000  0.17714000  0.64315000  1.0
  H  H26  1  0.86194000  0.35711000  0.53395000  1.0
  H  H27  1  0.34086000  0.52242000  0.33942000  1.0
  H  H28  1  0.00120000  0.66007000  0.18306000  1.0
  H  H29  1  0.81868000  0.81691000  0.47753000  1.0
  H  H30  1  0.53170000  0.13557000  0.27254000  1.0
  H  H31  1  0.25916000  0.72749000  0.86321000  1.0
  H  H32  1  0.39642000  0.13697000  0.86443000  1.0
  H  H33  1  0.52833000  0.11677000  0.37065000  1.0
  H  H34  1  0.15765000  0.62944000  0.74629000  1.0
  H  H35  1  0.41186000  0.25390000  0.88331000  1.0
  H  H36  1  0.67727000  0.20535000  0.38246000  1.0
  H  H37  1  0.29462000  0.61753000  0.82311000  1.0
  H  H38  1  0.47210000  0.17711000  0.79465000  1.0
  H  H39  1  0.71150000  0.86386000  0.10791000  1.0
  H  H40  1  0.60390000  0.89221000  0.75612000  1.0
  H  H41  1  0.84689000  0.24395000  0.13604000  1.0
  H  H42  1  0.71990000  0.89096000  0.22643000  1.0
  H  H43  1  0.49384000  0.77367000  0.66471000  1.0
  H  H44  1  0.82821000  0.33538000  0.10893000  1.0
  H  H45  1  0.56398000  0.80493000  0.12792000  1.0
  H  H46  1  0.43638000  0.87210000  0.67699000  1.0
  H  H47  1  0.75867000  0.32313000  0.19515000  1.0
  C  C48  1  0.48457000  0.24470000  0.38439000  1.0
  C  C49  1  0.09989000  0.61566000  0.86036000  1.0
  C  C50  1  0.24007000  0.13976000  0.75538000  1.0
  C  C51  1  0.51435000  0.28697000  0.49244000  1.0
  C  C52  1  0.02147000  0.50765000  0.79444000  1.0
  C  C53  1  0.22756000  0.20566000  0.71323000  1.0
  C  C54  1  0.67096000  0.52423000  0.85023000  1.0
  C  C55  1  0.82078000  0.14969000  0.67377000  1.0
  C  C56  1  0.14678000  0.32596000  0.47570000  1.0
  C  C57  1  0.57868000  0.62344000  0.98447000  1.0
  C  C58  1  0.59440000  0.01549000  0.63892000  1.0
  C  C59  1  0.95540000  0.36106000  0.37645000  1.0
  C  C60  1  0.63948000  0.47612000  0.32662000  1.0
  C  C61  1  0.31270000  0.67351000  0.14959000  1.0
  C  C62  1  0.16365000  0.85052000  0.52395000  1.0
  C  C63  1  0.44330000  0.36819000  0.34865000  1.0
  C  C64  1  0.09431000  0.65122000  0.01958000  1.0
  C  C65  1  0.07532000  0.98052000  0.63180000  1.0
  C  C66  1  0.74774000  0.75661000  0.14175000  1.0
  C  C67  1  0.60649000  0.85830000  0.61505000  1.0
  C  C68  1  0.99081000  0.38500000  0.24316000  1.0
  C  C69  1  0.56461000  0.54649000  0.89028000  1.0
  C  C70  1  0.67440000  0.10963000  0.65601000  1.0
  C  C71  1  0.01829000  0.34389000  0.45347000  1.0
  C  C72  1  0.43610000  0.47589000  0.82043000  1.0
  C  C73  1  0.61569000  0.17946000  0.65526000  1.0
  C  C74  1  0.96040000  0.34481000  0.52410000  1.0
  C  C75  1  0.50545000  0.44840000  0.33610000  1.0
  C  C76  1  0.16907000  0.66375000  0.11237000  1.0
  C  C77  1  0.05731000  0.88771000  0.55161000  1.0
  C  C78  1  0.44365000  0.51630000  0.33302000  1.0
  C  C79  1  0.11043000  0.66666667  0.18331000  1.0
  C  C80  1  0.92764000  0.81668000  0.48370000  1.0
  C  C81  1  0.56047000  0.17104000  0.35054000  1.0
  C  C82  1  0.20983000  0.64952000  0.82068000  1.0
  C  C83  1  0.38969000  0.17951000  0.82900000  1.0
  C  C84  1  0.68083000  0.83374000  0.15154000  1.0
  C  C85  1  0.52966000  0.84853000  0.68234000  1.0
  C  C86  1  0.84651000  0.31775000  0.16616000  1.0
  C  C87  1  0.72141000  0.71318000  0.20551000  1.0
  C  C88  1  0.51647000  0.79434000  0.50783000  1.0
  C  C89  1  0.00803000  0.49220000  0.28657000  1.0
  N  N90  1  0.53064000  0.31940000  0.36222000  1.0
  N  N91  1  0.16808000  0.63774000  0.95724000  1.0
  N  N92  1  0.21142000  0.04292000  0.68060000  1.0
  N  N93  1  0.71384000  0.68103000  0.04360000  1.0
  N  N94  1  0.67052000  0.95642000  0.63744000  1.0
  N  N95  1  0.03276000  0.36245000  0.31874000  1.0
  N  N96  1  0.53513000  0.57961000  0.32240000  1.0
  N  N97  1  0.21275000  0.67746000  0.25727000  1.0
  N  N98  1  0.95585000  0.74274000  0.42044000  1.0
  N  N99  1  0.60970000  0.44632000  0.76329000  1.0
  N  N100  1  0.84644000  0.23664000  0.68284000  1.0
  N  N101  1  0.16340000  0.31698000  0.55363000  1.0
  N  N102  1  0.65535000  0.55424000  0.31832000  1.0
  N  N103  1  0.33709000  0.68184000  0.23604000  1.0
  N  N104  1  0.10146000  0.76406000  0.44586000  1.0
  N  N105  1  0.46462000  0.41621000  0.74449000  1.0
  N  N106  1  0.72013000  0.25542000  0.67152000  1.0
  N  N107  1  0.04854000  0.32849000  0.58379000  1.0
  O  O108  1  0.65150000  0.74504000  0.26095000  1.0
  O  O109  1  0.39110000  0.73882000  0.48420000  1.0
  O  O110  1  0.90634000  0.51586000  0.25468000  1.0
  O  O111  1  0.77946000  0.65008000  0.19979000  1.0
  O  O112  1  0.58024000  0.80011000  0.45047000  1.0
  O  O113  1  0.12919000  0.54954000  0.34976000  1.0
  O  O114  1  0.63609000  0.35027000  0.54745000  1.0
  O  O115  1  0.08817000  0.45259000  0.80265000  1.0
  O  O116  1  0.28614000  0.19744000  0.65002000  1.0
  O  O117  1  0.41756000  0.25343000  0.51878000  1.0
  O  O118  1  0.89840000  0.48143000  0.73456000  1.0
  O  O119  1  0.16415000  0.26546000  0.74670000  1.0
  O  O120  1  0.31605000  0.34538000  0.34679000  1.0
  O  O121  1  0.96886000  0.65299000  0.99856000  1.0
  O  O122  1  0.97086000  0.00148000  0.65455000  1.0
  O  O123  1  0.47020000  0.63401000  0.00769000  1.0
  O  O124  1  0.46273000  0.99228000  0.62638000  1.0
  O  O125  1  0.83638000  0.37378000  0.36596000  1.0
