# generated using pymatgen
data_ZnH9C22SNO11
_symmetry_space_group_name_H-M   'P 1'
_cell_length_a   13.74020000
_cell_length_b   14.01160000
_cell_length_c   14.98910000
_cell_angle_alpha   83.74940000
_cell_angle_beta   86.21150000
_cell_angle_gamma   82.91650000
_symmetry_Int_Tables_number   1
_chemical_formula_structural   ZnH9C22SNO11
_chemical_formula_sum   'Zn2 H18 C44 S2 N2 O22'
_cell_volume   2842.62772053
_cell_formula_units_Z   2
loop_
 _symmetry_equiv_pos_site_id
 _symmetry_equiv_pos_as_xyz
  1  'x, y, z'
loop_
 _atom_site_type_symbol
 _atom_site_label
 _atom_site_symmetry_multiplicity
 _atom_site_fract_x
 _atom_site_fract_y
 _atom_site_fract_z
 _atom_site_occupancy
  Zn  Zn0  1  0.50390000  0.39151000  0.53111000  1.0
  Zn  Zn1  1  0.52497000  0.60099000  0.48044000  1.0
  H  H2  1  0.04617000  0.39853000  0.52290000  1.0
  H  H3  1  0.73276000  0.93623000  0.37457000  1.0
  H  H4  1  0.31118000  0.88214000  0.62950000  1.0
  H  H5  1  0.71668000  0.10805000  0.40272000  1.0
  H  H6  1  0.70224000  0.19555000  0.21508000  1.0
  H  H7  1  0.19727000  0.62132000  0.77973000  1.0
  H  H8  1  0.26206000  0.82289000  0.87845000  1.0
  H  H9  1  0.86362000  0.37208000  0.15622000  1.0
  H  H10  1  0.30313000  0.39049000  0.54155000  1.0
  H  H11  1  0.63300000  0.79510000  0.23348000  1.0
  H  H12  1  0.98224000  0.60460000  0.43358000  1.0
  H  H13  1  0.38157000  0.55923000  0.24594000  1.0
  H  H14  1  0.63878000  0.44335000  0.76980000  1.0
  H  H15  1  0.29935000  0.63527000  0.11153000  1.0
  H  H16  1  0.73315000  0.39121000  0.90332000  1.0
  H  H17  1  0.62318000  0.24789000  0.47053000  1.0
  H  H18  1  0.40390000  0.74232000  0.55835000  1.0
  H  H19  1  0.29131000  0.05623000  0.65170000  1.0
  C  C20  1  0.49901000  0.52387000  0.67073000  1.0
  C  C21  1  0.67493000  0.40068000  0.03718000  1.0
  C  C22  1  0.56854000  0.20079000  0.49792000  1.0
  C  C23  1  0.45523000  0.79089000  0.52725000  1.0
  C  C24  1  0.41904000  0.18830000  0.58005000  1.0
  C  C25  1  0.59691000  0.80836000  0.43629000  1.0
  C  C26  1  0.42377000  0.08788000  0.57197000  1.0
  C  C27  1  0.59663000  0.90641000  0.45075000  1.0
  C  C28  1  0.50649000  0.04602000  0.52033000  1.0
  C  C29  1  0.51600000  0.94694000  0.50521000  1.0
  C  C30  1  0.57954000  0.10348000  0.48243000  1.0
  C  C31  1  0.51223000  0.45346000  0.34439000  1.0
  C  C32  1  0.44423000  0.88818000  0.54393000  1.0
  C  C33  1  0.35320000  0.02542000  0.61109000  1.0
  C  C34  1  0.66974000  0.96687000  0.41409000  1.0
  C  C35  1  0.70043000  0.45918000  0.50978000  1.0
  C  C36  1  0.32192000  0.55130000  0.48514000  1.0
  C  C37  1  0.36389000  0.92946000  0.59823000  1.0
  C  C38  1  0.66131000  0.06175000  0.42999000  1.0
  C  C39  1  0.21921000  0.55853000  0.47037000  1.0
  C  C40  1  0.80652000  0.44670000  0.50394000  1.0
  C  C41  1  0.03198000  0.54326000  0.46147000  1.0
  C  C42  1  0.51242000  0.49472000  0.05447000  1.0
  C  C43  1  0.99558000  0.45954000  0.49549000  1.0
  C  C44  1  0.89508000  0.45003000  0.49869000  1.0
  C  C45  1  0.13201000  0.55284000  0.46392000  1.0
  C  C46  1  0.58429000  0.40671000  0.18982000  1.0
  C  C47  1  0.42430000  0.58097000  0.82227000  1.0
  C  C48  1  0.51160000  0.45695000  0.24345000  1.0
  C  C49  1  0.50024000  0.53263000  0.77016000  1.0
  C  C50  1  0.43753000  0.52091000  0.20358000  1.0
  C  C51  1  0.58108000  0.48041000  0.81123000  1.0
  C  C52  1  0.43389000  0.53652000  0.11000000  1.0
  C  C53  1  0.50904000  0.51462000  0.95912000  1.0
  C  C54  1  0.58680000  0.47031000  0.90439000  1.0
  C  C55  1  0.64678000  0.32301000  0.23466000  1.0
  C  C56  1  0.33436000  0.62843000  0.77606000  1.0
  C  C57  1  0.27833000  0.70314000  0.95045000  1.0
  C  C58  1  0.77404000  0.36003000  0.06826000  1.0
  C  C59  1  0.59153000  0.43232000  0.09528000  1.0
  C  C60  1  0.42854000  0.57469000  0.91761000  1.0
  C  C61  1  0.35701000  0.59982000  0.06876000  1.0
  C  C62  1  0.66987000  0.41705000  0.94572000  1.0
  C  C63  1  0.35496000  0.62176000  0.97740000  1.0
  S  S64  1  0.31662000  0.25891000  0.63598000  1.0
  S  S65  1  0.69079000  0.75274000  0.36216000  1.0
  N  N66  1  0.49061000  0.24126000  0.54500000  1.0
  N  N67  1  0.52908000  0.75261000  0.47387000  1.0
  O  O68  1  0.51503000  0.43699000  0.65106000  1.0
  O  O69  1  0.66049000  0.24762000  0.18229000  1.0
  O  O70  1  0.33047000  0.69220000  0.71378000  1.0
  O  O71  1  0.25343000  0.58807000  0.81231000  1.0
  O  O72  1  0.19426000  0.71341000  0.98267000  1.0
  O  O73  1  0.31596000  0.77118000  0.89025000  1.0
  O  O74  1  0.83190000  0.30273000  0.02996000  1.0
  O  O75  1  0.79700000  0.40061000  0.14185000  1.0
  O  O76  1  0.24600000  0.19562000  0.67265000  1.0
  O  O77  1  0.36036000  0.31563000  0.69347000  1.0
  O  O78  1  0.27083000  0.32361000  0.55482000  1.0
  O  O79  1  0.53380000  0.53197000  0.36845000  1.0
  O  O80  1  0.78473000  0.76752000  0.39092000  1.0
  O  O81  1  0.66625000  0.66005000  0.34561000  1.0
  O  O82  1  0.67542000  0.82431000  0.27021000  1.0
  O  O83  1  0.48725000  0.59922000  0.61622000  1.0
  O  O84  1  0.48775000  0.38128000  0.39522000  1.0
  O  O85  1  0.65517000  0.38525000  0.50954000  1.0
  O  O86  1  0.37047000  0.62098000  0.45998000  1.0
  O  O87  1  0.66264000  0.54615000  0.51534000  1.0
  O  O88  1  0.35824000  0.46902000  0.52549000  1.0
  O  O89  1  0.67785000  0.31643000  0.30976000  1.0
