# generated using pymatgen
data_CsH2C6N3O8
_symmetry_space_group_name_H-M   'P 1'
_cell_length_a   4.66875000
_cell_length_b   11.19070000
_cell_length_c   20.10990000
_cell_angle_alpha   89.99980000
_cell_angle_beta   90.19570000
_cell_angle_gamma   89.99970000
_symmetry_Int_Tables_number   1
_chemical_formula_structural   CsH2C6N3O8
_chemical_formula_sum   'Cs4 H8 C24 N12 O32'
_cell_volume   1050.66738291
_cell_formula_units_Z   4
loop_
 _symmetry_equiv_pos_site_id
 _symmetry_equiv_pos_as_xyz
  1  'x, y, z'
loop_
 _atom_site_type_symbol
 _atom_site_label
 _atom_site_symmetry_multiplicity
 _atom_site_fract_x
 _atom_site_fract_y
 _atom_site_fract_z
 _atom_site_occupancy
  Cs  Cs0  1  0.90844000  0.86093000  0.13086000  1.0
  Cs  Cs1  1  0.59156000  0.36093000  0.36914000  1.0
  Cs  Cs2  1  0.09156000  0.13907000  0.86914000  1.0
  Cs  Cs3  1  0.40844000  0.63907000  0.63086000  1.0
  H  H4  1  0.66378000  0.96444000  0.30710000  1.0
  H  H5  1  0.83622000  0.46444000  0.19290000  1.0
  H  H6  1  0.33621000  0.03556000  0.69290000  1.0
  H  H7  1  0.16378000  0.53556000  0.80710000  1.0
  H  H8  1  0.09273000  0.88439000  0.47832000  1.0
  H  H9  1  0.40726000  0.38439000  0.02168000  1.0
  H  H10  1  0.90727000  0.11560000  0.52168000  1.0
  H  H11  1  0.59273000  0.61561000  0.97832000  1.0
  C  C12  1  0.42564000  0.83444000  0.32830000  1.0
  C  C13  1  0.07435000  0.33443000  0.17170000  1.0
  C  C14  1  0.57435000  0.16556000  0.67170000  1.0
  C  C15  1  0.92565000  0.66557000  0.82830000  1.0
  C  C16  1  0.31987000  0.71894000  0.31654000  1.0
  C  C17  1  0.18012000  0.21894000  0.18346000  1.0
  C  C18  1  0.68012000  0.28106000  0.68346000  1.0
  C  C19  1  0.81988000  0.78106000  0.81654000  1.0
  C  C20  1  0.13525000  0.65357000  0.36243000  1.0
  C  C21  1  0.36475000  0.15357000  0.13756000  1.0
  C  C22  1  0.86475000  0.34643000  0.63757000  1.0
  C  C23  1  0.63525000  0.84643000  0.86243000  1.0
  C  C24  1  0.05298000  0.72464000  0.42066000  1.0
  C  C25  1  0.44702000  0.22464000  0.07934000  1.0
  C  C26  1  0.94702000  0.27535000  0.57934000  1.0
  C  C27  1  0.55299000  0.77536000  0.92066000  1.0
  C  C28  1  0.15406000  0.83780000  0.43300000  1.0
  C  C29  1  0.34594000  0.33780000  0.06700000  1.0
  C  C30  1  0.84594000  0.16220000  0.56700000  1.0
  C  C31  1  0.65406000  0.66221000  0.93300000  1.0
  C  C32  1  0.33568000  0.89466000  0.38775000  1.0
  C  C33  1  0.16431000  0.39466000  0.11225000  1.0
  C  C34  1  0.66432000  0.10534000  0.61225000  1.0
  C  C35  1  0.83569000  0.60534000  0.88775000  1.0
  N  N36  1  0.39989000  0.65989000  0.25571000  1.0
  N  N37  1  0.10011000  0.15988000  0.24429000  1.0
  N  N38  1  0.60011000  0.34011000  0.74429000  1.0
  N  N39  1  0.89988000  0.84011000  0.75571000  1.0
  N  N40  1  0.87441000  0.67102000  0.47095000  1.0
  N  N41  1  0.62559000  0.17101000  0.02905000  1.0
  N  N42  1  0.12560000  0.32898000  0.52906000  1.0
  N  N43  1  0.37442000  0.82899000  0.97095000  1.0
  N  N44  1  0.42834000  0.01230000  0.40212000  1.0
  N  N45  1  0.07165000  0.51230000  0.09788000  1.0
  N  N46  1  0.57165000  0.98770000  0.59788000  1.0
  N  N47  1  0.92834000  0.48770000  0.90212000  1.0
  O  O48  1  0.61318000  0.88341000  0.28708000  1.0
  O  O49  1  0.88682000  0.38341000  0.21292000  1.0
  O  O50  1  0.38682000  0.11659000  0.71292000  1.0
  O  O51  1  0.11318000  0.61659000  0.78708000  1.0
  O  O52  1  0.39241000  0.71859000  0.20278000  1.0
  O  O53  1  0.10759000  0.21859000  0.29722000  1.0
  O  O54  1  0.60759000  0.28141000  0.79722000  1.0
  O  O55  1  0.89241000  0.78141000  0.70278000  1.0
  O  O56  1  0.46529000  0.55222000  0.25764000  1.0
  O  O57  1  0.03471000  0.05221000  0.24235000  1.0
  O  O58  1  0.53471000  0.44779000  0.74235000  1.0
  O  O59  1  0.96527000  0.94779000  0.75764000  1.0
  O  O60  1  0.06026000  0.54755000  0.35397000  1.0
  O  O61  1  0.43974000  0.04755000  0.14603000  1.0
  O  O62  1  0.93974000  0.45245000  0.64603000  1.0
  O  O63  1  0.56025000  0.95245000  0.85397000  1.0
  O  O64  1  0.67531000  0.60389000  0.45359000  1.0
  O  O65  1  0.82470000  0.10389000  0.04641000  1.0
  O  O66  1  0.32471000  0.39610000  0.54641000  1.0
  O  O67  1  0.17532000  0.89612000  0.95360000  1.0
  O  O68  1  0.92727000  0.69570000  0.53039000  1.0
  O  O69  1  0.57273000  0.19570000  0.96961000  1.0
  O  O70  1  0.07274000  0.30431000  0.46961000  1.0
  O  O71  1  0.42728000  0.80430000  0.03039000  1.0
  O  O72  1  0.33283000  0.06693000  0.45097000  1.0
  O  O73  1  0.16716000  0.56693000  0.04902000  1.0
  O  O74  1  0.66717000  0.93307000  0.54903000  1.0
  O  O75  1  0.83282000  0.43307000  0.95097000  1.0
  O  O76  1  0.61412000  0.06030000  0.36378000  1.0
  O  O77  1  0.88588000  0.56029000  0.13622000  1.0
  O  O78  1  0.38587000  0.93971000  0.63622000  1.0
  O  O79  1  0.11412000  0.43971000  0.86378000  1.0
