# generated using pymatgen
data_CoH9C9(NO2)2
_symmetry_space_group_name_H-M   'P 1'
_cell_length_a   6.92613000
_cell_length_b   7.63773000
_cell_length_c   22.32470000
_cell_angle_alpha   89.99590000
_cell_angle_beta   90.00100000
_cell_angle_gamma   89.99860000
_symmetry_Int_Tables_number   1
_chemical_formula_structural   CoH9C9(NO2)2
_chemical_formula_sum   'Co4 H36 C36 N8 O16'
_cell_volume   1180.97463698
_cell_formula_units_Z   4
loop_
 _symmetry_equiv_pos_site_id
 _symmetry_equiv_pos_as_xyz
  1  'x, y, z'
loop_
 _atom_site_type_symbol
 _atom_site_label
 _atom_site_symmetry_multiplicity
 _atom_site_fract_x
 _atom_site_fract_y
 _atom_site_fract_z
 _atom_site_occupancy
  Co  Co0  1  0.44042000  0.76072000  0.28904000  1.0
  Co  Co1  1  0.55926000  0.76046000  0.71113000  1.0
  Co  Co2  1  0.94078000  0.23955000  0.21118000  1.0
  Co  Co3  1  0.05968000  0.23937000  0.78903000  1.0
  H  H4  1  0.35383000  0.59616000  0.11239000  1.0
  H  H5  1  0.14736000  0.72866000  0.11927000  1.0
  H  H6  1  0.45277000  0.89864000  0.12299000  1.0
  H  H7  1  0.66749000  0.86018000  0.20648000  1.0
  H  H8  1  0.61283000  0.65136000  0.18937000  1.0
  H  H9  1  0.02086000  0.70585000  0.32184000  1.0
  H  H10  1  0.81658000  0.71236000  0.41245000  1.0
  H  H11  1  0.32220000  0.87640000  0.51183000  1.0
  H  H12  1  0.50455000  0.86503000  0.41466000  1.0
  H  H13  1  0.64822000  0.59600000  0.88793000  1.0
  H  H14  1  0.85362000  0.72965000  0.88078000  1.0
  H  H15  1  0.54724000  0.89785000  0.87727000  1.0
  H  H16  1  0.33258000  0.85899000  0.79388000  1.0
  H  H17  1  0.38751000  0.65033000  0.81106000  1.0
  H  H18  1  0.97879000  0.70772000  0.67782000  1.0
  H  H19  1  0.18142000  0.71409000  0.58683000  1.0
  H  H20  1  0.67240000  0.87052000  0.48781000  1.0
  H  H21  1  0.49162000  0.85891000  0.58519000  1.0
  H  H22  1  0.85157000  0.40391000  0.38800000  1.0
  H  H23  1  0.64619000  0.27028000  0.38085000  1.0
  H  H24  1  0.95255000  0.10206000  0.37734000  1.0
  H  H25  1  0.16726000  0.14096000  0.29395000  1.0
  H  H26  1  0.11247000  0.34956000  0.31119000  1.0
  H  H27  1  0.52118000  0.29233000  0.17785000  1.0
  H  H28  1  0.31860000  0.28595000  0.08685000  1.0
  H  H29  1  0.82762000  0.12943000  0.98787000  1.0
  H  H30  1  0.00839000  0.14103000  0.08525000  1.0
  H  H31  1  0.14620000  0.40387000  0.61232000  1.0
  H  H32  1  0.35257000  0.27137000  0.61916000  1.0
  H  H33  1  0.04727000  0.10134000  0.62295000  1.0
  H  H34  1  0.83267000  0.13981000  0.70648000  1.0
  H  H35  1  0.88715000  0.34865000  0.68928000  1.0
  H  H36  1  0.47921000  0.29421000  0.82185000  1.0
  H  H37  1  0.68342000  0.28766000  0.91247000  1.0
  H  H38  1  0.17778000  0.12363000  0.01182000  1.0
  H  H39  1  0.99546000  0.13500000  0.91465000  1.0
  C  C40  1  0.19684000  0.55812000  0.19327000  1.0
  C  C41  1  0.27319000  0.67911000  0.14402000  1.0
  C  C42  1  0.39988000  0.83203000  0.16369000  1.0
  C  C43  1  0.27771000  0.96832000  0.19795000  1.0
  C  C44  1  0.96888000  0.74615000  0.41648000  1.0
  C  C45  1  0.05362000  0.79009000  0.47169000  1.0
  C  C46  1  0.25057000  0.83422000  0.47093000  1.0
  C  C47  1  0.35291000  0.82841000  0.41764000  1.0
  C  C48  1  0.08202000  0.74200000  0.36510000  1.0
  C  C49  1  0.80468000  0.55850000  0.80689000  1.0
  C  C50  1  0.72798000  0.67917000  0.85616000  1.0
  C  C51  1  0.60037000  0.83148000  0.83655000  1.0
  C  C52  1  0.72174000  0.96809000  0.80217000  1.0
  C  C53  1  0.02880000  0.74676000  0.58301000  1.0
  C  C54  1  0.94297000  0.78942000  0.52784000  1.0
  C  C55  1  0.74531000  0.83060000  0.52873000  1.0
  C  C56  1  0.64378000  0.82449000  0.58216000  1.0
  C  C57  1  0.91657000  0.74254000  0.63457000  1.0
  C  C58  1  0.69525000  0.44143000  0.30694000  1.0
  C  C59  1  0.77185000  0.32074000  0.35623000  1.0
  C  C60  1  0.89952000  0.16848000  0.33661000  1.0
  C  C61  1  0.77831000  0.03191000  0.30221000  1.0
  C  C62  1  0.47121000  0.25329000  0.08304000  1.0
  C  C63  1  0.55703000  0.21062000  0.02788000  1.0
  C  C64  1  0.75469000  0.16937000  0.02878000  1.0
  C  C65  1  0.85623000  0.17549000  0.08221000  1.0
  C  C66  1  0.58345000  0.25751000  0.13461000  1.0
  C  C67  1  0.30326000  0.44185000  0.69319000  1.0
  C  C68  1  0.22683000  0.32089000  0.64395000  1.0
  C  C69  1  0.10016000  0.16798000  0.66366000  1.0
  C  C70  1  0.22231000  0.03174000  0.69793000  1.0
  C  C71  1  0.53113000  0.25386000  0.91649000  1.0
  C  C72  1  0.44640000  0.20991000  0.97171000  1.0
  C  C73  1  0.24945000  0.16580000  0.97093000  1.0
  C  C74  1  0.14710000  0.17163000  0.91763000  1.0
  C  C75  1  0.41800000  0.25804000  0.86511000  1.0
  N  N76  1  0.55753000  0.76980000  0.20202000  1.0
  N  N77  1  0.27214000  0.78063000  0.36518000  1.0
  N  N78  1  0.44267000  0.76877000  0.79835000  1.0
  N  N79  1  0.72605000  0.77946000  0.63469000  1.0
  N  N80  1  0.05722000  0.23123000  0.29841000  1.0
  N  N81  1  0.77397000  0.22057000  0.13474000  1.0
  N  N82  1  0.94256000  0.23028000  0.70199000  1.0
  N  N83  1  0.22788000  0.21940000  0.86517000  1.0
  O  O84  1  0.23128000  0.58380000  0.24842000  1.0
  O  O85  1  0.09824000  0.43065000  0.17245000  1.0
  O  O86  1  0.30946000  0.98050000  0.25428000  1.0
  O  O87  1  0.15530000  0.05670000  0.16904000  1.0
  O  O88  1  0.77044000  0.58454000  0.75176000  1.0
  O  O89  1  0.90307000  0.43090000  0.82776000  1.0
  O  O90  1  0.68885000  0.98075000  0.74591000  1.0
  O  O91  1  0.84460000  0.05622000  0.83098000  1.0
  O  O92  1  0.72942000  0.41525000  0.25181000  1.0
  O  O93  1  0.59705000  0.56912000  0.32782000  1.0
  O  O94  1  0.81139000  0.01931000  0.24595000  1.0
  O  O95  1  0.65541000  0.94379000  0.33101000  1.0
  O  O96  1  0.26884000  0.41605000  0.74834000  1.0
  O  O97  1  0.40188000  0.56928000  0.67234000  1.0
  O  O98  1  0.19051000  0.01969000  0.75427000  1.0
  O  O99  1  0.34470000  0.94344000  0.66899000  1.0
