# generated using pymatgen
data_Ag2H9C17N3(O2F3)2
_symmetry_space_group_name_H-M   'P 1'
_cell_length_a   8.32111000
_cell_length_b   10.53210000
_cell_length_c   12.40420000
_cell_angle_alpha   65.03010000
_cell_angle_beta   87.22870000
_cell_angle_gamma   70.06880000
_symmetry_Int_Tables_number   1
_chemical_formula_structural   Ag2H9C17N3(O2F3)2
_chemical_formula_sum   'Ag4 H18 C34 N6 O8 F12'
_cell_volume   920.60871251
_cell_formula_units_Z   2
loop_
 _symmetry_equiv_pos_site_id
 _symmetry_equiv_pos_as_xyz
  1  'x, y, z'
loop_
 _atom_site_type_symbol
 _atom_site_label
 _atom_site_symmetry_multiplicity
 _atom_site_fract_x
 _atom_site_fract_y
 _atom_site_fract_z
 _atom_site_occupancy
  Ag  Ag0  1  0.75969000  0.80791000  0.48011000  1.0
  Ag  Ag1  1  0.24031000  0.19209000  0.51989000  1.0
  Ag  Ag2  1  0.74326000  0.07935000  0.49575000  1.0
  Ag  Ag3  1  0.25673000  0.92065000  0.50424000  1.0
  H  H4  1  0.01576000  0.70892000  0.70788000  1.0
  H  H5  1  0.98424000  0.29109000  0.29212000  1.0
  H  H6  1  0.15753000  0.48564000  0.89865000  1.0
  H  H7  1  0.84248000  0.51436000  0.10136000  1.0
  H  H8  1  0.13611000  0.23845000  0.93363000  1.0
  H  H9  1  0.86388000  0.76155000  0.06637000  1.0
  H  H10  1  0.96939000  0.22826000  0.77950000  1.0
  H  H11  1  0.03061000  0.77174000  0.22050000  1.0
  H  H12  1  0.86309000  0.22182000  0.64235000  1.0
  H  H13  1  0.13691000  0.77818000  0.35765000  1.0
  H  H14  1  0.53747000  0.35849000  0.29373000  1.0
  H  H15  1  0.46252000  0.64151000  0.70627000  1.0
  H  H16  1  0.39234000  0.60169000  0.11743000  1.0
  H  H17  1  0.60766000  0.39831000  0.88257000  1.0
  H  H18  1  0.40117000  0.83908000  0.11015000  1.0
  H  H19  1  0.59883000  0.16092000  0.88985000  1.0
  H  H20  1  0.55843000  0.83548000  0.27759000  1.0
  H  H21  1  0.44157000  0.16452000  0.72241000  1.0
  C  C22  1  0.00757000  0.60056000  0.72649000  1.0
  C  C23  1  0.99243000  0.39944000  0.27352000  1.0
  C  C24  1  0.08701000  0.47527000  0.83315000  1.0
  C  C25  1  0.91299000  0.52473000  0.16685000  1.0
  C  C26  1  0.07457000  0.33922000  0.85205000  1.0
  C  C27  1  0.92543000  0.66078000  0.14795000  1.0
  C  C28  1  0.98119000  0.33357000  0.76495000  1.0
  C  C29  1  0.01881000  0.66643000  0.23505000  1.0
  C  C30  1  0.90512000  0.46362000  0.65976000  1.0
  C  C31  1  0.09487000  0.53638000  0.34024000  1.0
  C  C32  1  0.80666000  0.46419000  0.56287000  1.0
  C  C33  1  0.19334000  0.53581000  0.43713000  1.0
  C  C34  1  0.79924000  0.32898000  0.56653000  1.0
  C  C35  1  0.20076000  0.67102000  0.43347000  1.0
  C  C36  1  0.63283000  0.45896000  0.38405000  1.0
  C  C37  1  0.36717000  0.54105000  0.61595000  1.0
  C  C38  1  0.54268000  0.46296000  0.28835000  1.0
  C  C39  1  0.45732000  0.53705000  0.71165000  1.0
  C  C40  1  0.46134000  0.59845000  0.19164000  1.0
  C  C41  1  0.53865000  0.40155000  0.80836000  1.0
  C  C42  1  0.46629000  0.73359000  0.18731000  1.0
  C  C43  1  0.53371000  0.26641000  0.81269000  1.0
  C  C44  1  0.55332000  0.73271000  0.27958000  1.0
  C  C45  1  0.44668000  0.26729000  0.72042000  1.0
  C  C46  1  0.63852000  0.59566000  0.37964000  1.0
  C  C47  1  0.36148000  0.40434000  0.62035000  1.0
  C  C48  1  0.85377000  0.05078000  0.26691000  1.0
  C  C49  1  0.14623000  0.94921000  0.73309000  1.0
  C  C50  1  0.91659000  0.10654000  0.14070000  1.0
  C  C51  1  0.08340000  0.89346000  0.85930000  1.0
  C  C52  1  0.61035000  0.87428000  0.70485000  1.0
  C  C53  1  0.38966000  0.12572000  0.29515000  1.0
  C  C54  1  0.59520000  0.79512000  0.84126000  1.0
  C  C55  1  0.40480000  0.20487000  0.15874000  1.0
  N  N56  1  0.91992000  0.59502000  0.64174000  1.0
  N  N57  1  0.08008000  0.40498000  0.35826000  1.0
  N  N58  1  0.72527000  0.59436000  0.47052000  1.0
  N  N59  1  0.27473000  0.40564000  0.52948000  1.0
  N  N60  1  0.71483000  0.32588000  0.48076000  1.0
  N  N61  1  0.28517000  0.67412000  0.51924000  1.0
  O  O62  1  0.87936000  0.10922000  0.33146000  1.0
  O  O63  1  0.12064000  0.89078000  0.66854000  1.0
  O  O64  1  0.79089000  0.95007000  0.29028000  1.0
  O  O65  1  0.20912000  0.04992000  0.70972000  1.0
  O  O66  1  0.67964000  0.97167000  0.67944000  1.0
  O  O67  1  0.32037000  0.02832000  0.32056000  1.0
  O  O68  1  0.56312000  0.82664000  0.63944000  1.0
  O  O69  1  0.43688000  0.17337000  0.36055000  1.0
  F  F70  1  0.90571000  0.25157000  0.09657000  1.0
  F  F71  1  0.09428000  0.74843000  0.90343000  1.0
  F  F72  1  0.08574000  0.02102000  0.14747000  1.0
  F  F73  1  0.91427000  0.97899000  0.85252000  1.0
  F  F74  1  0.82770000  0.09469000  0.05836000  1.0
  F  F75  1  0.17230000  0.90530000  0.94164000  1.0
  F  F76  1  0.75054000  0.68489000  0.89700000  1.0
  F  F77  1  0.24947000  0.31510000  0.10300000  1.0
  F  F78  1  0.47696000  0.72609000  0.86533000  1.0
  F  F79  1  0.52306000  0.27389000  0.13467000  1.0
  F  F80  1  0.55561000  0.88833000  0.89569000  1.0
  F  F81  1  0.44439000  0.11165000  0.10432000  1.0
