# generated using pymatgen
data_AlH12C24(BrO2)3
_symmetry_space_group_name_H-M   'P 1'
_cell_length_a   4.01214000
_cell_length_b   28.62580000
_cell_length_c   28.62570000
_cell_angle_alpha   59.99965332
_cell_angle_beta   89.99960000
_cell_angle_gamma   90.00030000
_symmetry_Int_Tables_number   1
_chemical_formula_structural   AlH12C24(BrO2)3
_chemical_formula_sum   'Al2 H24 C48 Br6 O12'
_cell_volume   2847.20633714
_cell_formula_units_Z   2
loop_
 _symmetry_equiv_pos_site_id
 _symmetry_equiv_pos_as_xyz
  1  'x, y, z'
loop_
 _atom_site_type_symbol
 _atom_site_label
 _atom_site_symmetry_multiplicity
 _atom_site_fract_x
 _atom_site_fract_y
 _atom_site_fract_z
 _atom_site_occupancy
  Al  Al0  1  0.01303000  0.00000000  0.50000000  1.0
  Al  Al1  1  0.01304000  0.66666000  0.16667000  1.0
  H  H2  1  0.47226000  0.51433000  0.30777000  1.0
  H  H3  1  0.48467000  0.41476000  0.35534000  1.0
  H  H4  1  0.50392000  0.42085000  0.20154000  1.0
  H  H5  1  0.50392000  0.24581000  0.46515000  1.0
  H  H6  1  0.48467000  0.25190000  0.31134000  1.0
  H  H7  1  0.47224000  0.15233000  0.35891000  1.0
  H  H8  1  0.50414000  0.33677000  0.27796000  1.0
  H  H9  1  0.50418000  0.32989000  0.38873000  1.0
  H  H10  1  0.47225000  0.80777000  0.17789000  1.0
  H  H11  1  0.48466000  0.85535000  0.22989000  1.0
  H  H12  1  0.50391000  0.70154000  0.37761000  1.0
  H  H13  1  0.50389000  0.96515000  0.28904000  1.0
  H  H14  1  0.48470000  0.81134000  0.43675000  1.0
  H  H15  1  0.47226000  0.85890000  0.48876000  1.0
  H  H16  1  0.50413000  0.77796000  0.38527000  1.0
  H  H17  1  0.50417000  0.88872000  0.28138000  1.0
  H  H18  1  0.47227000  0.67789000  0.01434000  1.0
  H  H19  1  0.48467000  0.72989000  0.91477000  1.0
  H  H20  1  0.50390000  0.87761000  0.92085000  1.0
  H  H21  1  0.50390000  0.78904000  0.74581000  1.0
  H  H22  1  0.48468000  0.93675000  0.75191000  1.0
  H  H23  1  0.47225000  0.98875000  0.65234000  1.0
  H  H24  1  0.50413000  0.88527000  0.83677000  1.0
  H  H25  1  0.50416000  0.78137000  0.82990000  1.0
  C  C26  1  0.50973000  0.95362000  0.58245000  1.0
  C  C27  1  0.50973000  0.08245000  0.46393000  1.0
  C  C28  1  0.50973000  0.96393000  0.45362000  1.0
  C  C29  1  0.50974000  0.58421000  0.20275000  1.0
  C  C30  1  0.50974000  0.70275000  0.21304000  1.0
  C  C31  1  0.50974000  0.71304000  0.08422000  1.0
  C  C32  1  0.49994000  0.52425000  0.22835000  1.0
  C  C33  1  0.48486000  0.49322000  0.28493000  1.0
  C  C34  1  0.49046000  0.43735000  0.31140000  1.0
  C  C35  1  0.50101000  0.40995000  0.28196000  1.0
  C  C36  1  0.50498000  0.44102000  0.22530000  1.0
  C  C37  1  0.50807000  0.49711000  0.19904000  1.0
  C  C38  1  0.50304000  0.35147000  0.30665000  1.0
  C  C39  1  0.50306000  0.31520000  0.36003000  1.0
  C  C40  1  0.50498000  0.22564000  0.44138000  1.0
  C  C41  1  0.50101000  0.25671000  0.38473000  1.0
  C  C42  1  0.49046000  0.22930000  0.35529000  1.0
  C  C43  1  0.48484000  0.17344000  0.38175000  1.0
  C  C44  1  0.49994000  0.14242000  0.43833000  1.0
  C  C45  1  0.50808000  0.16956000  0.46764000  1.0
  C  C46  1  0.49994000  0.72835000  0.24740000  1.0
  C  C47  1  0.48486000  0.78493000  0.22185000  1.0
  C  C48  1  0.49046000  0.81140000  0.25124000  1.0
  C  C49  1  0.50101000  0.78196000  0.30809000  1.0
  C  C50  1  0.50498000  0.72531000  0.33367000  1.0
  C  C51  1  0.50808000  0.69904000  0.30385000  1.0
  C  C52  1  0.50303000  0.80665000  0.34188000  1.0
  C  C53  1  0.50305000  0.86003000  0.32477000  1.0
  C  C54  1  0.50497000  0.94138000  0.33298000  1.0
  C  C55  1  0.50101000  0.88473000  0.35856000  1.0
  C  C56  1  0.49048000  0.85528000  0.41541000  1.0
  C  C57  1  0.48486000  0.88174000  0.44481000  1.0
  C  C58  1  0.49994000  0.93833000  0.41925000  1.0
  C  C59  1  0.50807000  0.96764000  0.36280000  1.0
  C  C60  1  0.49995000  0.74741000  0.02425000  1.0
  C  C61  1  0.48487000  0.72184000  0.99323000  1.0
  C  C62  1  0.49047000  0.75124000  0.93736000  1.0
  C  C63  1  0.50101000  0.80809000  0.90995000  1.0
  C  C64  1  0.50497000  0.83367000  0.94102000  1.0
  C  C65  1  0.50807000  0.80385000  0.99711000  1.0
  C  C66  1  0.50303000  0.84187000  0.85147000  1.0
  C  C67  1  0.50304000  0.82477000  0.81520000  1.0
  C  C68  1  0.50497000  0.83297000  0.72565000  1.0
  C  C69  1  0.50100000  0.85855000  0.75672000  1.0
  C  C70  1  0.49047000  0.91540000  0.72931000  1.0
  C  C71  1  0.48485000  0.94480000  0.67345000  1.0
  C  C72  1  0.49994000  0.91925000  0.64242000  1.0
  C  C73  1  0.50807000  0.86280000  0.66956000  1.0
  Br  Br74  1  0.49875000  0.53522000  0.12231000  1.0
  Br  Br75  1  0.49880000  0.13143000  0.54438000  1.0
  Br  Br76  1  0.49874000  0.62231000  0.34247000  1.0
  Br  Br77  1  0.49873000  0.04437000  0.32419000  1.0
  Br  Br78  1  0.49869000  0.84247000  0.03522000  1.0
  Br  Br79  1  0.49877000  0.82419000  0.63144000  1.0
  O  O80  1  0.75048000  0.99570000  0.44650000  1.0
  O  O81  1  0.75048000  0.94650000  0.55780000  1.0
  O  O82  1  0.75048000  0.05780000  0.49570000  1.0
  O  O83  1  0.27940000  0.95095000  0.48865000  1.0
  O  O84  1  0.27942000  0.06039000  0.45095000  1.0
  O  O85  1  0.27940000  0.98865000  0.56040000  1.0
  O  O86  1  0.75050000  0.72016000  0.10887000  1.0
  O  O87  1  0.75049000  0.60887000  0.17097000  1.0
  O  O88  1  0.75049000  0.67097000  0.22016000  1.0
  O  O89  1  0.27943000  0.67801000  0.10627000  1.0
  O  O90  1  0.27942000  0.71572000  0.17801000  1.0
  O  O91  1  0.27942000  0.60628000  0.21572000  1.0
