# generated using pymatgen
data_AgH4C5N4
_symmetry_space_group_name_H-M   'P 1'
_cell_length_a   4.90502000
_cell_length_b   5.20580000
_cell_length_c   11.91330000
_cell_angle_alpha   86.20650000
_cell_angle_beta   79.56900000
_cell_angle_gamma   76.42750000
_symmetry_Int_Tables_number   1
_chemical_formula_structural   AgH4C5N4
_chemical_formula_sum   'Ag2 H8 C10 N8'
_cell_volume   290.72950146
_cell_formula_units_Z   2
loop_
 _symmetry_equiv_pos_site_id
 _symmetry_equiv_pos_as_xyz
  1  'x, y, z'
loop_
 _atom_site_type_symbol
 _atom_site_label
 _atom_site_symmetry_multiplicity
 _atom_site_fract_x
 _atom_site_fract_y
 _atom_site_fract_z
 _atom_site_occupancy
  Ag  Ag0  1  0.68181000  0.15912000  0.42111000  1.0
  Ag  Ag1  1  0.31818000  0.84089000  0.57889000  1.0
  H  H2  1  0.29942000  0.57780000  0.05933000  1.0
  H  H3  1  0.70058000  0.42218000  0.94067000  1.0
  H  H4  1  0.51859000  0.17058000  0.11224000  1.0
  H  H5  1  0.48141000  0.82943000  0.88776000  1.0
  H  H6  1  0.57705000  0.81623000  0.24112000  1.0
  H  H7  1  0.42292000  0.18378000  0.75888000  1.0
  H  H8  1  0.74968000  0.51567000  0.17094000  1.0
  H  H9  1  0.25032000  0.48436000  0.82908000  1.0
  C  C10  1  0.89758000  0.85730000  0.09690000  1.0
  C  C11  1  0.10244000  0.14272000  0.90311000  1.0
  C  C12  1  0.16789000  0.76334000  0.03305000  1.0
  C  C13  1  0.83210000  0.23666000  0.96696000  1.0
  C  C14  1  0.73020000  0.09618000  0.06294000  1.0
  C  C15  1  0.26978000  0.90379000  0.93706000  1.0
  C  C16  1  0.78356000  0.70099000  0.19923000  1.0
  C  C17  1  0.21641000  0.29905000  0.80077000  1.0
  C  C18  1  0.97891000  0.63264000  0.28434000  1.0
  C  C19  1  0.02111000  0.36731000  0.71565000  1.0
  N  N20  1  0.18665000  0.41233000  0.28512000  1.0
  N  N21  1  0.81339000  0.58766000  0.71486000  1.0
  N  N22  1  0.31487000  0.44053000  0.37252000  1.0
  N  N23  1  0.68516000  0.55949000  0.62748000  1.0
  N  N24  1  0.19198000  0.66690000  0.42363000  1.0
  N  N25  1  0.80803000  0.33311000  0.57637000  1.0
  N  N26  1  0.97907000  0.79097000  0.36956000  1.0
  N  N27  1  0.02094000  0.20899000  0.63043000  1.0
