# generated using pymatgen
data_Zn5H18C26(N6O7)2
_symmetry_space_group_name_H-M   'P 1'
_cell_length_a   12.82820000
_cell_length_b   12.82820000
_cell_length_c   18.79330000
_cell_angle_alpha   83.88700000
_cell_angle_beta   83.88710000
_cell_angle_gamma   69.15960000
_symmetry_Int_Tables_number   1
_chemical_formula_structural   Zn5H18C26(N6O7)2
_chemical_formula_sum   'Zn10 H36 C52 N24 O28'
_cell_volume   2866.06102575
_cell_formula_units_Z   2
loop_
 _symmetry_equiv_pos_site_id
 _symmetry_equiv_pos_as_xyz
  1  'x, y, z'
loop_
 _atom_site_type_symbol
 _atom_site_label
 _atom_site_symmetry_multiplicity
 _atom_site_fract_x
 _atom_site_fract_y
 _atom_site_fract_z
 _atom_site_occupancy
  Zn  Zn0  1  0.05942000  0.28228000  0.22542000  1.0
  Zn  Zn1  1  0.30486000  0.90834000  0.43361000  1.0
  Zn  Zn2  1  0.71772000  0.94058000  0.27458000  1.0
  Zn  Zn3  1  0.09166000  0.69514000  0.06639000  1.0
  Zn  Zn4  1  0.94058000  0.71772000  0.77458000  1.0
  Zn  Zn5  1  0.69514000  0.09166000  0.56639000  1.0
  Zn  Zn6  1  0.28228000  0.05942000  0.72542000  1.0
  Zn  Zn7  1  0.90834000  0.30486000  0.93361000  1.0
  Zn  Zn8  1  0.88614000  0.11386000  0.25000000  1.0
  Zn  Zn9  1  0.11386000  0.88614000  0.75000000  1.0
  H  H10  1  0.49352000  0.93838000  0.39766000  1.0
  H  H11  1  0.42477000  0.05764000  0.42970000  1.0
  H  H12  1  0.66836000  0.34151000  0.37672000  1.0
  H  H13  1  0.51329000  0.48443000  0.43883000  1.0
  H  H14  1  0.80667000  0.59190000  0.28836000  1.0
  H  H15  1  0.83061000  0.15778000  0.07562000  1.0
  H  H16  1  0.06665000  0.32149000  0.04863000  1.0
  H  H17  1  0.07477000  0.91081000  0.35801000  1.0
  H  H18  1  0.25272000  0.13327000  0.33321000  1.0
  H  H19  1  0.06162000  0.50648000  0.10234000  1.0
  H  H20  1  0.94236000  0.57523000  0.07030000  1.0
  H  H21  1  0.65849000  0.33165000  0.12328000  1.0
  H  H22  1  0.51557000  0.48671000  0.06117000  1.0
  H  H23  1  0.40810000  0.19333000  0.21164000  1.0
  H  H24  1  0.84222000  0.16939000  0.42438000  1.0
  H  H25  1  0.67851000  0.93335000  0.45137000  1.0
  H  H26  1  0.08919000  0.92523000  0.14199000  1.0
  H  H27  1  0.86673000  0.74728000  0.16679000  1.0
  H  H28  1  0.50648000  0.06162000  0.60234000  1.0
  H  H29  1  0.57523000  0.94236000  0.57030000  1.0
  H  H30  1  0.33165000  0.65849000  0.62328000  1.0
  H  H31  1  0.48671000  0.51557000  0.56117000  1.0
  H  H32  1  0.19332000  0.40810000  0.71164000  1.0
  H  H33  1  0.16939000  0.84222000  0.92438000  1.0
  H  H34  1  0.93335000  0.67851000  0.95137000  1.0
  H  H35  1  0.92523000  0.08919000  0.64199000  1.0
  H  H36  1  0.74728000  0.86673000  0.66679000  1.0
  H  H37  1  0.93838000  0.49352000  0.89766000  1.0
  H  H38  1  0.05764000  0.42477000  0.92970000  1.0
  H  H39  1  0.34151000  0.66835000  0.87672000  1.0
  H  H40  1  0.48443000  0.51329000  0.93883000  1.0
  H  H41  1  0.59190000  0.80667000  0.78836000  1.0
  H  H42  1  0.15778000  0.83061000  0.57562000  1.0
  H  H43  1  0.32148000  0.06665000  0.54863000  1.0
  H  H44  1  0.91081000  0.07477000  0.85801000  1.0
  H  H45  1  0.13327000  0.25272000  0.83321000  1.0
  C  C46  1  0.84610000  0.36911000  0.29427000  1.0
  C  C47  1  0.74944000  0.45695000  0.32944000  1.0
  C  C48  1  0.66508000  0.42799000  0.37127000  1.0
  C  C49  1  0.57729000  0.50915000  0.40621000  1.0
  C  C50  1  0.57049000  0.62111000  0.39909000  1.0
  C  C51  1  0.65287000  0.65145000  0.35500000  1.0
  C  C52  1  0.74198000  0.56886000  0.32126000  1.0
  C  C53  1  0.47374000  0.70708000  0.43699000  1.0
  C  C54  1  0.64873000  0.76985000  0.34409000  1.0
  C  C55  1  0.89416000  0.19140000  0.08462000  1.0
  C  C56  1  0.01282000  0.27524000  0.07034000  1.0
  C  C57  1  0.10057000  0.98214000  0.34139000  1.0
  C  C58  1  0.19060000  0.09514000  0.32949000  1.0
  C  C59  1  0.63089000  0.15390000  0.20573000  1.0
  C  C60  1  0.54305000  0.25056000  0.17056000  1.0
  C  C61  1  0.57200000  0.33492000  0.12873000  1.0
  C  C62  1  0.49085000  0.42272000  0.09379000  1.0
  C  C63  1  0.37889000  0.42951000  0.10091000  1.0
  C  C64  1  0.34855000  0.34713000  0.14500000  1.0
  C  C65  1  0.43114000  0.25802000  0.17874000  1.0
  C  C66  1  0.29292000  0.52626000  0.06301000  1.0
  C  C67  1  0.23015000  0.35127000  0.15591000  1.0
  C  C68  1  0.80860000  0.10585000  0.41539000  1.0
  C  C69  1  0.72476000  0.98718000  0.42966000  1.0
  C  C70  1  0.01786000  0.89943000  0.15861000  1.0
  C  C71  1  0.90486000  0.80940000  0.17051000  1.0
  C  C72  1  0.15390000  0.63089000  0.70573000  1.0
  C  C73  1  0.25056000  0.54305000  0.67056000  1.0
  C  C74  1  0.33492000  0.57200000  0.62873000  1.0
  C  C75  1  0.42271000  0.49085000  0.59379000  1.0
  C  C76  1  0.42951000  0.37889000  0.60091000  1.0
  C  C77  1  0.34713000  0.34855000  0.64500000  1.0
  C  C78  1  0.25802000  0.43114000  0.67874000  1.0
  C  C79  1  0.52626000  0.29292000  0.56301000  1.0
  C  C80  1  0.35127000  0.23015000  0.65591000  1.0
  C  C81  1  0.10585000  0.80860000  0.91538000  1.0
  C  C82  1  0.98718000  0.72476000  0.92966000  1.0
  C  C83  1  0.89943000  0.01786000  0.65861000  1.0
  C  C84  1  0.80940000  0.90486000  0.67051000  1.0
  C  C85  1  0.36911000  0.84610000  0.79427000  1.0
  C  C86  1  0.45695000  0.74944000  0.82944000  1.0
  C  C87  1  0.42800000  0.66508000  0.87127000  1.0
  C  C88  1  0.50915000  0.57728000  0.90621000  1.0
  C  C89  1  0.62111000  0.57049000  0.89909000  1.0
  C  C90  1  0.65145000  0.65287000  0.85500000  1.0
  C  C91  1  0.56886000  0.74198000  0.82126000  1.0
  C  C92  1  0.70708000  0.47374000  0.93699000  1.0
  C  C93  1  0.76985000  0.64873000  0.84409000  1.0
  C  C94  1  0.19140000  0.89415000  0.58462000  1.0
  C  C95  1  0.27524000  0.01283000  0.57034000  1.0
  C  C96  1  0.98214000  0.10057000  0.84139000  1.0
  C  C97  1  0.09514000  0.19060000  0.82949000  1.0
  N  N98  1  0.93261000  0.18505000  0.14842000  1.0
  N  N99  1  0.00833000  0.23911000  0.13909000  1.0
  N  N100  1  0.94250000  0.24701000  0.03388000  1.0
  N  N101  1  0.04716000  0.06593000  0.29565000  1.0
  N  N102  1  0.10499000  0.13816000  0.28848000  1.0
  N  N103  1  0.19086000  0.99704000  0.36426000  1.0
  N  N104  1  0.81494000  0.06739000  0.35158000  1.0
  N  N105  1  0.76089000  0.99167000  0.36091000  1.0
  N  N106  1  0.75298000  0.05750000  0.46612000  1.0
  N  N107  1  0.93407000  0.95284000  0.20435000  1.0
  N  N108  1  0.86184000  0.89501000  0.21152000  1.0
  N  N109  1  0.00296000  0.80914000  0.13574000  1.0
  N  N110  1  0.06739000  0.81494000  0.85158000  1.0
  N  N111  1  0.99167000  0.76089000  0.86091000  1.0
  N  N112  1  0.05750000  0.75298000  0.96611000  1.0
  N  N113  1  0.95284000  0.93407000  0.70435000  1.0
  N  N114  1  0.89501000  0.86184000  0.71152000  1.0
  N  N115  1  0.80914000  0.00296000  0.63574000  1.0
  N  N116  1  0.18505000  0.93261000  0.64842000  1.0
  N  N117  1  0.23911000  0.00833000  0.63909000  1.0
  N  N118  1  0.24701000  0.94250000  0.53388000  1.0
  N  N119  1  0.06593000  0.04716000  0.79565000  1.0
  N  N120  1  0.13816000  0.10499000  0.78848000  1.0
  N  N121  1  0.99704000  0.19086000  0.86426000  1.0
  O  O122  1  0.84319000  0.27136000  0.29590000  1.0
  O  O123  1  0.92813000  0.39915000  0.26554000  1.0
  O  O124  1  0.39963000  0.77229000  0.39375000  1.0
  O  O125  1  0.46758000  0.71130000  0.50299000  1.0
  O  O126  1  0.60354000  0.83698000  0.39258000  1.0
  O  O127  1  0.69608000  0.79656000  0.28448000  1.0
  O  O128  1  0.41599000  0.99646000  0.40761000  1.0
  O  O129  1  0.72864000  0.15681000  0.20410000  1.0
  O  O130  1  0.60085000  0.07187000  0.23446000  1.0
  O  O131  1  0.22771000  0.60037000  0.10625000  1.0
  O  O132  1  0.28870000  0.53242000  0.99701000  1.0
  O  O133  1  0.16302000  0.39646000  0.10742000  1.0
  O  O134  1  0.20344000  0.30392000  0.21552000  1.0
  O  O135  1  0.00354000  0.58401000  0.09239000  1.0
  O  O136  1  0.15681000  0.72864000  0.70410000  1.0
  O  O137  1  0.07187000  0.60085000  0.73446000  1.0
  O  O138  1  0.60037000  0.22771000  0.60625000  1.0
  O  O139  1  0.53242000  0.28870000  0.49701000  1.0
  O  O140  1  0.39646000  0.16302000  0.60742000  1.0
  O  O141  1  0.30392000  0.20344000  0.71553000  1.0
  O  O142  1  0.58401000  0.00354000  0.59239000  1.0
  O  O143  1  0.27136000  0.84319000  0.79590000  1.0
  O  O144  1  0.39915000  0.92813000  0.76554000  1.0
  O  O145  1  0.77229000  0.39962000  0.89375000  1.0
  O  O146  1  0.71131000  0.46758000  0.00299000  1.0
  O  O147  1  0.83698000  0.60354000  0.89258000  1.0
  O  O148  1  0.79656000  0.69608000  0.78447000  1.0
  O  O149  1  0.99646000  0.41599000  0.90761000  1.0
