# generated using pymatgen
data_Tm2CuH16C24(N2O5)4
_symmetry_space_group_name_H-M   'P 1'
_cell_length_a   6.02226000
_cell_length_b   12.10500000
_cell_length_c   21.60890000
_cell_angle_alpha   89.99990000
_cell_angle_beta   89.99940000
_cell_angle_gamma   87.48000000
_symmetry_Int_Tables_number   1
_chemical_formula_structural   Tm2CuH16C24(N2O5)4
_chemical_formula_sum   'Tm4 Cu2 H32 C48 N16 O40'
_cell_volume   1573.75368692
_cell_formula_units_Z   2
loop_
 _symmetry_equiv_pos_site_id
 _symmetry_equiv_pos_as_xyz
  1  'x, y, z'
loop_
 _atom_site_type_symbol
 _atom_site_label
 _atom_site_symmetry_multiplicity
 _atom_site_fract_x
 _atom_site_fract_y
 _atom_site_fract_z
 _atom_site_occupancy
  Tm  Tm0  1  0.98120000  0.06479000  0.65810000  1.0
  Tm  Tm1  1  0.51881000  0.43521000  0.15810000  1.0
  Tm  Tm2  1  0.01880000  0.93521000  0.34190000  1.0
  Tm  Tm3  1  0.48120000  0.56479000  0.84190000  1.0
  Cu  Cu4  1  0.49999000  0.50000000  0.50000000  1.0
  Cu  Cu5  1  0.00000000  0.00000000  0.00000000  1.0
  H  H6  1  0.39588000  0.08066000  0.58888000  1.0
  H  H7  1  0.10413000  0.41933000  0.08888000  1.0
  H  H8  1  0.60412000  0.91934000  0.41112000  1.0
  H  H9  1  0.89589000  0.58067000  0.91111000  1.0
  H  H10  1  0.21398000  0.15050000  0.54586000  1.0
  H  H11  1  0.28604000  0.34949000  0.04586000  1.0
  H  H12  1  0.78602000  0.84949000  0.45414000  1.0
  H  H13  1  0.71398000  0.65050000  0.95414000  1.0
  H  H14  1  0.12070000  0.84111000  0.63128000  1.0
  H  H15  1  0.37931000  0.65889000  0.13128000  1.0
  H  H16  1  0.87929000  0.15889000  0.36873000  1.0
  H  H17  1  0.62070000  0.34111000  0.86872000  1.0
  H  H18  1  0.93586000  0.85113000  0.57859000  1.0
  H  H19  1  0.56416000  0.64887000  0.07859000  1.0
  H  H20  1  0.06413000  0.14887000  0.42141000  1.0
  H  H21  1  0.43586000  0.35113000  0.92141000  1.0
  H  H22  1  0.00142000  0.58411000  0.68556000  1.0
  H  H23  1  0.49857000  0.91590000  0.18556000  1.0
  H  H24  1  0.99856000  0.41588000  0.31444000  1.0
  H  H25  1  0.50142000  0.08410000  0.81444000  1.0
  H  H26  1  0.31543000  0.62541000  0.61266000  1.0
  H  H27  1  0.18456000  0.87459000  0.11265000  1.0
  H  H28  1  0.68455000  0.37458000  0.38735000  1.0
  H  H29  1  0.81544000  0.12540000  0.88734000  1.0
  H  H30  1  0.46519000  0.23341000  0.64983000  1.0
  H  H31  1  0.03482000  0.26660000  0.14984000  1.0
  H  H32  1  0.53482000  0.76660000  0.35017000  1.0
  H  H33  1  0.96518000  0.73340000  0.85016000  1.0
  H  H34  1  0.62450000  0.39597000  0.70569000  1.0
  H  H35  1  0.87551000  0.10402000  0.20569000  1.0
  H  H36  1  0.37553000  0.60402000  0.29432000  1.0
  H  H37  1  0.12449000  0.89597000  0.79431000  1.0
  C  C38  1  0.03736000  0.53107000  0.64571000  1.0
  C  C39  1  0.46262000  0.96893000  0.14571000  1.0
  C  C40  1  0.96262000  0.46892000  0.35429000  1.0
  C  C41  1  0.53738000  0.03106000  0.85429000  1.0
  C  C42  1  0.21366000  0.55428000  0.60628000  1.0
  C  C43  1  0.28634000  0.94573000  0.10628000  1.0
  C  C44  1  0.78633000  0.44571000  0.39373000  1.0
  C  C45  1  0.71367000  0.05427000  0.89372000  1.0
  C  C46  1  0.13667000  0.39884000  0.54810000  1.0
  C  C47  1  0.36331000  0.10117000  0.04810000  1.0
  C  C48  1  0.86331000  0.60116000  0.45190000  1.0
  C  C49  1  0.63669000  0.89884000  0.95190000  1.0
  C  C50  1  0.20374000  0.33333333  0.49100000  1.0
  C  C51  1  0.29625000  0.16665000  0.99099000  1.0
  C  C52  1  0.79624000  0.66666667  0.50901000  1.0
  C  C53  1  0.70376000  0.83336000  0.00901000  1.0
  C  C54  1  0.95850000  0.37895000  0.58750000  1.0
  C  C55  1  0.54149000  0.12106000  0.08749000  1.0
  C  C56  1  0.04148000  0.62105000  0.41250000  1.0
  C  C57  1  0.45852000  0.87894000  0.91251000  1.0
  C  C58  1  0.37531000  0.27525000  0.68738000  1.0
  C  C59  1  0.12469000  0.22475000  0.18738000  1.0
  C  C60  1  0.62470000  0.72475000  0.31262000  1.0
  C  C61  1  0.87530000  0.77526000  0.81261000  1.0
  C  C62  1  0.46108000  0.36638000  0.71753000  1.0
  C  C63  1  0.03894000  0.13362000  0.21753000  1.0
  C  C64  1  0.53895000  0.63362000  0.28247000  1.0
  C  C65  1  0.96106000  0.86638000  0.78247000  1.0
  C  C66  1  0.13966000  0.38735000  0.77476000  1.0
  C  C67  1  0.36034000  0.11265000  0.27476000  1.0
  C  C68  1  0.86036000  0.61265000  0.22524000  1.0
  C  C69  1  0.63965000  0.88735000  0.72524000  1.0
  C  C70  1  0.06628000  0.28812000  0.75007000  1.0
  C  C71  1  0.43372000  0.21188000  0.25007000  1.0
  C  C72  1  0.93372000  0.71188000  0.24993000  1.0
  C  C73  1  0.56628000  0.78813000  0.74993000  1.0
  C  C74  1  0.86717000  0.22933000  0.77363000  1.0
  C  C75  1  0.63284000  0.27067000  0.27364000  1.0
  C  C76  1  0.13284000  0.77067000  0.22636000  1.0
  C  C77  1  0.36717000  0.72933000  0.72636000  1.0
  C  C78  1  0.00287000  0.46767000  0.81445000  1.0
  C  C79  1  0.49713000  0.03232000  0.31446000  1.0
  C  C80  1  0.99714000  0.53232000  0.18554000  1.0
  C  C81  1  0.50287000  0.96769000  0.68554000  1.0
  C  C82  1  0.79374000  0.29058000  0.57569000  1.0
  C  C83  1  0.70626000  0.20943000  0.07569000  1.0
  C  C84  1  0.20625000  0.70942000  0.42431000  1.0
  C  C85  1  0.29375000  0.79057000  0.92431000  1.0
  N  N86  1  0.25965000  0.48724000  0.55864000  1.0
  N  N87  1  0.24035000  0.01277000  0.05864000  1.0
  N  N88  1  0.74034000  0.51276000  0.44136000  1.0
  N  N89  1  0.75966000  0.98723000  0.94136000  1.0
  N  N90  1  0.91189000  0.44431000  0.63679000  1.0
  N  N91  1  0.58810000  0.05570000  0.13678000  1.0
  N  N92  1  0.08809000  0.55569000  0.36321000  1.0
  N  N93  1  0.41191000  0.94429000  0.86321000  1.0
  N  N94  1  0.18380000  0.23374000  0.70568000  1.0
  N  N95  1  0.31621000  0.26626000  0.20568000  1.0
  N  N96  1  0.81622000  0.76626000  0.29432000  1.0
  N  N97  1  0.68379000  0.73374000  0.79431000  1.0
  N  N98  1  0.34488000  0.42053000  0.76169000  1.0
  N  N99  1  0.15511000  0.07947000  0.26169000  1.0
  N  N100  1  0.65513000  0.57947000  0.23831000  1.0
  N  N101  1  0.84488000  0.92053000  0.73831000  1.0
  O  O102  1  0.13383000  0.23741000  0.48429000  1.0
  O  O103  1  0.36616000  0.26260000  0.98429000  1.0
  O  O104  1  0.86616000  0.76260000  0.51571000  1.0
  O  O105  1  0.63384000  0.73740000  0.01571000  1.0
  O  O106  1  0.23839000  0.10414000  0.58334000  1.0
  O  O107  1  0.26162000  0.39587000  0.08334000  1.0
  O  O108  1  0.76160000  0.89587000  0.41666000  1.0
  O  O109  1  0.73840000  0.60414000  0.91666000  1.0
  O  O110  1  0.32593000  0.38437000  0.45297000  1.0
  O  O111  1  0.17407000  0.11563000  0.95297000  1.0
  O  O112  1  0.67405000  0.61563000  0.54703000  1.0
  O  O113  1  0.82594000  0.88437000  0.04703000  1.0
  O  O114  1  0.01375000  0.89363000  0.61053000  1.0
  O  O115  1  0.48625000  0.60637000  0.11053000  1.0
  O  O116  1  0.98625000  0.10637000  0.38947000  1.0
  O  O117  1  0.51376000  0.39363000  0.88947000  1.0
  O  O118  1  0.82287000  0.19818000  0.60356000  1.0
  O  O119  1  0.67713000  0.30182000  0.10355000  1.0
  O  O120  1  0.17711000  0.80181000  0.39644000  1.0
  O  O121  1  0.32287000  0.69818000  0.89644000  1.0
  O  O122  1  0.63117000  0.31834000  0.54267000  1.0
  O  O123  1  0.86883000  0.18166000  0.04266000  1.0
  O  O124  1  0.36882000  0.68165000  0.45733000  1.0
  O  O125  1  0.13118000  0.81834000  0.95734000  1.0
  O  O126  1  0.80822000  0.14827000  0.74025000  1.0
  O  O127  1  0.69178000  0.35173000  0.24024000  1.0
  O  O128  1  0.19179000  0.85173000  0.25976000  1.0
  O  O129  1  0.30822000  0.64827000  0.75976000  1.0
  O  O130  1  0.78144000  0.25871000  0.82396000  1.0
  O  O131  1  0.71856000  0.24130000  0.32395000  1.0
  O  O132  1  0.21857000  0.74129000  0.17605000  1.0
  O  O133  1  0.28144000  0.75871000  0.67605000  1.0
  O  O134  1  0.80084000  0.48676000  0.80028000  1.0
  O  O135  1  0.69915000  0.01323000  0.30028000  1.0
  O  O136  1  0.19917000  0.51323000  0.19972000  1.0
  O  O137  1  0.30084000  0.98677000  0.69972000  1.0
  O  O138  1  0.10762000  0.51645000  0.85679000  1.0
  O  O139  1  0.39238000  0.98354000  0.35679000  1.0
  O  O140  1  0.89239000  0.48355000  0.14321000  1.0
  O  O141  1  0.60762000  0.01646000  0.64321000  1.0
