# generated using pymatgen
data_BaH4(C2O)4
_symmetry_space_group_name_H-M   'P 1'
_cell_length_a   7.79717000
_cell_length_b   10.39730000
_cell_length_c   19.06330000
_cell_angle_alpha   90.00000000
_cell_angle_beta   90.00010000
_cell_angle_gamma   89.99980000
_symmetry_Int_Tables_number   1
_chemical_formula_structural   BaH4(C2O)4
_chemical_formula_sum   'Ba8 H32 C64 O32'
_cell_volume   1545.45249751
_cell_formula_units_Z   8
loop_
 _symmetry_equiv_pos_site_id
 _symmetry_equiv_pos_as_xyz
  1  'x, y, z'
loop_
 _atom_site_type_symbol
 _atom_site_label
 _atom_site_symmetry_multiplicity
 _atom_site_fract_x
 _atom_site_fract_y
 _atom_site_fract_z
 _atom_site_occupancy
  Ba  Ba0  1  0.46432000  0.20162000  0.47563000  1.0
  Ba  Ba1  1  0.03568000  0.79838000  0.97562000  1.0
  Ba  Ba2  1  0.53568000  0.70162000  0.02437000  1.0
  Ba  Ba3  1  0.96432000  0.29838000  0.52438000  1.0
  Ba  Ba4  1  0.53568000  0.79838000  0.52438000  1.0
  Ba  Ba5  1  0.96432000  0.20162000  0.02437000  1.0
  Ba  Ba6  1  0.46432000  0.29838000  0.97562000  1.0
  Ba  Ba7  1  0.03568000  0.70162000  0.47563000  1.0
  H  H8  1  0.26306000  0.21569000  0.64404000  1.0
  H  H9  1  0.23693000  0.78431000  0.14405000  1.0
  H  H10  1  0.73693000  0.71569000  0.85595000  1.0
  H  H11  1  0.76306000  0.28431000  0.35596000  1.0
  H  H12  1  0.73693000  0.78431000  0.35595000  1.0
  H  H13  1  0.76307000  0.21569000  0.85595000  1.0
  H  H14  1  0.26307000  0.28431000  0.14405000  1.0
  H  H15  1  0.23693000  0.71569000  0.64405000  1.0
  H  H16  1  0.25415000  0.25822000  0.77230000  1.0
  H  H17  1  0.24585000  0.74178000  0.27230000  1.0
  H  H18  1  0.74585000  0.75822000  0.72770000  1.0
  H  H19  1  0.75415000  0.24178000  0.22770000  1.0
  H  H20  1  0.74585000  0.74178000  0.22770000  1.0
  H  H21  1  0.75415000  0.25822000  0.72770000  1.0
  H  H22  1  0.25415000  0.24178000  0.27230000  1.0
  H  H23  1  0.24585000  0.75822000  0.77230000  1.0
  H  H24  1  0.98864000  0.90132000  0.80483000  1.0
  H  H25  1  0.51136000  0.09868000  0.30483000  1.0
  H  H26  1  0.01137000  0.40132000  0.69517000  1.0
  H  H27  1  0.48864000  0.59868000  0.19517000  1.0
  H  H28  1  0.01136000  0.09868000  0.19517000  1.0
  H  H29  1  0.48864000  0.90132000  0.69517000  1.0
  H  H30  1  0.98864000  0.59868000  0.30483000  1.0
  H  H31  1  0.51137000  0.40132000  0.80483000  1.0
  H  H32  1  0.00817000  0.85329000  0.67716000  1.0
  H  H33  1  0.49183000  0.14671000  0.17716000  1.0
  H  H34  1  0.99183000  0.35329000  0.82284000  1.0
  H  H35  1  0.50817000  0.64671000  0.32284000  1.0
  H  H36  1  0.99183000  0.14671000  0.32284000  1.0
  H  H37  1  0.50817000  0.85329000  0.82284000  1.0
  H  H38  1  0.00817000  0.64671000  0.17716000  1.0
  H  H39  1  0.49183000  0.35329000  0.67716000  1.0
  C  C40  1  0.14142000  0.02924000  0.65263000  1.0
  C  C41  1  0.35858000  0.97076000  0.15263000  1.0
  C  C42  1  0.85858000  0.52924000  0.84737000  1.0
  C  C43  1  0.64142000  0.47076000  0.34737000  1.0
  C  C44  1  0.85858000  0.97076000  0.34738000  1.0
  C  C45  1  0.64142000  0.02924000  0.84737000  1.0
  C  C46  1  0.14142000  0.47076000  0.15263000  1.0
  C  C47  1  0.35858000  0.52924000  0.65263000  1.0
  C  C48  1  0.20419000  0.14585000  0.67936000  1.0
  C  C49  1  0.29581000  0.85415000  0.17936000  1.0
  C  C50  1  0.79582000  0.64585000  0.82064000  1.0
  C  C51  1  0.70419000  0.35415000  0.32064000  1.0
  C  C52  1  0.79581000  0.85414000  0.32064000  1.0
  C  C53  1  0.70419000  0.14585000  0.82064000  1.0
  C  C54  1  0.20419000  0.35415000  0.17936000  1.0
  C  C55  1  0.29581000  0.64585000  0.67936000  1.0
  C  C56  1  0.19935000  0.17014000  0.75112000  1.0
  C  C57  1  0.30064000  0.82986000  0.25112000  1.0
  C  C58  1  0.80065000  0.67014000  0.74888000  1.0
  C  C59  1  0.69935000  0.32987000  0.24888000  1.0
  C  C60  1  0.80064000  0.82986000  0.24888000  1.0
  C  C61  1  0.69935000  0.17013000  0.74888000  1.0
  C  C62  1  0.19935000  0.32986000  0.25112000  1.0
  C  C63  1  0.30065000  0.67014000  0.75112000  1.0
  C  C64  1  0.12618000  0.08087000  0.79715000  1.0
  C  C65  1  0.37382000  0.91913000  0.29715000  1.0
  C  C66  1  0.87382000  0.58087000  0.70285000  1.0
  C  C67  1  0.62618000  0.41913000  0.20285000  1.0
  C  C68  1  0.87382000  0.91912000  0.20285000  1.0
  C  C69  1  0.62618000  0.08087000  0.70285000  1.0
  C  C70  1  0.12618000  0.41913000  0.29715000  1.0
  C  C71  1  0.37382000  0.58087000  0.79715000  1.0
  C  C72  1  0.05337000  0.96816000  0.76972000  1.0
  C  C73  1  0.44663000  0.03184000  0.26972000  1.0
  C  C74  1  0.94664000  0.46816000  0.73028000  1.0
  C  C75  1  0.55336000  0.53184000  0.23028000  1.0
  C  C76  1  0.94663000  0.03184000  0.23028000  1.0
  C  C77  1  0.55336000  0.96816000  0.73028000  1.0
  C  C78  1  0.05336000  0.53184000  0.26972000  1.0
  C  C79  1  0.44664000  0.46816000  0.76972000  1.0
  C  C80  1  0.06289000  0.94152000  0.69834000  1.0
  C  C81  1  0.43711000  0.05848000  0.19834000  1.0
  C  C82  1  0.93712000  0.44152000  0.80166000  1.0
  C  C83  1  0.56289000  0.55848000  0.30166000  1.0
  C  C84  1  0.93711000  0.05848000  0.30166000  1.0
  C  C85  1  0.56289000  0.94152000  0.80166000  1.0
  C  C86  1  0.06289000  0.55848000  0.19834000  1.0
  C  C87  1  0.43711000  0.44152000  0.69834000  1.0
  C  C88  1  0.16955000  0.99658000  0.57659000  1.0
  C  C89  1  0.33045000  0.00341000  0.07659000  1.0
  C  C90  1  0.83045000  0.49658000  0.92341000  1.0
  C  C91  1  0.66955000  0.50342000  0.42341000  1.0
  C  C92  1  0.83044000  0.00341000  0.42341000  1.0
  C  C93  1  0.66955000  0.99658000  0.92341000  1.0
  C  C94  1  0.16955000  0.50341000  0.07659000  1.0
  C  C95  1  0.33045000  0.49658000  0.57659000  1.0
  C  C96  1  0.12260000  0.10792000  0.87446000  1.0
  C  C97  1  0.37741000  0.89208000  0.37446000  1.0
  C  C98  1  0.87740000  0.60793000  0.62554000  1.0
  C  C99  1  0.62259000  0.39208000  0.12554000  1.0
  C  C100  1  0.87741000  0.89208000  0.12554000  1.0
  C  C101  1  0.62259000  0.10792000  0.62554000  1.0
  C  C102  1  0.12259000  0.39208000  0.37446000  1.0
  C  C103  1  0.37741000  0.60793000  0.87446000  1.0
  O  O104  1  0.17271000  0.08891000  0.53255000  1.0
  O  O105  1  0.32729000  0.91109000  0.03255000  1.0
  O  O106  1  0.82729000  0.58890000  0.96745000  1.0
  O  O107  1  0.67271000  0.41109000  0.46745000  1.0
  O  O108  1  0.82729000  0.91109000  0.46745000  1.0
  O  O109  1  0.67271000  0.08891000  0.96745000  1.0
  O  O110  1  0.17271000  0.41109000  0.03255000  1.0
  O  O111  1  0.32729000  0.58891000  0.53255000  1.0
  O  O112  1  0.19496000  0.87888000  0.56092000  1.0
  O  O113  1  0.30503000  0.12112000  0.06092000  1.0
  O  O114  1  0.80504000  0.37887000  0.93908000  1.0
  O  O115  1  0.69497000  0.62112000  0.43908000  1.0
  O  O116  1  0.80503000  0.12112000  0.43908000  1.0
  O  O117  1  0.69496000  0.87887000  0.93908000  1.0
  O  O118  1  0.19497000  0.62112000  0.06092000  1.0
  O  O119  1  0.30504000  0.37887000  0.56092000  1.0
  O  O120  1  0.04280000  0.02900000  0.91420000  1.0
  O  O121  1  0.45720000  0.97100000  0.41420000  1.0
  O  O122  1  0.95721000  0.52901000  0.58580000  1.0
  O  O123  1  0.54280000  0.47100000  0.08580000  1.0
  O  O124  1  0.95721000  0.97100000  0.08580000  1.0
  O  O125  1  0.54279000  0.02901000  0.58580000  1.0
  O  O126  1  0.04280000  0.47100000  0.41420000  1.0
  O  O127  1  0.45721000  0.52901000  0.91421000  1.0
  O  O128  1  0.19339000  0.21009000  0.89767000  1.0
  O  O129  1  0.30661000  0.78991000  0.39767000  1.0
  O  O130  1  0.80661000  0.71010000  0.60233000  1.0
  O  O131  1  0.69340000  0.28991000  0.10233000  1.0
  O  O132  1  0.80661000  0.78991000  0.10233000  1.0
  O  O133  1  0.69339000  0.21009000  0.60233000  1.0
  O  O134  1  0.19339000  0.28991000  0.39767000  1.0
  O  O135  1  0.30661000  0.71009000  0.89767000  1.0
