# generated using pymatgen
data_Zn2H21C36Br3N10
_symmetry_space_group_name_H-M   'P 1'
_cell_length_a   18.77680000
_cell_length_b   19.41990000
_cell_length_c   20.70772723
_cell_angle_alpha   110.14385702
_cell_angle_beta   99.97975666
_cell_angle_gamma   113.68100000
_symmetry_Int_Tables_number   1
_chemical_formula_structural   Zn2H21C36Br3N10
_chemical_formula_sum   'Zn4 H42 C72 Br6 N20'
_cell_volume   6050.70902170
_cell_formula_units_Z   2
loop_
 _symmetry_equiv_pos_site_id
 _symmetry_equiv_pos_as_xyz
  1  'x, y, z'
loop_
 _atom_site_type_symbol
 _atom_site_label
 _atom_site_symmetry_multiplicity
 _atom_site_fract_x
 _atom_site_fract_y
 _atom_site_fract_z
 _atom_site_occupancy
  Zn  Zn0  1  0.58793000  0.59606000  0.46437000  1.0
  Zn  Zn1  1  0.37404000  0.40028000  0.50032000  1.0
  Zn  Zn2  1  0.47279000  0.60728000  0.57062000  1.0
  Zn  Zn3  1  0.47493000  0.39139000  0.38342000  1.0
  H  H4  1  0.43193000  0.65171000  0.73146000  1.0
  H  H5  1  0.60759000  0.34317000  0.30897000  1.0
  H  H6  1  0.29966000  0.37788000  0.62713000  1.0
  H  H7  1  0.74819000  0.61677000  0.41139000  1.0
  H  H8  1  0.62087000  0.37753000  0.46458000  1.0
  H  H9  1  0.58961000  0.64535000  0.71625000  1.0
  H  H10  1  0.48150000  0.63892000  0.36076000  1.0
  H  H11  1  0.21906000  0.35582000  0.36364000  1.0
  H  H12  1  0.33156000  0.21278000  0.24232000  1.0
  H  H13  1  0.33729000  0.36486000  0.24057000  1.0
  H  H14  1  0.33849000  0.62949000  0.46980000  1.0
  H  H15  1  0.84317000  0.33712000  0.25088000  1.0
  H  H16  1  0.71672000  0.34101000  0.26313000  1.0
  H  H17  1  0.86458000  0.61092000  0.40148000  1.0
  H  H18  1  0.99029000  0.60662000  0.38898000  1.0
  H  H19  1  0.07174000  0.58661000  0.31870000  1.0
  H  H20  1  0.95993000  0.35028000  0.32848000  1.0
  H  H21  1  0.59754000  0.18610000  0.66271000  1.0
  H  H22  1  0.58658000  0.30812000  0.66136000  1.0
  H  H23  1  0.59336000  0.23361000  0.44201000  1.0
  H  H24  1  0.60969000  0.11476000  0.44568000  1.0
  H  H25  1  0.71676000  0.09065000  0.54119000  1.0
  H  H26  1  0.70887000  0.95758000  0.53320000  1.0
  H  H27  1  0.46283000  0.87464000  0.54400000  1.0
  H  H28  1  0.42873000  0.64151000  0.84919000  1.0
  H  H29  1  0.39837000  0.62997000  0.95837000  1.0
  H  H30  1  0.22875000  0.38476000  0.70858000  1.0
  H  H31  1  0.31025000  0.37938000  0.13114000  1.0
  H  H32  1  0.10123000  0.96254000  0.05214000  1.0
  H  H33  1  0.97840000  0.89774000  0.84182000  1.0
  H  H34  1  0.86783000  0.79347000  0.71848000  1.0
  H  H35  1  0.80849000  0.80806000  0.94626000  1.0
  H  H36  1  0.94703000  0.04957000  0.14328000  1.0
  H  H37  1  0.69907000  0.69805000  0.82349000  1.0
  H  H38  1  0.49921000  0.80036000  0.60498000  1.0
  H  H39  1  0.09752000  0.36223000  0.36378000  1.0
  H  H40  1  0.36748000  0.66015000  0.15094000  1.0
  H  H41  1  0.39656000  0.64379000  0.26503000  1.0
  H  H42  1  0.27792000  0.39624000  0.01817000  1.0
  H  H43  1  0.20235000  0.37274000  0.81888000  1.0
  H  H44  1  0.22203000  0.06497000  0.17064000  1.0
  H  H45  1  0.06888000  0.15692000  0.26024000  1.0
  C  C46  1  0.70694000  0.65217000  0.61657000  1.0
  C  C47  1  0.49923000  0.35472000  0.55990000  1.0
  C  C48  1  0.40369000  0.58426000  0.69606000  1.0
  C  C49  1  0.63129000  0.41090000  0.33728000  1.0
  C  C50  1  0.33477000  0.44470000  0.64224000  1.0
  C  C51  1  0.70305000  0.55025000  0.38964000  1.0
  C  C52  1  0.57710000  0.37447000  0.49308000  1.0
  C  C53  1  0.62083000  0.64164000  0.67666000  1.0
  C  C54  1  0.70683000  0.67882000  0.68937000  1.0
  C  C55  1  0.56038000  0.33699000  0.53984000  1.0
  C  C56  1  0.35433000  0.51544000  0.70705000  1.0
  C  C57  1  0.70840000  0.47840000  0.35044000  1.0
  C  C58  1  0.45252000  0.57102000  0.34103000  1.0
  C  C59  1  0.25936000  0.42363000  0.39729000  1.0
  C  C60  1  0.53283000  0.78293000  0.57060000  1.0
  C  C61  1  0.31065000  0.22480000  0.28871000  1.0
  C  C62  1  0.24126000  0.22888000  0.36336000  1.0
  C  C63  1  0.60911000  0.77583000  0.50231000  1.0
  C  C64  1  0.37987000  0.43120000  0.27916000  1.0
  C  C65  1  0.32048000  0.56335000  0.45084000  1.0
  C  C66  1  0.39120000  0.50441000  0.27250000  1.0
  C  C67  1  0.24566000  0.49000000  0.39798000  1.0
  C  C68  1  0.57791000  0.82743000  0.53693000  1.0
  C  C69  1  0.22923000  0.18534000  0.28860000  1.0
  C  C70  1  0.84819000  0.39747000  0.28422000  1.0
  C  C71  1  0.77664000  0.39979000  0.29115000  1.0
  C  C72  1  0.78053000  0.47605000  0.33464000  1.0
  C  C73  1  0.85873000  0.55051000  0.36708000  1.0
  C  C74  1  0.93004000  0.54829000  0.35974000  1.0
  C  C75  1  0.92695000  0.47140000  0.31991000  1.0
  C  C76  1  0.07662000  0.53690000  0.32877000  1.0
  C  C77  1  0.15415000  0.54184000  0.34706000  1.0
  C  C78  1  0.16560000  0.48145000  0.36341000  1.0
  C  C79  1  0.09178000  0.41060000  0.35178000  1.0
  C  C80  1  0.01395000  0.40393000  0.33217000  1.0
  C  C81  1  0.00534000  0.46943000  0.32405000  1.0
  C  C82  1  0.59758000  0.19718000  0.61454000  1.0
  C  C83  1  0.59074000  0.26559000  0.61350000  1.0
  C  C84  1  0.58578000  0.27823000  0.55034000  1.0
  C  C85  1  0.59673000  0.22503000  0.49159000  1.0
  C  C86  1  0.60536000  0.15770000  0.49333000  1.0
  C  C87  1  0.60184000  0.14039000  0.55347000  1.0
  C  C88  1  0.66110000  0.04297000  0.54205000  1.0
  C  C89  1  0.65661000  0.96795000  0.53731000  1.0
  C  C90  1  0.58581000  0.90637000  0.53928000  1.0
  C  C91  1  0.51997000  0.92241000  0.54525000  1.0
  C  C92  1  0.52593000  0.99807000  0.55076000  1.0
  C  C93  1  0.59672000  0.06094000  0.54976000  1.0
  C  C94  1  0.35829000  0.51099000  0.20702000  1.0
  C  C95  1  0.32106000  0.44088000  0.13616000  1.0
  C  C96  1  0.30305000  0.44958000  0.07265000  1.0
  C  C97  1  0.32233000  0.52976000  0.07764000  1.0
  C  C98  1  0.35415000  0.59874000  0.14774000  1.0
  C  C99  1  0.37083000  0.58923000  0.21117000  1.0
  C  C100  1  0.36101000  0.57718000  0.90315000  1.0
  C  C101  1  0.37727000  0.58312000  0.84182000  1.0
  C  C102  1  0.29850000  0.50041000  0.89538000  1.0
  C  C103  1  0.33169000  0.51353000  0.77063000  1.0
  C  C104  1  0.26645000  0.43869000  0.76321000  1.0
  C  C105  1  0.25077000  0.43175000  0.82438000  1.0
  C  C106  1  0.77450000  0.73779000  0.76112000  1.0
  C  C107  1  0.75955000  0.74299000  0.82688000  1.0
  C  C108  1  0.82026000  0.80376000  0.89570000  1.0
  C  C109  1  0.89961000  0.86044000  0.90119000  1.0
  C  C110  1  0.91631000  0.85399000  0.83655000  1.0
  C  C111  1  0.85442000  0.79486000  0.76778000  1.0
  C  C112  1  0.09545000  0.00571000  0.09830000  1.0
  C  C113  1  0.16237000  0.06335000  0.16409000  1.0
  C  C114  1  0.01761000  0.00140000  0.09029000  1.0
  C  C115  1  0.15473000  0.11976000  0.22344000  1.0
  C  C116  1  0.07608000  0.11357000  0.21538000  1.0
  C  C117  1  0.00796000  0.05416000  0.15008000  1.0
  Br  Br118  1  0.79675000  0.67003000  0.58330000  1.0
  Br  Br119  1  0.16432000  0.21442000  0.41179000  1.0
  Br  Br120  1  0.67205000  0.78582000  0.44114000  1.0
  Br  Br121  1  0.43881000  0.31964000  0.61670000  1.0
  Br  Br122  1  0.24547000  0.63573000  0.34928000  1.0
  Br  Br123  1  0.43061000  0.01065000  0.55459000  1.0
  N  N124  1  0.62881000  0.60549000  0.56620000  1.0
  N  N125  1  0.48075000  0.39750000  0.52711000  1.0
  N  N126  1  0.41232000  0.55630000  0.63018000  1.0
  N  N127  1  0.58473000  0.44052000  0.36674000  1.0
  N  N128  1  0.36960000  0.46926000  0.59707000  1.0
  N  N129  1  0.62975000  0.52745000  0.39962000  1.0
  N  N130  1  0.52896000  0.40963000  0.48537000  1.0
  N  N131  1  0.57540000  0.59926000  0.60379000  1.0
  N  N132  1  0.47626000  0.53941000  0.38365000  1.0
  N  N133  1  0.33531000  0.45530000  0.44658000  1.0
  N  N134  1  0.53731000  0.71220000  0.55717000  1.0
  N  N135  1  0.36499000  0.28588000  0.35665000  1.0
  N  N136  1  0.32162000  0.28833000  0.40374000  1.0
  N  N137  1  0.58486000  0.70751000  0.51411000  1.0
  N  N138  1  0.43141000  0.45349000  0.34560000  1.0
  N  N139  1  0.37250000  0.54110000  0.47945000  1.0
  N  N140  1  0.32081000  0.54807000  0.01748000  1.0
  N  N141  1  0.28570000  0.48360000  0.95449000  1.0
  N  N142  1  0.96649000  0.92261000  0.96770000  1.0
  N  N143  1  0.94732000  0.94451000  0.02440000  1.0
