# generated using pymatgen
data_Sm2H18(C3O8)3
_symmetry_space_group_name_H-M   'P 1'
_cell_length_a   8.86473000
_cell_length_b   8.86473000
_cell_length_c   8.86472000
_cell_angle_alpha   66.05650000
_cell_angle_beta   66.05650000
_cell_angle_gamma   66.05640000
_symmetry_Int_Tables_number   1
_chemical_formula_structural   Sm2H18(C3O8)3
_chemical_formula_sum   'Sm2 H18 C9 O24'
_cell_volume   557.11148213
_cell_formula_units_Z   1
loop_
 _symmetry_equiv_pos_site_id
 _symmetry_equiv_pos_as_xyz
  1  'x, y, z'
loop_
 _atom_site_type_symbol
 _atom_site_label
 _atom_site_symmetry_multiplicity
 _atom_site_fract_x
 _atom_site_fract_y
 _atom_site_fract_z
 _atom_site_occupancy
  Sm  Sm0  1  0.73140000  0.73140000  0.73140000  1.0
  Sm  Sm1  1  0.26860000  0.26860000  0.26860000  1.0
  H  H2  1  0.78485000  0.72321000  0.35888000  1.0
  H  H3  1  0.72321000  0.35888000  0.78485000  1.0
  H  H4  1  0.35888000  0.78485000  0.72321000  1.0
  H  H5  1  0.21515000  0.64112000  0.27679000  1.0
  H  H6  1  0.27679000  0.21515000  0.64112000  1.0
  H  H7  1  0.64112000  0.27679000  0.21515000  1.0
  H  H8  1  0.87366000  0.54041000  0.47307000  1.0
  H  H9  1  0.54042000  0.47307000  0.87366000  1.0
  H  H10  1  0.47307000  0.87366000  0.54042000  1.0
  H  H11  1  0.12634000  0.52693000  0.45958000  1.0
  H  H12  1  0.45959000  0.12634000  0.52693000  1.0
  H  H13  1  0.52693000  0.45958000  0.12634000  1.0
  H  H14  1  0.82706000  0.68900000  0.04846000  1.0
  H  H15  1  0.68900000  0.04846000  0.82706000  1.0
  H  H16  1  0.04846000  0.82706000  0.68899000  1.0
  H  H17  1  0.17294000  0.95154000  0.31100000  1.0
  H  H18  1  0.31100000  0.17294000  0.95154000  1.0
  H  H19  1  0.95154000  0.31100000  0.17294000  1.0
  C  C20  1  0.03730000  0.50000000  0.96270000  1.0
  C  C21  1  0.50000000  0.96270000  0.03730000  1.0
  C  C22  1  0.96270000  0.03730000  0.50000000  1.0
  C  C23  1  0.08687000  0.41732000  0.81655000  1.0
  C  C24  1  0.41732000  0.81654000  0.08687000  1.0
  C  C25  1  0.81655000  0.08687000  0.41732000  1.0
  C  C26  1  0.91313000  0.18345000  0.58268000  1.0
  C  C27  1  0.58268000  0.91313000  0.18346000  1.0
  C  C28  1  0.18346000  0.58267000  0.91313000  1.0
  O  O29  1  0.87527000  0.62090000  0.96148000  1.0
  O  O30  1  0.62090000  0.96148000  0.87527000  1.0
  O  O31  1  0.96148000  0.87527000  0.62090000  1.0
  O  O32  1  0.12473000  0.03852000  0.37910000  1.0
  O  O33  1  0.37910000  0.12473000  0.03852000  1.0
  O  O34  1  0.03852000  0.37910000  0.12474000  1.0
  O  O35  1  0.81926000  0.66310000  0.46769000  1.0
  O  O36  1  0.66310000  0.46769000  0.81927000  1.0
  O  O37  1  0.46769000  0.81927000  0.66310000  1.0
  O  O38  1  0.18073000  0.53231000  0.33690000  1.0
  O  O39  1  0.33690000  0.18074000  0.53231000  1.0
  O  O40  1  0.53231000  0.33690000  0.18073000  1.0
  O  O41  1  0.01307000  0.50517000  0.69888000  1.0
  O  O42  1  0.50517000  0.69888000  0.01307000  1.0
  O  O43  1  0.69888000  0.01307000  0.50517000  1.0
  O  O44  1  0.98694000  0.30111000  0.49483000  1.0
  O  O45  1  0.49483000  0.98693000  0.30111000  1.0
  O  O46  1  0.30111000  0.49483000  0.98694000  1.0
  O  O47  1  0.20155000  0.27353000  0.82095000  1.0
  O  O48  1  0.27353000  0.82095000  0.20155000  1.0
  O  O49  1  0.82095000  0.20155000  0.27353000  1.0
  O  O50  1  0.79845000  0.17905000  0.72647000  1.0
  O  O51  1  0.72648000  0.79845000  0.17905000  1.0
  O  O52  1  0.17905000  0.72647000  0.79845000  1.0
