# generated using pymatgen
data_ZnH12(C2N)8
_symmetry_space_group_name_H-M   'P 1'
_cell_length_a   7.62827000
_cell_length_b   9.20455000
_cell_length_c   12.50500000
_cell_angle_alpha   101.98700000
_cell_angle_beta   100.56600000
_cell_angle_gamma   104.21100000
_symmetry_Int_Tables_number   1
_chemical_formula_structural   ZnH12(C2N)8
_chemical_formula_sum   'Zn2 H24 C32 N16'
_cell_volume   806.77866407
_cell_formula_units_Z   2
loop_
 _symmetry_equiv_pos_site_id
 _symmetry_equiv_pos_as_xyz
  1  'x, y, z'
loop_
 _atom_site_type_symbol
 _atom_site_label
 _atom_site_symmetry_multiplicity
 _atom_site_fract_x
 _atom_site_fract_y
 _atom_site_fract_z
 _atom_site_occupancy
  Zn  Zn0  1  0.59547000  0.91551000  0.70196000  1.0
  Zn  Zn1  1  0.40453000  0.08449000  0.29805000  1.0
  H  H2  1  0.34113000  0.82381000  0.46282000  1.0
  H  H3  1  0.65888000  0.17620000  0.53718000  1.0
  H  H4  1  0.39370000  0.35410000  0.73454000  1.0
  H  H5  1  0.60631000  0.64590000  0.26546000  1.0
  H  H6  1  0.82874000  0.87253000  0.92321000  1.0
  H  H7  1  0.17126000  0.12748000  0.07679000  1.0
  H  H8  1  0.03067000  0.47148000  0.23364000  1.0
  H  H9  1  0.96934000  0.52852000  0.76635000  1.0
  H  H10  1  0.17453000  0.66706000  0.25907000  1.0
  H  H11  1  0.82548000  0.33294000  0.74093000  1.0
  H  H12  1  0.96669000  0.62995000  0.30553000  1.0
  H  H13  1  0.03332000  0.37005000  0.69447000  1.0
  H  H14  1  0.25305000  0.32995000  0.56653000  1.0
  H  H15  1  0.74696000  0.67005000  0.43346000  1.0
  H  H16  1  0.07264000  0.33040000  0.37998000  1.0
  H  H17  1  0.92736000  0.66960000  0.62002000  1.0
  H  H18  1  0.59889000  0.39619000  0.92390000  1.0
  H  H19  1  0.40113000  0.60381000  0.07610000  1.0
  H  H20  1  0.93665000  0.79289000  0.08965000  1.0
  H  H21  1  0.06335000  0.20710000  0.91035000  1.0
  H  H22  1  0.97073000  0.60804000  0.04747000  1.0
  H  H23  1  0.02927000  0.39195000  0.95253000  1.0
  H  H24  1  0.78731000  0.62578000  0.11191000  1.0
  H  H25  1  0.21270000  0.37421000  0.88808000  1.0
  C  C26  1  0.38978000  0.57835000  0.61530000  1.0
  C  C27  1  0.61023000  0.42165000  0.38470000  1.0
  C  C28  1  0.31542000  0.71178000  0.48276000  1.0
  C  C29  1  0.68458000  0.28822000  0.51725000  1.0
  C  C30  1  0.19087000  0.57735000  0.40531000  1.0
  C  C31  1  0.80913000  0.42265000  0.59469000  1.0
  C  C32  1  0.97878000  0.02842000  0.64392000  1.0
  C  C33  1  0.02120000  0.97157000  0.35607000  1.0
  C  C34  1  0.50375000  0.59153000  0.72810000  1.0
  C  C35  1  0.49625000  0.40847000  0.27191000  1.0
  C  C36  1  0.49230000  0.46765000  0.77785000  1.0
  C  C37  1  0.50771000  0.53235000  0.22215000  1.0
  C  C38  1  0.73545000  0.75496000  0.88418000  1.0
  C  C39  1  0.26455000  0.24504000  0.11582000  1.0
  C  C40  1  0.08587000  0.58618000  0.29437000  1.0
  C  C41  1  0.91415000  0.41383000  0.70563000  1.0
  C  C42  1  0.73501000  0.63782000  0.93963000  1.0
  C  C43  1  0.26500000  0.36218000  0.06037000  1.0
  C  C44  1  0.26934000  0.43858000  0.54247000  1.0
  C  C45  1  0.73066000  0.56143000  0.45752000  1.0
  C  C46  1  0.16867000  0.43835000  0.43753000  1.0
  C  C47  1  0.83134000  0.56165000  0.56247000  1.0
  C  C48  1  0.60756000  0.49137000  0.88376000  1.0
  C  C49  1  0.39245000  0.50863000  0.11625000  1.0
  C  C50  1  0.67845000  0.13215000  0.95097000  1.0
  C  C51  1  0.32155000  0.86785000  0.04903000  1.0
  C  C52  1  0.86388000  0.66872000  0.05307000  1.0
  C  C53  1  0.13613000  0.33128000  0.94693000  1.0
  C  C54  1  0.28863000  0.06435000  0.63841000  1.0
  C  C55  1  0.71136000  0.93565000  0.36159000  1.0
  C  C56  1  0.76101000  0.18465000  0.14407000  1.0
  C  C57  1  0.23898000  0.81535000  0.85594000  1.0
  N  N58  1  0.41015000  0.71224000  0.58404000  1.0
  N  N59  1  0.58985000  0.28777000  0.41596000  1.0
  N  N60  1  0.62369000  0.73305000  0.78274000  1.0
  N  N61  1  0.37631000  0.26695000  0.21727000  1.0
  N  N62  1  0.43503000  0.04514000  0.63515000  1.0
  N  N63  1  0.56496000  0.95486000  0.36485000  1.0
  N  N64  1  0.82358000  0.97098000  0.64503000  1.0
  N  N65  1  0.17640000  0.02901000  0.35497000  1.0
  N  N66  1  0.66562000  0.07015000  0.85600000  1.0
  N  N67  1  0.33438000  0.92986000  0.14400000  1.0
  N  N68  1  0.14041000  0.10740000  0.63963000  1.0
  N  N69  1  0.85957000  0.89259000  0.36035000  1.0
  N  N70  1  0.68858000  0.21303000  0.05018000  1.0
  N  N71  1  0.31141000  0.78698000  0.94983000  1.0
  N  N72  1  0.82387000  0.17039000  0.23344000  1.0
  N  N73  1  0.17611000  0.82961000  0.76656000  1.0
