# generated using pymatgen
data_Zn4H3C24S4NO15F4
_symmetry_space_group_name_H-M   'P 1'
_cell_length_a   19.62760000
_cell_length_b   19.69120000
_cell_length_c   33.32750000
_cell_angle_alpha   79.26970000
_cell_angle_beta   79.45130000
_cell_angle_gamma   64.11430000
_symmetry_Int_Tables_number   1
_chemical_formula_structural   Zn4H3C24S4NO15F4
_chemical_formula_sum   'Zn16 H12 C96 S16 N4 O60 F16'
_cell_volume   11310.04022234
_cell_formula_units_Z   4
loop_
 _symmetry_equiv_pos_site_id
 _symmetry_equiv_pos_as_xyz
  1  'x, y, z'
loop_
 _atom_site_type_symbol
 _atom_site_label
 _atom_site_symmetry_multiplicity
 _atom_site_fract_x
 _atom_site_fract_y
 _atom_site_fract_z
 _atom_site_occupancy
  Zn  Zn0  1  0.05655000  0.40162000  0.47790000  1.0
  Zn  Zn1  1  0.98266000  0.48394000  0.56015000  1.0
  Zn  Zn2  1  0.06137000  0.55923000  0.48231000  1.0
  Zn  Zn3  1  0.89943000  0.55499000  0.47974000  1.0
  Zn  Zn4  1  0.69448000  0.34937000  0.27123000  1.0
  Zn  Zn5  1  0.69238000  0.18749000  0.26711000  1.0
  Zn  Zn6  1  0.76683000  0.26855000  0.18986000  1.0
  Zn  Zn7  1  0.84897000  0.19467000  0.27272000  1.0
  Zn  Zn8  1  0.26544000  0.76765000  0.68940000  1.0
  Zn  Zn9  1  0.34802000  0.69537000  0.77155000  1.0
  Zn  Zn10  1  0.19331000  0.85030000  0.77046000  1.0
  Zn  Zn11  1  0.19000000  0.68893000  0.76644000  1.0
  Zn  Zn12  1  0.56015000  0.06101000  0.98298000  1.0
  Zn  Zn13  1  0.40066000  0.05499000  0.97825000  1.0
  Zn  Zn14  1  0.55555000  0.90177000  0.97802000  1.0
  Zn  Zn15  1  0.48217000  0.98505000  0.06029000  1.0
  H  H16  1  0.95248000  0.24981000  0.35165000  1.0
  H  H17  1  0.74670000  0.45649000  0.35064000  1.0
  H  H18  1  0.99981000  0.29802000  0.40048000  1.0
  H  H19  1  0.09778000  0.59646000  0.69950000  1.0
  H  H20  1  0.20035000  0.70193000  0.59700000  1.0
  H  H21  1  0.05095000  0.54835000  0.65035000  1.0
  H  H22  1  0.54987000  0.05128000  0.15245000  1.0
  H  H23  1  0.65399000  0.15290000  0.04882000  1.0
  H  H24  1  0.59853000  0.10035000  0.20014000  1.0
  H  H25  1  0.50118000  0.79634000  0.89830000  1.0
  H  H26  1  0.29486000  0.00248000  0.89928000  1.0
  H  H27  1  0.45151000  0.75028000  0.84960000  1.0
  C  C28  1  0.06197000  0.31740000  0.56113000  1.0
  C  C29  1  0.07050000  0.56729000  0.56859000  1.0
  C  C30  1  0.18424000  0.43900000  0.43762000  1.0
  C  C31  1  0.93764000  0.68208000  0.43942000  1.0
  C  C32  1  0.93063000  0.42947000  0.43241000  1.0
  C  C33  1  0.81599000  0.56165000  0.56261000  1.0
  C  C34  1  0.56682000  0.30962000  0.31022000  1.0
  C  C35  1  0.68019000  0.18246000  0.18133000  1.0
  C  C36  1  0.69117000  0.43495000  0.18861000  1.0
  C  C37  1  0.93299000  0.18685000  0.18919000  1.0
  C  C38  1  0.81818000  0.32132000  0.31946000  1.0
  C  C39  1  0.81349000  0.06539000  0.31261000  1.0
  C  C40  1  0.43258000  0.69033000  0.68876000  1.0
  C  C41  1  0.31939000  0.82005000  0.81777000  1.0
  C  C42  1  0.18575000  0.93413000  0.68747000  1.0
  C  C43  1  0.06784000  0.80979000  0.81198000  1.0
  C  C44  1  0.18016000  0.68063000  0.68018000  1.0
  C  C45  1  0.31236000  0.56536000  0.81029000  1.0
  C  C46  1  0.43769000  0.18388000  0.93875000  1.0
  C  C47  1  0.43035000  0.93054000  0.93042000  1.0
  C  C48  1  0.68377000  0.93976000  0.93828000  1.0
  C  C49  1  0.56034000  0.81779000  0.06138000  1.0
  C  C50  1  0.56963000  0.07062000  0.06911000  1.0
  C  C51  1  0.31518000  0.06238000  0.06120000  1.0
  C  C52  1  0.90116000  0.40401000  0.40237000  1.0
  C  C53  1  0.84701000  0.35007000  0.34828000  1.0
  C  C54  1  0.83010000  0.44794000  0.38771000  1.0
  C  C55  1  0.91848000  0.30541000  0.36213000  1.0
  C  C56  1  0.80231000  0.42174000  0.36133000  1.0
  C  C57  1  0.94477000  0.33220000  0.38902000  1.0
  C  C58  1  0.09785000  0.59892000  0.59658000  1.0
  C  C59  1  0.15173000  0.65185000  0.65123000  1.0
  C  C60  1  0.13974000  0.64269000  0.58218000  1.0
  C  C61  1  0.10945000  0.60885000  0.66640000  1.0
  C  C62  1  0.16741000  0.66856000  0.60879000  1.0
  C  C63  1  0.08327000  0.58252000  0.63923000  1.0
  C  C64  1  0.30544000  0.45228000  0.39979000  1.0
  C  C65  1  0.44632000  0.29574000  0.34892000  1.0
  C  C66  1  0.25923000  0.41370000  0.41323000  1.0
  C  C67  1  0.49251000  0.33428000  0.33533000  1.0
  C  C68  1  0.37832000  0.33788000  0.37273000  1.0
  C  C69  1  0.37414000  0.40952000  0.37660000  1.0
  C  C70  1  0.72440000  0.57635000  0.62976000  1.0
  C  C71  1  0.52428000  0.67376000  0.62173000  1.0
  C  C72  1  0.74140000  0.58628000  0.58739000  1.0
  C  C73  1  0.50723000  0.66465000  0.66414000  1.0
  C  C74  1  0.60331000  0.64214000  0.60886000  1.0
  C  C75  1  0.64541000  0.60835000  0.64265000  1.0
  C  C76  1  0.07727000  0.22552000  0.62829000  1.0
  C  C77  1  0.17245000  0.02596000  0.62039000  1.0
  C  C78  1  0.08669000  0.24280000  0.58590000  1.0
  C  C79  1  0.16211000  0.00871000  0.66274000  1.0
  C  C80  1  0.14149000  0.10483000  0.60748000  1.0
  C  C81  1  0.10806000  0.14663000  0.64123000  1.0
  C  C82  1  0.84545000  0.79937000  0.39735000  1.0
  C  C83  1  0.90624000  0.94714000  0.35396000  1.0
  C  C84  1  0.91321000  0.75662000  0.41454000  1.0
  C  C85  1  0.83822000  0.99047000  0.33710000  1.0
  C  C86  1  0.90946000  0.87753000  0.37611000  1.0
  C  C87  1  0.84222000  0.86908000  0.37530000  1.0
  C  C88  1  0.65430000  0.15258000  0.15167000  1.0
  C  C89  1  0.59883000  0.09914000  0.09788000  1.0
  C  C90  1  0.66959000  0.16635000  0.10884000  1.0
  C  C91  1  0.58340000  0.08398000  0.14052000  1.0
  C  C92  1  0.64195000  0.14100000  0.08195000  1.0
  C  C93  1  0.61063000  0.11084000  0.16692000  1.0
  C  C94  1  0.67399000  0.52645000  0.12127000  1.0
  C  C95  1  0.57571000  0.72615000  0.12866000  1.0
  C  C96  1  0.66509000  0.50948000  0.16370000  1.0
  C  C97  1  0.58488000  0.74324000  0.08625000  1.0
  C  C98  1  0.60757000  0.64734000  0.14178000  1.0
  C  C99  1  0.64126000  0.60528000  0.10816000  1.0
  C  C100  1  0.07964000  0.12482000  0.17704000  1.0
  C  C101  1  0.16840000  0.12482000  0.07324000  1.0
  C  C102  1  0.00746000  0.16236000  0.16418000  1.0
  C  C103  1  0.24063000  0.08700000  0.08606000  1.0
  C  C104  1  0.10924000  0.13881000  0.10612000  1.0
  C  C105  1  0.13873000  0.11073000  0.14415000  1.0
  C  C106  1  0.34560000  0.84910000  0.84768000  1.0
  C  C107  1  0.40122000  0.90203000  0.90163000  1.0
  C  C108  1  0.30220000  0.91989000  0.86232000  1.0
  C  C109  1  0.44535000  0.83078000  0.88784000  1.0
  C  C110  1  0.32925000  0.94709000  0.88858000  1.0
  C  C111  1  0.41774000  0.80513000  0.86102000  1.0
  C  C112  1  0.40500000  0.44863000  0.85241000  1.0
  C  C113  1  0.34456000  0.30128000  0.89730000  1.0
  C  C114  1  0.33688000  0.49122000  0.83556000  1.0
  C  C115  1  0.41283000  0.25847000  0.91396000  1.0
  C  C116  1  0.34107000  0.37074000  0.87486000  1.0
  C  C117  1  0.40846000  0.37929000  0.87504000  1.0
  C  C118  1  0.94605000  0.79711000  0.84925000  1.0
  C  C119  1  0.80537000  0.95274000  0.90078000  1.0
  C  C120  1  0.99307000  0.83502000  0.83673000  1.0
  C  C121  1  0.75845000  0.91476000  0.91350000  1.0
  C  C122  1  0.87398000  0.91038000  0.87741000  1.0
  C  C123  1  0.87756000  0.83938000  0.87268000  1.0
  S  S124  1  0.30006000  0.32319000  0.39756000  1.0
  S  S125  1  0.45252000  0.42407000  0.35187000  1.0
  S  S126  1  0.65969000  0.63543000  0.56242000  1.0
  S  S127  1  0.58900000  0.61610000  0.68913000  1.0
  S  S128  1  0.13431000  0.16137000  0.56099000  1.0
  S  S129  1  0.11400000  0.09009000  0.68767000  1.0
  S  S130  1  0.97465000  0.80190000  0.40379000  1.0
  S  S131  1  0.77653000  0.94539000  0.34824000  1.0
  S  S132  1  0.61544000  0.59105000  0.18838000  1.0
  S  S133  1  0.63345000  0.66157000  0.06156000  1.0
  S  S134  1  0.01113000  0.18102000  0.11081000  1.0
  S  S135  1  0.23681000  0.06797000  0.13946000  1.0
  S  S136  1  0.27516000  0.44630000  0.84757000  1.0
  S  S137  1  0.47442000  0.30357000  0.90223000  1.0
  S  S138  1  0.95334000  0.92431000  0.85382000  1.0
  S  S139  1  0.79851000  0.82520000  0.89663000  1.0
  N  N140  1  0.78157000  0.52622000  0.39808000  1.0
  N  N141  1  0.15439000  0.66690000  0.53781000  1.0
  N  N142  1  0.71864000  0.20613000  0.08950000  1.0
  N  N143  1  0.22356000  0.96889000  0.85211000  1.0
  O  O144  1  0.00017000  0.49965000  0.49988000  1.0
  O  O145  1  0.07370000  0.31639000  0.52207000  1.0
  O  O146  1  0.02155000  0.54112000  0.58508000  1.0
  O  O147  1  0.15295000  0.50775000  0.44536000  1.0
  O  O148  1  0.03155000  0.37566000  0.58047000  1.0
  O  O149  1  0.15716000  0.38886000  0.44866000  1.0
  O  O150  1  0.09916000  0.56808000  0.53113000  1.0
  O  O151  1  0.00140000  0.65868000  0.45384000  1.0
  O  O152  1  0.88282000  0.48542000  0.45104000  1.0
  O  O153  1  0.89405000  0.64783000  0.44428000  1.0
  O  O154  1  0.00102000  0.39180000  0.43715000  1.0
  O  O155  1  0.87437000  0.52046000  0.58139000  1.0
  O  O156  1  0.81497000  0.58418000  0.52402000  1.0
  O  O157  1  0.75044000  0.25014000  0.25031000  1.0
  O  O158  1  0.59746000  0.35694000  0.30327000  1.0
  O  O159  1  0.67538000  0.15435000  0.21887000  1.0
  O  O160  1  0.73187000  0.37705000  0.16973000  1.0
  O  O161  1  0.59374000  0.24443000  0.29771000  1.0
  O  O162  1  0.67044000  0.43554000  0.22738000  1.0
  O  O163  1  0.70348000  0.23407000  0.16668000  1.0
  O  O164  1  0.87480000  0.21842000  0.16913000  1.0
  O  O165  1  0.86139000  0.25525000  0.30925000  1.0
  O  O166  1  0.93311000  0.17476000  0.22810000  1.0
  O  O167  1  0.75313000  0.36539000  0.30772000  1.0
  O  O168  1  0.74622000  0.09273000  0.30181000  1.0
  O  O169  1  0.86019000  0.09653000  0.30434000  1.0
  O  O170  1  0.24900000  0.75054000  0.74977000  1.0
  O  O171  1  0.37411000  0.72293000  0.66932000  1.0
  O  O172  1  0.35792000  0.75032000  0.81238000  1.0
  O  O173  1  0.16468000  0.93496000  0.72616000  1.0
  O  O174  1  0.43363000  0.67724000  0.72787000  1.0
  O  O175  1  0.22470000  0.87590000  0.66851000  1.0
  O  O176  1  0.26194000  0.86750000  0.79987000  1.0
  O  O177  1  0.09975000  0.85598000  0.80570000  1.0
  O  O178  1  0.16507000  0.66284000  0.71848000  1.0
  O  O179  1  0.09369000  0.74508000  0.79909000  1.0
  O  O180  1  0.21693000  0.72051000  0.66392000  1.0
  O  O181  1  0.35971000  0.59561000  0.80118000  1.0
  O  O182  1  0.24497000  0.59252000  0.79970000  1.0
  O  O183  1  0.50006000  0.00029000  0.99988000  1.0
  O  O184  1  0.50437000  0.15756000  0.95018000  1.0
  O  O185  1  0.38643000  0.99565000  0.94173000  1.0
  O  O186  1  0.65328000  0.89221000  0.94591000  1.0
  O  O187  1  0.39139000  0.15238000  0.94654000  1.0
  O  O188  1  0.65624000  0.00567000  0.94992000  1.0
  O  O189  1  0.49642000  0.88726000  0.94109000  1.0
  O  O190  1  0.57679000  0.81661000  0.02239000  1.0
  O  O191  1  0.53039000  0.03324000  0.08552000  1.0
  O  O192  1  0.52542000  0.87622000  0.08052000  1.0
  O  O193  1  0.58655000  0.08624000  0.03077000  1.0
  O  O194  1  0.31552000  0.07687000  0.02227000  1.0
  O  O195  1  0.37335000  0.02819000  0.08126000  1.0
  O  O196  1  0.80398000  0.57581000  0.38216000  1.0
  O  O197  1  0.72087000  0.53599000  0.42008000  1.0
  O  O198  1  0.09928000  0.71595000  0.52095000  1.0
  O  O199  1  0.22114000  0.63892000  0.52192000  1.0
  O  O200  1  0.78754000  0.17122000  0.09265000  1.0
  O  O201  1  0.68704000  0.26931000  0.07004000  1.0
  O  O202  1  0.17353000  0.94724000  0.86844000  1.0
  O  O203  1  0.21398000  0.02919000  0.82979000  1.0
  F  F204  1  0.28827000  0.52262000  0.40764000  1.0
  F  F205  1  0.46312000  0.22555000  0.34071000  1.0
  F  F206  1  0.77645000  0.54082000  0.65647000  1.0
  F  F207  1  0.47231000  0.70898000  0.59502000  1.0
  F  F208  1  0.04232000  0.27722000  0.65496000  1.0
  F  F209  1  0.20762000  0.97427000  0.59373000  1.0
  F  F210  1  0.78794000  0.77839000  0.40110000  1.0
  F  F211  1  0.96394000  0.96801000  0.35015000  1.0
  F  F212  1  0.70939000  0.47467000  0.09474000  1.0
  F  F213  1  0.54061000  0.77806000  0.15522000  1.0
  F  F214  1  0.09360000  0.10333000  0.21643000  1.0
  F  F215  1  0.15453000  0.14657000  0.03387000  1.0
  F  F216  1  0.46259000  0.46975000  0.84821000  1.0
  F  F217  1  0.28694000  0.28024000  0.90152000  1.0
  F  F218  1  0.96257000  0.72735000  0.84050000  1.0
  F  F219  1  0.78873000  0.02257000  0.90938000  1.0
