# generated using pymatgen
data_H12PbC14(BrN)2
_symmetry_space_group_name_H-M   'P 1'
_cell_length_a   7.67893000
_cell_length_b   10.54940000
_cell_length_c   10.54970000
_cell_angle_alpha   67.89800000
_cell_angle_beta   72.88040000
_cell_angle_gamma   72.88080000
_symmetry_Int_Tables_number   1
_chemical_formula_structural   H12PbC14(BrN)2
_chemical_formula_sum   'H24 Pb2 C28 Br4 N4'
_cell_volume   740.28081305
_cell_formula_units_Z   2
loop_
 _symmetry_equiv_pos_site_id
 _symmetry_equiv_pos_as_xyz
  1  'x, y, z'
loop_
 _atom_site_type_symbol
 _atom_site_label
 _atom_site_symmetry_multiplicity
 _atom_site_fract_x
 _atom_site_fract_y
 _atom_site_fract_z
 _atom_site_occupancy
  H  H0  1  0.51286000  0.70653000  0.93057000  1.0
  H  H1  1  0.98713000  0.06943000  0.29348000  1.0
  H  H2  1  0.48713000  0.29346000  0.06942000  1.0
  H  H3  1  0.01289000  0.93057000  0.70652000  1.0
  H  H4  1  0.70293000  0.55988000  0.93833000  1.0
  H  H5  1  0.79706000  0.06168000  0.44013000  1.0
  H  H6  1  0.29705000  0.44012000  0.06167000  1.0
  H  H7  1  0.20295000  0.93833000  0.55987000  1.0
  H  H8  1  0.71510000  0.70517000  0.98015000  1.0
  H  H9  1  0.78489000  0.01986000  0.29485000  1.0
  H  H10  1  0.28489000  0.29483000  0.01985000  1.0
  H  H11  1  0.21512000  0.98015000  0.70516000  1.0
  H  H12  1  0.74105000  0.37266000  0.14165000  1.0
  H  H13  1  0.75894000  0.85834000  0.62735000  1.0
  H  H14  1  0.25895000  0.62734000  0.85835000  1.0
  H  H15  1  0.24105000  0.14166000  0.37264000  1.0
  H  H16  1  0.60980000  0.25311000  0.39211000  1.0
  H  H17  1  0.89020000  0.60789000  0.74689000  1.0
  H  H18  1  0.39020000  0.74689000  0.60789000  1.0
  H  H19  1  0.10979000  0.39211000  0.25311000  1.0
  H  H20  1  0.38490000  0.26008000  0.60946000  1.0
  H  H21  1  0.11511000  0.39054000  0.73992000  1.0
  H  H22  1  0.61511000  0.73993000  0.39054000  1.0
  H  H23  1  0.88489000  0.60947000  0.26008000  1.0
  Pb  Pb24  1  0.24999000  0.90406000  0.09595000  1.0
  Pb  Pb25  1  0.75001000  0.09594000  0.90405000  1.0
  C  C26  1  0.62175000  0.63923000  0.98859000  1.0
  C  C27  1  0.87824000  0.01142000  0.36077000  1.0
  C  C28  1  0.37824000  0.36076000  0.01141000  1.0
  C  C29  1  0.12177000  0.98859000  0.63923000  1.0
  C  C30  1  0.54382000  0.56884000  0.13842000  1.0
  C  C31  1  0.95617000  0.86158000  0.43117000  1.0
  C  C32  1  0.45617000  0.43116000  0.86158000  1.0
  C  C33  1  0.04383000  0.13842000  0.56883000  1.0
  C  C34  1  0.62417000  0.42785000  0.20254000  1.0
  C  C35  1  0.87583000  0.79746000  0.57216000  1.0
  C  C36  1  0.37583000  0.57215000  0.79746000  1.0
  C  C37  1  0.12416000  0.20254000  0.42784000  1.0
  C  C38  1  0.55227000  0.36200000  0.34000000  1.0
  C  C39  1  0.94773000  0.66000000  0.63801000  1.0
  C  C40  1  0.44773000  0.63800000  0.66000000  1.0
  C  C41  1  0.05227000  0.34001000  0.36199000  1.0
  C  C42  1  0.40099000  0.43531000  0.41625000  1.0
  C  C43  1  0.09901000  0.58375000  0.56469000  1.0
  C  C44  1  0.59901000  0.56469000  0.58375000  1.0
  C  C45  1  0.90099000  0.41626000  0.43531000  1.0
  C  C46  1  0.32759000  0.57749000  0.34563000  1.0
  C  C47  1  0.17240000  0.65437000  0.42250000  1.0
  C  C48  1  0.67241000  0.42250000  0.65436000  1.0
  C  C49  1  0.82760000  0.34563000  0.57750000  1.0
  C  C50  1  0.32366000  0.36896000  0.55909000  1.0
  C  C51  1  0.17635000  0.44091000  0.63104000  1.0
  C  C52  1  0.67634000  0.63104000  0.44091000  1.0
  C  C53  1  0.82365000  0.55910000  0.36896000  1.0
  Br  Br54  1  0.49279000  0.99135000  0.21086000  1.0
  Br  Br55  1  0.00724000  0.78914000  0.00865000  1.0
  Br  Br56  1  0.50721000  0.00865000  0.78914000  1.0
  Br  Br57  1  0.99277000  0.21086000  0.99136000  1.0
  N  N58  1  0.40004000  0.64073000  0.20888000  1.0
  N  N59  1  0.09996000  0.79113000  0.35927000  1.0
  N  N60  1  0.59997000  0.35926000  0.79112000  1.0
  N  N61  1  0.90004000  0.20887000  0.64073000  1.0
