# generated using pymatgen
data_Ag2H3C6SClO4
_symmetry_space_group_name_H-M   'P 1'
_cell_length_a   6.09094000
_cell_length_b   11.75600000
_cell_length_c   11.82340000
_cell_angle_alpha   89.99930000
_cell_angle_beta   88.53670000
_cell_angle_gamma   89.99880000
_symmetry_Int_Tables_number   1
_chemical_formula_structural   Ag2H3C6SClO4
_chemical_formula_sum   'Ag8 H12 C24 S4 Cl4 O16'
_cell_volume   846.33953622
_cell_formula_units_Z   4
loop_
 _symmetry_equiv_pos_site_id
 _symmetry_equiv_pos_as_xyz
  1  'x, y, z'
loop_
 _atom_site_type_symbol
 _atom_site_label
 _atom_site_symmetry_multiplicity
 _atom_site_fract_x
 _atom_site_fract_y
 _atom_site_fract_z
 _atom_site_occupancy
  Ag  Ag0  1  0.78682000  0.85961000  0.47178000  1.0
  Ag  Ag1  1  0.71319000  0.35961000  0.52822000  1.0
  Ag  Ag2  1  0.21322000  0.14038000  0.52822000  1.0
  Ag  Ag3  1  0.28682000  0.64038000  0.47178000  1.0
  Ag  Ag4  1  0.88785000  0.65006000  0.64562000  1.0
  Ag  Ag5  1  0.61217000  0.15005000  0.35437000  1.0
  Ag  Ag6  1  0.11216000  0.34995000  0.35437000  1.0
  Ag  Ag7  1  0.38782000  0.84994000  0.64562000  1.0
  H  H8  1  0.41950000  0.27065000  0.18698000  1.0
  H  H9  1  0.08050000  0.77064000  0.81303000  1.0
  H  H10  1  0.58049000  0.72935000  0.81301000  1.0
  H  H11  1  0.91951000  0.22935000  0.18698000  1.0
  H  H12  1  0.20019000  0.39495000  0.06219000  1.0
  H  H13  1  0.29978000  0.89495000  0.93781000  1.0
  H  H14  1  0.79979000  0.60505000  0.93782000  1.0
  H  H15  1  0.70022000  0.10505000  0.06218000  1.0
  H  H16  1  0.52754000  0.68905000  0.19456000  1.0
  H  H17  1  0.97245000  0.18905000  0.80544000  1.0
  H  H18  1  0.47247000  0.31096000  0.80544000  1.0
  H  H19  1  0.02755000  0.81096000  0.19456000  1.0
  C  C20  1  0.62181000  0.52795000  0.26447000  1.0
  C  C21  1  0.87818000  0.02795000  0.73553000  1.0
  C  C22  1  0.37820000  0.47205000  0.73553000  1.0
  C  C23  1  0.12182000  0.97205000  0.26448000  1.0
  C  C24  1  0.59257000  0.40783000  0.26701000  1.0
  C  C25  1  0.90744000  0.90784000  0.73298000  1.0
  C  C26  1  0.40742000  0.59217000  0.73299000  1.0
  C  C27  1  0.09256000  0.09216000  0.26701000  1.0
  C  C28  1  0.43658000  0.36305000  0.19163000  1.0
  C  C29  1  0.06339000  0.86304000  0.80838000  1.0
  C  C30  1  0.56341000  0.63695000  0.80837000  1.0
  C  C31  1  0.93661000  0.13696000  0.19163000  1.0
  C  C32  1  0.31696000  0.43228000  0.11972000  1.0
  C  C33  1  0.18301000  0.93227000  0.88027000  1.0
  C  C34  1  0.68302000  0.56772000  0.88028000  1.0
  C  C35  1  0.81698000  0.06773000  0.11972000  1.0
  C  C36  1  0.34910000  0.54979000  0.12167000  1.0
  C  C37  1  0.15087000  0.04978000  0.87834000  1.0
  C  C38  1  0.65088000  0.45021000  0.87833000  1.0
  C  C39  1  0.84913000  0.95022000  0.12167000  1.0
  C  C40  1  0.50311000  0.59762000  0.19213000  1.0
  C  C41  1  0.99688000  0.09761000  0.80787000  1.0
  C  C42  1  0.49688000  0.40239000  0.80787000  1.0
  C  C43  1  0.00313000  0.90239000  0.19214000  1.0
  S  S44  1  0.79731000  0.59664000  0.36004000  1.0
  S  S45  1  0.70270000  0.09664000  0.63995000  1.0
  S  S46  1  0.20270000  0.40335000  0.63995000  1.0
  S  S47  1  0.29731000  0.90336000  0.36005000  1.0
  Cl  Cl48  1  0.19127000  0.63839000  0.03894000  1.0
  Cl  Cl49  1  0.30873000  0.13838000  0.96106000  1.0
  Cl  Cl50  1  0.80871000  0.36162000  0.96106000  1.0
  Cl  Cl51  1  0.69127000  0.86161000  0.03895000  1.0
  O  O52  1  0.79588000  0.71790000  0.33147000  1.0
  O  O53  1  0.70411000  0.21790000  0.66853000  1.0
  O  O54  1  0.20411000  0.28209000  0.66853000  1.0
  O  O55  1  0.29589000  0.78209000  0.33147000  1.0
  O  O56  1  0.69849000  0.57560000  0.47526000  1.0
  O  O57  1  0.80153000  0.07560000  0.52474000  1.0
  O  O58  1  0.30155000  0.42439000  0.52474000  1.0
  O  O59  1  0.19847000  0.92440000  0.47526000  1.0
  O  O60  1  0.01955000  0.54579000  0.34769000  1.0
  O  O61  1  0.48046000  0.04579000  0.65231000  1.0
  O  O62  1  0.98045000  0.45421000  0.65230000  1.0
  O  O63  1  0.51955000  0.95421000  0.34770000  1.0
  O  O64  1  0.70496000  0.33924000  0.33364000  1.0
  O  O65  1  0.79503000  0.83924000  0.66635000  1.0
  O  O66  1  0.29504000  0.66076000  0.66635000  1.0
  O  O67  1  0.20495000  0.16077000  0.33365000  1.0
