# generated using pymatgen
data_ZnH10C12(NO)4
_symmetry_space_group_name_H-M   'P 1'
_cell_length_a   8.42887000
_cell_length_b   14.37460000
_cell_length_c   15.52300000
_cell_angle_alpha   90.00010000
_cell_angle_beta   90.00030000
_cell_angle_gamma   89.99990000
_symmetry_Int_Tables_number   1
_chemical_formula_structural   ZnH10C12(NO)4
_chemical_formula_sum   'Zn4 H40 C48 N16 O16'
_cell_volume   1880.79205545
_cell_formula_units_Z   4
loop_
 _symmetry_equiv_pos_site_id
 _symmetry_equiv_pos_as_xyz
  1  'x, y, z'
loop_
 _atom_site_type_symbol
 _atom_site_label
 _atom_site_symmetry_multiplicity
 _atom_site_fract_x
 _atom_site_fract_y
 _atom_site_fract_z
 _atom_site_occupancy
  Zn  Zn0  1  0.21486000  0.24613000  0.17995000  1.0
  Zn  Zn1  1  0.21486000  0.75387000  0.82005000  1.0
  Zn  Zn2  1  0.78514000  0.25387000  0.67995000  1.0
  Zn  Zn3  1  0.78514000  0.74613000  0.32005000  1.0
  H  H4  1  0.60549000  0.07960000  0.23956000  1.0
  H  H5  1  0.60549000  0.92040000  0.76043000  1.0
  H  H6  1  0.39451000  0.42040000  0.73957000  1.0
  H  H7  1  0.39451000  0.57960000  0.26043000  1.0
  H  H8  1  0.23312000  0.87772000  0.27590000  1.0
  H  H9  1  0.23312000  0.12228000  0.72410000  1.0
  H  H10  1  0.76688000  0.62227000  0.77590000  1.0
  H  H11  1  0.76688000  0.37772000  0.22410000  1.0
  H  H12  1  0.44517000  0.75841000  0.30337000  1.0
  H  H13  1  0.44517000  0.24159000  0.69663000  1.0
  H  H14  1  0.55483000  0.74159000  0.80337000  1.0
  H  H15  1  0.55483000  0.25841000  0.19663000  1.0
  H  H16  1  0.93721000  0.16225000  0.89324000  1.0
  H  H17  1  0.93722000  0.83776000  0.10677000  1.0
  H  H18  1  0.06279000  0.33775000  0.39324000  1.0
  H  H19  1  0.06279000  0.66225000  0.60676000  1.0
  H  H20  1  0.29757000  0.37431000  0.88088000  1.0
  H  H21  1  0.29758000  0.62569000  0.11912000  1.0
  H  H22  1  0.70243000  0.12569000  0.38088000  1.0
  H  H23  1  0.70242000  0.87431000  0.61912000  1.0
  H  H24  1  0.32883000  0.35817000  0.04084000  1.0
  H  H25  1  0.32884000  0.64183000  0.95916000  1.0
  H  H26  1  0.67116000  0.14183000  0.54084000  1.0
  H  H27  1  0.67116000  0.85817000  0.45916000  1.0
  H  H28  1  0.91889000  0.91009000  0.27235000  1.0
  H  H29  1  0.91889000  0.08991000  0.72765000  1.0
  H  H30  1  0.08111000  0.58991000  0.77235000  1.0
  H  H31  1  0.08111000  0.41009000  0.22765000  1.0
  H  H32  1  0.87155000  0.02700000  0.26084000  1.0
  H  H33  1  0.87154000  0.97300000  0.73916000  1.0
  H  H34  1  0.12845000  0.47300000  0.76084000  1.0
  H  H35  1  0.12846000  0.52700000  0.23916000  1.0
  H  H36  1  0.94144000  0.15139000  0.12820000  1.0
  H  H37  1  0.94144000  0.84861000  0.87180000  1.0
  H  H38  1  0.05856000  0.34861000  0.62820000  1.0
  H  H39  1  0.05857000  0.65139000  0.37180000  1.0
  H  H40  1  0.87212000  0.10719000  0.03236000  1.0
  H  H41  1  0.87213000  0.89281000  0.96764000  1.0
  H  H42  1  0.12787000  0.39281000  0.53236000  1.0
  H  H43  1  0.12788000  0.60720000  0.46764000  1.0
  C  C44  1  0.67955000  0.94023000  0.27373000  1.0
  C  C45  1  0.67955000  0.05977000  0.72627000  1.0
  C  C46  1  0.32045000  0.55977000  0.77373000  1.0
  C  C47  1  0.32045000  0.44023000  0.22627000  1.0
  C  C48  1  0.56537000  0.00972000  0.25524000  1.0
  C  C49  1  0.56537000  0.99027000  0.74476000  1.0
  C  C50  1  0.43463000  0.49027000  0.75524000  1.0
  C  C51  1  0.43463000  0.50973000  0.24476000  1.0
  C  C52  1  0.40582000  0.98789000  0.25570000  1.0
  C  C53  1  0.40582000  0.01211000  0.74430000  1.0
  C  C54  1  0.59418000  0.51210000  0.75570000  1.0
  C  C55  1  0.59418000  0.48789000  0.24430000  1.0
  C  C56  1  0.35811000  0.89613000  0.27466000  1.0
  C  C57  1  0.35811000  0.10386000  0.72534000  1.0
  C  C58  1  0.64189000  0.60386000  0.77466000  1.0
  C  C59  1  0.64189000  0.39614000  0.22534000  1.0
  C  C60  1  0.47444000  0.83102000  0.29079000  1.0
  C  C61  1  0.47444000  0.16898000  0.70921000  1.0
  C  C62  1  0.52556000  0.66898000  0.79079000  1.0
  C  C63  1  0.52556000  0.33102000  0.20921000  1.0
  C  C64  1  0.28400000  0.06168000  0.23465000  1.0
  C  C65  1  0.28400000  0.93832000  0.76535000  1.0
  C  C66  1  0.71600000  0.43832000  0.73465000  1.0
  C  C67  1  0.71600000  0.56168000  0.26535000  1.0
  C  C68  1  0.04745000  0.20082000  0.01473000  1.0
  C  C69  1  0.04745000  0.79919000  0.98527000  1.0
  C  C70  1  0.95255000  0.29919000  0.51473000  1.0
  C  C71  1  0.95255000  0.70082000  0.48527000  1.0
  C  C72  1  0.02574000  0.20594000  0.92450000  1.0
  C  C73  1  0.02575000  0.79406000  0.07551000  1.0
  C  C74  1  0.97426000  0.29406000  0.42449000  1.0
  C  C75  1  0.97426000  0.70594000  0.57550000  1.0
  C  C76  1  0.11368000  0.26793000  0.87597000  1.0
  C  C77  1  0.11369000  0.73207000  0.12403000  1.0
  C  C78  1  0.88632000  0.23207000  0.37597000  1.0
  C  C79  1  0.88631000  0.76793000  0.62403000  1.0
  C  C80  1  0.22678000  0.32474000  0.91718000  1.0
  C  C81  1  0.22679000  0.67526000  0.08282000  1.0
  C  C82  1  0.77322000  0.17527000  0.41718000  1.0
  C  C83  1  0.77322000  0.82474000  0.58282000  1.0
  C  C84  1  0.24384000  0.31592000  0.00510000  1.0
  C  C85  1  0.24385000  0.68408000  0.99490000  1.0
  C  C86  1  0.75615000  0.18408000  0.50510000  1.0
  C  C87  1  0.75615000  0.81592000  0.49490000  1.0
  C  C88  1  0.08060000  0.27708000  0.78087000  1.0
  C  C89  1  0.08061000  0.72292000  0.21913000  1.0
  C  C90  1  0.91939000  0.22291000  0.28087000  1.0
  C  C91  1  0.91939000  0.77709000  0.71913000  1.0
  N  N92  1  0.63217000  0.85151000  0.29137000  1.0
  N  N93  1  0.63217000  0.14849000  0.70863000  1.0
  N  N94  1  0.36783000  0.64849000  0.79137000  1.0
  N  N95  1  0.36783000  0.35151000  0.20863000  1.0
  N  N96  1  0.83548000  0.96109000  0.27494000  1.0
  N  N97  1  0.83547000  0.03891000  0.72506000  1.0
  N  N98  1  0.16452000  0.53891000  0.77494000  1.0
  N  N99  1  0.16452000  0.46109000  0.22506000  1.0
  N  N100  1  0.15795000  0.25553000  0.05363000  1.0
  N  N101  1  0.15796000  0.74447000  0.94637000  1.0
  N  N102  1  0.84204000  0.24447000  0.55363000  1.0
  N  N103  1  0.84204000  0.75553000  0.44637000  1.0
  N  N104  1  0.96075000  0.14110000  0.06318000  1.0
  N  N105  1  0.96076000  0.85890000  0.93682000  1.0
  N  N106  1  0.03924000  0.35890000  0.56318000  1.0
  N  N107  1  0.03925000  0.64110000  0.43682000  1.0
  O  O108  1  0.14025000  0.04517000  0.24354000  1.0
  O  O109  1  0.14024000  0.95483000  0.75645000  1.0
  O  O110  1  0.85975000  0.45482000  0.74355000  1.0
  O  O111  1  0.85975000  0.54517000  0.25645000  1.0
  O  O112  1  0.34547000  0.13957000  0.20779000  1.0
  O  O113  1  0.34547000  0.86043000  0.79221000  1.0
  O  O114  1  0.65452000  0.36043000  0.70779000  1.0
  O  O115  1  0.65453000  0.63957000  0.29221000  1.0
  O  O116  1  0.96976000  0.22301000  0.75223000  1.0
  O  O117  1  0.96976000  0.77698000  0.24777000  1.0
  O  O118  1  0.03024000  0.27698000  0.25223000  1.0
  O  O119  1  0.03025000  0.72302000  0.74777000  1.0
  O  O120  1  0.15721000  0.33398000  0.73632000  1.0
  O  O121  1  0.15722000  0.66602000  0.26368000  1.0
  O  O122  1  0.84279000  0.16601000  0.23632000  1.0
  O  O123  1  0.84278000  0.83398000  0.76368000  1.0
