# generated using pymatgen
data_Cu2H7C9N3Cl2
_symmetry_space_group_name_H-M   'P 1'
_cell_length_a   8.22010000
_cell_length_b   8.32264000
_cell_length_c   8.36725000
_cell_angle_alpha   73.24470000
_cell_angle_beta   76.40300000
_cell_angle_gamma   75.99110000
_symmetry_Int_Tables_number   1
_chemical_formula_structural   Cu2H7C9N3Cl2
_chemical_formula_sum   'Cu4 H14 C18 N6 Cl4'
_cell_volume   523.33734510
_cell_formula_units_Z   2
loop_
 _symmetry_equiv_pos_site_id
 _symmetry_equiv_pos_as_xyz
  1  'x, y, z'
loop_
 _atom_site_type_symbol
 _atom_site_label
 _atom_site_symmetry_multiplicity
 _atom_site_fract_x
 _atom_site_fract_y
 _atom_site_fract_z
 _atom_site_occupancy
  Cu  Cu0  1  0.72353000  0.13922000  0.71816000  1.0
  Cu  Cu1  1  0.27646000  0.86079000  0.28182000  1.0
  Cu  Cu2  1  0.92253000  0.12681000  0.07621000  1.0
  Cu  Cu3  1  0.07747000  0.87319000  0.92379000  1.0
  H  H4  1  0.95518000  0.36751000  0.44043000  1.0
  H  H5  1  0.04481000  0.63250000  0.55959000  1.0
  H  H6  1  0.91989000  0.57432000  0.16361000  1.0
  H  H7  1  0.08013000  0.42569000  0.83640000  1.0
  H  H8  1  0.64930000  0.61598000  0.05318000  1.0
  H  H9  1  0.35070000  0.38402000  0.94682000  1.0
  H  H10  1  0.42476000  0.45232000  0.22751000  1.0
  H  H11  1  0.57525000  0.54768000  0.77248000  1.0
  H  H12  1  0.40655000  0.95964000  0.91728000  1.0
  H  H13  1  0.59345000  0.04035000  0.08272000  1.0
  H  H14  1  0.07982000  0.08309000  0.57167000  1.0
  H  H15  1  0.92019000  0.91691000  0.42833000  1.0
  H  H16  1  0.27570000  0.26084000  0.35748000  1.0
  H  H17  1  0.72431000  0.73915000  0.64252000  1.0
  C  C18  1  0.84046000  0.38668000  0.38818000  1.0
  C  C19  1  0.15954000  0.61333000  0.61182000  1.0
  C  C20  1  0.81964000  0.50284000  0.23374000  1.0
  C  C21  1  0.18037000  0.49716000  0.76626000  1.0
  C  C22  1  0.66961000  0.52484000  0.17279000  1.0
  C  C23  1  0.33040000  0.47515000  0.82721000  1.0
  C  C24  1  0.54566000  0.43126000  0.26925000  1.0
  C  C25  1  0.45435000  0.56874000  0.73074000  1.0
  C  C26  1  0.57612000  0.31532000  0.42237000  1.0
  C  C27  1  0.42387000  0.68468000  0.57762000  1.0
  C  C28  1  0.45134000  0.21366000  0.53225000  1.0
  C  C29  1  0.54866000  0.78635000  0.46774000  1.0
  C  C30  1  0.37688000  0.03115000  0.79286000  1.0
  C  C31  1  0.62310000  0.96885000  0.20714000  1.0
  C  C32  1  0.19693000  0.09902000  0.60019000  1.0
  C  C33  1  0.80307000  0.90099000  0.39982000  1.0
  C  C34  1  0.30498000  0.19902000  0.48369000  1.0
  C  C35  1  0.69502000  0.80097000  0.51631000  1.0
  N  N36  1  0.72417000  0.29111000  0.48039000  1.0
  N  N37  1  0.27583000  0.70888000  0.51961000  1.0
  N  N38  1  0.48577000  0.12859000  0.69026000  1.0
  N  N39  1  0.51424000  0.87142000  0.30975000  1.0
  N  N40  1  0.23243000  0.01415000  0.75621000  1.0
  N  N41  1  0.76756000  0.98585000  0.24380000  1.0
  Cl  Cl42  1  0.82047000  0.29905000  0.84822000  1.0
  Cl  Cl43  1  0.17953000  0.70093000  0.15177000  1.0
  Cl  Cl44  1  0.83992000  0.86439000  0.84026000  1.0
  Cl  Cl45  1  0.16007000  0.13562000  0.15973000  1.0
