# generated using pymatgen
data_Ni3P4H34C34(N4O7)2
_symmetry_space_group_name_H-M   'P 1'
_cell_length_a   8.84662000
_cell_length_b   10.58600000
_cell_length_c   15.22720000
_cell_angle_alpha   76.71990000
_cell_angle_beta   78.19710000
_cell_angle_gamma   80.03850000
_symmetry_Int_Tables_number   1
_chemical_formula_structural   Ni3P4H34C34(N4O7)2
_chemical_formula_sum   'Ni3 P4 H34 C34 N8 O14'
_cell_volume   1346.61944315
_cell_formula_units_Z   1
loop_
 _symmetry_equiv_pos_site_id
 _symmetry_equiv_pos_as_xyz
  1  'x, y, z'
loop_
 _atom_site_type_symbol
 _atom_site_label
 _atom_site_symmetry_multiplicity
 _atom_site_fract_x
 _atom_site_fract_y
 _atom_site_fract_z
 _atom_site_occupancy
  Ni  Ni0  1  0.80488000  0.92595000  0.62899000  1.0
  Ni  Ni1  1  0.19513000  0.07405000  0.37101000  1.0
  Ni  Ni2  1  0.00001000  0.50000000  0.50000000  1.0
  P  P3  1  0.71484000  0.72758000  0.53797000  1.0
  P  P4  1  0.03530000  0.81364000  0.46948000  1.0
  P  P5  1  0.28517000  0.27243000  0.46203000  1.0
  P  P6  1  0.96470000  0.18636000  0.53052000  1.0
  H  H7  1  0.87345000  0.95897000  0.32024000  1.0
  H  H8  1  0.87528000  0.78869000  0.32876000  1.0
  H  H9  1  0.56153000  0.07664000  0.38330000  1.0
  H  H10  1  0.34656000  0.82977000  0.27972000  1.0
  H  H11  1  0.65837000  0.72410000  0.28342000  1.0
  H  H12  1  0.50294000  0.73623000  0.48116000  1.0
  H  H13  1  0.84386000  0.04191000  0.46235000  1.0
  H  H14  1  0.80460000  0.41736000  0.39488000  1.0
  H  H15  1  0.75292000  0.47470000  0.23317000  1.0
  H  H16  1  0.15633000  0.68219000  0.16023000  1.0
  H  H17  1  0.18914000  0.61372000  0.32501000  1.0
  H  H18  1  0.83349000  0.57233000  0.07335000  1.0
  H  H19  1  0.02908000  0.79664000  0.04682000  1.0
  H  H20  1  0.97677000  0.97371000  0.91780000  1.0
  H  H21  1  0.90525000  0.04386000  0.76062000  1.0
  H  H22  1  0.80541000  0.67694000  0.76401000  1.0
  H  H23  1  0.86202000  0.59085000  0.92282000  1.0
  H  H24  1  0.12655000  0.04103000  0.67976000  1.0
  H  H25  1  0.12473000  0.21131000  0.67124000  1.0
  H  H26  1  0.43848000  0.92336000  0.61670000  1.0
  H  H27  1  0.65345000  0.17025000  0.72027000  1.0
  H  H28  1  0.34163000  0.27591000  0.71657000  1.0
  H  H29  1  0.49706000  0.26378000  0.51884000  1.0
  H  H30  1  0.15614000  0.95810000  0.53764000  1.0
  H  H31  1  0.19541000  0.58265000  0.60512000  1.0
  H  H32  1  0.24707000  0.52529000  0.76684000  1.0
  H  H33  1  0.84366000  0.31782000  0.83978000  1.0
  H  H34  1  0.81086000  0.38628000  0.67500000  1.0
  H  H35  1  0.16651000  0.42765000  0.92666000  1.0
  H  H36  1  0.97091000  0.20336000  0.95318000  1.0
  H  H37  1  0.02325000  0.02628000  0.08220000  1.0
  H  H38  1  0.09477000  0.95614000  0.23938000  1.0
  H  H39  1  0.19457000  0.32306000  0.23598000  1.0
  H  H40  1  0.13794000  0.40915000  0.07718000  1.0
  C  C41  1  0.82374000  0.85394000  0.45751000  1.0
  C  C42  1  0.81379000  0.87428000  0.35619000  1.0
  C  C43  1  0.54447000  0.99862000  0.35240000  1.0
  C  C44  1  0.43881000  0.86677000  0.29913000  1.0
  C  C45  1  0.59083000  0.81254000  0.30202000  1.0
  C  C46  1  0.87755000  0.47652000  0.34002000  1.0
  C  C47  1  0.85041000  0.50927000  0.25030000  1.0
  C  C48  1  0.94633000  0.58886000  0.18278000  1.0
  C  C49  1  0.07323000  0.62525000  0.20971000  1.0
  C  C50  1  0.09439000  0.58661000  0.30032000  1.0
  C  C51  1  0.91151000  0.62945000  0.09027000  1.0
  C  C52  1  0.96053000  0.73382000  0.02757000  1.0
  C  C53  1  0.92338000  0.77549000  0.93565000  1.0
  C  C54  1  0.93738000  0.90434000  0.88711000  1.0
  C  C55  1  0.89946000  0.94436000  0.80003000  1.0
  C  C56  1  0.84154000  0.73863000  0.80219000  1.0
  C  C57  1  0.87266000  0.69272000  0.89046000  1.0
  C  C58  1  0.17626000  0.14606000  0.54249000  1.0
  C  C59  1  0.18622000  0.12572000  0.64381000  1.0
  C  C60  1  0.45553000  0.00138000  0.64760000  1.0
  C  C61  1  0.56120000  0.13324000  0.70085000  1.0
  C  C62  1  0.40918000  0.18747000  0.69797000  1.0
  C  C63  1  0.12246000  0.52349000  0.65999000  1.0
  C  C64  1  0.14959000  0.49071000  0.74970000  1.0
  C  C65  1  0.05367000  0.41113000  0.81723000  1.0
  C  C66  1  0.92676000  0.37475000  0.79029000  1.0
  C  C67  1  0.90560000  0.41339000  0.69968000  1.0
  C  C68  1  0.08847000  0.37054000  0.90973000  1.0
  C  C69  1  0.03946000  0.26618000  0.97243000  1.0
  C  C70  1  0.07660000  0.22450000  0.06435000  1.0
  C  C71  1  0.06263000  0.09565000  0.11290000  1.0
  C  C72  1  0.10055000  0.05563000  0.19997000  1.0
  C  C73  1  0.15844000  0.26137000  0.19781000  1.0
  C  C74  1  0.12731000  0.30729000  0.10954000  1.0
  N  N75  1  0.65625000  0.89724000  0.33571000  1.0
  N  N76  1  0.41156000  0.98217000  0.33090000  1.0
  N  N77  1  0.99603000  0.51629000  0.36490000  1.0
  N  N78  1  0.85447000  0.86284000  0.75702000  1.0
  N  N79  1  0.34375000  0.10276000  0.66429000  1.0
  N  N80  1  0.58844000  0.01784000  0.66910000  1.0
  N  N81  1  0.00396000  0.48372000  0.63509000  1.0
  N  N82  1  0.14554000  0.13716000  0.24298000  1.0
  O  O83  1  0.76911000  0.59629000  0.51082000  1.0
  O  O84  1  0.72680000  0.74790000  0.63165000  1.0
  O  O85  1  0.53161000  0.76651000  0.53076000  1.0
  O  O86  1  0.09355000  0.67010000  0.46896000  1.0
  O  O87  1  0.03735000  0.85573000  0.56044000  1.0
  O  O88  1  0.11753000  0.90094000  0.38448000  1.0
  O  O89  1  0.76589000  0.97469000  0.48978000  1.0
  O  O90  1  0.23089000  0.40372000  0.48918000  1.0
  O  O91  1  0.27322000  0.25211000  0.36835000  1.0
  O  O92  1  0.46839000  0.23349000  0.46924000  1.0
  O  O93  1  0.90646000  0.32989000  0.53105000  1.0
  O  O94  1  0.96265000  0.14427000  0.43956000  1.0
  O  O95  1  0.88247000  0.09906000  0.61552000  1.0
  O  O96  1  0.23411000  0.02531000  0.51022000  1.0
