# generated using pymatgen
data_AgH3C3(N2O)2
_symmetry_space_group_name_H-M   'P 1'
_cell_length_a   5.25714000
_cell_length_b   7.50773000
_cell_length_c   8.26537000
_cell_angle_alpha   110.26100000
_cell_angle_beta   102.38400000
_cell_angle_gamma   104.05600000
_symmetry_Int_Tables_number   1
_chemical_formula_structural   AgH3C3(N2O)2
_chemical_formula_sum   'Ag2 H6 C6 N8 O4'
_cell_volume   280.44619917
_cell_formula_units_Z   2
loop_
 _symmetry_equiv_pos_site_id
 _symmetry_equiv_pos_as_xyz
  1  'x, y, z'
loop_
 _atom_site_type_symbol
 _atom_site_label
 _atom_site_symmetry_multiplicity
 _atom_site_fract_x
 _atom_site_fract_y
 _atom_site_fract_z
 _atom_site_occupancy
  Ag  Ag0  1  0.60308000  0.82988000  0.96137000  1.0
  Ag  Ag1  1  0.39693000  0.17012000  0.03863000  1.0
  H  H2  1  0.14188000  0.17967000  0.58829000  1.0
  H  H3  1  0.85812000  0.82033000  0.41170000  1.0
  H  H4  1  0.19419000  0.41155000  0.56301000  1.0
  H  H5  1  0.80581000  0.58845000  0.43699000  1.0
  H  H6  1  0.77013000  0.08976000  0.75185000  1.0
  H  H7  1  0.22988000  0.91024000  0.24815000  1.0
  C  C8  1  0.83408000  0.16814000  0.35625000  1.0
  C  C9  1  0.16592000  0.83186000  0.64375000  1.0
  C  C10  1  0.03783000  0.27712000  0.55266000  1.0
  C  C11  1  0.96217000  0.72288000  0.44734000  1.0
  C  C12  1  0.77301000  0.24028000  0.76782000  1.0
  C  C13  1  0.22698000  0.75972000  0.23218000  1.0
  N  N14  1  0.90099000  0.34324000  0.68577000  1.0
  N  N15  1  0.09901000  0.65676000  0.31424000  1.0
  N  N16  1  0.86556000  0.52371000  0.73502000  1.0
  N  N17  1  0.13444000  0.47629000  0.26498000  1.0
  N  N18  1  0.72267000  0.52978000  0.84613000  1.0
  N  N19  1  0.27733000  0.47022000  0.15387000  1.0
  N  N20  1  0.66058000  0.35511000  0.86985000  1.0
  N  N21  1  0.33942000  0.64489000  0.13015000  1.0
  O  O22  1  0.90348000  0.03958000  0.24541000  1.0
  O  O23  1  0.09652000  0.96042000  0.75459000  1.0
  O  O24  1  0.62184000  0.21822000  0.32451000  1.0
  O  O25  1  0.37816000  0.78178000  0.67549000  1.0
