# generated using pymatgen
data_Ni2H21C22N15O2
_symmetry_space_group_name_H-M   'P 1'
_cell_length_a   8.23358000
_cell_length_b   11.19410000
_cell_length_c   15.23580000
_cell_angle_alpha   94.14390000
_cell_angle_beta   98.13300000
_cell_angle_gamma   103.18600000
_symmetry_Int_Tables_number   1
_chemical_formula_structural   Ni2H21C22N15O2
_chemical_formula_sum   'Ni4 H42 C44 N30 O4'
_cell_volume   1345.48782172
_cell_formula_units_Z   2
loop_
 _symmetry_equiv_pos_site_id
 _symmetry_equiv_pos_as_xyz
  1  'x, y, z'
loop_
 _atom_site_type_symbol
 _atom_site_label
 _atom_site_symmetry_multiplicity
 _atom_site_fract_x
 _atom_site_fract_y
 _atom_site_fract_z
 _atom_site_occupancy
  Ni  Ni0  1  0.41150000  0.15846000  0.71798000  1.0
  Ni  Ni1  1  0.59077000  0.84203000  0.28236000  1.0
  Ni  Ni2  1  0.13720000  0.24562000  0.82362000  1.0
  Ni  Ni3  1  0.85628000  0.75085000  0.17540000  1.0
  H  H4  1  0.77825000  0.19750000  0.99376000  1.0
  H  H5  1  0.21899000  0.80076000  0.00654000  1.0
  H  H6  1  0.69003000  0.98940000  0.98393000  1.0
  H  H7  1  0.30910000  0.00841000  0.01753000  1.0
  H  H8  1  0.11890000  0.89086000  0.51273000  1.0
  H  H9  1  0.88203000  0.11346000  0.48775000  1.0
  H  H10  1  0.34783000  0.76355000  0.85538000  1.0
  H  H11  1  0.66056000  0.24355000  0.14498000  1.0
  H  H12  1  0.47625000  0.98151000  0.83617000  1.0
  H  H13  1  0.53069000  0.02553000  0.16300000  1.0
  H  H14  1  0.07862000  0.98168000  0.76924000  1.0
  H  H15  1  0.91776000  0.01633000  0.23073000  1.0
  H  H16  1  0.05622000  0.73369000  0.59096000  1.0
  H  H17  1  0.94884000  0.27100000  0.41010000  1.0
  H  H18  1  0.88693000  0.78238000  0.79161000  1.0
  H  H19  1  0.11103000  0.21533000  0.20931000  1.0
  H  H20  1  0.68442000  0.78766000  0.90252000  1.0
  H  H21  1  0.31471000  0.20999000  0.09896000  1.0
  H  H22  1  0.38309000  0.58300000  0.08299000  1.0
  H  H23  1  0.61604000  0.41500000  0.91495000  1.0
  H  H24  1  0.89513000  0.35430000  0.10320000  1.0
  H  H25  1  0.10450000  0.64529000  0.89712000  1.0
  H  H26  1  0.60325000  0.30163000  0.59657000  1.0
  H  H27  1  0.40276000  0.69959000  0.40361000  1.0
  H  H28  1  0.37405000  0.45066000  0.94147000  1.0
  H  H29  1  0.62185000  0.54708000  0.05608000  1.0
  H  H30  1  0.12340000  0.63623000  0.73043000  1.0
  H  H31  1  0.88424000  0.36941000  0.27071000  1.0
  H  H32  1  0.37390000  0.14920000  0.32682000  1.0
  H  H33  1  0.62781000  0.85509000  0.67336000  1.0
  H  H34  1  0.58912000  0.31492000  0.43272000  1.0
  H  H35  1  0.41483000  0.68759000  0.56760000  1.0
  H  H36  1  0.13226000  0.53682000  0.16353000  1.0
  H  H37  1  0.86844000  0.46241000  0.83560000  1.0
  H  H38  1  0.60908000  0.55486000  0.70318000  1.0
  H  H39  1  0.38974000  0.43676000  0.29397000  1.0
  H  H40  1  0.52713000  0.61164000  0.79660000  1.0
  H  H41  1  0.47382000  0.38153000  0.20069000  1.0
  H  H42  1  0.40402000  0.58714000  0.68930000  1.0
  H  H43  1  0.59565000  0.40612000  0.30823000  1.0
  H  H44  1  0.19420000  0.97842000  0.39016000  1.0
  H  H45  1  0.80571000  0.02633000  0.60993000  1.0
  C  C46  1  0.01489000  0.30427000  0.99348000  1.0
  C  C47  1  0.98234000  0.69425000  0.00613000  1.0
  C  C48  1  0.77365000  0.98301000  0.93542000  1.0
  C  C49  1  0.22501000  0.01471000  0.06585000  1.0
  C  C50  1  0.41263000  0.42131000  0.74939000  1.0
  C  C51  1  0.58471000  0.57247000  0.24911000  1.0
  C  C52  1  0.88744000  0.09068000  0.91924000  1.0
  C  C53  1  0.11026000  0.90723000  0.08152000  1.0
  C  C54  1  0.23189000  0.90801000  0.64108000  1.0
  C  C55  1  0.77082000  0.09756000  0.35922000  1.0
  C  C56  1  0.30860000  0.80128000  0.79435000  1.0
  C  C57  1  0.69849000  0.20522000  0.20597000  1.0
  C  C58  1  0.38122000  0.92270000  0.78447000  1.0
  C  C59  1  0.62434000  0.08396000  0.21559000  1.0
  C  C60  1  0.99116000  0.97787000  0.81658000  1.0
  C  C61  1  0.00593000  0.01999000  0.18378000  1.0
  C  C62  1  0.14672000  0.78492000  0.64788000  1.0
  C  C63  1  0.85815000  0.22035000  0.35305000  1.0
  C  C64  1  0.88284000  0.86812000  0.82869000  1.0
  C  C65  1  0.11510000  0.12966000  0.17215000  1.0
  C  C66  1  0.77134000  0.87127000  0.88972000  1.0
  C  C67  1  0.22725000  0.12648000  0.11151000  1.0
  C  C68  1  0.27707000  0.50450000  0.05914000  1.0
  C  C69  1  0.72132000  0.49391000  0.93908000  1.0
  C  C70  1  0.00580000  0.37823000  0.07065000  1.0
  C  C71  1  0.99295000  0.62089000  0.92898000  1.0
  C  C72  1  0.51478000  0.23243000  0.54801000  1.0
  C  C73  1  0.48936000  0.76980000  0.45223000  1.0
  C  C74  1  0.27410000  0.43074000  0.98171000  1.0
  C  C75  1  0.72246000  0.56744000  0.01630000  1.0
  C  C76  1  0.18542000  0.73193000  0.72494000  1.0
  C  C77  1  0.82117000  0.27382000  0.27594000  1.0
  C  C78  1  0.38571000  0.14800000  0.39889000  1.0
  C  C79  1  0.61621000  0.85583000  0.60126000  1.0
  C  C80  1  0.50485000  0.23952000  0.45710000  1.0
  C  C81  1  0.49843000  0.76332000  0.54317000  1.0
  C  C82  1  0.13806000  0.47834000  0.10415000  1.0
  C  C83  1  0.86130000  0.52072000  0.89481000  1.0
  C  C84  1  0.30252000  0.05167000  0.52713000  1.0
  C  C85  1  0.69914000  0.95230000  0.47282000  1.0
  C  C86  1  0.49536000  0.55178000  0.73331000  1.0
  C  C87  1  0.50404000  0.44106000  0.26409000  1.0
  C  C88  1  0.28417000  0.05299000  0.43378000  1.0
  C  C89  1  0.71676000  0.95128000  0.56626000  1.0
  N  N90  1  0.45188000  0.18944000  0.92251000  1.0
  N  N91  1  0.54466000  0.80940000  0.07791000  1.0
  N  N92  1  0.99416000  0.08799000  0.86014000  1.0
  N  N93  1  0.00248000  0.90991000  0.14005000  1.0
  N  N94  1  0.14367000  0.16383000  0.69643000  1.0
  N  N95  1  0.84666000  0.83281000  0.30308000  1.0
  N  N96  1  0.08757000  0.20251000  0.63031000  1.0
  N  N97  1  0.90797000  0.79778000  0.36967000  1.0
  N  N98  1  0.14543000  0.33234000  0.94813000  1.0
  N  N99  1  0.85043000  0.66601000  0.05047000  1.0
  N  N100  1  0.34099000  0.97696000  0.71068000  1.0
  N  N101  1  0.66181000  0.02944000  0.28954000  1.0
  N  N102  1  0.35992000  0.18268000  0.85324000  1.0
  N  N103  1  0.63625000  0.81650000  0.14736000  1.0
  N  N104  1  0.65704000  0.14666000  0.75871000  1.0
  N  N105  1  0.34327000  0.84754000  0.24995000  1.0
  N  N106  1  0.41405000  0.14173000  0.58299000  1.0
  N  N107  1  0.58925000  0.86092000  0.41715000  1.0
  N  N108  1  0.88553000  0.20055000  0.96581000  1.0
  N  N109  1  0.11206000  0.79744000  0.03477000  1.0
  N  N110  1  0.54123000  0.19418000  0.99097000  1.0
  N  N111  1  0.45635000  0.80411000  0.00916000  1.0
  N  N112  1  0.03262000  0.23793000  0.56453000  1.0
  N  N113  1  0.96924000  0.76551000  0.43514000  1.0
  N  N114  1  0.20218000  0.95459000  0.56077000  1.0
  N  N115  1  0.79899000  0.04992000  0.43942000  1.0
  N  N116  1  0.78446000  0.22367000  0.76283000  1.0
  N  N117  1  0.21247000  0.77342000  0.24031000  1.0
  N  N118  1  0.91682000  0.29683000  0.76935000  1.0
  N  N119  1  0.07794000  0.70273000  0.23015000  1.0
  O  O120  1  0.28366000  0.40766000  0.78775000  1.0
  O  O121  1  0.71249000  0.58739000  0.20904000  1.0
  O  O122  1  0.48315000  0.33780000  0.72203000  1.0
  O  O123  1  0.51660000  0.65544000  0.27836000  1.0
