# generated using pymatgen
data_AlH3C4O5
_symmetry_space_group_name_H-M   'P 1'
_cell_length_a   6.68951000
_cell_length_b   11.09420000
_cell_length_c   13.16760000
_cell_angle_alpha   90.00010000
_cell_angle_beta   90.00030000
_cell_angle_gamma   78.60100000
_symmetry_Int_Tables_number   1
_chemical_formula_structural   AlH3C4O5
_chemical_formula_sum   'Al4 H12 C16 O20'
_cell_volume   957.95406319
_cell_formula_units_Z   4
loop_
 _symmetry_equiv_pos_site_id
 _symmetry_equiv_pos_as_xyz
  1  'x, y, z'
loop_
 _atom_site_type_symbol
 _atom_site_label
 _atom_site_symmetry_multiplicity
 _atom_site_fract_x
 _atom_site_fract_y
 _atom_site_fract_z
 _atom_site_occupancy
  Al  Al0  1  0.50000000  0.00001000  0.50001000  1.0
  Al  Al1  1  0.00001000  0.49999000  0.00000000  1.0
  Al  Al2  1  0.99998000  0.00001000  0.50000000  1.0
  Al  Al3  1  0.50001000  0.49999000  0.00000000  1.0
  H  H4  1  0.48348000  0.74652000  0.24076000  1.0
  H  H5  1  0.01650000  0.75348000  0.74076000  1.0
  H  H6  1  0.51651000  0.25348000  0.75924000  1.0
  H  H7  1  0.98349000  0.24654000  0.25925000  1.0
  H  H8  1  0.01775000  0.76139000  0.25368000  1.0
  H  H9  1  0.48222000  0.73861000  0.75368000  1.0
  H  H10  1  0.98224000  0.23861000  0.74632000  1.0
  H  H11  1  0.51776000  0.26138000  0.24632000  1.0
  H  H12  1  0.80153000  0.84038000  0.51923000  1.0
  H  H13  1  0.69846000  0.65962000  0.01923000  1.0
  H  H14  1  0.19848000  0.15961000  0.48076000  1.0
  H  H15  1  0.30151000  0.34039000  0.98077000  1.0
  C  C16  1  0.29970000  0.85662000  0.35922000  1.0
  C  C17  1  0.20030000  0.64337000  0.85922000  1.0
  C  C18  1  0.70031000  0.14337000  0.64077000  1.0
  C  C19  1  0.79969000  0.35664000  0.14078000  1.0
  C  C20  1  0.32823000  0.77384000  0.26955000  1.0
  C  C21  1  0.17181000  0.72615000  0.76956000  1.0
  C  C22  1  0.67179000  0.22615000  0.73044000  1.0
  C  C23  1  0.82824000  0.27384000  0.23045000  1.0
  C  C24  1  0.17319000  0.73359000  0.22517000  1.0
  C  C25  1  0.32684000  0.76642000  0.72518000  1.0
  C  C26  1  0.82681000  0.26642000  0.77482000  1.0
  C  C27  1  0.67320000  0.23358000  0.27483000  1.0
  C  C28  1  0.20440000  0.64895000  0.13683000  1.0
  C  C29  1  0.29561000  0.85105000  0.63682000  1.0
  C  C30  1  0.79559000  0.35104000  0.86318000  1.0
  C  C31  1  0.70440000  0.14895000  0.36317000  1.0
  O  O32  1  0.12244000  0.88363000  0.39835000  1.0
  O  O33  1  0.37754000  0.61638000  0.89835000  1.0
  O  O34  1  0.87755000  0.11637000  0.60165000  1.0
  O  O35  1  0.62243000  0.38362000  0.10165000  1.0
  O  O36  1  0.45936000  0.89235000  0.38990000  1.0
  O  O37  1  0.04065000  0.60764000  0.88991000  1.0
  O  O38  1  0.54064000  0.10765000  0.61009000  1.0
  O  O39  1  0.95935000  0.39237000  0.11010000  1.0
  O  O40  1  0.04417000  0.62063000  0.09886000  1.0
  O  O41  1  0.45585000  0.87938000  0.59887000  1.0
  O  O42  1  0.95583000  0.37939000  0.90114000  1.0
  O  O43  1  0.54418000  0.12061000  0.40113000  1.0
  O  O44  1  0.38618000  0.61098000  0.10563000  1.0
  O  O45  1  0.11382000  0.88903000  0.60563000  1.0
  O  O46  1  0.61382000  0.38903000  0.89437000  1.0
  O  O47  1  0.88618000  0.11097000  0.39437000  1.0
  O  O48  1  0.77402000  0.92610000  0.49946000  1.0
  O  O49  1  0.72598000  0.57390000  0.99946000  1.0
  O  O50  1  0.22602000  0.07389000  0.50054000  1.0
  O  O51  1  0.27398000  0.42611000  0.00054000  1.0
