# generated using pymatgen
data_H12Au2C13(SCl)2
_symmetry_space_group_name_H-M   'P 1'
_cell_length_a   7.40788000
_cell_length_b   10.52750000
_cell_length_c   11.16740000
_cell_angle_alpha   118.11100000
_cell_angle_beta   97.75730000
_cell_angle_gamma   90.00940000
_symmetry_Int_Tables_number   1
_chemical_formula_structural   H12Au2C13(SCl)2
_chemical_formula_sum   'H24 Au4 C26 S4 Cl4'
_cell_volume   759.11258494
_cell_formula_units_Z   2
loop_
 _symmetry_equiv_pos_site_id
 _symmetry_equiv_pos_as_xyz
  1  'x, y, z'
loop_
 _atom_site_type_symbol
 _atom_site_label
 _atom_site_symmetry_multiplicity
 _atom_site_fract_x
 _atom_site_fract_y
 _atom_site_fract_z
 _atom_site_occupancy
  H  H0  1  0.84113000  0.84438000  0.31448000  1.0
  H  H1  1  0.65930000  0.52991000  0.68627000  1.0
  H  H2  1  0.15889000  0.15562000  0.68553000  1.0
  H  H3  1  0.34068000  0.47010000  0.31373000  1.0
  H  H4  1  0.75925000  0.05471000  0.52310000  1.0
  H  H5  1  0.74118000  0.53098000  0.47727000  1.0
  H  H6  1  0.24077000  0.94529000  0.47690000  1.0
  H  H7  1  0.25880000  0.46902000  0.52273000  1.0
  H  H8  1  0.76067000  0.29756000  0.54090000  1.0
  H  H9  1  0.73935000  0.75557000  0.45872000  1.0
  H  H10  1  0.23934000  0.70244000  0.45910000  1.0
  H  H11  1  0.26065000  0.24444000  0.54129000  1.0
  H  H12  1  0.84425000  0.33326000  0.34776000  1.0
  H  H13  1  0.65585000  0.98461000  0.65134000  1.0
  H  H14  1  0.15576000  0.66666667  0.65224000  1.0
  H  H15  1  0.34414000  0.01540000  0.34866000  1.0
  H  H16  1  0.91560000  0.12398000  0.13727000  1.0
  H  H17  1  0.58495000  0.98662000  0.86239000  1.0
  H  H18  1  0.08441000  0.87602000  0.86273000  1.0
  H  H19  1  0.41505000  0.01338000  0.13762000  1.0
  H  H20  1  0.71121000  0.67872000  0.08292000  1.0
  H  H21  1  0.78864000  0.59596000  0.91779000  1.0
  H  H22  1  0.28879000  0.32128000  0.91708000  1.0
  H  H23  1  0.21136000  0.40403000  0.08221000  1.0
  Au  Au24  1  0.18539000  0.73771000  0.13776000  1.0
  Au  Au25  1  0.31495000  0.60001000  0.86248000  1.0
  Au  Au26  1  0.81461000  0.26228000  0.86224000  1.0
  Au  Au27  1  0.68506000  0.39999000  0.13752000  1.0
  C  C28  1  0.87864000  0.97234000  0.21313000  1.0
  C  C29  1  0.62184000  0.75919000  0.78709000  1.0
  C  C30  1  0.12136000  0.02765000  0.78686000  1.0
  C  C31  1  0.37816000  0.24081000  0.21292000  1.0
  C  C32  1  0.83724000  0.95116000  0.32137000  1.0
  C  C33  1  0.66315000  0.62960000  0.67905000  1.0
  C  C34  1  0.16276000  0.04884000  0.67863000  1.0
  C  C35  1  0.33683000  0.37041000  0.32095000  1.0
  C  C36  1  0.79316000  0.06919000  0.43818000  1.0
  C  C37  1  0.70719000  0.63045000  0.56205000  1.0
  C  C38  1  0.20685000  0.93081000  0.56182000  1.0
  C  C39  1  0.29280000  0.36955000  0.43795000  1.0
  C  C40  1  0.79436000  0.20668000  0.44824000  1.0
  C  C41  1  0.70582000  0.75762000  0.55155000  1.0
  C  C42  1  0.20564000  0.79332000  0.55175000  1.0
  C  C43  1  0.29417000  0.24239000  0.44846000  1.0
  C  C44  1  0.83943000  0.22644000  0.34068000  1.0
  C  C45  1  0.66085000  0.88512000  0.65890000  1.0
  C  C46  1  0.16057000  0.77356000  0.65932000  1.0
  C  C47  1  0.33915000  0.11488000  0.34111000  1.0
  C  C48  1  0.87980000  0.10897000  0.22150000  1.0
  C  C49  1  0.62071000  0.88727000  0.77835000  1.0
  C  C50  1  0.12020000  0.89103000  0.77850000  1.0
  C  C51  1  0.37928000  0.11273000  0.22166000  1.0
  C  C52  1  0.75001000  0.69671000  0.00031000  1.0
  C  C53  1  0.24999000  0.30329000  0.99969000  1.0
  S  S54  1  0.94461000  0.82880000  0.06234000  1.0
  S  S55  1  0.55563000  0.76671000  0.93797000  1.0
  S  S56  1  0.05539000  0.17119000  0.93765000  1.0
  S  S57  1  0.44437000  0.23329000  0.06203000  1.0
  Cl  Cl58  1  0.44278000  0.67892000  0.23387000  1.0
  Cl  Cl59  1  0.05749000  0.44511000  0.76645000  1.0
  Cl  Cl60  1  0.55722000  0.32108000  0.76613000  1.0
  Cl  Cl61  1  0.94251000  0.55489000  0.23355000  1.0
