# generated using pymatgen
data_BaH6C6NClO4
_symmetry_space_group_name_H-M   'P 1'
_cell_length_a   5.76953000
_cell_length_b   6.81103000
_cell_length_c   11.49850000
_cell_angle_alpha   105.27200000
_cell_angle_beta   100.24800000
_cell_angle_gamma   94.62710000
_symmetry_Int_Tables_number   1
_chemical_formula_structural   BaH6C6NClO4
_chemical_formula_sum   'Ba2 H12 C12 N2 Cl2 O8'
_cell_volume   425.05134356
_cell_formula_units_Z   2
loop_
 _symmetry_equiv_pos_site_id
 _symmetry_equiv_pos_as_xyz
  1  'x, y, z'
loop_
 _atom_site_type_symbol
 _atom_site_label
 _atom_site_symmetry_multiplicity
 _atom_site_fract_x
 _atom_site_fract_y
 _atom_site_fract_z
 _atom_site_occupancy
  Ba  Ba0  1  0.78244000  0.81721000  0.09125000  1.0
  Ba  Ba1  1  0.21757000  0.18278000  0.90875000  1.0
  H  H2  1  0.51261000  0.29751000  0.68524000  1.0
  H  H3  1  0.48738000  0.70249000  0.31476000  1.0
  H  H4  1  0.83791000  0.39155000  0.58352000  1.0
  H  H5  1  0.16208000  0.60845000  0.41648000  1.0
  H  H6  1  0.74520000  0.31326000  0.35182000  1.0
  H  H7  1  0.25481000  0.68675000  0.64818000  1.0
  H  H8  1  0.15249000  0.11730000  0.56448000  1.0
  H  H9  1  0.84749000  0.88270000  0.43552000  1.0
  H  H10  1  0.73553000  0.38356000  0.18550000  1.0
  H  H11  1  0.26446000  0.61644000  0.81450000  1.0
  H  H12  1  0.99398000  0.47560000  0.18968000  1.0
  H  H13  1  0.00601000  0.52440000  0.81033000  1.0
  C  C14  1  0.38923000  0.17523000  0.32951000  1.0
  C  C15  1  0.61078000  0.82478000  0.67050000  1.0
  C  C16  1  0.21082000  0.10926000  0.38994000  1.0
  C  C17  1  0.78917000  0.89074000  0.61006000  1.0
  C  C18  1  0.48825000  0.26489000  0.58540000  1.0
  C  C19  1  0.51173000  0.73510000  0.41460000  1.0
  C  C20  1  0.66481000  0.31617000  0.52838000  1.0
  C  C21  1  0.33521000  0.68383000  0.47162000  1.0
  C  C22  1  0.61128000  0.27036000  0.39969000  1.0
  C  C23  1  0.38871000  0.72964000  0.60031000  1.0
  C  C24  1  0.34229000  0.15115000  0.19392000  1.0
  C  C25  1  0.65776000  0.84885000  0.80609000  1.0
  N  N26  1  0.27395000  0.16782000  0.51804000  1.0
  N  N27  1  0.72606000  0.83219000  0.48196000  1.0
  Cl  Cl28  1  0.28019000  0.63121000  0.10291000  1.0
  Cl  Cl29  1  0.71981000  0.36880000  0.89709000  1.0
  O  O30  1  0.52098000  0.15575000  0.14166000  1.0
  O  O31  1  0.47901000  0.84425000  0.85835000  1.0
  O  O32  1  0.12944000  0.13601000  0.13540000  1.0
  O  O33  1  0.87055000  0.86397000  0.86459000  1.0
  O  O34  1  0.01126000  0.00074000  0.33979000  1.0
  O  O35  1  0.98874000  0.99926000  0.66021000  1.0
  O  O36  1  0.84962000  0.51147000  0.21970000  1.0
  O  O37  1  0.15038000  0.48853000  0.78031000  1.0
