# generated using pymatgen
data_Zn2H52C41(N3O4)2
_symmetry_space_group_name_H-M   'P 1'
_cell_length_a   12.29760000
_cell_length_b   12.57850000
_cell_length_c   15.74320000
_cell_angle_alpha   91.16670000
_cell_angle_beta   98.08140000
_cell_angle_gamma   100.77100000
_symmetry_Int_Tables_number   1
_chemical_formula_structural   Zn2H52C41(N3O4)2
_chemical_formula_sum   'Zn4 H104 C82 N12 O16'
_cell_volume   2365.85688754
_cell_formula_units_Z   2
loop_
 _symmetry_equiv_pos_site_id
 _symmetry_equiv_pos_as_xyz
  1  'x, y, z'
loop_
 _atom_site_type_symbol
 _atom_site_label
 _atom_site_symmetry_multiplicity
 _atom_site_fract_x
 _atom_site_fract_y
 _atom_site_fract_z
 _atom_site_occupancy
  Zn  Zn0  1  0.19408000  0.80742000  0.33563000  1.0
  Zn  Zn1  1  0.80592000  0.19258000  0.66437000  1.0
  Zn  Zn2  1  0.48192000  0.61447000  0.91001000  1.0
  Zn  Zn3  1  0.51807000  0.38552000  0.08999000  1.0
  H  H4  1  0.54944000  0.79714000  0.12005000  1.0
  H  H5  1  0.45056000  0.20286000  0.87995000  1.0
  H  H6  1  0.60012000  0.77165000  0.22592000  1.0
  H  H7  1  0.39988000  0.22835000  0.77408000  1.0
  H  H8  1  0.49055000  0.03336000  0.17008000  1.0
  H  H9  1  0.50945000  0.96664000  0.82992000  1.0
  H  H10  1  0.29249000  0.01593000  0.23592000  1.0
  H  H11  1  0.70751000  0.98408000  0.76408000  1.0
  H  H12  1  0.41354000  0.72685000  0.28070000  1.0
  H  H13  1  0.58646000  0.27316000  0.71930000  1.0
  H  H14  1  0.63812000  0.86636000  0.34076000  1.0
  H  H15  1  0.36188000  0.13364000  0.65924000  1.0
  H  H16  1  0.74521000  0.96180000  0.39991000  1.0
  H  H17  1  0.25479000  0.03819000  0.60009000  1.0
  H  H18  1  0.77736000  0.84461000  0.35301000  1.0
  H  H19  1  0.22264000  0.15539000  0.64699000  1.0
  H  H20  1  0.93105000  0.18535000  0.34737000  1.0
  H  H21  1  0.06895000  0.81465000  0.65264000  1.0
  H  H22  1  0.86058000  0.07904000  0.40076000  1.0
  H  H23  1  0.13943000  0.92096000  0.59924000  1.0
  H  H24  1  0.09565000  0.15675000  0.47233000  1.0
  H  H25  1  0.90435000  0.84326000  0.52767000  1.0
  H  H26  1  0.24982000  0.01938000  0.46653000  1.0
  H  H27  1  0.75018000  0.98062000  0.53347000  1.0
  H  H28  1  0.98182000  0.92223000  0.26657000  1.0
  H  H29  1  0.01819000  0.07777000  0.73343000  1.0
  H  H30  1  0.01928000  0.17392000  0.15597000  1.0
  H  H31  1  0.98072000  0.82609000  0.84403000  1.0
  H  H32  1  0.98529000  0.23536000  0.24762000  1.0
  H  H33  1  0.01471000  0.76464000  0.75238000  1.0
  H  H34  1  0.92352000  0.26329000  0.14500000  1.0
  H  H35  1  0.07648000  0.73671000  0.85500000  1.0
  H  H36  1  0.89196000  0.15951000  0.02739000  1.0
  H  H37  1  0.10805000  0.84049000  0.97262000  1.0
  H  H38  1  0.78521000  0.06186000  0.96983000  1.0
  H  H39  1  0.21480000  0.93814000  0.03017000  1.0
  H  H40  1  0.77125000  0.24729000  0.88494000  1.0
  H  H41  1  0.22875000  0.75271000  0.11506000  1.0
  H  H42  1  0.62109000  0.38618000  0.90679000  1.0
  H  H43  1  0.37891000  0.61382000  0.09321000  1.0
  H  H44  1  0.65519000  0.19970000  0.12486000  1.0
  H  H45  1  0.34481000  0.80030000  0.87514000  1.0
  H  H46  1  0.62493000  0.99310000  0.97389000  1.0
  H  H47  1  0.37507000  0.00690000  0.02611000  1.0
  H  H48  1  0.53203000  0.91353000  0.03296000  1.0
  H  H49  1  0.46797000  0.08647000  0.96704000  1.0
  H  H50  1  0.64253000  0.86058000  0.99888000  1.0
  H  H51  1  0.35748000  0.13942000  0.00112000  1.0
  H  H52  1  0.98673000  0.72925000  0.02997000  1.0
  H  H53  1  0.01327000  0.27075000  0.97003000  1.0
  H  H54  1  0.04065000  0.60947000  0.02339000  1.0
  H  H55  1  0.95935000  0.39053000  0.97661000  1.0
  H  H56  1  0.82360000  0.63486000  0.94386000  1.0
  H  H57  1  0.17640000  0.36515000  0.05614000  1.0
  H  H58  1  0.86098000  0.50834000  0.96218000  1.0
  H  H59  1  0.13902000  0.49166000  0.03782000  1.0
  H  H60  1  0.76778000  0.48007000  0.08050000  1.0
  H  H61  1  0.23222000  0.51993000  0.91950000  1.0
  H  H62  1  0.98498000  0.50934000  0.23503000  1.0
  H  H63  1  0.01502000  0.49066000  0.76497000  1.0
  H  H64  1  0.08086000  0.52064000  0.16071000  1.0
  H  H65  1  0.91914000  0.47936000  0.83929000  1.0
  H  H66  1  0.94080000  0.45330000  0.12754000  1.0
  H  H67  1  0.05920000  0.54670000  0.87246000  1.0
  H  H68  1  0.84629000  0.64089000  0.28257000  1.0
  H  H69  1  0.15371000  0.35911000  0.71743000  1.0
  H  H70  1  0.80444000  0.50817000  0.23428000  1.0
  H  H71  1  0.19556000  0.49183000  0.76572000  1.0
  H  H72  1  0.70819000  0.59640000  0.22500000  1.0
  H  H73  1  0.29182000  0.40360000  0.77500000  1.0
  H  H74  1  0.84952000  0.79004000  0.07802000  1.0
  H  H75  1  0.15048000  0.20996000  0.92198000  1.0
  H  H76  1  0.85888000  0.80351000  0.19125000  1.0
  H  H77  1  0.14112000  0.19649000  0.80875000  1.0
  H  H78  1  0.72859000  0.75180000  0.12783000  1.0
  H  H79  1  0.27141000  0.24820000  0.87216000  1.0
  H  H80  1  0.57558000  0.67534000  0.48376000  1.0
  H  H81  1  0.42442000  0.32466000  0.51624000  1.0
  H  H82  1  0.45730000  0.57731000  0.49441000  1.0
  H  H83  1  0.54269000  0.42268000  0.50559000  1.0
  H  H84  1  0.52656000  0.55889000  0.63972000  1.0
  H  H85  1  0.47344000  0.44111000  0.36028000  1.0
  H  H86  1  0.64872000  0.65236000  0.62970000  1.0
  H  H87  1  0.35128000  0.34764000  0.37030000  1.0
  H  H88  1  0.57235000  0.80363000  0.67366000  1.0
  H  H89  1  0.42764000  0.19637000  0.32634000  1.0
  H  H90  1  0.58313000  0.87369000  0.55687000  1.0
  H  H91  1  0.41687000  0.12630000  0.44313000  1.0
  H  H92  1  0.45967000  0.91707000  0.50879000  1.0
  H  H93  1  0.54033000  0.08293000  0.49121000  1.0
  H  H94  1  0.53604000  0.84945000  0.44510000  1.0
  H  H95  1  0.46396000  0.15054000  0.55490000  1.0
  H  H96  1  0.33863000  0.83148000  0.70870000  1.0
  H  H97  1  0.66136000  0.16852000  0.29130000  1.0
  H  H98  1  0.29410000  0.85494000  0.59860000  1.0
  H  H99  1  0.70590000  0.14506000  0.40140000  1.0
  H  H100  1  0.43183000  0.91312000  0.65002000  1.0
  H  H101  1  0.56817000  0.08688000  0.34998000  1.0
  H  H102  1  0.33019000  0.56491000  0.59995000  1.0
  H  H103  1  0.66980000  0.43509000  0.40005000  1.0
  H  H104  1  0.23224000  0.65231000  0.58004000  1.0
  H  H105  1  0.76775000  0.34769000  0.41996000  1.0
  H  H106  1  0.29078000  0.63211000  0.68721000  1.0
  H  H107  1  0.70922000  0.36789000  0.31279000  1.0
  C  C108  1  0.67455000  0.92866000  0.18475000  1.0
  C  C109  1  0.32545000  0.07134000  0.81525000  1.0
  C  C110  1  0.74493000  0.96513000  0.26217000  1.0
  C  C111  1  0.25507000  0.03487000  0.73783000  1.0
  C  C112  1  0.83451000  0.05370000  0.26258000  1.0
  C  C113  1  0.16549000  0.94630000  0.73742000  1.0
  C  C114  1  0.85504000  0.10371000  0.18543000  1.0
  C  C115  1  0.14497000  0.89629000  0.81458000  1.0
  C  C116  1  0.78548000  0.06376000  0.10805000  1.0
  C  C117  1  0.21452000  0.93624000  0.89195000  1.0
  C  C118  1  0.69436000  0.97706000  0.10712000  1.0
  C  C119  1  0.30564000  0.02294000  0.89288000  1.0
  C  C120  1  0.57711000  0.83544000  0.18457000  1.0
  C  C121  1  0.42289000  0.16456000  0.81543000  1.0
  C  C122  1  0.44396000  0.96564000  0.19922000  1.0
  C  C123  1  0.55604000  0.03436000  0.80077000  1.0
  C  C124  1  0.34659000  0.95744000  0.23402000  1.0
  C  C125  1  0.65341000  0.04257000  0.76598000  1.0
  C  C126  1  0.40660000  0.80674000  0.25834000  1.0
  C  C127  1  0.59340000  0.19326000  0.74166000  1.0
  C  C128  1  0.72522000  0.90692000  0.34286000  1.0
  C  C129  1  0.27478000  0.09308000  0.65714000  1.0
  C  C130  1  0.90638000  0.09692000  0.34629000  1.0
  C  C131  1  0.09362000  0.90308000  0.65371000  1.0
  C  C132  1  0.09563000  0.08755000  0.43021000  1.0
  C  C133  1  0.90437000  0.91245000  0.56979000  1.0
  C  C134  1  0.17040000  0.01942000  0.42690000  1.0
  C  C135  1  0.82960000  0.98058000  0.57310000  1.0
  C  C136  1  0.03342000  0.96553000  0.32266000  1.0
  C  C137  1  0.96658000  0.03447000  0.67734000  1.0
  C  C138  1  0.95003000  0.19861000  0.18379000  1.0
  C  C139  1  0.04997000  0.80139000  0.81621000  1.0
  C  C140  1  0.80473000  0.11899000  0.02582000  1.0
  C  C141  1  0.19528000  0.88101000  0.97418000  1.0
  C  C142  1  0.72503000  0.26038000  0.93679000  1.0
  C  C143  1  0.27497000  0.73962000  0.06321000  1.0
  C  C144  1  0.65147000  0.32737000  0.94871000  1.0
  C  C145  1  0.34854000  0.67262000  0.05129000  1.0
  C  C146  1  0.66752000  0.23285000  0.06328000  1.0
  C  C147  1  0.33248000  0.76714000  0.93672000  1.0
  C  C148  1  0.62018000  0.93462000  0.02430000  1.0
  C  C149  1  0.37982000  0.06538000  0.97570000  1.0
  C  C150  1  0.04364000  0.72281000  0.19454000  1.0
  C  C151  1  0.95636000  0.27719000  0.80546000  1.0
  C  C152  1  0.96414000  0.63025000  0.13879000  1.0
  C  C153  1  0.03586000  0.36975000  0.86121000  1.0
  C  C154  1  0.97069000  0.64264000  0.04232000  1.0
  C  C155  1  0.02931000  0.35736000  0.95768000  1.0
  C  C156  1  0.85645000  0.58532000  0.99409000  1.0
  C  C157  1  0.14356000  0.41468000  0.00591000  1.0
  C  C158  1  0.77729000  0.56472000  0.06199000  1.0
  C  C159  1  0.22271000  0.43529000  0.93800000  1.0
  C  C160  1  0.83792000  0.63585000  0.14389000  1.0
  C  C161  1  0.16208000  0.36415000  0.85611000  1.0
  C  C162  1  0.65918000  0.58233000  0.03274000  1.0
  C  C163  1  0.34082000  0.41767000  0.96726000  1.0
  C  C164  1  0.99340000  0.52167000  0.16746000  1.0
  C  C165  1  0.00660000  0.47833000  0.83254000  1.0
  C  C166  1  0.79697000  0.59303000  0.22621000  1.0
  C  C167  1  0.20303000  0.40697000  0.77379000  1.0
  C  C168  1  0.81847000  0.75200000  0.13426000  1.0
  C  C169  1  0.18153000  0.24800000  0.86574000  1.0
  C  C170  1  0.33861000  0.72434000  0.45041000  1.0
  C  C171  1  0.66139000  0.27566000  0.54959000  1.0
  C  C172  1  0.43770000  0.74192000  0.52402000  1.0
  C  C173  1  0.56230000  0.25808000  0.47598000  1.0
  C  C174  1  0.50932000  0.65290000  0.52391000  1.0
  C  C175  1  0.49068000  0.34710000  0.47609000  1.0
  C  C176  1  0.55698000  0.64031000  0.61879000  1.0
  C  C177  1  0.44301000  0.35969000  0.38121000  1.0
  C  C178  1  0.51503000  0.72481000  0.67102000  1.0
  C  C179  1  0.48497000  0.27519000  0.32898000  1.0
  C  C180  1  0.40288000  0.73933000  0.61638000  1.0
  C  C181  1  0.59712000  0.26067000  0.38362000  1.0
  C  C182  1  0.50341000  0.70175000  0.76369000  1.0
  C  C183  1  0.49659000  0.29825000  0.23631000  1.0
  C  C184  1  0.50821000  0.85255000  0.50830000  1.0
  C  C185  1  0.49179000  0.14744000  0.49170000  1.0
  C  C186  1  0.36480000  0.84120000  0.64503000  1.0
  C  C187  1  0.63519000  0.15880000  0.35497000  1.0
  C  C188  1  0.30888000  0.64114000  0.62109000  1.0
  C  C189  1  0.69111000  0.35886000  0.37891000  1.0
  N  N190  1  0.48084000  0.86956000  0.21524000  1.0
  N  N191  1  0.51916000  0.13044000  0.78476000  1.0
  N  N192  1  0.32451000  0.85853000  0.27081000  1.0
  N  N193  1  0.67550000  0.14147000  0.72919000  1.0
  N  N194  1  0.00938000  0.05226000  0.36363000  1.0
  N  N195  1  0.99062000  0.94774000  0.63637000  1.0
  N  N196  1  0.13047000  0.94370000  0.35987000  1.0
  N  N197  1  0.86954000  0.05631000  0.64013000  1.0
  N  N198  1  0.73418000  0.20148000  0.00982000  1.0
  N  N199  1  0.26582000  0.79851000  0.99018000  1.0
  N  N200  1  0.61625000  0.30922000  0.02781000  1.0
  N  N201  1  0.38375000  0.69078000  0.97219000  1.0
  O  O202  1  0.06769000  0.70227000  0.27492000  1.0
  O  O203  1  0.93230000  0.29773000  0.72508000  1.0
  O  O204  1  0.08134000  0.81044000  0.16293000  1.0
  O  O205  1  0.91866000  0.18956000  0.83707000  1.0
  O  O206  1  0.58160000  0.54534000  0.07640000  1.0
  O  O207  1  0.41840000  0.45465000  0.92360000  1.0
  O  O208  1  0.64122000  0.63504000  0.96525000  1.0
  O  O209  1  0.35878000  0.36496000  0.03475000  1.0
  O  O210  1  0.33315000  0.65782000  0.38939000  1.0
  O  O211  1  0.66685000  0.34218000  0.61062000  1.0
  O  O212  1  0.26808000  0.79004000  0.45311000  1.0
  O  O213  1  0.73192000  0.20995000  0.54689000  1.0
  O  O214  1  0.48579000  0.60180000  0.78489000  1.0
  O  O215  1  0.51420000  0.39820000  0.21511000  1.0
  O  O216  1  0.50837000  0.77895000  0.81781000  1.0
  O  O217  1  0.49163000  0.22105000  0.18220000  1.0
