# generated using pymatgen
data_ZnH12C19(NO2)2
_symmetry_space_group_name_H-M   'P 1'
_cell_length_a   7.42659000
_cell_length_b   14.48980000
_cell_length_c   17.30970000
_cell_angle_alpha   89.99980000
_cell_angle_beta   89.99990000
_cell_angle_gamma   86.18840000
_symmetry_Int_Tables_number   1
_chemical_formula_structural   ZnH12C19(NO2)2
_chemical_formula_sum   'Zn4 H48 C76 N8 O16'
_cell_volume   1858.57319882
_cell_formula_units_Z   4
loop_
 _symmetry_equiv_pos_site_id
 _symmetry_equiv_pos_as_xyz
  1  'x, y, z'
loop_
 _atom_site_type_symbol
 _atom_site_label
 _atom_site_symmetry_multiplicity
 _atom_site_fract_x
 _atom_site_fract_y
 _atom_site_fract_z
 _atom_site_occupancy
  Zn  Zn0  1  0.42697000  0.69741000  0.62794000  1.0
  Zn  Zn1  1  0.57303000  0.80259000  0.12794000  1.0
  Zn  Zn2  1  0.57304000  0.30259000  0.37206000  1.0
  Zn  Zn3  1  0.42697000  0.19741000  0.87206000  1.0
  H  H4  1  0.78429000  0.57434000  0.64018000  1.0
  H  H5  1  0.85904000  0.40473000  0.65538000  1.0
  H  H6  1  0.61357000  0.29530000  0.64042000  1.0
  H  H7  1  0.24222000  0.53278000  0.60256000  1.0
  H  H8  1  0.03999000  0.17119000  0.69206000  1.0
  H  H9  1  0.76811000  0.76271000  0.69774000  1.0
  H  H10  1  0.99409000  0.87604000  0.66392000  1.0
  H  H11  1  0.67376000  0.94407000  0.45942000  1.0
  H  H12  1  0.46517000  0.82635000  0.50169000  1.0
  H  H13  1  0.09694000  0.99007000  0.57895000  1.0
  H  H14  1  0.18940000  0.40166000  0.49375000  1.0
  H  H15  1  0.86037000  0.18692000  0.56948000  1.0
  H  H16  1  0.21571000  0.92566000  0.14018000  1.0
  H  H17  1  0.14095000  0.09527000  0.15538000  1.0
  H  H18  1  0.38642000  0.20469000  0.14042000  1.0
  H  H19  1  0.75778000  0.96722000  0.10256000  1.0
  H  H20  1  0.96002000  0.32881000  0.19207000  1.0
  H  H21  1  0.23188000  0.73729000  0.19774000  1.0
  H  H22  1  0.00590000  0.62396000  0.16392000  1.0
  H  H23  1  0.32625000  0.55593000  0.95942000  1.0
  H  H24  1  0.53484000  0.67365000  0.00170000  1.0
  H  H25  1  0.90305000  0.50994000  0.07895000  1.0
  H  H26  1  0.81059000  0.09833000  0.99375000  1.0
  H  H27  1  0.13964000  0.31307000  0.06949000  1.0
  H  H28  1  0.21572000  0.42566000  0.35982000  1.0
  H  H29  1  0.14096000  0.59527000  0.34462000  1.0
  H  H30  1  0.38643000  0.70469000  0.35958000  1.0
  H  H31  1  0.75779000  0.46722000  0.39743000  1.0
  H  H32  1  0.96002000  0.82882000  0.30793000  1.0
  H  H33  1  0.23190000  0.23728000  0.30225000  1.0
  H  H34  1  0.00592000  0.12395000  0.33608000  1.0
  H  H35  1  0.32624000  0.05593000  0.54058000  1.0
  H  H36  1  0.53483000  0.17365000  0.49831000  1.0
  H  H37  1  0.90306000  0.00993000  0.42105000  1.0
  H  H38  1  0.81060000  0.59834000  0.50624000  1.0
  H  H39  1  0.13965000  0.81307000  0.43051000  1.0
  H  H40  1  0.78429000  0.07434000  0.85982000  1.0
  H  H41  1  0.85904000  0.90473000  0.84462000  1.0
  H  H42  1  0.61357000  0.79531000  0.85958000  1.0
  H  H43  1  0.24222000  0.03278000  0.89743000  1.0
  H  H44  1  0.03997000  0.67120000  0.80793000  1.0
  H  H45  1  0.76810000  0.26271000  0.80225000  1.0
  H  H46  1  0.99409000  0.37604000  0.83608000  1.0
  H  H47  1  0.67376000  0.44407000  0.04058000  1.0
  H  H48  1  0.46517000  0.32635000  0.99831000  1.0
  H  H49  1  0.09694000  0.49006000  0.92105000  1.0
  H  H50  1  0.18940000  0.90166000  0.00625000  1.0
  H  H51  1  0.86035000  0.68693000  0.93051000  1.0
  C  C52  1  0.67962000  0.52504000  0.63584000  1.0
  C  C53  1  0.72060000  0.43042000  0.64373000  1.0
  C  C54  1  0.58384000  0.36979000  0.63528000  1.0
  C  C55  1  0.40798000  0.40507000  0.61847000  1.0
  C  C56  1  0.37780000  0.50098000  0.61213000  1.0
  C  C57  1  0.25651000  0.34510000  0.60651000  1.0
  C  C58  1  0.21028000  0.28053000  0.66272000  1.0
  C  C59  1  0.07080000  0.22215000  0.64834000  1.0
  C  C60  1  0.75303000  0.80450000  0.64549000  1.0
  C  C61  1  0.87674000  0.86865000  0.62691000  1.0
  C  C62  1  0.85523000  0.91928000  0.55785000  1.0
  C  C63  1  0.70146000  0.90553000  0.51261000  1.0
  C  C64  1  0.58457000  0.84029000  0.53522000  1.0
  C  C65  1  0.99415000  0.97995000  0.53511000  1.0
  C  C66  1  0.90132000  0.31109000  0.45328000  1.0
  C  C67  1  0.01230000  0.29680000  0.52508000  1.0
  C  C68  1  0.15638000  0.35214000  0.53807000  1.0
  C  C69  1  0.97095000  0.23092000  0.58046000  1.0
  C  C70  1  0.29308000  0.27839000  0.74188000  1.0
  C  C71  1  0.32038000  0.97496000  0.13583000  1.0
  C  C72  1  0.27940000  0.06958000  0.14373000  1.0
  C  C73  1  0.41615000  0.13021000  0.13528000  1.0
  C  C74  1  0.59201000  0.09493000  0.11847000  1.0
  C  C75  1  0.62219000  0.99901000  0.11213000  1.0
  C  C76  1  0.74348000  0.15491000  0.10651000  1.0
  C  C77  1  0.78971000  0.21946000  0.16272000  1.0
  C  C78  1  0.92920000  0.27785000  0.14834000  1.0
  C  C79  1  0.24697000  0.69550000  0.14549000  1.0
  C  C80  1  0.12326000  0.63135000  0.12690000  1.0
  C  C81  1  0.14477000  0.58072000  0.05784000  1.0
  C  C82  1  0.29854000  0.59447000  0.01261000  1.0
  C  C83  1  0.41543000  0.65971000  0.03522000  1.0
  C  C84  1  0.00584000  0.52005000  0.03511000  1.0
  C  C85  1  0.09869000  0.18891000  0.95329000  1.0
  C  C86  1  0.98770000  0.20319000  0.02508000  1.0
  C  C87  1  0.84362000  0.14786000  0.03807000  1.0
  C  C88  1  0.02905000  0.26907000  0.08047000  1.0
  C  C89  1  0.70691000  0.22160000  0.24187000  1.0
  C  C90  1  0.32039000  0.47496000  0.36417000  1.0
  C  C91  1  0.27941000  0.56958000  0.35628000  1.0
  C  C92  1  0.41616000  0.63021000  0.36472000  1.0
  C  C93  1  0.59203000  0.59493000  0.38153000  1.0
  C  C94  1  0.62221000  0.49901000  0.38787000  1.0
  C  C95  1  0.74349000  0.65491000  0.39349000  1.0
  C  C96  1  0.78971000  0.71947000  0.33728000  1.0
  C  C97  1  0.92921000  0.77786000  0.35165000  1.0
  C  C98  1  0.24697000  0.19550000  0.35451000  1.0
  C  C99  1  0.12326000  0.13134000  0.37309000  1.0
  C  C100  1  0.14477000  0.08072000  0.44216000  1.0
  C  C101  1  0.29854000  0.09447000  0.48739000  1.0
  C  C102  1  0.41542000  0.15971000  0.46478000  1.0
  C  C103  1  0.00585000  0.02005000  0.46489000  1.0
  C  C104  1  0.09869000  0.68891000  0.54671000  1.0
  C  C105  1  0.98771000  0.70320000  0.47491000  1.0
  C  C106  1  0.84362000  0.64787000  0.46193000  1.0
  C  C107  1  0.02906000  0.76908000  0.41953000  1.0
  C  C108  1  0.70692000  0.72162000  0.25812000  1.0
  C  C109  1  0.67962000  0.02504000  0.86417000  1.0
  C  C110  1  0.72059000  0.93042000  0.85628000  1.0
  C  C111  1  0.58384000  0.86979000  0.86472000  1.0
  C  C112  1  0.40798000  0.90507000  0.88153000  1.0
  C  C113  1  0.37780000  0.00099000  0.88787000  1.0
  C  C114  1  0.25651000  0.84510000  0.89349000  1.0
  C  C115  1  0.21028000  0.78054000  0.83727000  1.0
  C  C116  1  0.07078000  0.72216000  0.85166000  1.0
  C  C117  1  0.75303000  0.30450000  0.85451000  1.0
  C  C118  1  0.87674000  0.36865000  0.87309000  1.0
  C  C119  1  0.85524000  0.41928000  0.94216000  1.0
  C  C120  1  0.70146000  0.40553000  0.98739000  1.0
  C  C121  1  0.58457000  0.34029000  0.96478000  1.0
  C  C122  1  0.99416000  0.47995000  0.96489000  1.0
  C  C123  1  0.90131000  0.81109000  0.04672000  1.0
  C  C124  1  0.01230000  0.79680000  0.97492000  1.0
  C  C125  1  0.15638000  0.85213000  0.96193000  1.0
  C  C126  1  0.97094000  0.73092000  0.91953000  1.0
  C  C127  1  0.29308000  0.77841000  0.75812000  1.0
  N  N128  1  0.61097000  0.78917000  0.60011000  1.0
  N  N129  1  0.50988000  0.55952000  0.62067000  1.0
  N  N130  1  0.38904000  0.71082000  0.10012000  1.0
  N  N131  1  0.49011000  0.94048000  0.12067000  1.0
  N  N132  1  0.38904000  0.21082000  0.39989000  1.0
  N  N133  1  0.49012000  0.44048000  0.37933000  1.0
  N  N134  1  0.61096000  0.28918000  0.89988000  1.0
  N  N135  1  0.50989000  0.05952000  0.87933000  1.0
  O  O136  1  0.38061000  0.20108000  0.76022000  1.0
  O  O137  1  0.26651000  0.34697000  0.78503000  1.0
  O  O138  1  0.95772000  0.35631000  0.39766000  1.0
  O  O139  1  0.74539000  0.27549000  0.45605000  1.0
  O  O140  1  0.61937000  0.29891000  0.26022000  1.0
  O  O141  1  0.73349000  0.15303000  0.28504000  1.0
  O  O142  1  0.04230000  0.14369000  0.89767000  1.0
  O  O143  1  0.25462000  0.22451000  0.95606000  1.0
  O  O144  1  0.61940000  0.79893000  0.23978000  1.0
  O  O145  1  0.73347000  0.65304000  0.21496000  1.0
  O  O146  1  0.04229000  0.64368000  0.60233000  1.0
  O  O147  1  0.25463000  0.72450000  0.54394000  1.0
  O  O148  1  0.38062000  0.70110000  0.73978000  1.0
  O  O149  1  0.26651000  0.84698000  0.71496000  1.0
  O  O150  1  0.95770000  0.85631000  0.10234000  1.0
  O  O151  1  0.74537000  0.77549000  0.04394000  1.0
