# generated using pymatgen
data_Zn5H22C36(N3O7)2
_symmetry_space_group_name_H-M   'P 1'
_cell_length_a   9.32155000
_cell_length_b   11.14040000
_cell_length_c   11.46070000
_cell_angle_alpha   70.68350000
_cell_angle_beta   67.14740000
_cell_angle_gamma   67.45740000
_symmetry_Int_Tables_number   1
_chemical_formula_structural   Zn5H22C36(N3O7)2
_chemical_formula_sum   'Zn5 H22 C36 N6 O14'
_cell_volume   989.52709344
_cell_formula_units_Z   1
loop_
 _symmetry_equiv_pos_site_id
 _symmetry_equiv_pos_as_xyz
  1  'x, y, z'
loop_
 _atom_site_type_symbol
 _atom_site_label
 _atom_site_symmetry_multiplicity
 _atom_site_fract_x
 _atom_site_fract_y
 _atom_site_fract_z
 _atom_site_occupancy
  Zn  Zn0  1  0.00000000  0.00000000  0.50000000  1.0
  Zn  Zn1  1  0.85403000  0.75860000  0.52366000  1.0
  Zn  Zn2  1  0.14597000  0.24140000  0.47634000  1.0
  Zn  Zn3  1  0.63843000  0.98183000  0.72103000  1.0
  Zn  Zn4  1  0.36157000  0.01817000  0.27897000  1.0
  H  H5  1  0.73548000  0.00389000  0.48322000  1.0
  H  H6  1  0.26452000  0.99611000  0.51678000  1.0
  H  H7  1  0.00601000  0.54072000  0.31559000  1.0
  H  H8  1  0.99399000  0.45928000  0.68441000  1.0
  H  H9  1  0.99702000  0.45568000  0.14386000  1.0
  H  H10  1  0.00298000  0.54432000  0.85614000  1.0
  H  H11  1  0.77739000  0.56710000  0.04036000  1.0
  H  H12  1  0.22261000  0.43290000  0.95964000  1.0
  H  H13  1  0.55882000  0.77232000  0.10041000  1.0
  H  H14  1  0.44118000  0.22768000  0.89958000  1.0
  H  H15  1  0.40179000  0.68739000  0.61049000  1.0
  H  H16  1  0.59821000  0.31261000  0.38952000  1.0
  H  H17  1  0.32761000  0.48085000  0.39100000  1.0
  H  H18  1  0.67239000  0.51915000  0.60900000  1.0
  H  H19  1  0.70685000  0.02891000  0.04518000  1.0
  H  H20  1  0.29315000  0.97109000  0.95482000  1.0
  H  H21  1  0.19308000  0.97010000  0.78222000  1.0
  H  H22  1  0.80692000  0.02990000  0.21779000  1.0
  H  H23  1  0.74734000  0.42855000  0.81997000  1.0
  H  H24  1  0.25266000  0.57145000  0.18003000  1.0
  H  H25  1  0.37062000  0.74026000  0.00234000  1.0
  H  H26  1  0.62938000  0.25974000  0.99766000  1.0
  C  C27  1  0.65995000  0.76899000  0.24455000  1.0
  C  C28  1  0.34004000  0.23101000  0.75545000  1.0
  C  C29  1  0.78518000  0.70463000  0.30438000  1.0
  C  C30  1  0.21482000  0.29537000  0.69562000  1.0
  C  C31  1  0.91066000  0.59136000  0.26869000  1.0
  C  C32  1  0.08934000  0.40863000  0.73132000  1.0
  C  C33  1  0.90397000  0.54502000  0.17313000  1.0
  C  C34  1  0.09602000  0.45499000  0.82686000  1.0
  C  C35  1  0.77804000  0.60916000  0.11349000  1.0
  C  C36  1  0.22195000  0.39084000  0.88651000  1.0
  C  C37  1  0.65483000  0.72231000  0.14689000  1.0
  C  C38  1  0.34517000  0.27769000  0.85311000  1.0
  C  C39  1  0.18612000  0.69513000  0.50376000  1.0
  C  C40  1  0.81388000  0.30487000  0.49624000  1.0
  C  C41  1  0.34873000  0.59468000  0.50050000  1.0
  C  C42  1  0.65127000  0.40532000  0.49950000  1.0
  C  C43  1  0.44601000  0.60503000  0.56218000  1.0
  C  C44  1  0.55399000  0.39498000  0.43782000  1.0
  C  C45  1  0.40368000  0.48899000  0.43832000  1.0
  C  C46  1  0.59632000  0.51101000  0.56168000  1.0
  C  C47  1  0.88417000  0.00168000  0.79891000  1.0
  C  C48  1  0.11583000  0.99832000  0.20109000  1.0
  C  C49  1  0.94375000  0.00042000  0.90314000  1.0
  C  C50  1  0.05626000  0.99957000  0.09687000  1.0
  C  C51  1  0.83498000  0.01649000  0.02610000  1.0
  C  C52  1  0.16502000  0.98351000  0.97390000  1.0
  C  C53  1  0.10928000  0.98344000  0.87772000  1.0
  C  C54  1  0.89072000  0.01656000  0.12229000  1.0
  C  C55  1  0.63681000  0.69787000  0.79604000  1.0
  C  C56  1  0.36319000  0.30213000  0.20396000  1.0
  C  C57  1  0.56619000  0.59499000  0.90050000  1.0
  C  C58  1  0.43381000  0.40501000  0.09950000  1.0
  C  C59  1  0.63887000  0.45943000  0.89867000  1.0
  C  C60  1  0.36113000  0.54057000  0.10133000  1.0
  C  C61  1  0.42688000  0.63478000  0.00231000  1.0
  C  C62  1  0.57312000  0.36522000  0.99769000  1.0
  N  N63  1  0.55903000  0.87384000  0.30297000  1.0
  N  N64  1  0.44097000  0.12616000  0.69703000  1.0
  N  N65  1  0.61537000  0.87485000  0.39317000  1.0
  N  N66  1  0.38463000  0.12515000  0.60683000  1.0
  N  N67  1  0.75083000  0.77407000  0.39572000  1.0
  N  N68  1  0.24917000  0.22593000  0.60428000  1.0
  O  O69  1  0.15669000  0.80362000  0.53356000  1.0
  O  O70  1  0.84331000  0.19638000  0.46644000  1.0
  O  O71  1  0.08504000  0.66251000  0.47746000  1.0
  O  O72  1  0.91496000  0.33749000  0.52254000  1.0
  O  O73  1  0.98405000  0.99908000  0.68678000  1.0
  O  O74  1  0.01595000  0.00092000  0.31322000  1.0
  O  O75  1  0.73398000  0.00541000  0.83224000  1.0
  O  O76  1  0.26602000  0.99460000  0.16775000  1.0
  O  O77  1  0.57510000  0.81643000  0.81388000  1.0
  O  O78  1  0.42490000  0.18357000  0.18613000  1.0
  O  O79  1  0.75335000  0.65896000  0.69844000  1.0
  O  O80  1  0.24665000  0.34104000  0.30156000  1.0
  O  O81  1  0.78734000  0.94407000  0.54927000  1.0
  O  O82  1  0.21266000  0.05593000  0.45073000  1.0
