# generated using pymatgen
data_ZnH17(C7O2)3
_symmetry_space_group_name_H-M   'P 1'
_cell_length_a   7.87006000
_cell_length_b   17.74700000
_cell_length_c   34.80530000
_cell_angle_alpha   90.07000000
_cell_angle_beta   90.14860000
_cell_angle_gamma   89.07020000
_symmetry_Int_Tables_number   1
_chemical_formula_structural   ZnH17(C7O2)3
_chemical_formula_sum   'Zn4 H68 C84 O24'
_cell_volume   4860.59485571
_cell_formula_units_Z   4
loop_
 _symmetry_equiv_pos_site_id
 _symmetry_equiv_pos_as_xyz
  1  'x, y, z'
loop_
 _atom_site_type_symbol
 _atom_site_label
 _atom_site_symmetry_multiplicity
 _atom_site_fract_x
 _atom_site_fract_y
 _atom_site_fract_z
 _atom_site_occupancy
  Zn  Zn0  1  0.40943000  0.00240000  0.49985000  1.0
  Zn  Zn1  1  0.75026000  0.99949000  0.50081000  1.0
  Zn  Zn2  1  0.68067000  0.99556000  0.99989000  1.0
  Zn  Zn3  1  0.33962000  0.99975000  0.00036000  1.0
  H  H4  1  0.58487000  0.09229000  0.24752000  1.0
  H  H5  1  0.53293000  0.92220000  0.25250000  1.0
  H  H6  1  0.55223000  0.07479000  0.75164000  1.0
  H  H7  1  0.51665000  0.90371000  0.74829000  1.0
  H  H8  1  0.38137000  0.75988000  0.49864000  1.0
  H  H9  1  0.39403000  0.62189000  0.50063000  1.0
  H  H10  1  0.92793000  0.76706000  0.50469000  1.0
  H  H11  1  0.39004000  0.23588000  0.50319000  1.0
  H  H12  1  0.93745000  0.23663000  0.50030000  1.0
  H  H13  1  0.93191000  0.37483000  0.50142000  1.0
  H  H14  1  0.70646000  0.75507000  0.99904000  1.0
  H  H15  1  0.69503000  0.61744000  0.99757000  1.0
  H  H16  1  0.15923000  0.76904000  0.99525000  1.0
  H  H17  1  0.70191000  0.23031000  0.99860000  1.0
  H  H18  1  0.15430000  0.23981000  0.99983000  1.0
  H  H19  1  0.16098000  0.37764000  0.99847000  1.0
  H  H20  1  0.92437000  0.91606000  0.11492000  1.0
  H  H21  1  0.74331000  0.88349000  0.09046000  1.0
  H  H22  1  0.79361000  0.84826000  0.13685000  1.0
  H  H23  1  0.76788000  0.86355000  0.20430000  1.0
  H  H24  1  0.83253000  0.94487000  0.22939000  1.0
  H  H25  1  0.93610000  0.91749000  0.18610000  1.0
  H  H26  1  0.24008000  0.09593000  0.10375000  1.0
  H  H27  1  0.42267000  0.12802000  0.08006000  1.0
  H  H28  1  0.35312000  0.17320000  0.12272000  1.0
  H  H29  1  0.39460000  0.18519000  0.18817000  1.0
  H  H30  1  0.33841000  0.11523000  0.22206000  1.0
  H  H31  1  0.22570000  0.12367000  0.17825000  1.0
  H  H32  1  0.79085000  0.12930000  0.30122000  1.0
  H  H33  1  0.83834000  0.04199000  0.27894000  1.0
  H  H34  1  0.92428000  0.06319000  0.32489000  1.0
  H  H35  1  0.87820000  0.06752000  0.39469000  1.0
  H  H36  1  0.70008000  0.11591000  0.41362000  1.0
  H  H37  1  0.78547000  0.14372000  0.36885000  1.0
  H  H38  1  0.31073000  0.85105000  0.29757000  1.0
  H  H39  1  0.25994000  0.93573000  0.27284000  1.0
  H  H40  1  0.15190000  0.91310000  0.31572000  1.0
  H  H41  1  0.14551000  0.93970000  0.38872000  1.0
  H  H42  1  0.30943000  0.89249000  0.41396000  1.0
  H  H43  1  0.24127000  0.85729000  0.36892000  1.0
  H  H44  1  0.94401000  0.06615000  0.88710000  1.0
  H  H45  1  0.77998000  0.10874000  0.91418000  1.0
  H  H46  1  0.83728000  0.14750000  0.86917000  1.0
  H  H47  1  0.77594000  0.15345000  0.80095000  1.0
  H  H48  1  0.81767000  0.07289000  0.77202000  1.0
  H  H49  1  0.93556000  0.08752000  0.81464000  1.0
  H  H50  1  0.21993000  0.92698000  0.89415000  1.0
  H  H51  1  0.40198000  0.88214000  0.91356000  1.0
  H  H52  1  0.31971000  0.85185000  0.86881000  1.0
  H  H53  1  0.31471000  0.86441000  0.80121000  1.0
  H  H54  1  0.25918000  0.95022000  0.77838000  1.0
  H  H55  1  0.17516000  0.92866000  0.82434000  1.0
  H  H56  1  0.70332000  0.85245000  0.72014000  1.0
  H  H57  1  0.86666000  0.89789000  0.69517000  1.0
  H  H58  1  0.76774000  0.81911000  0.67437000  1.0
  H  H59  1  0.85966000  0.89260000  0.61039000  1.0
  H  H60  1  0.69111000  0.87806000  0.57799000  1.0
  H  H61  1  0.71586000  0.81877000  0.61850000  1.0
  H  H62  1  0.31141000  0.12756000  0.70474000  1.0
  H  H63  1  0.25373000  0.04512000  0.72957000  1.0
  H  H64  1  0.14730000  0.07113000  0.68632000  1.0
  H  H65  1  0.16048000  0.07356000  0.61395000  1.0
  H  H66  1  0.34103000  0.11094000  0.59154000  1.0
  H  H67  1  0.28169000  0.14242000  0.63806000  1.0
  H  H68  1  0.90706000  0.52501000  0.51844000  1.0
  H  H69  1  0.42016000  0.47846000  0.51214000  1.0
  H  H70  1  0.17907000  0.52537000  0.98594000  1.0
  H  H71  1  0.67572000  0.47393000  0.99171000  1.0
  C  C72  1  0.64695000  0.85689000  0.49988000  1.0
  C  C73  1  0.50995000  0.00295000  0.42781000  1.0
  C  C74  1  0.65970000  0.14268000  0.50126000  1.0
  C  C75  1  0.50996000  0.99441000  0.57261000  1.0
  C  C76  1  0.44068000  0.85545000  0.99892000  1.0
  C  C77  1  0.57888000  0.00164000  0.07246000  1.0
  C  C78  1  0.43129000  0.14136000  0.99973000  1.0
  C  C79  1  0.58151000  0.99809000  0.92764000  1.0
  C  C80  1  0.58189000  0.00946000  0.11516000  1.0
  C  C81  1  0.47655000  0.06516000  0.13227000  1.0
  C  C82  1  0.47425000  0.07118000  0.17248000  1.0
  C  C83  1  0.58102000  0.02391000  0.19512000  1.0
  C  C84  1  0.68896000  0.96945000  0.17757000  1.0
  C  C85  1  0.68616000  0.96094000  0.13728000  1.0
  C  C86  1  0.57624000  0.03427000  0.23714000  1.0
  C  C87  1  0.55277000  0.97940000  0.26319000  1.0
  C  C88  1  0.40812000  0.95282000  0.32446000  1.0
  C  C89  1  0.54124000  0.98968000  0.30508000  1.0
  C  C90  1  0.65930000  0.03340000  0.32582000  1.0
  C  C91  1  0.64047000  0.04184000  0.36582000  1.0
  C  C92  1  0.51295000  0.00136000  0.38500000  1.0
  C  C93  1  0.39713000  0.95592000  0.36473000  1.0
  C  C94  1  0.57907000  0.99916000  0.88481000  1.0
  C  C95  1  0.45546000  0.95618000  0.86555000  1.0
  C  C96  1  0.43685000  0.96333000  0.82548000  1.0
  C  C97  1  0.55110000  0.00877000  0.80474000  1.0
  C  C98  1  0.68013000  0.04843000  0.82426000  1.0
  C  C99  1  0.69128000  0.04595000  0.86457000  1.0
  C  C100  1  0.53858000  0.01759000  0.76276000  1.0
  C  C101  1  0.51896000  0.96131000  0.73722000  1.0
  C  C102  1  0.39788000  0.02288000  0.67770000  1.0
  C  C103  1  0.50968000  0.96973000  0.69518000  1.0
  C  C104  1  0.61694000  0.92293000  0.67244000  1.0
  C  C105  1  0.61410000  0.92931000  0.63217000  1.0
  C  C106  1  0.50666000  0.98460000  0.61522000  1.0
  C  C107  1  0.39972000  0.03173000  0.63748000  1.0
  C  C108  1  0.65434000  0.77278000  0.50093000  1.0
  C  C109  1  0.50445000  0.73108000  0.50008000  1.0
  C  C110  1  0.51235000  0.65291000  0.50129000  1.0
  C  C111  1  0.67036000  0.61436000  0.50390000  1.0
  C  C112  1  0.82220000  0.65677000  0.50554000  1.0
  C  C113  1  0.81100000  0.73522000  0.50362000  1.0
  C  C114  1  0.66955000  0.53442000  0.50442000  1.0
  C  C115  1  0.66093000  0.46534000  0.50411000  1.0
  C  C116  1  0.65614000  0.38547000  0.50343000  1.0
  C  C117  1  0.50150000  0.34492000  0.50393000  1.0
  C  C118  1  0.50884000  0.26643000  0.50296000  1.0
  C  C119  1  0.66350000  0.22679000  0.50183000  1.0
  C  C120  1  0.81578000  0.26670000  0.50127000  1.0
  C  C121  1  0.81198000  0.34503000  0.50195000  1.0
  C  C122  1  0.43315000  0.77145000  0.99762000  1.0
  C  C123  1  0.58350000  0.72790000  0.99803000  1.0
  C  C124  1  0.57628000  0.64985000  0.99714000  1.0
  C  C125  1  0.41851000  0.61313000  0.99552000  1.0
  C  C126  1  0.26598000  0.65737000  0.99450000  1.0
  C  C127  1  0.27664000  0.73579000  0.99580000  1.0
  C  C128  1  0.42099000  0.53317000  0.99548000  1.0
  C  C129  1  0.43182000  0.46403000  0.99622000  1.0
  C  C130  1  0.43699000  0.38411000  0.99727000  1.0
  C  C131  1  0.59145000  0.34115000  0.99744000  1.0
  C  C132  1  0.58339000  0.26276000  0.99840000  1.0
  C  C133  1  0.42841000  0.22556000  0.99905000  1.0
  C  C134  1  0.27635000  0.26781000  0.99913000  1.0
  C  C135  1  0.28083000  0.34605000  0.99832000  1.0
  C  C136  1  0.79158000  0.89903000  0.11887000  1.0
  C  C137  1  0.81251000  0.92163000  0.20061000  1.0
  C  C138  1  0.36812000  0.11835000  0.10849000  1.0
  C  C139  1  0.35271000  0.12655000  0.19132000  1.0
  C  C140  1  0.81058000  0.06861000  0.30667000  1.0
  C  C141  1  0.75640000  0.09493000  0.38688000  1.0
  C  C142  1  0.27619000  0.91106000  0.30153000  1.0
  C  C143  1  0.26710000  0.90889000  0.38513000  1.0
  C  C144  1  0.81897000  0.09468000  0.88484000  1.0
  C  C145  1  0.80839000  0.09277000  0.80177000  1.0
  C  C146  1  0.34407000  0.90155000  0.88666000  1.0
  C  C147  1  0.28926000  0.92486000  0.80629000  1.0
  C  C148  1  0.74341000  0.87003000  0.69145000  1.0
  C  C149  1  0.72493000  0.87718000  0.60840000  1.0
  C  C150  1  0.27138000  0.06880000  0.70085000  1.0
  C  C151  1  0.29081000  0.09281000  0.61928000  1.0
  C  C152  1  0.99810000  0.62451000  0.51004000  1.0
  C  C153  1  0.32631000  0.37905000  0.50545000  1.0
  C  C154  1  0.08961000  0.62727000  0.99176000  1.0
  C  C155  1  0.76727000  0.37233000  0.99670000  1.0
  O  O156  1  0.50182000  0.88878000  0.49853000  1.0
  O  O157  1  0.79051000  0.89115000  0.50101000  1.0
  O  O158  1  0.65161000  0.99687000  0.44531000  1.0
  O  O159  1  0.36532000  0.00920000  0.44528000  1.0
  O  O160  1  0.80326000  0.10639000  0.50028000  1.0
  O  O161  1  0.51506000  0.11218000  0.50171000  1.0
  O  O162  1  0.36655000  0.99511000  0.55433000  1.0
  O  O163  1  0.65348000  0.00150000  0.55645000  1.0
  O  O164  1  0.58630000  0.88489000  0.00031000  1.0
  O  O165  1  0.29767000  0.89213000  0.99836000  1.0
  O  O166  1  0.43529000  0.99573000  0.05603000  1.0
  O  O167  1  0.72247000  0.00186000  0.05446000  1.0
  O  O168  1  0.28719000  0.10754000  0.00037000  1.0
  O  O169  1  0.57549000  0.10839000  0.99990000  1.0
  O  O170  1  0.72615000  0.99324000  0.94537000  1.0
  O  O171  1  0.43943000  0.00279000  0.94486000  1.0
  O  O172  1  0.01709000  0.55083000  0.51858000  1.0
  O  O173  1  0.12411000  0.66363000  0.50710000  1.0
  O  O174  1  0.30870000  0.45393000  0.51064000  1.0
  O  O175  1  0.19933000  0.34048000  0.50244000  1.0
  O  O176  1  0.06905000  0.55279000  0.98607000  1.0
  O  O177  1  0.96398000  0.66858000  0.99397000  1.0
  O  O178  1  0.78661000  0.44732000  0.99312000  1.0
  O  O179  1  0.89364000  0.33146000  0.99907000  1.0
