# generated using pymatgen
data_CdH24C26N2O5
_symmetry_space_group_name_H-M   'P 1'
_cell_length_a   6.99924000
_cell_length_b   11.15130000
_cell_length_c   16.83500000
_cell_angle_alpha   104.44600000
_cell_angle_beta   90.00000000
_cell_angle_gamma   108.29000000
_symmetry_Int_Tables_number   1
_chemical_formula_structural   CdH24C26N2O5
_chemical_formula_sum   'Cd2 H48 C52 N4 O10'
_cell_volume   1203.76753195
_cell_formula_units_Z   2
loop_
 _symmetry_equiv_pos_site_id
 _symmetry_equiv_pos_as_xyz
  1  'x, y, z'
loop_
 _atom_site_type_symbol
 _atom_site_label
 _atom_site_symmetry_multiplicity
 _atom_site_fract_x
 _atom_site_fract_y
 _atom_site_fract_z
 _atom_site_occupancy
  Cd  Cd0  1  0.74603000  0.99977000  0.25021000  1.0
  Cd  Cd1  1  0.25396000  0.00022000  0.74979000  1.0
  H  H2  1  0.30649000  0.03522000  0.21572000  1.0
  H  H3  1  0.27154000  0.96423000  0.28458000  1.0
  H  H4  1  0.69348000  0.96479000  0.78428000  1.0
  H  H5  1  0.72842000  0.03576000  0.71542000  1.0
  H  H6  1  0.20113000  0.17236000  0.05592000  1.0
  H  H7  1  0.02610000  0.82737000  0.44512000  1.0
  H  H8  1  0.79894000  0.82769000  0.94411000  1.0
  H  H9  1  0.97389000  0.17261000  0.55486000  1.0
  H  H10  1  0.96345000  0.17832000  0.02220000  1.0
  H  H11  1  0.78145000  0.82038000  0.47808000  1.0
  H  H12  1  0.03663000  0.82170000  0.97780000  1.0
  H  H13  1  0.21856000  0.17962000  0.52191000  1.0
  H  H14  1  0.34010000  0.33836000  0.20858000  1.0
  H  H15  1  0.00199000  0.66228000  0.29225000  1.0
  H  H16  1  0.65987000  0.66169000  0.79146000  1.0
  H  H17  1  0.99800000  0.33770000  0.70774000  1.0
  H  H18  1  0.44580000  0.57506000  0.27944000  1.0
  H  H19  1  0.87288000  0.42562000  0.22094000  1.0
  H  H20  1  0.55414000  0.42499000  0.72060000  1.0
  H  H21  1  0.12707000  0.57437000  0.77906000  1.0
  H  H22  1  0.30967000  0.72351000  0.22592000  1.0
  H  H23  1  0.58818000  0.27608000  0.27365000  1.0
  H  H24  1  0.69031000  0.27653000  0.77409000  1.0
  H  H25  1  0.41177000  0.72390000  0.72634000  1.0
  H  H26  1  0.06753000  0.63222000  0.10116000  1.0
  H  H27  1  0.43523000  0.36607000  0.39816000  1.0
  H  H28  1  0.93252000  0.36780000  0.89884000  1.0
  H  H29  1  0.56472000  0.63390000  0.60183000  1.0
  H  H30  1  0.95696000  0.39408000  0.03158000  1.0
  H  H31  1  0.56079000  0.60404000  0.46816000  1.0
  H  H32  1  0.04312000  0.60595000  0.96841000  1.0
  H  H33  1  0.43921000  0.39594000  0.53183000  1.0
  H  H34  1  0.51755000  0.87728000  0.06652000  1.0
  H  H35  1  0.64032000  0.12276000  0.43389000  1.0
  H  H36  1  0.48248000  0.12272000  0.93347000  1.0
  H  H37  1  0.35966000  0.87719000  0.56610000  1.0
  H  H38  1  0.39526000  0.66408000  0.96173000  1.0
  H  H39  1  0.73120000  0.33609000  0.53846000  1.0
  H  H40  1  0.60480000  0.33592000  0.03827000  1.0
  H  H41  1  0.26883000  0.66385000  0.46152000  1.0
  H  H42  1  0.71235000  0.51357000  0.11388000  1.0
  H  H43  1  0.19942000  0.48600000  0.38638000  1.0
  H  H44  1  0.28765000  0.48644000  0.88613000  1.0
  H  H45  1  0.80058000  0.51400000  0.61361000  1.0
  H  H46  1  0.83082000  0.73523000  0.20831000  1.0
  H  H47  1  0.09623000  0.26414000  0.29215000  1.0
  H  H48  1  0.16917000  0.26477000  0.79170000  1.0
  H  H49  1  0.90375000  0.73585000  0.70783000  1.0
  C  C50  1  0.97048000  0.12874000  0.13828000  1.0
  C  C51  1  0.83978000  0.87060000  0.36227000  1.0
  C  C52  1  0.02953000  0.87127000  0.86172000  1.0
  C  C53  1  0.16020000  0.12938000  0.63772000  1.0
  C  C54  1  0.07064000  0.20316000  0.07603000  1.0
  C  C55  1  0.86500000  0.79612000  0.42454000  1.0
  C  C56  1  0.92943000  0.79688000  0.92398000  1.0
  C  C57  1  0.13499000  0.20385000  0.57545000  1.0
  C  C58  1  0.13833000  0.34883000  0.11598000  1.0
  C  C59  1  0.78836000  0.65053000  0.38434000  1.0
  C  C60  1  0.86170000  0.65121000  0.88405000  1.0
  C  C61  1  0.21160000  0.34944000  0.61565000  1.0
  C  C62  1  0.27720000  0.40230000  0.18570000  1.0
  C  C63  1  0.87504000  0.59775000  0.31479000  1.0
  C  C64  1  0.72279000  0.59774000  0.81433000  1.0
  C  C65  1  0.12492000  0.40221000  0.68520000  1.0
  C  C66  1  0.33651000  0.53547000  0.22569000  1.0
  C  C67  1  0.80228000  0.46466000  0.27452000  1.0
  C  C68  1  0.66346000  0.46456000  0.77433000  1.0
  C  C69  1  0.19769000  0.53530000  0.72547000  1.0
  C  C70  1  0.26044000  0.61892000  0.19575000  1.0
  C  C71  1  0.64271000  0.38061000  0.30404000  1.0
  C  C72  1  0.73955000  0.38113000  0.80426000  1.0
  C  C73  1  0.35726000  0.61936000  0.69595000  1.0
  C  C74  1  0.12537000  0.56741000  0.12550000  1.0
  C  C75  1  0.55800000  0.43144000  0.37415000  1.0
  C  C76  1  0.87466000  0.43262000  0.87451000  1.0
  C  C77  1  0.44198000  0.56856000  0.62586000  1.0
  C  C78  1  0.06337000  0.43343000  0.08634000  1.0
  C  C79  1  0.62880000  0.56532000  0.41357000  1.0
  C  C80  1  0.93668000  0.56661000  0.91368000  1.0
  C  C81  1  0.37119000  0.43468000  0.58644000  1.0
  C  C82  1  0.55730000  0.79331000  0.07385000  1.0
  C  C83  1  0.76417000  0.20661000  0.42650000  1.0
  C  C84  1  0.44273000  0.20670000  0.92615000  1.0
  C  C85  1  0.23586000  0.79339000  0.57349000  1.0
  C  C86  1  0.48875000  0.67289000  0.01591000  1.0
  C  C87  1  0.81592000  0.32714000  0.48431000  1.0
  C  C88  1  0.51131000  0.32711000  0.98409000  1.0
  C  C89  1  0.18409000  0.67286000  0.51569000  1.0
  C  C90  1  0.53889000  0.56598000  0.02861000  1.0
  C  C91  1  0.97303000  0.43390000  0.47151000  1.0
  C  C92  1  0.46112000  0.43401000  0.97140000  1.0
  C  C93  1  0.02693000  0.56607000  0.52849000  1.0
  C  C94  1  0.66574000  0.59016000  0.09903000  1.0
  C  C95  1  0.07600000  0.40946000  0.40121000  1.0
  C  C96  1  0.33428000  0.40984000  0.90098000  1.0
  C  C97  1  0.92396000  0.59049000  0.59877000  1.0
  C  C98  1  0.73178000  0.71401000  0.15316000  1.0
  C  C99  1  0.01827000  0.28551000  0.34722000  1.0
  C  C100  1  0.26823000  0.28598000  0.84685000  1.0
  C  C101  1  0.98173000  0.71447000  0.65276000  1.0
  N  N102  1  0.67545000  0.81352000  0.14208000  1.0
  N  N103  1  0.86222000  0.18615000  0.35831000  1.0
  N  N104  1  0.32456000  0.18648000  0.85793000  1.0
  N  N105  1  0.13780000  0.81383000  0.64167000  1.0
  O  O106  1  0.37663000  0.99978000  0.25009000  1.0
  O  O107  1  0.62334000  0.00023000  0.74992000  1.0
  O  O108  1  0.78539000  0.11776000  0.14887000  1.0
  O  O109  1  0.66596000  0.88202000  0.35169000  1.0
  O  O110  1  0.21463000  0.88225000  0.85112000  1.0
  O  O111  1  0.33401000  0.11796000  0.64830000  1.0
  O  O112  1  0.07609000  0.08660000  0.17909000  1.0
  O  O113  1  0.98765000  0.91229000  0.32138000  1.0
  O  O114  1  0.92392000  0.91341000  0.82092000  1.0
  O  O115  1  0.01232000  0.08770000  0.67860000  1.0
