# generated using pymatgen
data_ZnH16C28NO8
_symmetry_space_group_name_H-M   'P 1'
_cell_length_a   14.32020000
_cell_length_b   14.35380000
_cell_length_c   15.10030000
_cell_angle_alpha   88.73070000
_cell_angle_beta   86.89170000
_cell_angle_gamma   88.42790000
_symmetry_Int_Tables_number   1
_chemical_formula_structural   ZnH16C28NO8
_chemical_formula_sum   'Zn2 H32 C56 N2 O16'
_cell_volume   3097.45901323
_cell_formula_units_Z   2
loop_
 _symmetry_equiv_pos_site_id
 _symmetry_equiv_pos_as_xyz
  1  'x, y, z'
loop_
 _atom_site_type_symbol
 _atom_site_label
 _atom_site_symmetry_multiplicity
 _atom_site_fract_x
 _atom_site_fract_y
 _atom_site_fract_z
 _atom_site_occupancy
  Zn  Zn0  1  0.50828000  0.38803000  0.51292000  1.0
  Zn  Zn1  1  0.49405000  0.60995000  0.50536000  1.0
  H  H2  1  0.63846000  0.55326000  0.77171000  1.0
  H  H3  1  0.37130000  0.47549000  0.24675000  1.0
  H  H4  1  0.73687000  0.52927000  0.90258000  1.0
  H  H5  1  0.27725000  0.47570000  0.11537000  1.0
  H  H6  1  0.30621000  0.50052000  0.72696000  1.0
  H  H7  1  0.73191000  0.59665000  0.18415000  1.0
  H  H8  1  0.77775000  0.45769000  0.13171000  1.0
  H  H9  1  0.18079000  0.48911000  0.00592000  1.0
  H  H10  1  0.57186000  0.27497000  0.67147000  1.0
  H  H11  1  0.49491000  0.27463000  0.76795000  1.0
  H  H12  1  0.53507000  0.16704000  0.72087000  1.0
  H  H13  1  0.40185000  0.31397000  0.63877000  1.0
  H  H14  1  0.37024000  0.20666000  0.68760000  1.0
  H  H15  1  0.67107000  0.73629000  0.56490000  1.0
  H  H16  1  0.77112000  0.73032000  0.49059000  1.0
  H  H17  1  0.71734000  0.84094000  0.51622000  1.0
  H  H18  1  0.63439000  0.68384000  0.41036000  1.0
  H  H19  1  0.67672000  0.79053000  0.36665000  1.0
  H  H20  1  0.56424000  0.30375000  0.28659000  1.0
  H  H21  1  0.66198000  0.36685000  0.31596000  1.0
  H  H22  1  0.67828000  0.26436000  0.25251000  1.0
  H  H23  1  0.67028000  0.28451000  0.44464000  1.0
  H  H24  1  0.69798000  0.18369000  0.38482000  1.0
  H  H25  1  0.30873000  0.70856000  0.43073000  1.0
  H  H26  1  0.20644000  0.70139000  0.50171000  1.0
  H  H27  1  0.24384000  0.81245000  0.46039000  1.0
  H  H28  1  0.34360000  0.68284000  0.59373000  1.0
  H  H29  1  0.28160000  0.78846000  0.61771000  1.0
  H  H30  1  0.69366000  0.09824000  0.25065000  1.0
  H  H31  1  0.35848000  0.83809000  0.70799000  1.0
  H  H32  1  0.26515000  0.18300000  0.61735000  1.0
  H  H33  1  0.58477000  0.82649000  0.26590000  1.0
  C  C34  1  0.51366000  0.51677000  0.34124000  1.0
  C  C35  1  0.48883000  0.52464000  0.67700000  1.0
  C  C36  1  0.50273000  0.50755000  0.96156000  1.0
  C  C37  1  0.50995000  0.50312000  0.05540000  1.0
  C  C38  1  0.41519000  0.49510000  0.92279000  1.0
  C  C39  1  0.59787000  0.51427000  0.09402000  1.0
  C  C40  1  0.67278000  0.52614000  0.94507000  1.0
  C  C41  1  0.34061000  0.48107000  0.07200000  1.0
  C  C42  1  0.68100000  0.51695000  0.03535000  1.0
  C  C43  1  0.33260000  0.48664000  0.98158000  1.0
  C  C44  1  0.44879000  0.19518000  0.56210000  1.0
  C  C45  1  0.54875000  0.80476000  0.44638000  1.0
  C  C46  1  0.55966000  0.19288000  0.43874000  1.0
  C  C47  1  0.41228000  0.80545000  0.54217000  1.0
  C  C48  1  0.54150000  0.09782000  0.42380000  1.0
  C  C49  1  0.41598000  0.90413000  0.55040000  1.0
  C  C50  1  0.42254000  0.10215000  0.54800000  1.0
  C  C51  1  0.53350000  0.90023000  0.42572000  1.0
  C  C52  1  0.47718000  0.05104000  0.48359000  1.0
  C  C53  1  0.47297000  0.95172000  0.48478000  1.0
  C  C54  1  0.58375000  0.04530000  0.35100000  1.0
  C  C55  1  0.36026000  0.95749000  0.61433000  1.0
  C  C56  1  0.35299000  0.05431000  0.60378000  1.0
  C  C57  1  0.57917000  0.94920000  0.35194000  1.0
  C  C58  1  0.32514000  0.47057000  0.50230000  1.0
  C  C59  1  0.67954000  0.48826000  0.51571000  1.0
  C  C60  1  0.22490000  0.47315000  0.49631000  1.0
  C  C61  1  0.78010000  0.49295000  0.51003000  1.0
  C  C62  1  0.13939000  0.47928000  0.49461000  1.0
  C  C63  1  0.86585000  0.49297000  0.50370000  1.0
  C  C64  1  0.04584000  0.48532000  0.49495000  1.0
  C  C65  1  0.95958000  0.49034000  0.49809000  1.0
  C  C66  1  0.41291000  0.49452000  0.82934000  1.0
  C  C67  1  0.59932000  0.52266000  0.18763000  1.0
  C  C68  1  0.49221000  0.52052000  0.77648000  1.0
  C  C69  1  0.51726000  0.50765000  0.24181000  1.0
  C  C70  1  0.57685000  0.53602000  0.81405000  1.0
  C  C71  1  0.43400000  0.48760000  0.20416000  1.0
  C  C72  1  0.58473000  0.52504000  0.90601000  1.0
  C  C73  1  0.42797000  0.48849000  0.11160000  1.0
  C  C74  1  0.33380000  0.45601000  0.78141000  1.0
  C  C75  1  0.68290000  0.55597000  0.22903000  1.0
  C  C76  1  0.77618000  0.49609000  0.06654000  1.0
  C  C77  1  0.23636000  0.50113000  0.95260000  1.0
  C  C78  1  0.42630000  0.24178000  0.64915000  1.0
  C  C79  1  0.51293000  0.23925000  0.70544000  1.0
  C  C80  1  0.64163000  0.75754000  0.42514000  1.0
  C  C81  1  0.70399000  0.76731000  0.50433000  1.0
  C  C82  1  0.64405000  0.23914000  0.39446000  1.0
  C  C83  1  0.63625000  0.29680000  0.30686000  1.0
  C  C84  1  0.32553000  0.75231000  0.56703000  1.0
  C  C85  1  0.26781000  0.74353000  0.48440000  1.0
  C  C86  1  0.61709000  0.09413000  0.26550000  1.0
  C  C87  1  0.33265000  0.91175000  0.70220000  1.0
  C  C88  1  0.26453000  0.10681000  0.63219000  1.0
  C  C89  1  0.60737000  0.89976000  0.26965000  1.0
  N  N90  1  0.51243000  0.23815000  0.50617000  1.0
  N  N91  1  0.48321000  0.75926000  0.49766000  1.0
  O  O92  1  0.51177000  0.44105000  0.38541000  1.0
  O  O93  1  0.48727000  0.60549000  0.64078000  1.0
  O  O94  1  0.48875000  0.44692000  0.63908000  1.0
  O  O95  1  0.50524000  0.59899000  0.37095000  1.0
  O  O96  1  0.36517000  0.39028000  0.50563000  1.0
  O  O97  1  0.63336000  0.56471000  0.51462000  1.0
  O  O98  1  0.64729000  0.40608000  0.52191000  1.0
  O  O99  1  0.36300000  0.54948000  0.50433000  1.0
  O  O100  1  0.30937000  0.37562000  0.79457000  1.0
  O  O101  1  0.69801000  0.54593000  0.30805000  1.0
  O  O102  1  0.84921000  0.51278000  0.02391000  1.0
  O  O103  1  0.21519000  0.52941000  0.87885000  1.0
  O  O104  1  0.55955000  0.13101000  0.21825000  1.0
  O  O105  1  0.29794000  0.95119000  0.76704000  1.0
  O  O106  1  0.19208000  0.06942000  0.65739000  1.0
  O  O107  1  0.64965000  0.93747000  0.20618000  1.0
