# generated using pymatgen
data_ZnH10C6(SN2)2
_symmetry_space_group_name_H-M   'P 1'
_cell_length_a   7.38541000
_cell_length_b   8.04910000
_cell_length_c   9.43223000
_cell_angle_alpha   91.90150000
_cell_angle_beta   112.04100000
_cell_angle_gamma   93.30390000
_symmetry_Int_Tables_number   1
_chemical_formula_structural   ZnH10C6(SN2)2
_chemical_formula_sum   'Zn2 H20 C12 S4 N8'
_cell_volume   517.95369788
_cell_formula_units_Z   2
loop_
 _symmetry_equiv_pos_site_id
 _symmetry_equiv_pos_as_xyz
  1  'x, y, z'
loop_
 _atom_site_type_symbol
 _atom_site_label
 _atom_site_symmetry_multiplicity
 _atom_site_fract_x
 _atom_site_fract_y
 _atom_site_fract_z
 _atom_site_occupancy
  Zn  Zn0  1  0.21185000  0.82634000  0.26839000  1.0
  Zn  Zn1  1  0.78814000  0.17367000  0.73160000  1.0
  H  H2  1  0.26406000  0.81386000  0.60520000  1.0
  H  H3  1  0.73596000  0.18615000  0.39480000  1.0
  H  H4  1  0.96253000  0.78437000  0.39416000  1.0
  H  H5  1  0.03748000  0.21563000  0.60584000  1.0
  H  H6  1  0.29342000  0.02662000  0.56898000  1.0
  H  H7  1  0.70659000  0.97338000  0.43103000  1.0
  H  H8  1  0.04389000  0.78079000  0.92073000  1.0
  H  H9  1  0.95611000  0.21921000  0.07927000  1.0
  H  H10  1  0.82892000  0.99347000  0.22182000  1.0
  H  H11  1  0.17107000  0.00652000  0.77817000  1.0
  H  H12  1  0.89630000  0.66950000  0.08524000  1.0
  H  H13  1  0.10369000  0.33050000  0.91476000  1.0
  H  H14  1  0.02863000  0.13625000  0.33631000  1.0
  H  H15  1  0.97137000  0.86374000  0.66368000  1.0
  H  H16  1  0.22272000  0.63317000  0.98148000  1.0
  H  H17  1  0.77727000  0.36682000  0.01852000  1.0
  H  H18  1  0.22090000  0.44843000  0.19007000  1.0
  H  H19  1  0.77909000  0.55156000  0.80993000  1.0
  H  H20  1  0.03766000  0.46854000  0.26711000  1.0
  H  H21  1  0.96234000  0.53146000  0.73290000  1.0
  C  C22  1  0.58725000  0.64767000  0.39009000  1.0
  C  C23  1  0.41272000  0.35233000  0.60992000  1.0
  C  C24  1  0.33238000  0.11176000  0.10398000  1.0
  C  C25  1  0.66763000  0.88824000  0.89602000  1.0
  C  C26  1  0.18467000  0.92469000  0.56296000  1.0
  C  C27  1  0.81533000  0.07531000  0.43704000  1.0
  C  C28  1  0.93088000  0.02923000  0.33941000  1.0
  C  C29  1  0.06915000  0.97078000  0.66060000  1.0
  C  C30  1  0.06681000  0.47352000  0.16142000  1.0
  C  C31  1  0.93320000  0.52647000  0.83858000  1.0
  C  C32  1  0.06911000  0.65436000  0.95963000  1.0
  C  C33  1  0.93089000  0.34562000  0.04037000  1.0
  S  S34  1  0.77285000  0.54392000  0.40430000  1.0
  S  S35  1  0.22712000  0.45608000  0.59570000  1.0
  S  S36  1  0.42028000  0.23747000  0.01231000  1.0
  S  S37  1  0.57975000  0.76253000  0.98770000  1.0
  N  N38  1  0.45377000  0.72733000  0.38260000  1.0
  N  N39  1  0.54621000  0.27268000  0.61740000  1.0
  N  N40  1  0.26209000  0.02205000  0.17034000  1.0
  N  N41  1  0.73791000  0.97796000  0.82965000  1.0
  N  N42  1  0.05509000  0.88844000  0.39918000  1.0
  N  N43  1  0.94492000  0.11156000  0.60081000  1.0
  N  N44  1  0.04054000  0.64509000  0.10725000  1.0
  N  N45  1  0.95946000  0.35490000  0.89275000  1.0
