# generated using pymatgen
data_Ag3H12C16(SN4)2
_symmetry_space_group_name_H-M   'P 1'
_cell_length_a   8.32159000
_cell_length_b   8.32253120
_cell_length_c   16.36950000
_cell_angle_alpha   85.67958108
_cell_angle_beta   85.66320000
_cell_angle_gamma   60.61308627
_symmetry_Int_Tables_number   1
_chemical_formula_structural   Ag3H12C16(SN4)2
_chemical_formula_sum   'Ag6 H24 C32 S4 N16'
_cell_volume   984.03771106
_cell_formula_units_Z   2
loop_
 _symmetry_equiv_pos_site_id
 _symmetry_equiv_pos_as_xyz
  1  'x, y, z'
loop_
 _atom_site_type_symbol
 _atom_site_label
 _atom_site_symmetry_multiplicity
 _atom_site_fract_x
 _atom_site_fract_y
 _atom_site_fract_z
 _atom_site_occupancy
  Ag  Ag0  1  0.70392000  0.56905000  0.61059000  1.0
  Ag  Ag1  1  0.43112000  0.29508000  0.88910000  1.0
  Ag  Ag2  1  0.29517000  0.43159000  0.38914000  1.0
  Ag  Ag3  1  0.56948000  0.70405000  0.11062000  1.0
  Ag  Ag4  1  0.87660000  0.12388000  0.24969000  1.0
  Ag  Ag5  1  0.12342000  0.87632000  0.75020000  1.0
  H  H6  1  0.97622000  0.36046000  0.32638000  1.0
  H  H7  1  0.75267000  0.03816000  0.43543000  1.0
  H  H8  1  0.64406000  0.23474000  0.55636000  1.0
  H  H9  1  0.61072000  0.67358000  0.30203000  1.0
  H  H10  1  0.94926000  0.67239000  0.09896000  1.0
  H  H11  1  0.14721000  0.71767000  0.19113000  1.0
  H  H12  1  0.64157000  0.02246000  0.17283000  1.0
  H  H13  1  0.95879000  0.25256000  0.06432000  1.0
  H  H14  1  0.76163000  0.36087000  0.94390000  1.0
  H  H15  1  0.32937000  0.38749000  0.19752000  1.0
  H  H16  1  0.32550000  0.05285000  0.40127000  1.0
  H  H17  1  0.28016000  0.85434000  0.30940000  1.0
  H  H18  1  0.02216000  0.64121000  0.67314000  1.0
  H  H19  1  0.25106000  0.95958000  0.56480000  1.0
  H  H20  1  0.35949000  0.76295000  0.44422000  1.0
  H  H21  1  0.38730000  0.32905000  0.69758000  1.0
  H  H22  1  0.05287000  0.32391000  0.90123000  1.0
  H  H23  1  0.85429000  0.27918000  0.80920000  1.0
  H  H24  1  0.36050000  0.97566000  0.82648000  1.0
  H  H25  1  0.03829000  0.75242000  0.93601000  1.0
  H  H26  1  0.23533000  0.64397000  0.05680000  1.0
  H  H27  1  0.67399000  0.61011000  0.80200000  1.0
  H  H28  1  0.67167000  0.94899000  0.59894000  1.0
  H  H29  1  0.71722000  0.14688000  0.69098000  1.0
  C  C30  1  0.81910000  0.45562000  0.43960000  1.0
  C  C31  1  0.89698000  0.33563000  0.37640000  1.0
  C  C32  1  0.77642000  0.15520000  0.43757000  1.0
  C  C33  1  0.71525000  0.26471000  0.50405000  1.0
  C  C34  1  0.85245000  0.69054000  0.32760000  1.0
  C  C35  1  0.73247000  0.67913000  0.27665000  1.0
  C  C36  1  0.92094000  0.67798000  0.16501000  1.0
  C  C37  1  0.03067000  0.70104000  0.21640000  1.0
  C  C38  1  0.54493000  0.18037000  0.06005000  1.0
  C  C39  1  0.66552000  0.10257000  0.12299000  1.0
  C  C40  1  0.84312000  0.22671000  0.06214000  1.0
  C  C41  1  0.73313000  0.28781000  0.99584000  1.0
  C  C42  1  0.31051000  0.14643000  0.17246000  1.0
  C  C43  1  0.32226000  0.26675000  0.22319000  1.0
  C  C44  1  0.32084000  0.08030000  0.33517000  1.0
  C  C45  1  0.29769000  0.97022000  0.28397000  1.0
  C  C46  1  0.17994000  0.54515000  0.56023000  1.0
  C  C47  1  0.10206000  0.66552000  0.62329000  1.0
  C  C48  1  0.22557000  0.84372000  0.56259000  1.0
  C  C49  1  0.28675000  0.73397000  0.49617000  1.0
  C  C50  1  0.14634000  0.31025000  0.67238000  1.0
  C  C51  1  0.26656000  0.32186000  0.72319000  1.0
  C  C52  1  0.08016000  0.31986000  0.83513000  1.0
  C  C53  1  0.97011000  0.29693000  0.78383000  1.0
  C  C54  1  0.45584000  0.81885000  0.93974000  1.0
  C  C55  1  0.33580000  0.89650000  0.87657000  1.0
  C  C56  1  0.15543000  0.77609000  0.93804000  1.0
  C  C57  1  0.26506000  0.71514000  0.00445000  1.0
  C  C58  1  0.69064000  0.85212000  0.82750000  1.0
  C  C59  1  0.67919000  0.73201000  0.77659000  1.0
  C  C60  1  0.67748000  0.92060000  0.66497000  1.0
  C  C61  1  0.70061000  0.03042000  0.71631000  1.0
  S  S62  1  0.81851000  0.66818000  0.43548000  1.0
  S  S63  1  0.33347000  0.17881000  0.06443000  1.0
  S  S64  1  0.17886000  0.33346000  0.56441000  1.0
  S  S65  1  0.66853000  0.81812000  0.93544000  1.0
  N  N66  1  0.73363000  0.41966000  0.50756000  1.0
  N  N67  1  0.87251000  0.18554000  0.37166000  1.0
  N  N68  1  0.00461000  0.70226000  0.30022000  1.0
  N  N69  1  0.76587000  0.66802000  0.19401000  1.0
  N  N70  1  0.57936000  0.26744000  0.99227000  1.0
  N  N71  1  0.81465000  0.12859000  0.12772000  1.0
  N  N72  1  0.29741000  0.99525000  0.20010000  1.0
  N  N73  1  0.33216000  0.23448000  0.30591000  1.0
  N  N74  1  0.26678000  0.58000000  0.49247000  1.0
  N  N75  1  0.12780000  0.81479000  0.62819000  1.0
  N  N76  1  0.99516000  0.29711000  0.69996000  1.0
  N  N77  1  0.23420000  0.33148000  0.80591000  1.0
  N  N78  1  0.42002000  0.73350000  0.00778000  1.0
  N  N79  1  0.18561000  0.87211000  0.87206000  1.0
  N  N80  1  0.70217000  0.00440000  0.80012000  1.0
  N  N81  1  0.66779000  0.76540000  0.69396000  1.0
