# generated using pymatgen
data_ZnH6(C3N2)2
_symmetry_space_group_name_H-M   'P 1'
_cell_length_a   14.34720000
_cell_length_b   14.72880000
_cell_length_c   17.60350000
_cell_angle_alpha   100.53800000
_cell_angle_beta   90.00000000
_cell_angle_gamma   89.99980000
_symmetry_Int_Tables_number   1
_chemical_formula_structural   ZnH6(C3N2)2
_chemical_formula_sum   'Zn16 H96 C96 N64'
_cell_volume   3657.17870073
_cell_formula_units_Z   16
loop_
 _symmetry_equiv_pos_site_id
 _symmetry_equiv_pos_as_xyz
  1  'x, y, z'
loop_
 _atom_site_type_symbol
 _atom_site_label
 _atom_site_symmetry_multiplicity
 _atom_site_fract_x
 _atom_site_fract_y
 _atom_site_fract_z
 _atom_site_occupancy
  Zn  Zn0  1  0.02709000  0.60591000  0.79650000  1.0
  Zn  Zn1  1  0.52710000  0.89408000  0.20349000  1.0
  Zn  Zn2  1  0.97290000  0.39409000  0.20350000  1.0
  Zn  Zn3  1  0.47290000  0.10591000  0.79651000  1.0
  Zn  Zn4  1  0.73757000  0.39292000  0.93099000  1.0
  Zn  Zn5  1  0.23756000  0.10708000  0.06901000  1.0
  Zn  Zn6  1  0.26243000  0.60708000  0.06901000  1.0
  Zn  Zn7  1  0.76244000  0.89293000  0.93099000  1.0
  Zn  Zn8  1  0.96503000  0.13949000  0.70794000  1.0
  Zn  Zn9  1  0.46503000  0.36050000  0.29206000  1.0
  Zn  Zn10  1  0.03497000  0.86050000  0.29206000  1.0
  Zn  Zn11  1  0.53498000  0.63949000  0.70794000  1.0
  Zn  Zn12  1  0.20129000  0.80249000  0.58721000  1.0
  Zn  Zn13  1  0.70130000  0.69751000  0.41280000  1.0
  Zn  Zn14  1  0.79870000  0.19751000  0.41280000  1.0
  Zn  Zn15  1  0.29871000  0.30250000  0.58721000  1.0
  H  H16  1  0.19042000  0.68907000  0.71858000  1.0
  H  H17  1  0.69043000  0.81093000  0.28142000  1.0
  H  H18  1  0.80957000  0.31094000  0.28142000  1.0
  H  H19  1  0.30958000  0.18908000  0.71858000  1.0
  H  H20  1  0.95213000  0.55541000  0.61203000  1.0
  H  H21  1  0.45213000  0.94458000  0.38797000  1.0
  H  H22  1  0.04787000  0.44459000  0.38798000  1.0
  H  H23  1  0.54787000  0.05542000  0.61202000  1.0
  H  H24  1  0.04164000  0.64504000  0.50850000  1.0
  H  H25  1  0.54165000  0.85496000  0.49150000  1.0
  H  H26  1  0.95835000  0.35496000  0.49150000  1.0
  H  H27  1  0.45835000  0.14504000  0.50850000  1.0
  H  H28  1  0.92053000  0.51182000  0.92132000  1.0
  H  H29  1  0.42053000  0.98818000  0.07868000  1.0
  H  H30  1  0.07947000  0.48818000  0.07869000  1.0
  H  H31  1  0.57947000  0.01182000  0.92132000  1.0
  H  H32  1  0.83861000  0.53974000  0.69693000  1.0
  H  H33  1  0.33861000  0.96026000  0.30306000  1.0
  H  H34  1  0.16139000  0.46026000  0.30307000  1.0
  H  H35  1  0.66139000  0.03974000  0.69694000  1.0
  H  H36  1  0.69490000  0.45876000  0.76648000  1.0
  H  H37  1  0.19490000  0.04124000  0.23352000  1.0
  H  H38  1  0.30509000  0.54124000  0.23352000  1.0
  H  H39  1  0.80509000  0.95876000  0.76649000  1.0
  H  H40  1  0.09212000  0.63487000  0.97012000  1.0
  H  H41  1  0.59212000  0.86513000  0.02988000  1.0
  H  H42  1  0.90787000  0.36513000  0.02989000  1.0
  H  H43  1  0.40787000  0.13487000  0.97012000  1.0
  H  H44  1  0.34157000  0.49428000  0.89719000  1.0
  H  H45  1  0.84157000  0.00572000  0.10281000  1.0
  H  H46  1  0.65843000  0.50572000  0.10281000  1.0
  H  H47  1  0.15843000  0.99428000  0.89719000  1.0
  H  H48  1  0.22815000  0.49428000  0.77048000  1.0
  H  H49  1  0.72815000  0.00572000  0.22951000  1.0
  H  H50  1  0.77185000  0.50572000  0.22952000  1.0
  H  H51  1  0.27185000  0.99428000  0.77049000  1.0
  H  H52  1  0.84324000  0.71822000  0.83583000  1.0
  H  H53  1  0.34325000  0.78179000  0.16417000  1.0
  H  H54  1  0.15676000  0.28179000  0.16417000  1.0
  H  H55  1  0.65676000  0.21821000  0.83583000  1.0
  H  H56  1  0.99310000  0.94238000  0.96105000  1.0
  H  H57  1  0.49310000  0.55763000  0.03896000  1.0
  H  H58  1  0.00690000  0.05763000  0.03896000  1.0
  H  H59  1  0.50690000  0.44237000  0.96104000  1.0
  H  H60  1  0.11669000  0.80449000  0.89817000  1.0
  H  H61  1  0.61670000  0.69551000  0.10183000  1.0
  H  H62  1  0.88331000  0.19552000  0.10183000  1.0
  H  H63  1  0.38331000  0.30449000  0.89817000  1.0
  H  H64  1  0.85720000  0.31273000  0.78439000  1.0
  H  H65  1  0.35720000  0.18727000  0.21561000  1.0
  H  H66  1  0.14280000  0.68728000  0.21561000  1.0
  H  H67  1  0.64280000  0.81273000  0.78439000  1.0
  H  H68  1  0.91200000  0.07389000  0.87713000  1.0
  H  H69  1  0.41200000  0.42611000  0.12287000  1.0
  H  H70  1  0.08800000  0.92611000  0.12287000  1.0
  H  H71  1  0.58801000  0.57389000  0.87713000  1.0
  H  H72  1  0.80412000  0.19409000  0.97993000  1.0
  H  H73  1  0.30413000  0.30591000  0.02007000  1.0
  H  H74  1  0.19588000  0.80591000  0.02007000  1.0
  H  H75  1  0.69589000  0.69409000  0.97994000  1.0
  H  H76  1  0.09476000  0.00049000  0.58600000  1.0
  H  H77  1  0.59477000  0.49950000  0.41400000  1.0
  H  H78  1  0.90523000  0.99950000  0.41401000  1.0
  H  H79  1  0.40523000  0.50049000  0.58600000  1.0
  H  H80  1  0.11656000  0.83703000  0.75810000  1.0
  H  H81  1  0.61657000  0.66297000  0.24190000  1.0
  H  H82  1  0.88343000  0.16296000  0.24190000  1.0
  H  H83  1  0.38343000  0.33703000  0.75810000  1.0
  H  H84  1  0.00727000  0.98829000  0.81274000  1.0
  H  H85  1  0.50727000  0.51172000  0.18726000  1.0
  H  H86  1  0.99272000  0.01171000  0.18727000  1.0
  H  H87  1  0.49273000  0.48828000  0.81273000  1.0
  H  H88  1  0.08710000  0.75557000  0.42706000  1.0
  H  H89  1  0.58711000  0.74442000  0.57294000  1.0
  H  H90  1  0.91289000  0.24443000  0.57294000  1.0
  H  H91  1  0.41290000  0.25557000  0.42706000  1.0
  H  H92  1  0.20203000  0.99929000  0.37457000  1.0
  H  H93  1  0.70203000  0.50071000  0.62543000  1.0
  H  H94  1  0.79797000  0.00070000  0.62543000  1.0
  H  H95  1  0.29797000  0.49929000  0.37457000  1.0
  H  H96  1  0.28955000  0.95911000  0.50509000  1.0
  H  H97  1  0.78955000  0.54089000  0.49490000  1.0
  H  H98  1  0.71045000  0.04089000  0.49490000  1.0
  H  H99  1  0.21045000  0.45911000  0.50509000  1.0
  H  H100  1  0.33591000  0.65499000  0.63862000  1.0
  H  H101  1  0.83591000  0.84501000  0.36138000  1.0
  H  H102  1  0.66409000  0.34502000  0.36138000  1.0
  H  H103  1  0.16408000  0.15500000  0.63862000  1.0
  H  H104  1  0.52990000  0.86813000  0.71079000  1.0
  H  H105  1  0.02990000  0.63186000  0.28921000  1.0
  H  H106  1  0.47010000  0.13187000  0.28921000  1.0
  H  H107  1  0.97009000  0.36814000  0.71079000  1.0
  H  H108  1  0.37821000  0.93950000  0.64537000  1.0
  H  H109  1  0.87820000  0.56050000  0.35463000  1.0
  H  H110  1  0.62179000  0.06051000  0.35463000  1.0
  H  H111  1  0.12178000  0.43951000  0.64537000  1.0
  C  C112  1  0.13777000  0.66494000  0.67522000  1.0
  C  C113  1  0.63778000  0.83505000  0.32478000  1.0
  C  C114  1  0.86222000  0.33507000  0.32478000  1.0
  C  C115  1  0.36223000  0.16495000  0.67522000  1.0
  C  C116  1  0.01515000  0.59665000  0.61940000  1.0
  C  C117  1  0.51515000  0.90334000  0.38059000  1.0
  C  C118  1  0.98485000  0.40335000  0.38060000  1.0
  C  C119  1  0.48485000  0.09666000  0.61940000  1.0
  C  C120  1  0.06022000  0.64117000  0.56757000  1.0
  C  C121  1  0.56022000  0.85883000  0.43243000  1.0
  C  C122  1  0.93978000  0.35884000  0.43244000  1.0
  C  C123  1  0.43978000  0.14117000  0.56757000  1.0
  C  C124  1  0.87862000  0.50837000  0.86948000  1.0
  C  C125  1  0.37862000  0.99162000  0.13051000  1.0
  C  C126  1  0.12138000  0.49162000  0.13051000  1.0
  C  C127  1  0.62138000  0.00838000  0.86949000  1.0
  C  C128  1  0.83531000  0.52059000  0.75345000  1.0
  C  C129  1  0.33531000  0.97940000  0.24655000  1.0
  C  C130  1  0.16469000  0.47940000  0.24655000  1.0
  C  C131  1  0.66470000  0.02060000  0.75346000  1.0
  C  C132  1  0.76339000  0.48143000  0.78828000  1.0
  C  C133  1  0.26339000  0.01856000  0.21172000  1.0
  C  C134  1  0.23661000  0.51855000  0.21172000  1.0
  C  C135  1  0.73662000  0.98145000  0.78828000  1.0
  C  C136  1  0.14390000  0.59511000  0.93311000  1.0
  C  C137  1  0.64391000  0.90489000  0.06688000  1.0
  C  C138  1  0.85609000  0.40489000  0.06689000  1.0
  C  C139  1  0.35609000  0.09512000  0.93311000  1.0
  C  C140  1  0.27235000  0.52282000  0.89421000  1.0
  C  C141  1  0.77235000  0.97718000  0.10579000  1.0
  C  C142  1  0.72764000  0.47718000  0.10579000  1.0
  C  C143  1  0.22764000  0.02283000  0.89421000  1.0
  C  C144  1  0.21606000  0.52326000  0.83081000  1.0
  C  C145  1  0.71606000  0.97673000  0.16918000  1.0
  C  C146  1  0.78394000  0.47674000  0.16919000  1.0
  C  C147  1  0.28393000  0.02326000  0.83082000  1.0
  C  C148  1  0.90109000  0.76107000  0.86057000  1.0
  C  C149  1  0.40110000  0.73893000  0.13943000  1.0
  C  C150  1  0.09891000  0.23894000  0.13942000  1.0
  C  C151  1  0.59891000  0.26107000  0.86058000  1.0
  C  C152  1  0.97986000  0.87567000  0.92508000  1.0
  C  C153  1  0.47986000  0.62432000  0.07492000  1.0
  C  C154  1  0.02014000  0.12433000  0.07491000  1.0
  C  C155  1  0.52014000  0.37567000  0.92508000  1.0
  C  C156  1  0.04140000  0.80698000  0.89392000  1.0
  C  C157  1  0.54141000  0.69302000  0.10608000  1.0
  C  C158  1  0.95860000  0.19302000  0.10608000  1.0
  C  C159  1  0.45860000  0.30698000  0.89392000  1.0
  C  C160  1  0.85863000  0.26408000  0.82384000  1.0
  C  C161  1  0.35863000  0.23593000  0.17616000  1.0
  C  C162  1  0.14138000  0.73593000  0.17616000  1.0
  C  C163  1  0.64138000  0.76408000  0.82384000  1.0
  C  C164  1  0.88572000  0.14162000  0.87273000  1.0
  C  C165  1  0.38572000  0.35838000  0.12727000  1.0
  C  C166  1  0.11428000  0.85838000  0.12728000  1.0
  C  C167  1  0.61429000  0.64162000  0.87273000  1.0
  C  C168  1  0.83216000  0.20146000  0.92421000  1.0
  C  C169  1  0.33217000  0.29854000  0.07579000  1.0
  C  C170  1  0.16783000  0.79855000  0.07579000  1.0
  C  C171  1  0.66784000  0.70146000  0.92421000  1.0
  C  C172  1  0.08673000  0.97750000  0.64089000  1.0
  C  C173  1  0.58674000  0.52249000  0.35910000  1.0
  C  C174  1  0.91326000  0.02249000  0.35911000  1.0
  C  C175  1  0.41327000  0.47750000  0.64089000  1.0
  C  C176  1  0.09670000  0.89384000  0.73030000  1.0
  C  C177  1  0.59671000  0.60616000  0.26969000  1.0
  C  C178  1  0.90329000  0.10615000  0.26970000  1.0
  C  C179  1  0.40329000  0.39384000  0.73030000  1.0
  C  C180  1  0.04167000  0.96920000  0.75745000  1.0
  C  C181  1  0.54168000  0.53080000  0.24254000  1.0
  C  C182  1  0.95832000  0.03080000  0.24255000  1.0
  C  C183  1  0.45833000  0.46920000  0.75745000  1.0
  C  C184  1  0.13152000  0.81584000  0.43032000  1.0
  C  C185  1  0.63153000  0.68416000  0.56969000  1.0
  C  C186  1  0.86848000  0.18416000  0.56968000  1.0
  C  C187  1  0.36849000  0.31584000  0.43032000  1.0
  C  C188  1  0.19204000  0.94174000  0.40426000  1.0
  C  C189  1  0.69205000  0.55827000  0.59574000  1.0
  C  C190  1  0.80796000  0.05826000  0.59574000  1.0
  C  C191  1  0.30796000  0.44173000  0.40426000  1.0
  C  C192  1  0.23495000  0.92212000  0.46947000  1.0
  C  C193  1  0.73495000  0.57788000  0.53053000  1.0
  C  C194  1  0.76505000  0.07787000  0.53053000  1.0
  C  C195  1  0.26505000  0.42212000  0.46947000  1.0
  C  C196  1  0.36814000  0.72279000  0.64943000  1.0
  C  C197  1  0.86814000  0.77721000  0.35057000  1.0
  C  C198  1  0.63185000  0.27721000  0.35058000  1.0
  C  C199  1  0.13186000  0.22280000  0.64943000  1.0
  C  C200  1  0.46750000  0.83348000  0.68561000  1.0
  C  C201  1  0.96750000  0.66652000  0.31439000  1.0
  C  C202  1  0.53250000  0.16652000  0.31439000  1.0
  C  C203  1  0.03249000  0.33348000  0.68562000  1.0
  C  C204  1  0.39162000  0.86931000  0.65306000  1.0
  C  C205  1  0.89161000  0.63069000  0.34694000  1.0
  C  C206  1  0.60838000  0.13070000  0.34694000  1.0
  C  C207  1  0.10838000  0.36931000  0.65306000  1.0
  N  N208  1  0.06474000  0.61221000  0.68796000  1.0
  N  N209  1  0.56474000  0.88779000  0.31203000  1.0
  N  N210  1  0.93525000  0.38780000  0.31204000  1.0
  N  N211  1  0.43526000  0.11222000  0.68796000  1.0
  N  N212  1  0.13818000  0.68482000  0.60340000  1.0
  N  N213  1  0.63819000  0.81518000  0.39661000  1.0
  N  N214  1  0.86180000  0.31519000  0.39661000  1.0
  N  N215  1  0.36181000  0.18482000  0.60340000  1.0
  N  N216  1  0.90849000  0.53710000  0.80522000  1.0
  N  N217  1  0.40849000  0.96289000  0.19478000  1.0
  N  N218  1  0.09151000  0.46289000  0.19478000  1.0
  N  N219  1  0.59152000  0.03711000  0.80522000  1.0
  N  N220  1  0.79129000  0.47429000  0.86199000  1.0
  N  N221  1  0.29129000  0.02571000  0.13800000  1.0
  N  N222  1  0.20871000  0.52570000  0.13800000  1.0
  N  N223  1  0.70872000  0.97430000  0.86200000  1.0
  N  N224  1  0.13465000  0.56930000  0.85600000  1.0
  N  N225  1  0.63466000  0.93069000  0.14400000  1.0
  N  N226  1  0.86534000  0.43070000  0.14400000  1.0
  N  N227  1  0.36534000  0.06930000  0.85600000  1.0
  N  N228  1  0.22619000  0.56850000  0.95893000  1.0
  N  N229  1  0.72620000  0.93150000  0.04106000  1.0
  N  N230  1  0.77380000  0.43150000  0.04107000  1.0
  N  N231  1  0.27380000  0.06851000  0.95893000  1.0
  N  N232  1  0.99078000  0.73443000  0.85307000  1.0
  N  N233  1  0.49078000  0.76557000  0.14693000  1.0
  N  N234  1  0.00922000  0.26558000  0.14692000  1.0
  N  N235  1  0.50922000  0.23442000  0.85308000  1.0
  N  N236  1  0.89068000  0.84618000  0.90371000  1.0
  N  N237  1  0.39068000  0.65382000  0.09629000  1.0
  N  N238  1  0.10932000  0.15383000  0.09628000  1.0
  N  N239  1  0.60932000  0.34618000  0.90371000  1.0
  N  N240  1  0.81574000  0.27925000  0.89293000  1.0
  N  N241  1  0.31574000  0.22075000  0.10707000  1.0
  N  N242  1  0.18427000  0.72075000  0.10707000  1.0
  N  N243  1  0.68427000  0.77925000  0.89293000  1.0
  N  N244  1  0.90212000  0.18165000  0.80892000  1.0
  N  N245  1  0.40211000  0.31835000  0.19108000  1.0
  N  N246  1  0.09789000  0.81836000  0.19109000  1.0
  N  N247  1  0.59789000  0.68165000  0.80892000  1.0
  N  N248  1  0.03559000  0.02229000  0.70063000  1.0
  N  N249  1  0.53560000  0.47770000  0.29937000  1.0
  N  N250  1  0.96441000  0.97770000  0.29937000  1.0
  N  N251  1  0.46441000  0.52229000  0.70063000  1.0
  N  N252  1  0.12530000  0.89959000  0.65657000  1.0
  N  N253  1  0.62531000  0.60040000  0.34342000  1.0
  N  N254  1  0.87469000  0.10040000  0.34342000  1.0
  N  N255  1  0.37470000  0.39960000  0.65658000  1.0
  N  N256  1  0.12694000  0.87386000  0.37965000  1.0
  N  N257  1  0.62695000  0.62615000  0.62036000  1.0
  N  N258  1  0.87306000  0.12614000  0.62036000  1.0
  N  N259  1  0.37306000  0.37385000  0.37964000  1.0
  N  N260  1  0.19598000  0.84183000  0.48564000  1.0
  N  N261  1  0.69598000  0.65817000  0.51436000  1.0
  N  N262  1  0.80402000  0.15817000  0.51436000  1.0
  N  N263  1  0.30403000  0.34183000  0.48564000  1.0
  N  N264  1  0.45190000  0.74036000  0.68320000  1.0
  N  N265  1  0.95190000  0.75964000  0.31680000  1.0
  N  N266  1  0.54810000  0.25964000  0.31680000  1.0
  N  N267  1  0.04810000  0.24036000  0.68321000  1.0
  N  N268  1  0.32879000  0.79854000  0.63037000  1.0
  N  N269  1  0.82879000  0.70145000  0.36963000  1.0
  N  N270  1  0.67121000  0.20146000  0.36964000  1.0
  N  N271  1  0.17121000  0.29855000  0.63037000  1.0
