# generated using pymatgen
data_Zn2H90C77N4O19
_symmetry_space_group_name_H-M   'P 1'
_cell_length_a   9.97899000
_cell_length_b   10.88690000
_cell_length_c   23.44630000
_cell_angle_alpha   90.43850000
_cell_angle_beta   90.13430000
_cell_angle_gamma   90.80700000
_symmetry_Int_Tables_number   1
_chemical_formula_structural   Zn2H90C77N4O19
_chemical_formula_sum   'Zn2 H90 C77 N4 O19'
_cell_volume   2546.87737065
_cell_formula_units_Z   1
loop_
 _symmetry_equiv_pos_site_id
 _symmetry_equiv_pos_as_xyz
  1  'x, y, z'
loop_
 _atom_site_type_symbol
 _atom_site_label
 _atom_site_symmetry_multiplicity
 _atom_site_fract_x
 _atom_site_fract_y
 _atom_site_fract_z
 _atom_site_occupancy
  Zn  Zn0  1  0.63238000  0.51568000  0.50321000  1.0
  Zn  Zn1  1  0.34188000  0.51024000  0.49778000  1.0
  H  H2  1  0.55731000  0.78756000  0.93422000  1.0
  H  H3  1  0.65112000  0.36698000  0.66834000  1.0
  H  H4  1  0.67449000  0.35032000  0.77478000  1.0
  H  H5  1  0.28141000  0.89184000  0.49347000  1.0
  H  H6  1  0.28174000  0.12132000  0.48432000  1.0
  H  H7  1  0.78422000  0.12963000  0.56177000  1.0
  H  H8  1  0.81256000  0.90862000  0.48158000  1.0
  H  H9  1  0.52816000  0.80877000  0.04147000  1.0
  H  H10  1  0.85323000  0.72823000  0.41662000  1.0
  H  H11  1  0.12946000  0.64719000  0.37666000  1.0
  H  H12  1  0.36433000  0.38423000  0.31370000  1.0
  H  H13  1  0.34376000  0.79199000  0.71285000  1.0
  H  H14  1  0.40455000  0.75076000  0.64430000  1.0
  H  H15  1  0.23672000  0.79902000  0.65194000  1.0
  H  H16  1  0.24333000  0.57062000  0.64066000  1.0
  H  H17  1  0.18142000  0.61021000  0.70835000  1.0
  H  H18  1  0.88285000  0.24551000  0.41001000  1.0
  H  H19  1  0.71731000  0.25235000  0.43709000  1.0
  H  H20  1  0.84351000  0.04511000  0.36697000  1.0
  H  H21  1  0.69426000  0.02184000  0.40587000  1.0
  H  H22  1  0.58221000  0.19174000  0.35376000  1.0
  H  H23  1  0.64266000  0.08065000  0.30463000  1.0
  H  H24  1  0.72977000  0.22222000  0.31435000  1.0
  H  H25  1  0.76418000  0.00842000  0.63960000  1.0
  H  H26  1  0.63986000  0.89297000  0.62755000  1.0
  H  H27  1  0.78958000  0.85700000  0.66412000  1.0
  H  H28  1  0.79972000  0.77672000  0.56456000  1.0
  H  H29  1  0.92383000  0.89199000  0.57494000  1.0
  H  H30  1  0.26193000  0.26643000  0.57996000  1.0
  H  H31  1  0.11787000  0.23335000  0.53641000  1.0
  H  H32  1  0.11287000  0.24267000  0.66710000  1.0
  H  H33  1  0.97951000  0.19488000  0.62185000  1.0
  H  H34  1  0.12380000  0.01538000  0.58733000  1.0
  H  H35  1  0.09271000  0.01087000  0.66179000  1.0
  H  H36  1  0.25054000  0.06322000  0.63605000  1.0
  H  H37  1  0.76976000  0.57198000  0.63895000  1.0
  H  H38  1  0.94074000  0.59941000  0.61972000  1.0
  H  H39  1  0.85608000  0.39762000  0.70283000  1.0
  H  H40  1  0.02067000  0.45169000  0.68908000  1.0
  H  H41  1  0.95482000  0.66346000  0.72720000  1.0
  H  H42  1  0.93246000  0.54858000  0.77964000  1.0
  H  H43  1  0.79183000  0.60452000  0.74207000  1.0
  H  H44  1  0.79627000  0.46280000  0.30456000  1.0
  H  H45  1  0.84800000  0.42029000  0.37371000  1.0
  H  H46  1  0.04351000  0.51729000  0.28315000  1.0
  H  H47  1  0.08748000  0.43955000  0.34617000  1.0
  H  H48  1  0.96628000  0.24694000  0.30805000  1.0
  H  H49  1  0.09948000  0.29409000  0.26329000  1.0
  H  H50  1  0.93116000  0.32636000  0.24411000  1.0
  H  H51  1  0.05714000  0.96106000  0.43842000  1.0
  H  H52  1  0.97167000  0.87236000  0.38574000  1.0
  H  H53  1  0.27339000  0.92793000  0.38743000  1.0
  H  H54  1  0.18994000  0.84018000  0.33418000  1.0
  H  H55  1  0.05382000  0.02541000  0.30717000  1.0
  H  H56  1  0.22818000  0.05736000  0.30217000  1.0
  H  H57  1  0.13624000  0.11298000  0.36139000  1.0
  H  H58  1  0.80353000  0.18614000  0.07844000  1.0
  H  H59  1  0.73868000  0.08074000  0.02535000  1.0
  H  H60  1  0.71374000  0.05419000  0.15528000  1.0
  H  H61  1  0.64686000  0.94857000  0.10474000  1.0
  H  H62  1  0.88090000  0.90628000  0.06806000  1.0
  H  H63  1  0.86930000  0.87606000  0.14207000  1.0
  H  H64  1  0.94835000  0.01323000  0.11847000  1.0
  H  H65  1  0.43819000  0.00986000  0.92101000  1.0
  H  H66  1  0.36019000  0.15495000  0.92036000  1.0
  H  H67  1  0.39636000  0.99567000  0.02740000  1.0
  H  H68  1  0.31507000  0.13824000  0.02570000  1.0
  H  H69  1  0.14165000  0.04895000  0.95660000  1.0
  H  H70  1  0.14533000  0.96642000  0.02159000  1.0
  H  H71  1  0.22248000  0.90495000  0.95975000  1.0
  H  H72  1  0.18322000  0.47145000  0.19869000  1.0
  H  H73  1  0.28479000  0.49199000  0.13768000  1.0
  H  H74  1  0.18501000  0.35626000  0.14454000  1.0
  H  H75  1  0.32134000  0.28938000  0.22777000  1.0
  H  H76  1  0.42379000  0.30837000  0.16801000  1.0
  H  H77  1  0.48735000  0.86817000  0.29262000  1.0
  H  H78  1  0.41084000  0.79170000  0.35087000  1.0
  H  H79  1  0.52618000  0.91414000  0.36405000  1.0
  H  H80  1  0.63314000  0.71316000  0.38246000  1.0
  H  H81  1  0.71203000  0.78399000  0.32430000  1.0
  H  H82  1  0.85219000  0.54444000  0.20689000  1.0
  H  H83  1  0.80466000  0.61041000  0.14134000  1.0
  H  H84  1  0.92295000  0.68710000  0.18552000  1.0
  H  H85  1  0.67327000  0.76930000  0.18931000  1.0
  H  H86  1  0.76641000  0.75375000  0.25225000  1.0
  H  H87  1  0.13643000  0.43509000  0.78916000  1.0
  H  H88  1  0.23845000  0.40192000  0.84870000  1.0
  H  H89  1  0.11069000  0.51398000  0.85498000  1.0
  H  H90  1  0.33426000  0.61868000  0.84593000  1.0
  H  H91  1  0.23390000  0.65164000  0.78722000  1.0
  C  C92  1  0.49507000  0.74581000  0.50632000  1.0
  C  C93  1  0.55290000  0.70755000  0.96187000  1.0
  C  C94  1  0.54106000  0.71948000  0.02106000  1.0
  C  C95  1  0.54586000  0.61556000  0.05507000  1.0
  C  C96  1  0.56052000  0.49769000  0.03029000  1.0
  C  C97  1  0.58421000  0.39404000  0.06496000  1.0
  C  C98  1  0.58265000  0.27723000  0.04022000  1.0
  C  C99  1  0.55296000  0.26135000  0.98018000  1.0
  C  C100  1  0.52306000  0.62656000  0.11719000  1.0
  C  C101  1  0.61382000  0.41553000  0.12641000  1.0
  C  C102  1  0.44792000  0.44713000  0.23431000  1.0
  C  C103  1  0.48266000  0.52982000  0.39024000  1.0
  C  C104  1  0.43107000  0.45090000  0.29330000  1.0
  C  C105  1  0.49658000  0.53958000  0.32669000  1.0
  C  C106  1  0.57965000  0.63036000  0.30215000  1.0
  C  C107  1  0.61051000  0.62021000  0.24350000  1.0
  C  C108  1  0.54122000  0.53037000  0.21089000  1.0
  C  C109  1  0.39233000  0.52588000  0.76822000  1.0
  C  C110  1  0.38043000  0.53654000  0.70841000  1.0
  C  C111  1  0.47814000  0.48171000  0.67354000  1.0
  C  C112  1  0.58048000  0.41150000  0.69691000  1.0
  C  C113  1  0.59326000  0.40177000  0.75564000  1.0
  C  C114  1  0.48898000  0.27971000  0.49611000  1.0
  C  C115  1  0.50200000  0.46179000  0.79041000  1.0
  C  C116  1  0.61139000  0.95176000  0.51101000  1.0
  C  C117  1  0.49385000  0.88186000  0.50658000  1.0
  C  C118  1  0.37405000  0.94554000  0.49765000  1.0
  C  C119  1  0.37456000  0.07292000  0.49265000  1.0
  C  C120  1  0.49336000  0.14356000  0.49809000  1.0
  C  C121  1  0.61160000  0.07943000  0.50764000  1.0
  C  C122  1  0.76275000  0.08926000  0.51944000  1.0
  C  C123  1  0.76170000  0.94301000  0.52000000  1.0
  C  C124  1  0.05670000  0.56639000  0.45983000  1.0
  C  C125  1  0.48058000  0.49803000  0.61001000  1.0
  C  C126  1  0.05736000  0.45416000  0.54040000  1.0
  C  C127  1  0.91353000  0.46414000  0.54236000  1.0
  C  C128  1  0.91879000  0.55751000  0.45673000  1.0
  C  C129  1  0.90862000  0.64457000  0.40584000  1.0
  C  C130  1  0.06758000  0.66532000  0.41448000  1.0
  C  C131  1  0.51752000  0.35443000  0.88230000  1.0
  C  C132  1  0.56112000  0.58135000  0.87403000  1.0
  C  C133  1  0.55504000  0.59138000  0.93663000  1.0
  C  C134  1  0.55224000  0.48380000  0.97007000  1.0
  C  C135  1  0.54210000  0.36446000  0.94480000  1.0
  C  C136  1  0.27156000  0.61253000  0.68166000  1.0
  C  C137  1  0.31661000  0.74643000  0.67234000  1.0
  C  C138  1  0.80049000  0.18990000  0.42800000  1.0
  C  C139  1  0.75564000  0.09220000  0.38448000  1.0
  C  C140  1  0.67345000  0.14970000  0.33663000  1.0
  C  C141  1  0.81468000  0.87583000  0.57231000  1.0
  C  C142  1  0.74853000  0.91077000  0.62883000  1.0
  C  C143  1  0.15212000  0.26744000  0.57830000  1.0
  C  C144  1  0.08924000  0.19525000  0.62660000  1.0
  C  C145  1  0.14201000  0.06401000  0.62796000  1.0
  C  C146  1  0.86886000  0.53005000  0.63562000  1.0
  C  C147  1  0.91562000  0.47985000  0.69209000  1.0
  C  C148  1  0.89765000  0.57950000  0.73780000  1.0
  C  C149  1  0.87486000  0.47789000  0.33692000  1.0
  C  C150  1  0.01095000  0.44384000  0.31230000  1.0
  C  C151  1  0.00165000  0.32119000  0.28016000  1.0
  C  C152  1  0.06921000  0.88549000  0.40747000  1.0
  C  C153  1  0.17790000  0.91696000  0.36448000  1.0
  C  C154  1  0.14709000  0.03444000  0.33204000  1.0
  C  C155  1  0.72530000  0.11628000  0.06910000  1.0
  C  C156  1  0.72984000  0.01433000  0.11262000  1.0
  C  C157  1  0.86440000  0.94894000  0.11012000  1.0
  C  C158  1  0.41498000  0.09063000  0.94736000  1.0
  C  C159  1  0.33561000  0.05520000  0.00021000  1.0
  C  C160  1  0.20400000  0.99042000  0.98362000  1.0
  C  C161  1  0.36293000  0.35941000  0.19893000  1.0
  C  C162  1  0.24757000  0.42339000  0.16810000  1.0
  C  C163  1  0.61769000  0.74121000  0.33814000  1.0
  C  C164  1  0.50433000  0.83478000  0.33617000  1.0
  C  C165  1  0.71882000  0.70118000  0.21756000  1.0
  C  C166  1  0.83012000  0.63168000  0.18591000  1.0
  C  C167  1  0.28741000  0.57686000  0.80797000  1.0
  C  C168  1  0.18732000  0.47637000  0.82640000  1.0
  N  N169  1  0.52546000  0.46522000  0.85124000  1.0
  N  N170  1  0.55929000  0.52460000  0.14985000  1.0
  N  N171  1  0.13085000  0.51136000  0.50010000  1.0
  N  N172  1  0.84258000  0.50972000  0.49883000  1.0
  O  O173  1  0.60781000  0.69788000  0.49431000  1.0
  O  O174  1  0.59015000  0.66843000  0.84312000  1.0
  O  O175  1  0.47469000  0.71922000  0.13888000  1.0
  O  O176  1  0.67907000  0.34585000  0.15612000  1.0
  O  O177  1  0.38564000  0.68918000  0.51657000  1.0
  O  O178  1  0.58848000  0.49954000  0.41668000  1.0
  O  O179  1  0.36779000  0.54795000  0.41214000  1.0
  O  O180  1  0.59586000  0.33529000  0.51248000  1.0
  O  O181  1  0.38079000  0.32910000  0.47967000  1.0
  O  O182  1  0.58849000  0.54162000  0.58920000  1.0
  O  O183  1  0.37737000  0.46529000  0.58179000  1.0
  O  O184  1  0.49091000  0.25766000  0.85711000  1.0
  O  O185  1  0.85444000  0.14603000  0.48080000  1.0
  O  O186  1  0.11560000  0.39765000  0.58375000  1.0
  O  O187  1  0.85109000  0.43359000  0.59080000  1.0
  O  O188  1  0.86227000  0.60494000  0.35245000  1.0
  O  O189  1  0.09846000  0.77933000  0.44159000  1.0
  O  O190  1  0.59577000  0.17574000  0.07281000  1.0
  O  O191  1  0.54610000  0.14328000  0.96167000  1.0
