# generated using pymatgen
data_KH14C13SNO7
_symmetry_space_group_name_H-M   'P 1'
_cell_length_a   8.21112000
_cell_length_b   10.29980000
_cell_length_c   17.71810000
_cell_angle_alpha   92.20690000
_cell_angle_beta   94.79650000
_cell_angle_gamma   93.56840000
_symmetry_Int_Tables_number   1
_chemical_formula_structural   KH14C13SNO7
_chemical_formula_sum   'K4 H56 C52 S4 N4 O28'
_cell_volume   1488.88810430
_cell_formula_units_Z   4
loop_
 _symmetry_equiv_pos_site_id
 _symmetry_equiv_pos_as_xyz
  1  'x, y, z'
loop_
 _atom_site_type_symbol
 _atom_site_label
 _atom_site_symmetry_multiplicity
 _atom_site_fract_x
 _atom_site_fract_y
 _atom_site_fract_z
 _atom_site_occupancy
  K  K0  1  0.57842000  0.17539000  0.96724000  1.0
  K  K1  1  0.42157000  0.82460000  0.03276000  1.0
  K  K2  1  0.10666000  0.26716000  0.95813000  1.0
  K  K3  1  0.89335000  0.73283000  0.04186000  1.0
  H  H4  1  0.27532000  0.60877000  0.60255000  1.0
  H  H5  1  0.72468000  0.39124000  0.39745000  1.0
  H  H6  1  0.18361000  0.58070000  0.73125000  1.0
  H  H7  1  0.81638000  0.41930000  0.26875000  1.0
  H  H8  1  0.92568000  0.21460000  0.65439000  1.0
  H  H9  1  0.07433000  0.78540000  0.34561000  1.0
  H  H10  1  0.28401000  0.53574000  0.47316000  1.0
  H  H11  1  0.71600000  0.46426000  0.52684000  1.0
  H  H12  1  0.03868000  0.22741000  0.30698000  1.0
  H  H13  1  0.96132000  0.77259000  0.69302000  1.0
  H  H14  1  0.12329000  0.23575000  0.17594000  1.0
  H  H15  1  0.87670000  0.76425000  0.82406000  1.0
  H  H16  1  0.51477000  0.52106000  0.25343000  1.0
  H  H17  1  0.48523000  0.47893000  0.74657000  1.0
  H  H18  1  0.43116000  0.51227000  0.38369000  1.0
  H  H19  1  0.56884000  0.48774000  0.61631000  1.0
  H  H20  1  0.79489000  0.91591000  0.59249000  1.0
  H  H21  1  0.20511000  0.08409000  0.40751000  1.0
  H  H22  1  0.71617000  0.95344000  0.72370000  1.0
  H  H23  1  0.28383000  0.04656000  0.27630000  1.0
  H  H24  1  0.44131000  0.27713000  0.64995000  1.0
  H  H25  1  0.55869000  0.72288000  0.35004000  1.0
  H  H26  1  0.79143000  0.96944000  0.46487000  1.0
  H  H27  1  0.20857000  0.03056000  0.53513000  1.0
  H  H28  1  0.56562000  0.24965000  0.30099000  1.0
  H  H29  1  0.43438000  0.75035000  0.69901000  1.0
  H  H30  1  0.64430000  0.22620000  0.16910000  1.0
  H  H31  1  0.35569000  0.77380000  0.83089000  1.0
  H  H32  1  0.96520000  0.92809000  0.23698000  1.0
  H  H33  1  0.03480000  0.07191000  0.76301000  1.0
  H  H34  1  0.89359000  0.95529000  0.36853000  1.0
  H  H35  1  0.10642000  0.04471000  0.63147000  1.0
  H  H36  1  0.40679000  0.37337000  0.86512000  1.0
  H  H37  1  0.59320000  0.62663000  0.13488000  1.0
  H  H38  1  0.82987000  0.30946000  0.83665000  1.0
  H  H39  1  0.17013000  0.69054000  0.16335000  1.0
  H  H40  1  0.79269000  0.00204000  0.87440000  1.0
  H  H41  1  0.20731000  0.99796000  0.12560000  1.0
  H  H42  1  0.24438000  0.55046000  0.88199000  1.0
  H  H43  1  0.75562000  0.44955000  0.11801000  1.0
  H  H44  1  0.39636000  0.23792000  0.82071000  1.0
  H  H45  1  0.60362000  0.76207000  0.17929000  1.0
  H  H46  1  0.78609000  0.39948000  0.90355000  1.0
  H  H47  1  0.21390000  0.60052000  0.09645000  1.0
  H  H48  1  0.63859000  0.90316000  0.87576000  1.0
  H  H49  1  0.36141000  0.09684000  0.12424000  1.0
  H  H50  1  0.09453000  0.63397000  0.88942000  1.0
  H  H51  1  0.90547000  0.36603000  0.11059000  1.0
  H  H52  1  0.04275000  0.45162000  0.80708000  1.0
  H  H53  1  0.95724000  0.54838000  0.19292000  1.0
  H  H54  1  0.07435000  0.25267000  0.46936000  1.0
  H  H55  1  0.92566000  0.74733000  0.53064000  1.0
  H  H56  1  0.58344000  0.07522000  0.80081000  1.0
  H  H57  1  0.41656000  0.92478000  0.19919000  1.0
  H  H58  1  0.56841000  0.22586000  0.46095000  1.0
  H  H59  1  0.43159000  0.77414000  0.53905000  1.0
  C  C60  1  0.20286000  0.52095000  0.61481000  1.0
  C  C61  1  0.79714000  0.47905000  0.38519000  1.0
  C  C62  1  0.15198000  0.50610000  0.68641000  1.0
  C  C63  1  0.84801000  0.49390000  0.31359000  1.0
  C  C64  1  0.05063000  0.39517000  0.70058000  1.0
  C  C65  1  0.94937000  0.60483000  0.29942000  1.0
  C  C66  1  0.00562000  0.29902000  0.64347000  1.0
  C  C67  1  0.99438000  0.70098000  0.35653000  1.0
  C  C68  1  0.06331000  0.31181000  0.57186000  1.0
  C  C69  1  0.93669000  0.68819000  0.42814000  1.0
  C  C70  1  0.16153000  0.42568000  0.55582000  1.0
  C  C71  1  0.83848000  0.57432000  0.44418000  1.0
  C  C72  1  0.21314000  0.44415000  0.48178000  1.0
  C  C73  1  0.78687000  0.55585000  0.51822000  1.0
  C  C74  1  0.22700000  0.36988000  0.35445000  1.0
  C  C75  1  0.77300000  0.63012000  0.64555000  1.0
  C  C76  1  0.14275000  0.29169000  0.29473000  1.0
  C  C77  1  0.85725000  0.70832000  0.70527000  1.0
  C  C78  1  0.19017000  0.29630000  0.22151000  1.0
  C  C79  1  0.80983000  0.70370000  0.77849000  1.0
  C  C80  1  0.32430000  0.37943000  0.20659000  1.0
  C  C81  1  0.67570000  0.62057000  0.79341000  1.0
  C  C82  1  0.40892000  0.45825000  0.26494000  1.0
  C  C83  1  0.59108000  0.54175000  0.73506000  1.0
  C  C84  1  0.36131000  0.45304000  0.33839000  1.0
  C  C85  1  0.63869000  0.54696000  0.66161000  1.0
  C  C86  1  0.72057000  0.99642000  0.60590000  1.0
  C  C87  1  0.27944000  0.00358000  0.39409000  1.0
  C  C88  1  0.67771000  0.01679000  0.67879000  1.0
  C  C89  1  0.32229000  0.98321000  0.32121000  1.0
  C  C90  1  0.57654000  0.11883000  0.69449000  1.0
  C  C91  1  0.42347000  0.88118000  0.30551000  1.0
  C  C92  1  0.52183000  0.20027000  0.63764000  1.0
  C  C93  1  0.47817000  0.79974000  0.36236000  1.0
  C  C94  1  0.57004000  0.18170000  0.56435000  1.0
  C  C95  1  0.42996000  0.81829000  0.43564000  1.0
  C  C96  1  0.66997000  0.07737000  0.54729000  1.0
  C  C97  1  0.33004000  0.92263000  0.45271000  1.0
  C  C98  1  0.71787000  0.05363000  0.47279000  1.0
  C  C99  1  0.28213000  0.94638000  0.52721000  1.0
  C  C100  1  0.72381000  0.10549000  0.34443000  1.0
  C  C101  1  0.27619000  0.89451000  0.65557000  1.0
  C  C102  1  0.65474000  0.18056000  0.28671000  1.0
  C  C103  1  0.34526000  0.81944000  0.71329000  1.0
  C  C104  1  0.69820000  0.16696000  0.21295000  1.0
  C  C105  1  0.30179000  0.83304000  0.78705000  1.0
  C  C106  1  0.81043000  0.07607000  0.19506000  1.0
  C  C107  1  0.18956000  0.92393000  0.80493000  1.0
  C  C108  1  0.87849000  0.99907000  0.25126000  1.0
  C  C109  1  0.12150000  0.00093000  0.74874000  1.0
  C  C110  1  0.83681000  0.01454000  0.32542000  1.0
  C  C111  1  0.16320000  0.98547000  0.67458000  1.0
  S  S112  1  0.38380000  0.38406000  0.11301000  1.0
  S  S113  1  0.61621000  0.61593000  0.88699000  1.0
  S  S114  1  0.86029000  0.05725000  0.10005000  1.0
  S  S115  1  0.13970000  0.94276000  0.89995000  1.0
  N  N116  1  0.17412000  0.35667000  0.42660000  1.0
  N  N117  1  0.82589000  0.64333000  0.57340000  1.0
  N  N118  1  0.67519000  0.12788000  0.41722000  1.0
  N  N119  1  0.32482000  0.87212000  0.58278000  1.0
  O  O120  1  0.99355000  0.38044000  0.76942000  1.0
  O  O121  1  0.00644000  0.61955000  0.23058000  1.0
  O  O122  1  0.02565000  0.21714000  0.51773000  1.0
  O  O123  1  0.97435000  0.78286000  0.48227000  1.0
  O  O124  1  0.39562000  0.24844000  0.08465000  1.0
  O  O125  1  0.60438000  0.75156000  0.91535000  1.0
  O  O126  1  0.25551000  0.44649000  0.06691000  1.0
  O  O127  1  0.74450000  0.55351000  0.93309000  1.0
  O  O128  1  0.54370000  0.45883000  0.11787000  1.0
  O  O129  1  0.45631000  0.54116000  0.88213000  1.0
  O  O130  1  0.52958000  0.13824000  0.76524000  1.0
  O  O131  1  0.47042000  0.86176000  0.23476000  1.0
  O  O132  1  0.52140000  0.26169000  0.50972000  1.0
  O  O133  1  0.47860000  0.73831000  0.49028000  1.0
  O  O134  1  0.00274000  0.97672000  0.10180000  1.0
  O  O135  1  0.99726000  0.02329000  0.89819000  1.0
  O  O136  1  0.71615000  0.99144000  0.05633000  1.0
  O  O137  1  0.28384000  0.00856000  0.94367000  1.0
  O  O138  1  0.89678000  0.18997000  0.07381000  1.0
  O  O139  1  0.10321000  0.81003000  0.92619000  1.0
  O  O140  1  0.35695000  0.28382000  0.86464000  1.0
  O  O141  1  0.64304000  0.71617000  0.13536000  1.0
  O  O142  1  0.80252000  0.30745000  0.88932000  1.0
  O  O143  1  0.19747000  0.69255000  0.11068000  1.0
  O  O144  1  0.67155000  0.99355000  0.86425000  1.0
  O  O145  1  0.32845000  0.00645000  0.13574000  1.0
  O  O146  1  0.12358000  0.54399000  0.87980000  1.0
  O  O147  1  0.87642000  0.45601000  0.12020000  1.0
