# generated using pymatgen
data_Yb2H18(C3O8)3
_symmetry_space_group_name_H-M   'P 1'
_cell_length_a   8.71199000
_cell_length_b   8.71198000
_cell_length_c   8.71200000
_cell_angle_alpha   66.38900000
_cell_angle_beta   66.38900000
_cell_angle_gamma   66.38890000
_symmetry_Int_Tables_number   1
_chemical_formula_structural   Yb2H18(C3O8)3
_chemical_formula_sum   'Yb2 H18 C9 O24'
_cell_volume   531.96839430
_cell_formula_units_Z   1
loop_
 _symmetry_equiv_pos_site_id
 _symmetry_equiv_pos_as_xyz
  1  'x, y, z'
loop_
 _atom_site_type_symbol
 _atom_site_label
 _atom_site_symmetry_multiplicity
 _atom_site_fract_x
 _atom_site_fract_y
 _atom_site_fract_z
 _atom_site_occupancy
  Yb  Yb0  1  0.76621000  0.76620000  0.76620000  1.0
  Yb  Yb1  1  0.23380000  0.23379000  0.23379000  1.0
  H  H2  1  0.44842000  0.67624000  0.80740000  1.0
  H  H3  1  0.67624000  0.80739000  0.44842000  1.0
  H  H4  1  0.80739000  0.44842000  0.67624000  1.0
  H  H5  1  0.55158000  0.19260000  0.32376000  1.0
  H  H6  1  0.32376000  0.55158000  0.19260000  1.0
  H  H7  1  0.19260000  0.32376000  0.55158000  1.0
  H  H8  1  0.71713000  0.76629000  0.13442000  1.0
  H  H9  1  0.76629000  0.13442000  0.71713000  1.0
  H  H10  1  0.13442000  0.71713000  0.76629000  1.0
  H  H11  1  0.28287000  0.86558000  0.23371000  1.0
  H  H12  1  0.23371000  0.28287000  0.86558000  1.0
  H  H13  1  0.86558000  0.23371000  0.28287000  1.0
  H  H14  1  0.62619000  0.95163000  0.02176000  1.0
  H  H15  1  0.95163000  0.02176000  0.62619000  1.0
  H  H16  1  0.02176000  0.62618000  0.95163000  1.0
  H  H17  1  0.37382000  0.97824000  0.04837000  1.0
  H  H18  1  0.04837000  0.37381000  0.97824000  1.0
  H  H19  1  0.97824000  0.04837000  0.37382000  1.0
  C  C20  1  0.53514000  0.46486000  0.00000000  1.0
  C  C21  1  0.46486000  0.00000000  0.53514000  1.0
  C  C22  1  0.00000000  0.53514000  0.46486000  1.0
  C  C23  1  0.68470000  0.41688000  0.08118000  1.0
  C  C24  1  0.41688000  0.08118000  0.68470000  1.0
  C  C25  1  0.08118000  0.68470000  0.41688000  1.0
  C  C26  1  0.31530000  0.91882000  0.58311000  1.0
  C  C27  1  0.58311000  0.31530000  0.91882000  1.0
  C  C28  1  0.91883000  0.58311000  0.31529000  1.0
  O  O29  1  0.53722000  0.62859000  0.87647000  1.0
  O  O30  1  0.62859000  0.87647000  0.53722000  1.0
  O  O31  1  0.87647000  0.53722000  0.62859000  1.0
  O  O32  1  0.46278000  0.12353000  0.37141000  1.0
  O  O33  1  0.37141000  0.46278000  0.12353000  1.0
  O  O34  1  0.12353000  0.37141000  0.46277000  1.0
  O  O35  1  0.80314000  0.49229000  0.98913000  1.0
  O  O36  1  0.49229000  0.98913000  0.80314000  1.0
  O  O37  1  0.98913000  0.80314000  0.49229000  1.0
  O  O38  1  0.19686000  0.01087000  0.50771000  1.0
  O  O39  1  0.50771000  0.19686000  0.01087000  1.0
  O  O40  1  0.01087000  0.50771000  0.19686000  1.0
  O  O41  1  0.68296000  0.30184000  0.22737000  1.0
  O  O42  1  0.30185000  0.22737000  0.68296000  1.0
  O  O43  1  0.22737000  0.68296000  0.30185000  1.0
  O  O44  1  0.31704000  0.77262000  0.69816000  1.0
  O  O45  1  0.69816000  0.31704000  0.77262000  1.0
  O  O46  1  0.77263000  0.69815000  0.31704000  1.0
  O  O47  1  0.68027000  0.82770000  0.02497000  1.0
  O  O48  1  0.82770000  0.02497000  0.68027000  1.0
  O  O49  1  0.02497000  0.68027000  0.82770000  1.0
  O  O50  1  0.31973000  0.97503000  0.17230000  1.0
  O  O51  1  0.17230000  0.31973000  0.97503000  1.0
  O  O52  1  0.97503000  0.17230000  0.31973000  1.0
