# generated using pymatgen
data_Al2H13C26Cl2O10F
_symmetry_space_group_name_H-M   'P 1'
_cell_length_a   6.64001000
_cell_length_b   11.16790000
_cell_length_c   17.74180000
_cell_angle_alpha   83.34660000
_cell_angle_beta   80.82080000
_cell_angle_gamma   72.91260000
_symmetry_Int_Tables_number   1
_chemical_formula_structural   Al2H13C26Cl2O10F
_chemical_formula_sum   'Al2 H13 C26 Cl2 O10 F1'
_cell_volume   1238.14041713
_cell_formula_units_Z   1
loop_
 _symmetry_equiv_pos_site_id
 _symmetry_equiv_pos_as_xyz
  1  'x, y, z'
loop_
 _atom_site_type_symbol
 _atom_site_label
 _atom_site_symmetry_multiplicity
 _atom_site_fract_x
 _atom_site_fract_y
 _atom_site_fract_z
 _atom_site_occupancy
  Al  Al0  1  0.51201000  0.49489000  0.49262000  1.0
  Al  Al1  1  0.01321000  0.49064000  0.49444000  1.0
  H  H2  1  0.26494000  0.41791000  0.58550000  1.0
  H  H3  1  0.72212000  0.63668000  0.43827000  1.0
  H  H4  1  0.68559000  0.40776000  0.27214000  1.0
  H  H5  1  0.77163000  0.40622000  0.13013000  1.0
  H  H6  1  0.10665000  0.57831000  0.11027000  1.0
  H  H7  1  0.80312000  0.60566000  0.87251000  1.0
  H  H8  1  0.40457000  0.42959000  0.72211000  1.0
  H  H9  1  0.31959000  0.42185000  0.86407000  1.0
  H  H10  1  0.69517000  0.11642000  0.42627000  1.0
  H  H11  1  0.24086000  0.09960000  0.62189000  1.0
  H  H12  1  0.40986000  0.11115000  0.53435000  1.0
  H  H13  1  0.52926000  0.87363000  0.53476000  1.0
  H  H14  1  0.35749000  0.86406000  0.62201000  1.0
  C  C15  1  0.86539000  0.26912000  0.49149000  1.0
  C  C16  1  0.70262000  0.50634000  0.63196000  1.0
  C  C17  1  0.15619000  0.72018000  0.48928000  1.0
  C  C18  1  0.31361000  0.48545000  0.35698000  1.0
  C  C19  1  0.35044000  0.48843000  0.27152000  1.0
  C  C20  1  0.55990000  0.44252000  0.23577000  1.0
  C  C21  1  0.60814000  0.44238000  0.15674000  1.0
  C  C22  1  0.44427000  0.49083000  0.11039000  1.0
  C  C23  1  0.23394000  0.53818000  0.14541000  1.0
  C  C24  1  0.18760000  0.53719000  0.22486000  1.0
  C  C25  1  0.48766000  0.49570000  0.02938000  1.0
  C  C26  1  0.52045000  0.50292000  0.95956000  1.0
  C  C27  1  0.56000000  0.51011000  0.87852000  1.0
  C  C28  1  0.71669000  0.56525000  0.83995000  1.0
  C  C29  1  0.76195000  0.56962000  0.76034000  1.0
  C  C30  1  0.65313000  0.51735000  0.71660000  1.0
  C  C31  1  0.49168000  0.46697000  0.75611000  1.0
  C  C32  1  0.44410000  0.46268000  0.83509000  1.0
  C  C33  1  0.94215000  0.13055000  0.48857000  1.0
  C  C34  1  0.08338000  0.85949000  0.48708000  1.0
  C  C35  1  0.12136000  0.05829000  0.52085000  1.0
  C  C36  1  0.90530000  0.93506000  0.45292000  1.0
  C  C37  1  0.18773000  0.92770000  0.52032000  1.0
  C  C38  1  0.83448000  0.06513000  0.45363000  1.0
  C  C39  1  0.29602000  0.06253000  0.56517000  1.0
  C  C40  1  0.37048000  0.91427000  0.56519000  1.0
  Cl  Cl41  1  0.92682000  0.60503000  0.26199000  1.0
  Cl  Cl42  1  0.95048000  0.64576000  0.72009000  1.0
  O  O43  1  0.67499000  0.32384000  0.47948000  1.0
  O  O44  1  0.88355000  0.51449000  0.59953000  1.0
  O  O45  1  0.02293000  0.66286000  0.48040000  1.0
  O  O46  1  0.45749000  0.50664000  0.38876000  1.0
  O  O47  1  0.34885000  0.66897000  0.50058000  1.0
  O  O48  1  0.14527000  0.46196000  0.39147000  1.0
  O  O49  1  0.99734000  0.32214000  0.50749000  1.0
  O  O50  1  0.56070000  0.48448000  0.59905000  1.0
  O  O51  1  0.27500000  0.43897000  0.53076000  1.0
  O  O52  1  0.74988000  0.55040000  0.45979000  1.0
  F  F53  1  0.79486000  0.88029000  0.41553000  1.0
