# generated using pymatgen
data_Cd2H2C5(NO2)3
_symmetry_space_group_name_H-M   'P 1'
_cell_length_a   7.43624000
_cell_length_b   7.67260774
_cell_length_c   17.61770000
_cell_angle_alpha   90.00010004
_cell_angle_beta   90.00000000
_cell_angle_gamma   118.96162893
_symmetry_Int_Tables_number   1
_chemical_formula_structural   Cd2H2C5(NO2)3
_chemical_formula_sum   'Cd8 H8 C20 N12 O24'
_cell_volume   879.47997360
_cell_formula_units_Z   4
loop_
 _symmetry_equiv_pos_site_id
 _symmetry_equiv_pos_as_xyz
  1  'x, y, z'
loop_
 _atom_site_type_symbol
 _atom_site_label
 _atom_site_symmetry_multiplicity
 _atom_site_fract_x
 _atom_site_fract_y
 _atom_site_fract_z
 _atom_site_occupancy
  Cd  Cd0  1  0.08863000  0.17736000  0.28177000  1.0
  Cd  Cd1  1  0.41137000  0.82264000  0.78177000  1.0
  Cd  Cd2  1  0.58863000  0.17736000  0.21823000  1.0
  Cd  Cd3  1  0.91137000  0.82264000  0.71823000  1.0
  Cd  Cd4  1  0.72241000  0.44471000  0.03345000  1.0
  Cd  Cd5  1  0.77759000  0.55529000  0.53345000  1.0
  Cd  Cd6  1  0.22242000  0.44472000  0.46655000  1.0
  Cd  Cd7  1  0.27758000  0.55528000  0.96655000  1.0
  H  H8  1  0.82647000  0.65310000  0.32455000  1.0
  H  H9  1  0.67353000  0.34690000  0.82455000  1.0
  H  H10  1  0.32647000  0.65310000  0.17545000  1.0
  H  H11  1  0.17353000  0.34690000  0.67545000  1.0
  H  H12  1  0.96272000  0.92528000  0.11065000  1.0
  H  H13  1  0.53727000  0.07472000  0.61065000  1.0
  H  H14  1  0.46272000  0.92528000  0.38935000  1.0
  H  H15  1  0.03728000  0.07472000  0.88935000  1.0
  C  C16  1  0.83655000  0.67322000  0.26345000  1.0
  C  C17  1  0.66345000  0.32678000  0.76345000  1.0
  C  C18  1  0.33655000  0.67322000  0.23655000  1.0
  C  C19  1  0.16345000  0.32678000  0.73655000  1.0
  C  C20  1  0.90800000  0.81585000  0.15570000  1.0
  C  C21  1  0.59201000  0.18416000  0.65570000  1.0
  C  C22  1  0.40800000  0.81585000  0.34430000  1.0
  C  C23  1  0.09201000  0.18416000  0.84430000  1.0
  C  C24  1  0.51384000  0.02784000  0.95674000  1.0
  C  C25  1  0.98616000  0.97216000  0.45674000  1.0
  C  C26  1  0.01384000  0.02784000  0.54326000  1.0
  C  C27  1  0.48616000  0.97216000  0.04327000  1.0
  C  C28  1  0.04522000  0.30192000  0.11266000  1.0
  C  C29  1  0.45478000  0.69808000  0.61267000  1.0
  C  C30  1  0.75685000  0.30178000  0.38732000  1.0
  C  C31  1  0.74315000  0.69822000  0.88732000  1.0
  C  C32  1  0.95478000  0.69808000  0.88734000  1.0
  C  C33  1  0.54522000  0.30192000  0.38734000  1.0
  C  C34  1  0.24315000  0.69822000  0.61268000  1.0
  C  C35  1  0.25685000  0.30178000  0.11268000  1.0
  N  N36  1  0.92830000  0.85660000  0.23100000  1.0
  N  N37  1  0.57170000  0.14340000  0.73100000  1.0
  N  N38  1  0.42831000  0.85660000  0.26900000  1.0
  N  N39  1  0.07170000  0.14340000  0.76900000  1.0
  N  N40  1  0.81042000  0.62077000  0.14239000  1.0
  N  N41  1  0.68958000  0.37923000  0.64239000  1.0
  N  N42  1  0.31042000  0.62077000  0.35761000  1.0
  N  N43  1  0.18958000  0.37923000  0.85761000  1.0
  N  N44  1  0.76399000  0.52806000  0.21175000  1.0
  N  N45  1  0.73601000  0.47194000  0.71175000  1.0
  N  N46  1  0.26399000  0.52806000  0.28825000  1.0
  N  N47  1  0.23601000  0.47194000  0.78825000  1.0
  O  O48  1  0.55953000  0.11873000  0.08884000  1.0
  O  O49  1  0.94047000  0.88128000  0.58884000  1.0
  O  O50  1  0.05952000  0.11872000  0.41116000  1.0
  O  O51  1  0.44046000  0.88127000  0.91116000  1.0
  O  O52  1  0.60406000  0.20848000  0.93776000  1.0
  O  O53  1  0.89593000  0.79151000  0.43776000  1.0
  O  O54  1  0.10406000  0.20848000  0.56224000  1.0
  O  O55  1  0.39593000  0.79151000  0.06224000  1.0
  O  O56  1  0.93526000  0.23833000  0.17145000  1.0
  O  O57  1  0.56474000  0.76167000  0.67145000  1.0
  O  O58  1  0.80283000  0.23776000  0.32856000  1.0
  O  O59  1  0.69717000  0.76224000  0.82856000  1.0
  O  O60  1  0.06474000  0.76167000  0.82856000  1.0
  O  O61  1  0.43525000  0.23832000  0.32855000  1.0
  O  O62  1  0.19717000  0.76224000  0.67144000  1.0
  O  O63  1  0.30283000  0.23776000  0.17144000  1.0
  O  O64  1  0.00166000  0.36479000  0.05261000  1.0
  O  O65  1  0.49833000  0.63520000  0.55261000  1.0
  O  O66  1  0.86351000  0.36497000  0.44729000  1.0
  O  O67  1  0.63648000  0.63502000  0.94729000  1.0
  O  O68  1  0.99833000  0.63520000  0.94739000  1.0
  O  O69  1  0.50167000  0.36480000  0.44739000  1.0
  O  O70  1  0.13649000  0.63503000  0.55271000  1.0
  O  O71  1  0.36351000  0.36497000  0.05271000  1.0
