# generated using pymatgen
data_Al2H9C16S2(NO4)3
_symmetry_space_group_name_H-M   'P 1'
_cell_length_a   6.74511000
_cell_length_b   11.03180226
_cell_length_c   11.82593175
_cell_angle_alpha   63.34684741
_cell_angle_beta   83.93025527
_cell_angle_gamma   73.51623866
_symmetry_Int_Tables_number   1
_chemical_formula_structural   Al2H9C16S2(NO4)3
_chemical_formula_sum   'Al2 H9 C16 S2 N3 O12'
_cell_volume   753.90643022
_cell_formula_units_Z   1
loop_
 _symmetry_equiv_pos_site_id
 _symmetry_equiv_pos_as_xyz
  1  'x, y, z'
loop_
 _atom_site_type_symbol
 _atom_site_label
 _atom_site_symmetry_multiplicity
 _atom_site_fract_x
 _atom_site_fract_y
 _atom_site_fract_z
 _atom_site_occupancy
  Al  Al0  1  0.49884000  0.99999000  0.50066000  1.0
  Al  Al1  1  0.99775000  0.99828000  0.50172000  1.0
  H  H2  1  0.68969000  0.08520000  0.60132000  1.0
  H  H3  1  0.30229000  0.91760000  0.39729000  1.0
  H  H4  1  0.23313000  0.65164000  0.45013000  1.0
  H  H5  1  0.62348000  0.58970000  0.53654000  1.0
  H  H6  1  0.36011000  0.41227000  0.45309000  1.0
  H  H7  1  0.15463000  0.30600000  0.10884000  1.0
  H  H8  1  0.32095000  0.17272000  0.23218000  1.0
  H  H9  1  0.84434000  0.69314000  0.89263000  1.0
  H  H10  1  0.67703000  0.82720000  0.76985000  1.0
  C  C11  1  0.28752000  0.83192000  0.71389000  1.0
  C  C12  1  0.15042000  0.22229000  0.50500000  1.0
  C  C13  1  0.71148000  0.16571000  0.28721000  1.0
  C  C14  1  0.84592000  0.77613000  0.49425000  1.0
  C  C15  1  0.06922000  0.36617000  0.49937000  1.0
  C  C16  1  0.92249000  0.63403000  0.49617000  1.0
  C  C17  1  0.86124000  0.42066000  0.51893000  1.0
  C  C18  1  0.12970000  0.58457000  0.47148000  1.0
  C  C19  1  0.78598000  0.55089000  0.51996000  1.0
  C  C20  1  0.20111000  0.45226000  0.47385000  1.0
  C  C21  1  0.44122000  0.33494000  0.11373000  1.0
  C  C22  1  0.55943000  0.66239000  0.88644000  1.0
  C  C23  1  0.63446000  0.29319000  0.17519000  1.0
  C  C24  1  0.36618000  0.70404000  0.82508000  1.0
  C  C25  1  0.58394000  0.52690000  0.99200000  1.0
  C  C26  1  0.41738000  0.46987000  0.00764000  1.0
  S  S27  1  0.77515000  0.41934000  0.10666000  1.0
  S  S28  1  0.22552000  0.57768000  0.89324000  1.0
  N  N29  1  0.70935000  0.34610000  0.52368000  1.0
  N  N30  1  0.29974000  0.25991000  0.14756000  1.0
  N  N31  1  0.69988000  0.73800000  0.85297000  1.0
  O  O32  1  0.40583000  0.91628000  0.66638000  1.0
  O  O33  1  0.02255000  0.14791000  0.53446000  1.0
  O  O34  1  0.89034000  0.13909000  0.33449000  1.0
  O  O35  1  0.65553000  0.81569000  0.51639000  1.0
  O  O36  1  0.59124000  0.08257000  0.33465000  1.0
  O  O37  1  0.97809000  0.84661000  0.46995000  1.0
  O  O38  1  0.10881000  0.85674000  0.66723000  1.0
  O  O39  1  0.33989000  0.18465000  0.48175000  1.0
  O  O40  1  0.72825000  0.01665000  0.56672000  1.0
  O  O41  1  0.26800000  0.98201000  0.43574000  1.0
  O  O42  1  0.65626000  0.36439000  0.41897000  1.0
  O  O43  1  0.64031000  0.27684000  0.62679000  1.0
