# generated using pymatgen
data_FeH32C50(SN3)2
_symmetry_space_group_name_H-M   'P 1'
_cell_length_a   9.47277000
_cell_length_b   15.79193625
_cell_length_c   15.79240000
_cell_angle_alpha   96.58991291
_cell_angle_beta   107.32430000
_cell_angle_gamma   107.33088204
_symmetry_Int_Tables_number   1
_chemical_formula_structural   FeH32C50(SN3)2
_chemical_formula_sum   'Fe2 H64 C100 S4 N12'
_cell_volume   2098.52983628
_cell_formula_units_Z   2
loop_
 _symmetry_equiv_pos_site_id
 _symmetry_equiv_pos_as_xyz
  1  'x, y, z'
loop_
 _atom_site_type_symbol
 _atom_site_label
 _atom_site_symmetry_multiplicity
 _atom_site_fract_x
 _atom_site_fract_y
 _atom_site_fract_z
 _atom_site_occupancy
  Fe  Fe0  1  0.00000000  0.00000000  0.00000000  1.0
  Fe  Fe1  1  0.00000000  0.50005000  0.50000000  1.0
  H  H2  1  0.51163000  0.26285000  0.02247000  1.0
  H  H3  1  0.48850000  0.97790000  0.73731000  1.0
  H  H4  1  0.77414000  0.52258000  0.76416000  1.0
  H  H5  1  0.22639000  0.23607000  0.47802000  1.0
  H  H6  1  0.48837000  0.73715000  0.97753000  1.0
  H  H7  1  0.51150000  0.02210000  0.26269000  1.0
  H  H8  1  0.22585000  0.47741000  0.23584000  1.0
  H  H9  1  0.77361000  0.76392000  0.52198000  1.0
  H  H10  1  0.34744000  0.10690000  0.01831000  1.0
  H  H11  1  0.65256000  0.98183000  0.89320000  1.0
  H  H12  1  0.77781000  0.51910000  0.60784000  1.0
  H  H13  1  0.22243000  0.39232000  0.48116000  1.0
  H  H14  1  0.65256000  0.89310000  0.98169000  1.0
  H  H15  1  0.34743000  0.01816000  0.10680000  1.0
  H  H16  1  0.22218000  0.48091000  0.39216000  1.0
  H  H17  1  0.77758000  0.60768000  0.51884000  1.0
  H  H18  1  0.95352000  0.18096000  0.98872000  1.0
  H  H19  1  0.04628000  0.01127000  0.81894000  1.0
  H  H20  1  0.21527000  0.48850000  0.67991000  1.0
  H  H21  1  0.78452000  0.31989000  0.51122000  1.0
  H  H22  1  0.04648000  0.81904000  0.01128000  1.0
  H  H23  1  0.95372000  0.98873000  0.18106000  1.0
  H  H24  1  0.78473000  0.51151000  0.32008000  1.0
  H  H25  1  0.21549000  0.68011000  0.48878000  1.0
  H  H26  1  0.10028000  0.33933000  0.98676000  1.0
  H  H27  1  0.89945000  0.01306000  0.66059000  1.0
  H  H28  1  0.22537000  0.48634000  0.83860000  1.0
  H  H29  1  0.77445000  0.16124000  0.51335000  1.0
  H  H30  1  0.89972000  0.66067000  0.01324000  1.0
  H  H31  1  0.10055000  0.98694000  0.33941000  1.0
  H  H32  1  0.77462000  0.51365000  0.16140000  1.0
  H  H33  1  0.22554000  0.83875000  0.48665000  1.0
  H  H34  1  0.31034000  0.29006000  0.84292000  1.0
  H  H35  1  0.68922000  0.15711000  0.70984000  1.0
  H  H36  1  0.82199000  0.34317000  0.78987000  1.0
  H  H37  1  0.17843000  0.20999000  0.65691000  1.0
  H  H38  1  0.68966000  0.70994000  0.15708000  1.0
  H  H39  1  0.31078000  0.84289000  0.29016000  1.0
  H  H40  1  0.17801000  0.65683000  0.21013000  1.0
  H  H41  1  0.82157000  0.79001000  0.34309000  1.0
  H  H42  1  0.36310000  0.32170000  0.70282000  1.0
  H  H43  1  0.63645000  0.29719000  0.67813000  1.0
  H  H44  1  0.66114000  0.20333000  0.82178000  1.0
  H  H45  1  0.33903000  0.17792000  0.79669000  1.0
  H  H46  1  0.63690000  0.67830000  0.29718000  1.0
  H  H47  1  0.36355000  0.70281000  0.32187000  1.0
  H  H48  1  0.33886000  0.79667000  0.17821000  1.0
  H  H49  1  0.66097000  0.82208000  0.20331000  1.0
  H  H50  1  0.50769000  0.48029000  0.69760000  1.0
  H  H51  1  0.49205000  0.30230000  0.51949000  1.0
  H  H52  1  0.67072000  0.19823000  0.98074000  1.0
  H  H53  1  0.32905000  0.01889000  0.80165000  1.0
  H  H54  1  0.49231000  0.51971000  0.30240000  1.0
  H  H55  1  0.50795000  0.69770000  0.48051000  1.0
  H  H56  1  0.32928000  0.80177000  0.01926000  1.0
  H  H57  1  0.67095000  0.98111000  0.19835000  1.0
  H  H58  1  0.61152000  0.60399000  0.83201000  1.0
  H  H59  1  0.38834000  0.16787000  0.39588000  1.0
  H  H60  1  0.82433000  0.33259000  0.10429000  1.0
  H  H61  1  0.17533000  0.89543000  0.66721000  1.0
  H  H62  1  0.38847000  0.39601000  0.16799000  1.0
  H  H63  1  0.61166000  0.83213000  0.60412000  1.0
  H  H64  1  0.17568000  0.66741000  0.89571000  1.0
  H  H65  1  0.82468000  0.10457000  0.33279000  1.0
  C  C66  1  0.32026000  0.31563000  0.00420000  1.0
  C  C67  1  0.67965000  0.99594000  0.68440000  1.0
  C  C68  1  0.99956000  0.50403000  0.81565000  1.0
  C  C69  1  0.00069000  0.18441000  0.49617000  1.0
  C  C70  1  0.67974000  0.68437000  0.99580000  1.0
  C  C71  1  0.32035000  0.00406000  0.31560000  1.0
  C  C72  1  0.00044000  0.49597000  0.18435000  1.0
  C  C73  1  0.99931000  0.81559000  0.50383000  1.0
  C  C74  1  0.38790000  0.24798000  0.01415000  1.0
  C  C75  1  0.61219000  0.98616000  0.75216000  1.0
  C  C76  1  0.87428000  0.51429000  0.74859000  1.0
  C  C77  1  0.12609000  0.25157000  0.48613000  1.0
  C  C78  1  0.61212000  0.75203000  0.98585000  1.0
  C  C79  1  0.38781000  0.01384000  0.24784000  1.0
  C  C80  1  0.12571000  0.48571000  0.25141000  1.0
  C  C81  1  0.87392000  0.74842000  0.51387000  1.0
  C  C82  1  0.29655000  0.16030000  0.01294000  1.0
  C  C83  1  0.70346000  0.98728000  0.83981000  1.0
  C  C84  1  0.87654000  0.51336000  0.66083000  1.0
  C  C85  1  0.12370000  0.33930000  0.48687000  1.0
  C  C86  1  0.70345000  0.83970000  0.98706000  1.0
  C  C87  1  0.29654000  0.01272000  0.16019000  1.0
  C  C88  1  0.12347000  0.48666000  0.33918000  1.0
  C  C89  1  0.87630000  0.66069000  0.51313000  1.0
  C  C90  1  0.07713000  0.20164000  0.99527000  1.0
  C  C91  1  0.92272000  0.00480000  0.79835000  1.0
  C  C92  1  0.11931000  0.49516000  0.70117000  1.0
  C  C93  1  0.88069000  0.29877000  0.50472000  1.0
  C  C94  1  0.92288000  0.79836000  0.00473000  1.0
  C  C95  1  0.07728000  0.99520000  0.20165000  1.0
  C  C96  1  0.88068000  0.50485000  0.29883000  1.0
  C  C97  1  0.11931000  0.70123000  0.49528000  1.0
  C  C98  1  0.16063000  0.29037000  0.99485000  1.0
  C  C99  1  0.83921000  0.00517000  0.70963000  1.0
  C  C100  1  0.12434000  0.49462000  0.78996000  1.0
  C  C101  1  0.87571000  0.21000000  0.50535000  1.0
  C  C102  1  0.83937000  0.70963000  0.00516000  1.0
  C  C103  1  0.16079000  0.99483000  0.29037000  1.0
  C  C104  1  0.87566000  0.50538000  0.21004000  1.0
  C  C105  1  0.12428000  0.78999000  0.49465000  1.0
  C  C106  1  0.41247000  0.40973000  0.00234000  1.0
  C  C107  1  0.58741000  0.99771000  0.59032000  1.0
  C  C108  1  0.99972000  0.50217000  0.90975000  1.0
  C  C109  1  0.00051000  0.09031000  0.49793000  1.0
  C  C110  1  0.58752000  0.59027000  0.99766000  1.0
  C  C111  1  0.41260000  0.00229000  0.40968000  1.0
  C  C112  1  0.00028000  0.49782000  0.09025000  1.0
  C  C113  1  0.99948000  0.90968000  0.50207000  1.0
  C  C114  1  0.38085000  0.35794000  0.84156000  1.0
  C  C115  1  0.61853000  0.15839000  0.64199000  1.0
  C  C116  1  0.81801000  0.34187000  0.85784000  1.0
  C  C117  1  0.18232000  0.14199000  0.65815000  1.0
  C  C118  1  0.61914000  0.64206000  0.15844000  1.0
  C  C119  1  0.38147000  0.84161000  0.35801000  1.0
  C  C120  1  0.18199000  0.65813000  0.14216000  1.0
  C  C121  1  0.81768000  0.85801000  0.34185000  1.0
  C  C122  1  0.40772000  0.37579000  0.76361000  1.0
  C  C123  1  0.59182000  0.23636000  0.62409000  1.0
  C  C124  1  0.73132000  0.26407000  0.87584000  1.0
  C  C125  1  0.26889000  0.12390000  0.73592000  1.0
  C  C126  1  0.59227000  0.62421000  0.23639000  1.0
  C  C127  1  0.40818000  0.76364000  0.37591000  1.0
  C  C128  1  0.26868000  0.73593000  0.12416000  1.0
  C  C129  1  0.73111000  0.87610000  0.26408000  1.0
  C  C130  1  0.49214000  0.46537000  0.76071000  1.0
  C  C131  1  0.50765000  0.23923000  0.53447000  1.0
  C  C132  1  0.73391000  0.26125000  0.96560000  1.0
  C  C133  1  0.26602000  0.03409000  0.73863000  1.0
  C  C134  1  0.50786000  0.53463000  0.23929000  1.0
  C  C135  1  0.49235000  0.76077000  0.46553000  1.0
  C  C136  1  0.26608000  0.73874000  0.03440000  1.0
  C  C137  1  0.73397000  0.96590000  0.26137000  1.0
  C  C138  1  0.55055000  0.53505000  0.83631000  1.0
  C  C139  1  0.44910000  0.16357000  0.46484000  1.0
  C  C140  1  0.82044000  0.33683000  0.03525000  1.0
  C  C141  1  0.17952000  0.96452000  0.66301000  1.0
  C  C142  1  0.44944000  0.46495000  0.16369000  1.0
  C  C143  1  0.55090000  0.83643000  0.53516000  1.0
  C  C144  1  0.17956000  0.66317000  0.96475000  1.0
  C  C145  1  0.82048000  0.03548000  0.33699000  1.0
  C  C146  1  0.52974000  0.51918000  0.91977000  1.0
  C  C147  1  0.46993000  0.08014000  0.48078000  1.0
  C  C148  1  0.90870000  0.42009000  0.01920000  1.0
  C  C149  1  0.09137000  0.98069000  0.57980000  1.0
  C  C150  1  0.47026000  0.48082000  0.08022000  1.0
  C  C151  1  0.53007000  0.91986000  0.51922000  1.0
  C  C152  1  0.09129000  0.57990000  0.98080000  1.0
  C  C153  1  0.90862000  0.01930000  0.42020000  1.0
  C  C154  1  0.44117000  0.42772000  0.92232000  1.0
  C  C155  1  0.55835000  0.07764000  0.57225000  1.0
  C  C156  1  0.90842000  0.42248000  0.92767000  1.0
  C  C157  1  0.09187000  0.07224000  0.57751000  1.0
  C  C158  1  0.55883000  0.57228000  0.07768000  1.0
  C  C159  1  0.44165000  0.92236000  0.42775000  1.0
  C  C160  1  0.09159000  0.57752000  0.07233000  1.0
  C  C161  1  0.90812000  0.92775000  0.42249000  1.0
  C  C162  1  0.20874000  0.92077000  0.92073000  1.0
  C  C163  1  0.79126000  0.07923000  0.07927000  1.0
  C  C164  1  0.63372000  0.42222000  0.42224000  1.0
  C  C165  1  0.36629000  0.57780000  0.57776000  1.0
  S  S166  1  0.31404000  0.87729000  0.87741000  1.0
  S  S167  1  0.68596000  0.12271000  0.12259000  1.0
  S  S168  1  0.44216000  0.37953000  0.37944000  1.0
  S  S169  1  0.55785000  0.62046000  0.62056000  1.0
  N  N170  1  0.14280000  0.13662000  0.00396000  1.0
  N  N171  1  0.85715000  0.99613000  0.86342000  1.0
  N  N172  1  0.99740000  0.50420000  0.63677000  1.0
  N  N173  1  0.00263000  0.36326000  0.49579000  1.0
  N  N174  1  0.85721000  0.86338000  0.99604000  1.0
  N  N175  1  0.14284000  0.00386000  0.13658000  1.0
  N  N176  1  0.00260000  0.49582000  0.36323000  1.0
  N  N177  1  0.99738000  0.63672000  0.50421000  1.0
  N  N178  1  0.13165000  0.95258000  0.95255000  1.0
  N  N179  1  0.86836000  0.04742000  0.04745000  1.0
  N  N180  1  0.77411000  0.45339000  0.45337000  1.0
  N  N181  1  0.22591000  0.54665000  0.54664000  1.0
