# generated using pymatgen
data_SmH4C12(O4F3)2
_symmetry_space_group_name_H-M   'P 1'
_cell_length_a   8.80723000
_cell_length_b   8.80748000
_cell_length_c   11.51170000
_cell_angle_alpha   111.78700000
_cell_angle_beta   105.92900000
_cell_angle_gamma   98.96620000
_symmetry_Int_Tables_number   1
_chemical_formula_structural   SmH4C12(O4F3)2
_chemical_formula_sum   'Sm2 H8 C24 O16 F12'
_cell_volume   763.40293135
_cell_formula_units_Z   2
loop_
 _symmetry_equiv_pos_site_id
 _symmetry_equiv_pos_as_xyz
  1  'x, y, z'
loop_
 _atom_site_type_symbol
 _atom_site_label
 _atom_site_symmetry_multiplicity
 _atom_site_fract_x
 _atom_site_fract_y
 _atom_site_fract_z
 _atom_site_occupancy
  Sm  Sm0  1  0.16200000  0.35494000  0.51669000  1.0
  Sm  Sm1  1  0.83800000  0.64506000  0.48331000  1.0
  H  H2  1  0.14556000  0.15887000  0.68926000  1.0
  H  H3  1  0.46938000  0.45674000  0.31077000  1.0
  H  H4  1  0.85444000  0.84113000  0.31073000  1.0
  H  H5  1  0.53061000  0.54325000  0.68922000  1.0
  H  H6  1  0.14794000  0.02268000  0.55835000  1.0
  H  H7  1  0.46403000  0.58964000  0.44187000  1.0
  H  H8  1  0.85206000  0.97732000  0.44164000  1.0
  H  H9  1  0.53597000  0.41036000  0.55813000  1.0
  C  C10  1  0.24612000  0.74628000  0.50006000  1.0
  C  C11  1  0.75388000  0.25373000  0.49995000  1.0
  C  C12  1  0.37747000  0.87770000  0.50004000  1.0
  C  C13  1  0.62254000  0.12231000  0.49997000  1.0
  C  C14  1  0.39035000  0.86868000  0.38022000  1.0
  C  C15  1  0.48836000  0.01036000  0.61985000  1.0
  C  C16  1  0.60966000  0.13133000  0.61979000  1.0
  C  C17  1  0.51164000  0.98965000  0.38016000  1.0
  C  C18  1  0.85888000  0.38330000  0.24270000  1.0
  C  C19  1  0.14111000  0.61669000  0.75729000  1.0
  C  C20  1  0.86025000  0.25261000  0.11341000  1.0
  C  C21  1  0.13975000  0.74738000  0.88658000  1.0
  C  C22  1  0.96347000  0.29431000  0.05070000  1.0
  C  C23  1  0.24418000  0.91328000  0.94928000  1.0
  C  C24  1  0.03652000  0.70569000  0.94930000  1.0
  C  C25  1  0.75583000  0.08671000  0.05072000  1.0
  C  C26  1  0.96005000  0.17673000  0.92839000  1.0
  C  C27  1  0.24903000  0.03205000  0.07166000  1.0
  C  C28  1  0.03995000  0.82328000  0.07161000  1.0
  C  C29  1  0.75097000  0.96794000  0.92833000  1.0
  C  C30  1  0.85153000  0.00998000  0.86201000  1.0
  C  C31  1  0.14847000  0.99002000  0.13799000  1.0
  C  C32  1  0.83925000  0.88669000  0.72642000  1.0
  C  C33  1  0.16076000  0.11332000  0.27358000  1.0
  O  O34  1  0.28568000  0.61699000  0.50707000  1.0
  O  O35  1  0.10976000  0.77866000  0.49306000  1.0
  O  O36  1  0.71432000  0.38302000  0.49294000  1.0
  O  O37  1  0.89024000  0.22135000  0.50694000  1.0
  O  O38  1  0.18493000  0.14712000  0.61574000  1.0
  O  O39  1  0.53125000  0.56938000  0.38459000  1.0
  O  O40  1  0.81506000  0.85288000  0.38426000  1.0
  O  O41  1  0.46875000  0.43062000  0.61541000  1.0
  O  O42  1  0.95580000  0.39870000  0.35447000  1.0
  O  O43  1  0.04420000  0.60130000  0.64552000  1.0
  O  O44  1  0.76189000  0.47342000  0.23633000  1.0
  O  O45  1  0.23809000  0.52656000  0.76366000  1.0
  O  O46  1  0.93042000  0.93205000  0.66876000  1.0
  O  O47  1  0.26301000  0.26248000  0.33079000  1.0
  O  O48  1  0.06960000  0.06795000  0.33124000  1.0
  O  O49  1  0.73699000  0.73754000  0.66920000  1.0
  F  F50  1  0.07033000  0.45189000  0.10975000  1.0
  F  F51  1  0.34266000  0.96129000  0.89021000  1.0
  F  F52  1  0.92966000  0.54811000  0.89025000  1.0
  F  F53  1  0.65736000  0.03869000  0.10979000  1.0
  F  F54  1  0.06594000  0.23141000  0.87713000  1.0
  F  F55  1  0.35515000  0.18903000  0.12290000  1.0
  F  F56  1  0.93407000  0.76859000  0.12287000  1.0
  F  F57  1  0.64486000  0.81096000  0.87709000  1.0
  F  F58  1  0.28521000  0.74034000  0.26252000  1.0
  F  F59  1  0.47768000  0.02309000  0.73762000  1.0
  F  F60  1  0.71480000  0.25967000  0.73748000  1.0
  F  F61  1  0.52233000  0.97692000  0.26239000  1.0
