# generated using pymatgen
data_CaH24C18(NO2)4
_symmetry_space_group_name_H-M   'P 1'
_cell_length_a   6.27007000
_cell_length_b   7.75976000
_cell_length_c   11.65700000
_cell_angle_alpha   80.07290000
_cell_angle_beta   79.13820000
_cell_angle_gamma   68.19450000
_symmetry_Int_Tables_number   1
_chemical_formula_structural   CaH24C18(NO2)4
_chemical_formula_sum   'Ca1 H24 C18 N4 O8'
_cell_volume   513.87681080
_cell_formula_units_Z   1
loop_
 _symmetry_equiv_pos_site_id
 _symmetry_equiv_pos_as_xyz
  1  'x, y, z'
loop_
 _atom_site_type_symbol
 _atom_site_label
 _atom_site_symmetry_multiplicity
 _atom_site_fract_x
 _atom_site_fract_y
 _atom_site_fract_z
 _atom_site_occupancy
  Ca  Ca0  1  0.00000000  0.00000000  0.50000000  1.0
  H  H1  1  0.17098000  0.31433000  0.48231000  1.0
  H  H2  1  0.82901000  0.68566000  0.51769000  1.0
  H  H3  1  0.93444000  0.39489000  0.42900000  1.0
  H  H4  1  0.06555000  0.60511000  0.57100000  1.0
  H  H5  1  0.83957000  0.26260000  0.72259000  1.0
  H  H6  1  0.16044000  0.73740000  0.27741000  1.0
  H  H7  1  0.11779000  0.60644000  0.96006000  1.0
  H  H8  1  0.88221000  0.39358000  0.03995000  1.0
  H  H9  1  0.09546000  0.51796000  0.76546000  1.0
  H  H10  1  0.90454000  0.48204000  0.23455000  1.0
  H  H11  1  0.49956000  0.16107000  0.36171000  1.0
  H  H12  1  0.50044000  0.83894000  0.63828000  1.0
  H  H13  1  0.92811000  0.92561000  0.13261000  1.0
  H  H14  1  0.07189000  0.07438000  0.86739000  1.0
  H  H15  1  0.75744000  0.08411000  0.02542000  1.0
  H  H16  1  0.24256000  0.91588000  0.97458000  1.0
  H  H17  1  0.71645000  0.86716000  0.08094000  1.0
  H  H18  1  0.28353000  0.13284000  0.91907000  1.0
  H  H19  1  0.23566000  0.20727000  0.25729000  1.0
  H  H20  1  0.76433000  0.79274000  0.74270000  1.0
  H  H21  1  0.29087000  0.02330000  0.17069000  1.0
  H  H22  1  0.70913000  0.97671000  0.82931000  1.0
  H  H23  1  0.31563000  0.24075000  0.10123000  1.0
  H  H24  1  0.68437000  0.75926000  0.89876000  1.0
  C  C25  1  0.46673000  0.38238000  0.72897000  1.0
  C  C26  1  0.53328000  0.61762000  0.27103000  1.0
  C  C27  1  0.67596000  0.33954000  0.77316000  1.0
  C  C28  1  0.32405000  0.66046000  0.22684000  1.0
  C  C29  1  0.48990000  0.47803000  0.94214000  1.0
  C  C30  1  0.51012000  0.52197000  0.05786000  1.0
  C  C31  1  0.27275000  0.53054000  0.90401000  1.0
  C  C32  1  0.72727000  0.46947000  0.09599000  1.0
  C  C33  1  0.26174000  0.48213000  0.79640000  1.0
  C  C34  1  0.73827000  0.51787000  0.20361000  1.0
  C  C35  1  0.46330000  0.31657000  0.61534000  1.0
  C  C36  1  0.53669000  0.68342000  0.38466000  1.0
  C  C37  1  0.64668000  0.08880000  0.29829000  1.0
  C  C38  1  0.35333000  0.91121000  0.70171000  1.0
  C  C39  1  0.75704000  0.98216000  0.10362000  1.0
  C  C40  1  0.24296000  0.01783000  0.89638000  1.0
  C  C41  1  0.34316000  0.13978000  0.18056000  1.0
  C  C42  1  0.65683000  0.86022000  0.81944000  1.0
  N  N43  1  0.68920000  0.38538000  0.87643000  1.0
  N  N44  1  0.31081000  0.61462000  0.12356000  1.0
  N  N45  1  0.58560000  0.07137000  0.19794000  1.0
  N  N46  1  0.41440000  0.92863000  0.80206000  1.0
  O  O47  1  0.63579000  0.18088000  0.57827000  1.0
  O  O48  1  0.36422000  0.81912000  0.42172000  1.0
  O  O49  1  0.07433000  0.27940000  0.43715000  1.0
  O  O50  1  0.92567000  0.72060000  0.56284000  1.0
  O  O51  1  0.28219000  0.39953000  0.56533000  1.0
  O  O52  1  0.71779000  0.60045000  0.43469000  1.0
  O  O53  1  0.85150000  0.02991000  0.32059000  1.0
  O  O54  1  0.14847000  0.97009000  0.67941000  1.0
