# generated using pymatgen
data_Cu5H16C24(N3O10)2
_symmetry_space_group_name_H-M   'P 1'
_cell_length_a   7.44382000
_cell_length_b   13.89560000
_cell_length_c   15.77870000
_cell_angle_alpha   71.82000000
_cell_angle_beta   89.97400000
_cell_angle_gamma   74.48500000
_symmetry_Int_Tables_number   1
_chemical_formula_structural   Cu5H16C24(N3O10)2
_chemical_formula_sum   'Cu10 H32 C48 N12 O40'
_cell_volume   1487.96072229
_cell_formula_units_Z   2
loop_
 _symmetry_equiv_pos_site_id
 _symmetry_equiv_pos_as_xyz
  1  'x, y, z'
loop_
 _atom_site_type_symbol
 _atom_site_label
 _atom_site_symmetry_multiplicity
 _atom_site_fract_x
 _atom_site_fract_y
 _atom_site_fract_z
 _atom_site_occupancy
  Cu  Cu0  1  0.38313000  0.72589000  0.41961000  1.0
  Cu  Cu1  1  0.10986000  0.27381000  0.08051000  1.0
  Cu  Cu2  1  0.61692000  0.27418000  0.58031000  1.0
  Cu  Cu3  1  0.88919000  0.72678000  0.91836000  1.0
  Cu  Cu4  1  0.37662000  0.49294000  0.41428000  1.0
  Cu  Cu5  1  0.86721000  0.50677000  0.08584000  1.0
  Cu  Cu6  1  0.62338000  0.50718000  0.58565000  1.0
  Cu  Cu7  1  0.13280000  0.49229000  0.91425000  1.0
  Cu  Cu8  1  0.48793000  0.99981000  0.25006000  1.0
  Cu  Cu9  1  0.51197000  0.00016000  0.75002000  1.0
  H  H10  1  0.32872000  0.79394000  0.72266000  1.0
  H  H11  1  0.12241000  0.20557000  0.77765000  1.0
  H  H12  1  0.67140000  0.20608000  0.27738000  1.0
  H  H13  1  0.87740000  0.79417000  0.22207000  1.0
  H  H14  1  0.69673000  0.59505000  0.43321000  1.0
  H  H15  1  0.29238000  0.40495000  0.06690000  1.0
  H  H16  1  0.30336000  0.40504000  0.56675000  1.0
  H  H17  1  0.70834000  0.59518000  0.93373000  1.0
  H  H18  1  0.18349000  0.92611000  0.35714000  1.0
  H  H19  1  0.10962000  0.07364000  0.14286000  1.0
  H  H20  1  0.81650000  0.07386000  0.64302000  1.0
  H  H21  1  0.89118000  0.92685000  0.85717000  1.0
  H  H22  1  0.06106000  0.84776000  0.35360000  1.0
  H  H23  1  0.90905000  0.15211000  0.14646000  1.0
  H  H24  1  0.93886000  0.15223000  0.64641000  1.0
  H  H25  1  0.09158000  0.84818000  0.85383000  1.0
  H  H26  1  0.50561000  0.59733000  0.75781000  1.0
  H  H27  1  0.10299000  0.40220000  0.74228000  1.0
  H  H28  1  0.49427000  0.40276000  0.24223000  1.0
  H  H29  1  0.89677000  0.59732000  0.25737000  1.0
  H  H30  1  0.23199000  0.87715000  0.54933000  1.0
  H  H31  1  0.10881000  0.12251000  0.95105000  1.0
  H  H32  1  0.76807000  0.12290000  0.45068000  1.0
  H  H33  1  0.89175000  0.87699000  0.04860000  1.0
  H  H34  1  0.43340000  0.92449000  0.98896000  1.0
  H  H35  1  0.35782000  0.07514000  0.51117000  1.0
  H  H36  1  0.56653000  0.07547000  0.01100000  1.0
  H  H37  1  0.64240000  0.92474000  0.48911000  1.0
  H  H38  1  0.34583000  0.56952000  0.12965000  1.0
  H  H39  1  0.91626000  0.43018000  0.37044000  1.0
  H  H40  1  0.65404000  0.43048000  0.87013000  1.0
  H  H41  1  0.08415000  0.56966000  0.62967000  1.0
  C  C42  1  0.45473000  0.65285000  0.69142000  1.0
  C  C43  1  0.10757000  0.34673000  0.80872000  1.0
  C  C44  1  0.54524000  0.34719000  0.30859000  1.0
  C  C45  1  0.89247000  0.65289000  0.19102000  1.0
  C  C46  1  0.31371000  0.79704000  0.58485000  1.0
  C  C47  1  0.11054000  0.20260000  0.91543000  1.0
  C  C48  1  0.68632000  0.20299000  0.41515000  1.0
  C  C49  1  0.88998000  0.79692000  0.08436000  1.0
  C  C50  1  0.37115000  0.71062000  0.15238000  1.0
  C  C51  1  0.08251000  0.28906000  0.34769000  1.0
  C  C52  1  0.62884000  0.28934000  0.84746000  1.0
  C  C53  1  0.91758000  0.71067000  0.65254000  1.0
  C  C54  1  0.38849000  0.81320000  0.11156000  1.0
  C  C55  1  0.20208000  0.18648000  0.38853000  1.0
  C  C56  1  0.61142000  0.18679000  0.88834000  1.0
  C  C57  1  0.79799000  0.81328000  0.61169000  1.0
  C  C58  1  0.41390000  0.84660000  0.02075000  1.0
  C  C59  1  0.26062000  0.15304000  0.47935000  1.0
  C  C60  1  0.58609000  0.15338000  0.97917000  1.0
  C  C61  1  0.73956000  0.84681000  0.52086000  1.0
  C  C62  1  0.40953000  0.78292000  0.96831000  1.0
  C  C63  1  0.19277000  0.21675000  0.53178000  1.0
  C  C64  1  0.59072000  0.21707000  0.03159000  1.0
  C  C65  1  0.80736000  0.78318000  0.46836000  1.0
  C  C66  1  0.37938000  0.68386000  0.00684000  1.0
  C  C67  1  0.06387000  0.31586000  0.49322000  1.0
  C  C68  1  0.62087000  0.31615000  0.99293000  1.0
  C  C69  1  0.93637000  0.68412000  0.50691000  1.0
  C  C70  1  0.36310000  0.64784000  0.09895000  1.0
  C  C71  1  0.01181000  0.35187000  0.40112000  1.0
  C  C72  1  0.63677000  0.35217000  0.90081000  1.0
  C  C73  1  0.98855000  0.64798000  0.59903000  1.0
  C  C74  1  0.36815000  0.66814000  0.25224000  1.0
  C  C75  1  0.03695000  0.33172000  0.24786000  1.0
  C  C76  1  0.63182000  0.33187000  0.74760000  1.0
  C  C77  1  0.96198000  0.66787000  0.75245000  1.0
  C  C78  1  0.37154000  0.89470000  0.15714000  1.0
  C  C79  1  0.26636000  0.10500000  0.34294000  1.0
  C  C80  1  0.62812000  0.10547000  0.84266000  1.0
  C  C81  1  0.73366000  0.89482000  0.65724000  1.0
  C  C82  1  0.42415000  0.83029000  0.87067000  1.0
  C  C83  1  0.25462000  0.16961000  0.62939000  1.0
  C  C84  1  0.57613000  0.16973000  0.12930000  1.0
  C  C85  1  0.74540000  0.83042000  0.37074000  1.0
  C  C86  1  0.36177000  0.61858000  0.94887000  1.0
  C  C87  1  0.98075000  0.38109000  0.55120000  1.0
  C  C88  1  0.63881000  0.38168000  0.05054000  1.0
  C  C89  1  0.01938000  0.61895000  0.44885000  1.0
  N  N90  1  0.38695000  0.72403000  0.54752000  1.0
  N  N91  1  0.11112000  0.27566000  0.95265000  1.0
  N  N92  1  0.61307000  0.27601000  0.45248000  1.0
  N  N93  1  0.88982000  0.72356000  0.04744000  1.0
  N  N94  1  0.47531000  0.63349000  0.61430000  1.0
  N  N95  1  0.10909000  0.36615000  0.88579000  1.0
  N  N96  1  0.52467000  0.36655000  0.38571000  1.0
  N  N97  1  0.89149000  0.63380000  0.11377000  1.0
  N  N98  1  0.35430000  0.75474000  0.67482000  1.0
  N  N99  1  0.10877000  0.24484000  0.82543000  1.0
  N  N100  1  0.64568000  0.24530000  0.32518000  1.0
  N  N101  1  0.89115000  0.75484000  0.17440000  1.0
  O  O102  1  0.34453000  0.57637000  0.28511000  1.0
  O  O103  1  0.92165000  0.42340000  0.21521000  1.0
  O  O104  1  0.65566000  0.42361000  0.71481000  1.0
  O  O105  1  0.07864000  0.57663000  0.78526000  1.0
  O  O106  1  0.39392000  0.72819000  0.29482000  1.0
  O  O107  1  0.12281000  0.27179000  0.20512000  1.0
  O  O108  1  0.60561000  0.27197000  0.70500000  1.0
  O  O109  1  0.87328000  0.72707000  0.79520000  1.0
  O  O110  1  0.52578000  0.91571000  0.17007000  1.0
  O  O111  1  0.44164000  0.08392000  0.33002000  1.0
  O  O112  1  0.47393000  0.08428000  0.83003000  1.0
  O  O113  1  0.55826000  0.91620000  0.66988000  1.0
  O  O114  1  0.21191000  0.94205000  0.17178000  1.0
  O  O115  1  0.15379000  0.05779000  0.32831000  1.0
  O  O116  1  0.78761000  0.05850000  0.82760000  1.0
  O  O117  1  0.84648000  0.94175000  0.67213000  1.0
  O  O118  1  0.56054000  0.87125000  0.85365000  1.0
  O  O119  1  0.43196000  0.12920000  0.64638000  1.0
  O  O120  1  0.43947000  0.12901000  0.14634000  1.0
  O  O121  1  0.56796000  0.87073000  0.35380000  1.0
  O  O122  1  0.30012000  0.83380000  0.81379000  1.0
  O  O123  1  0.13406000  0.16575000  0.68631000  1.0
  O  O124  1  0.70036000  0.16605000  0.18616000  1.0
  O  O125  1  0.86580000  0.83446000  0.31379000  1.0
  O  O126  1  0.20279000  0.59775000  0.95279000  1.0
  O  O127  1  0.80100000  0.40181000  0.54733000  1.0
  O  O128  1  0.79743000  0.40313000  0.04570000  1.0
  O  O129  1  0.19911000  0.59825000  0.45269000  1.0
  O  O130  1  0.49020000  0.59091000  0.90256000  1.0
  O  O131  1  0.08140000  0.40872000  0.59754000  1.0
  O  O132  1  0.51144000  0.40893000  0.09737000  1.0
  O  O133  1  0.91861000  0.59131000  0.40259000  1.0
  O  O134  1  0.57572000  0.59350000  0.46060000  1.0
  O  O135  1  0.17085000  0.40591000  0.03909000  1.0
  O  O136  1  0.42433000  0.40662000  0.53933000  1.0
  O  O137  1  0.82612000  0.59666000  0.96354000  1.0
  O  O138  1  0.16636000  0.85494000  0.38852000  1.0
  O  O139  1  0.02152000  0.14484000  0.11150000  1.0
  O  O140  1  0.83365000  0.14496000  0.61150000  1.0
  O  O141  1  0.97906000  0.85570000  0.88868000  1.0
