# generated using pymatgen
data_Zr3H20C26N5O18
_symmetry_space_group_name_H-M   'P 1'
_cell_length_a   14.75250000
_cell_length_b   14.76990000
_cell_length_c   14.75300000
_cell_angle_alpha   60.05950000
_cell_angle_beta   60.44090000
_cell_angle_gamma   60.25560000
_symmetry_Int_Tables_number   1
_chemical_formula_structural   Zr3H20C26N5O18
_chemical_formula_sum   'Zr6 H40 C52 N10 O36'
_cell_volume   2285.96348478
_cell_formula_units_Z   2
loop_
 _symmetry_equiv_pos_site_id
 _symmetry_equiv_pos_as_xyz
  1  'x, y, z'
loop_
 _atom_site_type_symbol
 _atom_site_label
 _atom_site_symmetry_multiplicity
 _atom_site_fract_x
 _atom_site_fract_y
 _atom_site_fract_z
 _atom_site_occupancy
  Zr  Zr0  1  0.11444000  0.12278000  0.37929000  1.0
  Zr  Zr1  1  0.88022000  0.88186000  0.61275000  1.0
  Zr  Zr2  1  0.11736000  0.88442000  0.37440000  1.0
  Zr  Zr3  1  0.87786000  0.11943000  0.61731000  1.0
  Zr  Zr4  1  0.11774000  0.88131000  0.61433000  1.0
  Zr  Zr5  1  0.87736000  0.12073000  0.37669000  1.0
  H  H6  1  0.27966000  0.90935000  0.40510000  1.0
  H  H7  1  0.90860000  0.90370000  0.77809000  1.0
  H  H8  1  0.90263000  0.90913000  0.39905000  1.0
  H  H9  1  0.90088000  0.28385000  0.40381000  1.0
  H  H10  1  0.40710000  0.85968000  0.63557000  1.0
  H  H11  1  0.54622000  0.17568000  0.40687000  1.0
  H  H12  1  0.85232000  0.41446000  0.09061000  1.0
  H  H13  1  0.14275000  0.58521000  0.89846000  1.0
  H  H14  1  0.89632000  0.16508000  0.86998000  1.0
  H  H15  1  0.15130000  0.86939000  0.07742000  1.0
  H  H16  1  0.58571000  0.40629000  0.63863000  1.0
  H  H17  1  0.40496000  0.59023000  0.35594000  1.0
  H  H18  1  0.42306000  0.01431000  0.26552000  1.0
  H  H19  1  0.75896000  0.02742000  0.93072000  1.0
  H  H20  1  0.14169000  0.40246000  0.36620000  1.0
  H  H21  1  0.85916000  0.59479000  0.63464000  1.0
  H  H22  1  0.64952000  0.82209000  0.67080000  1.0
  H  H23  1  0.54232000  0.77459000  0.72182000  1.0
  H  H24  1  0.30658000  0.20826000  0.37047000  1.0
  H  H25  1  0.40975000  0.25907000  0.32194000  1.0
  H  H26  1  0.82376000  0.64940000  0.84106000  1.0
  H  H27  1  0.76997000  0.54601000  0.95150000  1.0
  H  H28  1  0.18521000  0.33567000  0.13218000  1.0
  H  H29  1  0.23978000  0.43530000  0.02005000  1.0
  H  H30  1  0.85825000  0.20030000  0.11216000  1.0
  H  H31  1  0.83928000  0.26833000  0.98683000  1.0
  H  H32  1  0.19825000  0.84086000  0.82662000  1.0
  H  H33  1  0.25004000  0.79534000  0.93107000  1.0
  H  H34  1  0.33894000  0.64130000  0.67777000  1.0
  H  H35  1  0.44046000  0.53072000  0.73218000  1.0
  H  H36  1  0.63340000  0.33734000  0.33527000  1.0
  H  H37  1  0.52292000  0.43845000  0.29016000  1.0
  H  H38  1  0.19057000  0.63218000  0.33990000  1.0
  H  H39  1  0.24351000  0.51814000  0.30118000  1.0
  H  H40  1  0.82730000  0.34601000  0.68008000  1.0
  H  H41  1  0.78047000  0.45197000  0.72967000  1.0
  H  H42  1  0.60286000  0.92204000  0.79456000  1.0
  H  H43  1  0.29121000  0.92737000  0.09563000  1.0
  H  H44  1  0.66409000  0.00942000  0.26844000  1.0
  H  H45  1  0.77139000  0.09731000  0.08779000  1.0
  C  C46  1  0.29019000  0.01395000  0.50829000  1.0
  C  C47  1  0.99851000  0.69240000  0.79642000  1.0
  C  C48  1  0.68412000  0.00540000  0.50740000  1.0
  C  C49  1  0.00005000  0.30392000  0.18928000  1.0
  C  C50  1  0.30146000  0.00712000  0.19047000  1.0
  C  C51  1  0.99531000  0.30434000  0.50354000  1.0
  C  C52  1  0.69451000  0.00195000  0.80519000  1.0
  C  C53  1  0.00458000  0.69411000  0.49559000  1.0
  C  C54  1  0.30137000  0.69493000  0.49736000  1.0
  C  C55  1  0.00623000  0.01291000  0.17975000  1.0
  C  C56  1  0.68756000  0.30018000  0.49928000  1.0
  C  C57  1  0.01568000  0.00510000  0.78927000  1.0
  C  C58  1  0.57553000  0.01045000  0.52127000  1.0
  C  C59  1  0.37960000  0.02365000  0.51873000  1.0
  C  C60  1  0.53474000  0.91939000  0.59205000  1.0
  C  C61  1  0.41597000  0.11752000  0.45420000  1.0
  C  C62  1  0.43721000  0.92991000  0.58785000  1.0
  C  C63  1  0.51340000  0.10723000  0.45838000  1.0
  C  C64  1  0.99499000  0.59342000  0.89753000  1.0
  C  C65  1  0.00220000  0.40416000  0.08942000  1.0
  C  C66  1  0.90895000  0.54662000  0.95153000  1.0
  C  C67  1  0.08716000  0.45204000  0.03661000  1.0
  C  C68  1  0.91646000  0.45254000  0.04628000  1.0
  C  C69  1  0.07994000  0.54568000  0.94148000  1.0
  C  C70  1  0.01632000  0.02166000  0.07045000  1.0
  C  C71  1  0.02950000  0.01235000  0.87782000  1.0
  C  C72  1  0.94488000  0.10973000  0.00948000  1.0
  C  C73  1  0.10707000  0.92756000  0.93383000  1.0
  C  C74  1  0.95478000  0.10246000  0.91442000  1.0
  C  C75  1  0.09694000  0.93541000  0.02963000  1.0
  C  C76  1  0.40066000  0.59428000  0.50050000  1.0
  C  C77  1  0.58863000  0.40142000  0.49530000  1.0
  C  C78  1  0.45147000  0.54310000  0.58328000  1.0
  C  C79  1  0.53816000  0.45280000  0.41220000  1.0
  C  C80  1  0.54436000  0.44768000  0.57721000  1.0
  C  C81  1  0.44538000  0.54818000  0.41824000  1.0
  C  C82  1  0.40754000  0.99698000  0.09844000  1.0
  C  C83  1  0.49675000  0.01414000  0.09579000  1.0
  C  C84  1  0.42187000  0.96382000  0.01724000  1.0
  C  C85  1  0.49467000  0.01758000  0.19094000  1.0
  C  C86  1  0.58589000  0.02001000  0.19258000  1.0
  C  C87  1  0.60104000  0.99420000  0.91058000  1.0
  C  C88  1  0.52001000  0.96163000  0.92281000  1.0
  C  C89  1  0.59408000  0.01522000  0.99980000  1.0
  C  C90  1  0.68411000  0.02501000  0.00205000  1.0
  C  C91  1  0.67997000  0.02718000  0.09645000  1.0
  C  C92  1  0.00673000  0.59304000  0.49548000  1.0
  C  C93  1  0.99495000  0.40330000  0.50603000  1.0
  C  C94  1  0.09031000  0.53911000  0.41680000  1.0
  C  C95  1  0.91203000  0.45644000  0.58571000  1.0
  C  C96  1  0.08044000  0.44558000  0.42520000  1.0
  C  C97  1  0.92135000  0.55051000  0.57675000  1.0
  N  N98  1  0.58997000  0.82003000  0.65684000  1.0
  N  N99  1  0.36041000  0.21592000  0.38822000  1.0
  N  N100  1  0.81967000  0.59113000  0.91719000  1.0
  N  N101  1  0.17211000  0.41328000  0.07585000  1.0
  N  N102  1  0.85349000  0.19443000  0.04865000  1.0
  N  N103  1  0.18547000  0.83747000  0.90221000  1.0
  N  N104  1  0.41607000  0.58476000  0.66508000  1.0
  N  N105  1  0.57819000  0.41535000  0.32577000  1.0
  N  N106  1  0.17650000  0.57595000  0.33244000  1.0
  N  N107  1  0.82334000  0.42218000  0.66619000  1.0
  O  O108  1  0.25182000  0.08822000  0.42829000  1.0
  O  O109  1  0.92100000  0.73590000  0.75463000  1.0
  O  O110  1  0.73237000  0.92456000  0.57840000  1.0
  O  O111  1  0.07678000  0.26111000  0.23153000  1.0
  O  O112  1  0.25401000  0.93689000  0.22363000  1.0
  O  O113  1  0.91854000  0.26254000  0.57900000  1.0
  O  O114  1  0.73743000  0.07617000  0.76568000  1.0
  O  O115  1  0.08037000  0.73673000  0.41898000  1.0
  O  O116  1  0.25869000  0.73601000  0.57462000  1.0
  O  O117  1  0.92475000  0.08493000  0.22446000  1.0
  O  O118  1  0.73017000  0.25925000  0.42191000  1.0
  O  O119  1  0.08403000  0.92229000  0.75482000  1.0
  O  O120  1  0.07812000  0.93246000  0.22490000  1.0
  O  O121  1  0.72685000  0.25909000  0.57720000  1.0
  O  O122  1  0.93436000  0.07836000  0.75441000  1.0
  O  O123  1  0.26273000  0.73720000  0.41851000  1.0
  O  O124  1  0.26133000  0.08231000  0.23173000  1.0
  O  O125  1  0.92686000  0.73538000  0.57073000  1.0
  O  O126  1  0.72689000  0.93306000  0.75675000  1.0
  O  O127  1  0.07075000  0.26538000  0.42616000  1.0
  O  O128  1  0.92233000  0.26479000  0.22955000  1.0
  O  O129  1  0.25833000  0.92981000  0.57584000  1.0
  O  O130  1  0.07643000  0.73119000  0.75568000  1.0
  O  O131  1  0.72671000  0.07858000  0.42574000  1.0
  O  O132  1  0.92787000  0.20354000  0.43032000  1.0
  O  O133  1  0.93027000  0.93549000  0.42568000  1.0
  O  O134  1  0.93172000  0.93223000  0.69792000  1.0
  O  O135  1  0.19967000  0.93639000  0.42776000  1.0
  O  O136  1  0.04790000  0.85354000  0.54297000  1.0
  O  O137  1  0.04623000  0.05070000  0.54679000  1.0
  O  O138  1  0.84943000  0.05022000  0.54548000  1.0
  O  O139  1  0.04569000  0.05237000  0.34837000  1.0
  O  O140  1  0.52643000  0.92939000  0.84809000  1.0
  O  O141  1  0.34677000  0.93427000  0.02038000  1.0
  O  O142  1  0.58876000  0.01357000  0.28640000  1.0
  O  O143  1  0.76872000  0.02327000  0.10966000  1.0
