# generated using pymatgen
data_YbPH3CO6
_symmetry_space_group_name_H-M   'P 1'
_cell_length_a   6.38164000
_cell_length_b   6.81345000
_cell_length_c   8.05114000
_cell_angle_alpha   114.31400000
_cell_angle_beta   101.12900000
_cell_angle_gamma   90.20550000
_symmetry_Int_Tables_number   1
_chemical_formula_structural   YbPH3CO6
_chemical_formula_sum   'Yb2 P2 H6 C2 O12'
_cell_volume   311.66853344
_cell_formula_units_Z   2
loop_
 _symmetry_equiv_pos_site_id
 _symmetry_equiv_pos_as_xyz
  1  'x, y, z'
loop_
 _atom_site_type_symbol
 _atom_site_label
 _atom_site_symmetry_multiplicity
 _atom_site_fract_x
 _atom_site_fract_y
 _atom_site_fract_z
 _atom_site_occupancy
  Yb  Yb0  1  0.11399000  0.21831000  0.93553000  1.0
  Yb  Yb1  1  0.88601000  0.78168000  0.06446000  1.0
  P  P2  1  0.66708000  0.25286000  0.00929000  1.0
  P  P3  1  0.33291000  0.74713000  0.99069000  1.0
  H  H4  1  0.65517000  0.33883000  0.19874000  1.0
  H  H5  1  0.34483000  0.66116000  0.80126000  1.0
  H  H6  1  0.12978000  0.28535000  0.30413000  1.0
  H  H7  1  0.87024000  0.71468000  0.69586000  1.0
  H  H8  1  0.13710000  0.51654000  0.30540000  1.0
  H  H9  1  0.86292000  0.48343000  0.69459000  1.0
  C  C10  1  0.99306000  0.11146000  0.49892000  1.0
  C  C11  1  0.00694000  0.88854000  0.50108000  1.0
  O  O12  1  0.80470000  0.05754000  0.96971000  1.0
  O  O13  1  0.19530000  0.94246000  0.03029000  1.0
  O  O14  1  0.43995000  0.19725000  0.89234000  1.0
  O  O15  1  0.56006000  0.80274000  0.10766000  1.0
  O  O16  1  0.80519000  0.41749000  0.97844000  1.0
  O  O17  1  0.19480000  0.58251000  0.02155000  1.0
  O  O18  1  0.01349000  0.27048000  0.65622000  1.0
  O  O19  1  0.98650000  0.72952000  0.34378000  1.0
  O  O20  1  0.03689000  0.88425000  0.65930000  1.0
  O  O21  1  0.96311000  0.11576000  0.34070000  1.0
  O  O22  1  0.19746000  0.37483000  0.25459000  1.0
  O  O23  1  0.80251000  0.62518000  0.74545000  1.0
