# generated using pymatgen
data_HoH7C8O7
_symmetry_space_group_name_H-M   'P 1'
_cell_length_a   7.15659000
_cell_length_b   7.65343000
_cell_length_c   17.29840000
_cell_angle_alpha   92.13280000
_cell_angle_beta   89.99980000
_cell_angle_gamma   90.00000000
_symmetry_Int_Tables_number   1
_chemical_formula_structural   HoH7C8O7
_chemical_formula_sum   'Ho4 H28 C32 O28'
_cell_volume   946.81957109
_cell_formula_units_Z   4
loop_
 _symmetry_equiv_pos_site_id
 _symmetry_equiv_pos_as_xyz
  1  'x, y, z'
loop_
 _atom_site_type_symbol
 _atom_site_label
 _atom_site_symmetry_multiplicity
 _atom_site_fract_x
 _atom_site_fract_y
 _atom_site_fract_z
 _atom_site_occupancy
  Ho  Ho0  1  0.00601000  0.64618000  0.75332000  1.0
  Ho  Ho1  1  0.50601000  0.85382000  0.74668000  1.0
  Ho  Ho2  1  0.99399000  0.35382000  0.24668000  1.0
  Ho  Ho3  1  0.49399000  0.14618000  0.25332000  1.0
  H  H4  1  0.15991000  0.46358000  0.97977000  1.0
  H  H5  1  0.65991000  0.03643000  0.52023000  1.0
  H  H6  1  0.84010000  0.53642000  0.02023000  1.0
  H  H7  1  0.34010000  0.96357000  0.47977000  1.0
  H  H8  1  0.28816000  0.30110000  0.55456000  1.0
  H  H9  1  0.78816000  0.19890000  0.94544000  1.0
  H  H10  1  0.71185000  0.69890000  0.44544000  1.0
  H  H11  1  0.21185000  0.80110000  0.05456000  1.0
  H  H12  1  0.48160000  0.24663000  0.61262000  1.0
  H  H13  1  0.98160000  0.25337000  0.88738000  1.0
  H  H14  1  0.51841000  0.75338000  0.38738000  1.0
  H  H15  1  0.01841000  0.74662000  0.11262000  1.0
  H  H16  1  0.66835000  0.49075000  0.55507000  1.0
  H  H17  1  0.16835000  0.00925000  0.94493000  1.0
  H  H18  1  0.33166000  0.50925000  0.44493000  1.0
  H  H19  1  0.83166000  0.99075000  0.05507000  1.0
  H  H20  1  0.60007000  0.32454000  0.48721000  1.0
  H  H21  1  0.10007000  0.17546000  0.01279000  1.0
  H  H22  1  0.39993000  0.67547000  0.51279000  1.0
  H  H23  1  0.89993000  0.82453000  0.98721000  1.0
  H  H24  1  0.81362000  0.29544000  0.69277000  1.0
  H  H25  1  0.31362000  0.20457000  0.80723000  1.0
  H  H26  1  0.18637000  0.70456000  0.30723000  1.0
  H  H27  1  0.68637000  0.79544000  0.19277000  1.0
  H  H28  1  0.68315000  0.46449000  0.69865000  1.0
  H  H29  1  0.18316000  0.03552000  0.80135000  1.0
  H  H30  1  0.31685000  0.53551000  0.30135000  1.0
  H  H31  1  0.81684000  0.96448000  0.19865000  1.0
  C  C32  1  0.31824000  0.55287000  0.85237000  1.0
  C  C33  1  0.81823000  0.94713000  0.64764000  1.0
  C  C34  1  0.68176000  0.44713000  0.14763000  1.0
  C  C35  1  0.18177000  0.05287000  0.35237000  1.0
  C  C36  1  0.42144000  0.52790000  0.92666000  1.0
  C  C37  1  0.92144000  0.97210000  0.57334000  1.0
  C  C38  1  0.57856000  0.47210000  0.07333000  1.0
  C  C39  1  0.07856000  0.02790000  0.42666000  1.0
  C  C40  1  0.30990000  0.47832000  0.98834000  1.0
  C  C41  1  0.80990000  0.02168000  0.51166000  1.0
  C  C42  1  0.69010000  0.52167000  0.01166000  1.0
  C  C43  1  0.19010000  0.97832000  0.48834000  1.0
  C  C44  1  0.61462000  0.54979000  0.93857000  1.0
  C  C45  1  0.11462000  0.95021000  0.56143000  1.0
  C  C46  1  0.38538000  0.45021000  0.06143000  1.0
  C  C47  1  0.88538000  0.04978000  0.43857000  1.0
  C  C48  1  0.74500000  0.59535000  0.87545000  1.0
  C  C49  1  0.24500000  0.90465000  0.62455000  1.0
  C  C50  1  0.25499000  0.40465000  0.12455000  1.0
  C  C51  1  0.75499000  0.09535000  0.37545000  1.0
  C  C52  1  0.34914000  0.48483000  0.64614000  1.0
  C  C53  1  0.84915000  0.01516000  0.85386000  1.0
  C  C54  1  0.65086000  0.51517000  0.35386000  1.0
  C  C55  1  0.15085000  0.98483000  0.14614000  1.0
  C  C56  1  0.41295000  0.35503000  0.58354000  1.0
  C  C57  1  0.91295000  0.14497000  0.91646000  1.0
  C  C58  1  0.58706000  0.64498000  0.41646000  1.0
  C  C59  1  0.08706000  0.85502000  0.08354000  1.0
  C  C60  1  0.54693000  0.43223000  0.52482000  1.0
  C  C61  1  0.04693000  0.06777000  0.97518000  1.0
  C  C62  1  0.45307000  0.56778000  0.47518000  1.0
  C  C63  1  0.95308000  0.93222000  0.02482000  1.0
  O  O64  1  0.29626000  0.70884000  0.82749000  1.0
  O  O65  1  0.79625000  0.79117000  0.67251000  1.0
  O  O66  1  0.70372000  0.29117000  0.17251000  1.0
  O  O67  1  0.20373000  0.20883000  0.32749000  1.0
  O  O68  1  0.81140000  0.42015000  0.70959000  1.0
  O  O69  1  0.31141000  0.07986000  0.79041000  1.0
  O  O70  1  0.18859000  0.57985000  0.29041000  1.0
  O  O71  1  0.68859000  0.92014000  0.20959000  1.0
  O  O72  1  0.23489000  0.42492000  0.82027000  1.0
  O  O73  1  0.73488000  0.07509000  0.67973000  1.0
  O  O74  1  0.76512000  0.57508000  0.17973000  1.0
  O  O75  1  0.26512000  0.92492000  0.32027000  1.0
  O  O76  1  0.68058000  0.65197000  0.81191000  1.0
  O  O77  1  0.18059000  0.84803000  0.68808000  1.0
  O  O78  1  0.31941000  0.34803000  0.18808000  1.0
  O  O79  1  0.81941000  0.15196000  0.31191000  1.0
  O  O80  1  0.91943000  0.57486000  0.88362000  1.0
  O  O81  1  0.41943000  0.92514000  0.61638000  1.0
  O  O82  1  0.08057000  0.42513000  0.11638000  1.0
  O  O83  1  0.58057000  0.07487000  0.38362000  1.0
  O  O84  1  0.17551000  0.49802000  0.65973000  1.0
  O  O85  1  0.67551000  0.00199000  0.84027000  1.0
  O  O86  1  0.82449000  0.50199000  0.34027000  1.0
  O  O87  1  0.32449000  0.99802000  0.15974000  1.0
  O  O88  1  0.47483000  0.57408000  0.68320000  1.0
  O  O89  1  0.97482000  0.92591000  0.81680000  1.0
  O  O90  1  0.52518000  0.42592000  0.31680000  1.0
  O  O91  1  0.02517000  0.07408000  0.18320000  1.0
