# generated using pymatgen
data_CuH9C7NCl
_symmetry_space_group_name_H-M   'P 1'
_cell_length_a   4.12459000
_cell_length_b   9.34264000
_cell_length_c   9.97177000
_cell_angle_alpha   90.00000000
_cell_angle_beta   89.99770000
_cell_angle_gamma   89.99850000
_symmetry_Int_Tables_number   1
_chemical_formula_structural   CuH9C7NCl
_chemical_formula_sum   'Cu2 H18 C14 N2 Cl2'
_cell_volume   384.25776412
_cell_formula_units_Z   2
loop_
 _symmetry_equiv_pos_site_id
 _symmetry_equiv_pos_as_xyz
  1  'x, y, z'
loop_
 _atom_site_type_symbol
 _atom_site_label
 _atom_site_symmetry_multiplicity
 _atom_site_fract_x
 _atom_site_fract_y
 _atom_site_fract_z
 _atom_site_occupancy
  Cu  Cu0  1  0.70741000  0.88922000  0.50001000  1.0
  Cu  Cu1  1  0.29258000  0.38922000  0.00000000  1.0
  H  H2  1  0.71819000  0.73144000  0.24454000  1.0
  H  H3  1  0.71814000  0.73142000  0.75550000  1.0
  H  H4  1  0.28183000  0.23143000  0.74451000  1.0
  H  H5  1  0.28183000  0.23144000  0.25545000  1.0
  H  H6  1  0.38980000  0.85243000  0.26118000  1.0
  H  H7  1  0.38979000  0.85241000  0.73887000  1.0
  H  H8  1  0.61019000  0.35242000  0.76113000  1.0
  H  H9  1  0.61020000  0.35242000  0.23884000  1.0
  H  H10  1  0.34185000  0.68990000  0.16755000  1.0
  H  H11  1  0.34184000  0.68986000  0.83248000  1.0
  H  H12  1  0.65814000  0.18988000  0.66752000  1.0
  H  H13  1  0.65813000  0.18987000  0.33245000  1.0
  H  H14  1  0.08538000  0.49726000  0.28293000  1.0
  H  H15  1  0.08535000  0.49726000  0.71710000  1.0
  H  H16  1  0.91465000  0.99726000  0.78289000  1.0
  H  H17  1  0.91464000  0.99725000  0.21707000  1.0
  H  H18  1  0.92098000  0.37898000  0.50001000  1.0
  H  H19  1  0.07902000  0.87898000  0.99998000  1.0
  C  C20  1  0.34848000  0.66421000  0.38189000  1.0
  C  C21  1  0.34848000  0.66420000  0.61814000  1.0
  C  C22  1  0.65152000  0.16421000  0.88187000  1.0
  C  C23  1  0.65153000  0.16421000  0.11810000  1.0
  C  C24  1  0.45354000  0.73818000  0.25644000  1.0
  C  C25  1  0.45354000  0.73816000  0.74362000  1.0
  C  C26  1  0.54645000  0.23816000  0.75638000  1.0
  C  C27  1  0.54646000  0.23816000  0.24357000  1.0
  C  C28  1  0.15915000  0.54046000  0.37976000  1.0
  C  C29  1  0.15916000  0.54044000  0.62026000  1.0
  C  C30  1  0.84086000  0.04045000  0.87974000  1.0
  C  C31  1  0.84083000  0.04045000  0.12023000  1.0
  C  C32  1  0.06591000  0.47667000  0.50002000  1.0
  C  C33  1  0.93411000  0.97666000  0.99997000  1.0
  N  N34  1  0.44409000  0.72329000  0.50002000  1.0
  N  N35  1  0.55594000  0.22329000  0.99998000  1.0
  Cl  Cl36  1  0.06800000  0.04922000  0.49999000  1.0
  Cl  Cl37  1  0.93198000  0.54923000  0.00002000  1.0
