# generated using pymatgen
data_BiP2H36C24(BrO2)3
_symmetry_space_group_name_H-M   'P 1'
_cell_length_a   13.01470000
_cell_length_b   15.13770000
_cell_length_c   18.37100000
_cell_angle_alpha   91.08850000
_cell_angle_beta   94.03280000
_cell_angle_gamma   93.56380000
_symmetry_Int_Tables_number   1
_chemical_formula_structural   BiP2H36C24(BrO2)3
_chemical_formula_sum   'Bi4 P8 H144 C96 Br12 O24'
_cell_volume   3602.38288577
_cell_formula_units_Z   4
loop_
 _symmetry_equiv_pos_site_id
 _symmetry_equiv_pos_as_xyz
  1  'x, y, z'
loop_
 _atom_site_type_symbol
 _atom_site_label
 _atom_site_symmetry_multiplicity
 _atom_site_fract_x
 _atom_site_fract_y
 _atom_site_fract_z
 _atom_site_occupancy
  Bi  Bi0  1  0.05758000  0.97629000  0.39493000  1.0
  Bi  Bi1  1  0.94242000  0.02371000  0.60506000  1.0
  Bi  Bi2  1  0.65110000  0.48561000  0.96989000  1.0
  Bi  Bi3  1  0.34890000  0.51439000  0.03011000  1.0
  P  P4  1  0.09421000  0.16043000  0.25524000  1.0
  P  P5  1  0.90579000  0.83957000  0.74476000  1.0
  P  P6  1  0.22993000  0.08704000  0.69228000  1.0
  P  P7  1  0.77007000  0.91296000  0.30772000  1.0
  P  P8  1  0.68912000  0.30014000  0.11271000  1.0
  P  P9  1  0.31088000  0.69986000  0.88729000  1.0
  P  P10  1  0.25107000  0.69050000  0.15417000  1.0
  P  P11  1  0.74893000  0.30950000  0.84583000  1.0
  H  H12  1  0.17587000  0.28563000  0.15167000  1.0
  H  H13  1  0.82413000  0.71437000  0.84833000  1.0
  H  H14  1  0.21122000  0.26960000  0.02314000  1.0
  H  H15  1  0.78877000  0.73040000  0.97686000  1.0
  H  H16  1  0.13864000  0.98754000  0.03122000  1.0
  H  H17  1  0.86137000  0.01246000  0.96878000  1.0
  H  H18  1  0.10010000  0.00437000  0.16081000  1.0
  H  H19  1  0.89991000  0.99563000  0.83919000  1.0
  H  H20  1  0.30878000  0.22558000  0.93698000  1.0
  H  H21  1  0.69122000  0.77442000  0.06302000  1.0
  H  H22  1  0.32770000  0.21242000  0.80483000  1.0
  H  H23  1  0.67230000  0.78758000  0.19516000  1.0
  H  H24  1  0.08968000  0.99990000  0.78634000  1.0
  H  H25  1  0.91032000  0.00010000  0.21366000  1.0
  H  H26  1  0.07048000  0.01297000  0.91915000  1.0
  H  H27  1  0.92953000  0.98703000  0.08085000  1.0
  H  H28  1  0.25296000  0.18131000  0.37675000  1.0
  H  H29  1  0.74704000  0.81869000  0.62325000  1.0
  H  H30  1  0.23692000  0.34381000  0.40092000  1.0
  H  H31  1  0.76308000  0.65619000  0.59907000  1.0
  H  H32  1  0.30837000  0.36892000  0.32352000  1.0
  H  H33  1  0.69163000  0.63108000  0.67648000  1.0
  H  H34  1  0.36900000  0.31918000  0.40117000  1.0
  H  H35  1  0.63100000  0.68082000  0.59882000  1.0
  H  H36  1  0.31964000  0.13093000  0.26152000  1.0
  H  H37  1  0.68036000  0.86907000  0.73848000  1.0
  H  H38  1  0.41807000  0.19576000  0.31252000  1.0
  H  H39  1  0.58193000  0.80424000  0.68748000  1.0
  H  H40  1  0.34996000  0.24280000  0.23680000  1.0
  H  H41  1  0.65004000  0.75720000  0.76320000  1.0
  H  H42  1  0.98862000  0.22330000  0.35860000  1.0
  H  H43  1  0.01138000  0.77669000  0.64140000  1.0
  H  H44  1  0.83975000  0.12070000  0.31938000  1.0
  H  H45  1  0.16024000  0.87930000  0.68061000  1.0
  H  H46  1  0.78540000  0.20409000  0.26311000  1.0
  H  H47  1  0.21460000  0.79591000  0.73689000  1.0
  H  H48  1  0.79627000  0.21734000  0.36014000  1.0
  H  H49  1  0.20372000  0.78266000  0.63986000  1.0
  H  H50  1  0.01709000  0.36812000  0.29822000  1.0
  H  H51  1  0.98291000  0.63187000  0.70178000  1.0
  H  H52  1  0.90728000  0.36735000  0.35097000  1.0
  H  H53  1  0.09272000  0.63264000  0.64903000  1.0
  H  H54  1  0.88969000  0.35499000  0.25415000  1.0
  H  H55  1  0.11031000  0.64500000  0.74585000  1.0
  H  H56  1  0.15244000  0.19237000  0.58170000  1.0
  H  H57  1  0.84756000  0.80762000  0.41830000  1.0
  H  H58  1  0.11046000  0.26687000  0.69702000  1.0
  H  H59  1  0.88953000  0.73313000  0.30298000  1.0
  H  H60  1  0.11301000  0.34284000  0.62520000  1.0
  H  H61  1  0.88699000  0.65716000  0.37479000  1.0
  H  H62  1  0.21933000  0.34406000  0.69229000  1.0
  H  H63  1  0.78067000  0.65595000  0.30771000  1.0
  H  H64  1  0.31563000  0.22817000  0.52644000  1.0
  H  H65  1  0.68437000  0.77183000  0.47356000  1.0
  H  H66  1  0.35137000  0.31366000  0.59360000  1.0
  H  H67  1  0.64863000  0.68633000  0.40640000  1.0
  H  H68  1  0.24600000  0.32568000  0.52806000  1.0
  H  H69  1  0.75400000  0.67432000  0.47194000  1.0
  H  H70  1  0.31311000  0.97575000  0.59363000  1.0
  H  H71  1  0.68689000  0.02425000  0.40638000  1.0
  H  H72  1  0.36564000  0.86392000  0.68679000  1.0
  H  H73  1  0.63437000  0.13608000  0.31321000  1.0
  H  H74  1  0.48455000  0.92711000  0.70690000  1.0
  H  H75  1  0.51545000  0.07289000  0.29311000  1.0
  H  H76  1  0.45697000  0.87546000  0.61900000  1.0
  H  H77  1  0.54303000  0.12454000  0.38100000  1.0
  H  H78  1  0.41880000  0.11806000  0.58819000  1.0
  H  H79  1  0.58119000  0.88194000  0.41181000  1.0
  H  H80  1  0.49367000  0.02883000  0.56418000  1.0
  H  H81  1  0.50633000  0.97117000  0.43582000  1.0
  H  H82  1  0.51396000  0.07898000  0.65262000  1.0
  H  H83  1  0.48604000  0.92103000  0.34738000  1.0
  H  H84  1  0.73899000  0.11558000  0.11070000  1.0
  H  H85  1  0.26101000  0.88442000  0.88930000  1.0
  H  H86  1  0.63036000  0.97592000  0.11235000  1.0
  H  H87  1  0.36965000  0.02408000  0.88765000  1.0
  H  H88  1  0.35823000  0.12435000  0.11440000  1.0
  H  H89  1  0.64177000  0.87565000  0.88560000  1.0
  H  H90  1  0.46613000  0.26441000  0.11242000  1.0
  H  H91  1  0.53387000  0.73559000  0.88757000  1.0
  H  H92  1  0.50454000  0.88600000  0.03923000  1.0
  H  H93  1  0.49546000  0.11400000  0.96078000  1.0
  H  H94  1  0.40608000  0.74306000  0.05430000  1.0
  H  H95  1  0.59392000  0.25694000  0.94571000  1.0
  H  H96  1  0.23064000  0.86603000  0.21562000  1.0
  H  H97  1  0.76936000  0.13397000  0.78438000  1.0
  H  H98  1  0.32886000  0.00845000  0.19958000  1.0
  H  H99  1  0.67114000  0.99155000  0.80042000  1.0
  H  H100  1  0.58127000  0.43031000  0.17154000  1.0
  H  H101  1  0.41873000  0.56969000  0.82846000  1.0
  H  H102  1  0.53980000  0.34320000  0.27962000  1.0
  H  H103  1  0.46020000  0.65679000  0.72039000  1.0
  H  H104  1  0.55656000  0.45745000  0.30416000  1.0
  H  H105  1  0.44344000  0.54254000  0.69584000  1.0
  H  H106  1  0.65700000  0.38588000  0.32811000  1.0
  H  H107  1  0.34300000  0.61412000  0.67189000  1.0
  H  H108  1  0.75538000  0.50816000  0.16567000  1.0
  H  H109  1  0.24462000  0.49184000  0.83433000  1.0
  H  H110  1  0.78334000  0.48986000  0.26086000  1.0
  H  H111  1  0.21666000  0.51014000  0.73914000  1.0
  H  H112  1  0.68311000  0.55921000  0.23093000  1.0
  H  H113  1  0.31689000  0.44078000  0.76907000  1.0
  H  H114  1  0.83884000  0.33760000  0.01480000  1.0
  H  H115  1  0.16116000  0.66239000  0.98520000  1.0
  H  H116  1  0.84645000  0.17737000  0.98835000  1.0
  H  H117  1  0.15355000  0.82263000  0.01165000  1.0
  H  H118  1  0.94418000  0.16925000  0.06137000  1.0
  H  H119  1  0.05582000  0.83075000  0.93863000  1.0
  H  H120  1  0.97115000  0.23012000  0.98229000  1.0
  H  H121  1  0.02885000  0.76988000  0.01770000  1.0
  H  H122  1  0.93089000  0.40987000  0.12313000  1.0
  H  H123  1  0.06911000  0.59013000  0.87687000  1.0
  H  H124  1  0.02404000  0.37119000  0.06661000  1.0
  H  H125  1  0.97596000  0.62881000  0.93339000  1.0
  H  H126  1  0.99233000  0.31055000  0.14545000  1.0
  H  H127  1  0.00767000  0.68945000  0.85455000  1.0
  H  H128  1  0.41253000  0.60015000  0.21263000  1.0
  H  H129  1  0.58747000  0.39984000  0.78737000  1.0
  H  H130  1  0.31387000  0.51709000  0.30071000  1.0
  H  H131  1  0.68613000  0.48291000  0.69929000  1.0
  H  H132  1  0.33125000  0.60768000  0.36526000  1.0
  H  H133  1  0.66875000  0.39231000  0.63474000  1.0
  H  H134  1  0.43892000  0.54792000  0.34228000  1.0
  H  H135  1  0.56108000  0.45208000  0.65772000  1.0
  H  H136  1  0.46857000  0.76076000  0.23621000  1.0
  H  H137  1  0.53143000  0.23924000  0.76378000  1.0
  H  H138  1  0.53478000  0.69342000  0.29939000  1.0
  H  H139  1  0.46522000  0.30657000  0.70061000  1.0
  H  H140  1  0.42970000  0.75309000  0.32705000  1.0
  H  H141  1  0.57029000  0.24691000  0.67295000  1.0
  H  H142  1  0.04818000  0.60377000  0.09996000  1.0
  H  H143  1  0.95182000  0.39623000  0.90004000  1.0
  H  H144  1  0.12605000  0.53690000  0.21136000  1.0
  H  H145  1  0.87395000  0.46310000  0.78864000  1.0
  H  H146  1  0.98943000  0.52927000  0.21164000  1.0
  H  H147  1  0.01056000  0.47073000  0.78836000  1.0
  H  H148  1  0.06314000  0.61116000  0.26793000  1.0
  H  H149  1  0.93686000  0.38885000  0.73207000  1.0
  H  H150  1  0.94345000  0.73463000  0.10705000  1.0
  H  H151  1  0.05655000  0.26537000  0.89295000  1.0
  H  H152  1  0.95793000  0.73496000  0.20392000  1.0
  H  H153  1  0.04207000  0.26505000  0.79608000  1.0
  H  H154  1  0.88229000  0.64761000  0.15440000  1.0
  H  H155  1  0.11771000  0.35239000  0.84560000  1.0
  C  C156  1  0.13076000  0.14654000  0.16397000  1.0
  C  C157  1  0.86924000  0.85346000  0.83603000  1.0
  C  C158  1  0.16570000  0.22031000  0.12533000  1.0
  C  C159  1  0.83430000  0.77969000  0.87467000  1.0
  C  C160  1  0.18742000  0.21082000  0.05270000  1.0
  C  C161  1  0.81258000  0.78918000  0.94730000  1.0
  C  C162  1  0.17430000  0.12761000  0.01674000  1.0
  C  C163  1  0.82571000  0.87239000  0.98326000  1.0
  C  C164  1  0.14403000  0.05334000  0.05699000  1.0
  C  C165  1  0.85597000  0.94667000  0.94301000  1.0
  C  C166  1  0.12241000  0.06239000  0.12984000  1.0
  C  C167  1  0.87759000  0.93761000  0.87017000  1.0
  C  C168  1  0.18912000  0.11914000  0.93807000  1.0
  C  C169  1  0.81088000  0.88086000  0.06194000  1.0
  C  C170  1  0.26040000  0.17587000  0.90451000  1.0
  C  C171  1  0.73960000  0.82413000  0.09549000  1.0
  C  C172  1  0.27126000  0.16859000  0.82984000  1.0
  C  C173  1  0.72874000  0.83141000  0.17016000  1.0
  C  C174  1  0.21049000  0.10467000  0.78699000  1.0
  C  C175  1  0.78951000  0.89533000  0.21301000  1.0
  C  C176  1  0.13819000  0.04862000  0.81974000  1.0
  C  C177  1  0.86181000  0.95138000  0.18026000  1.0
  C  C178  1  0.12813000  0.05580000  0.89445000  1.0
  C  C179  1  0.87187000  0.94420000  0.10555000  1.0
  C  C180  1  0.26563000  0.23004000  0.33406000  1.0
  C  C181  1  0.73438000  0.76996000  0.66594000  1.0
  C  C182  1  0.29659000  0.32119000  0.36693000  1.0
  C  C183  1  0.70342000  0.67881000  0.63307000  1.0
  C  C184  1  0.34233000  0.19808000  0.28277000  1.0
  C  C185  1  0.65767000  0.80193000  0.71723000  1.0
  C  C186  1  0.93932000  0.23904000  0.31003000  1.0
  C  C187  1  0.06067000  0.76096000  0.68997000  1.0
  C  C188  1  0.83372000  0.19210000  0.31287000  1.0
  C  C189  1  0.16628000  0.80790000  0.68712000  1.0
  C  C190  1  0.93863000  0.33858000  0.30245000  1.0
  C  C191  1  0.06137000  0.66142000  0.69755000  1.0
  C  C192  1  0.21151000  0.23534000  0.61312000  1.0
  C  C193  1  0.78848000  0.76466000  0.38688000  1.0
  C  C194  1  0.16114000  0.30120000  0.66004000  1.0
  C  C195  1  0.83886000  0.69880000  0.33995000  1.0
  C  C196  1  0.28595000  0.27799000  0.56228000  1.0
  C  C197  1  0.71405000  0.72200000  0.43772000  1.0
  C  C198  1  0.37565000  0.99222000  0.63611000  1.0
  C  C199  1  0.62435000  0.00778000  0.36389000  1.0
  C  C200  1  0.42317000  0.90942000  0.66406000  1.0
  C  C201  1  0.57683000  0.09058000  0.33594000  1.0
  C  C202  1  0.45488000  0.05909000  0.60870000  1.0
  C  C203  1  0.54512000  0.94091000  0.39130000  1.0
  C  C204  1  0.61022000  0.19908000  0.11236000  1.0
  C  C205  1  0.38978000  0.80092000  0.88764000  1.0
  C  C206  1  0.65562000  0.11744000  0.11123000  1.0
  C  C207  1  0.34438000  0.88256000  0.88877000  1.0
  C  C208  1  0.59437000  0.03901000  0.11154000  1.0
  C  C209  1  0.40563000  0.96099000  0.88846000  1.0
  C  C210  1  0.48699000  0.04051000  0.11400000  1.0
  C  C211  1  0.51301000  0.95949000  0.88600000  1.0
  C  C212  1  0.44182000  0.12249000  0.11423000  1.0
  C  C213  1  0.55818000  0.87751000  0.88577000  1.0
  C  C214  1  0.50260000  0.20134000  0.11303000  1.0
  C  C215  1  0.49740000  0.79866000  0.88697000  1.0
  C  C216  1  0.42419000  0.95683000  0.11888000  1.0
  C  C217  1  0.57581000  0.04317000  0.88112000  1.0
  C  C218  1  0.44499000  0.88142000  0.07814000  1.0
  C  C219  1  0.55501000  0.11858000  0.92187000  1.0
  C  C220  1  0.38914000  0.80118000  0.08610000  1.0
  C  C221  1  0.61086000  0.19882000  0.91390000  1.0
  C  C222  1  0.31205000  0.79543000  0.13579000  1.0
  C  C223  1  0.68795000  0.20457000  0.86421000  1.0
  C  C224  1  0.28964000  0.87065000  0.17622000  1.0
  C  C225  1  0.71036000  0.12936000  0.82379000  1.0
  C  C226  1  0.34495000  0.95057000  0.16709000  1.0
  C  C227  1  0.65505000  0.04943000  0.83291000  1.0
  C  C228  1  0.64283000  0.42022000  0.21414000  1.0
  C  C229  1  0.35717000  0.57977000  0.78586000  1.0
  C  C230  1  0.59647000  0.40009000  0.28592000  1.0
  C  C231  1  0.40353000  0.59990000  0.71408000  1.0
  C  C232  1  0.72144000  0.49874000  0.21826000  1.0
  C  C233  1  0.27856000  0.50126000  0.78174000  1.0
  C  C234  1  0.87732000  0.29625000  0.05561000  1.0
  C  C235  1  0.12267000  0.70375000  0.94438000  1.0
  C  C236  1  0.91161000  0.21291000  0.01984000  1.0
  C  C237  1  0.08839000  0.78708000  0.98016000  1.0
  C  C238  1  0.96147000  0.35006000  0.10063000  1.0
  C  C239  1  0.03853000  0.64994000  0.89937000  1.0
  C  C240  1  0.38514000  0.63648000  0.25930000  1.0
  C  C241  1  0.61486000  0.36352000  0.74070000  1.0
  C  C242  1  0.36594000  0.57341000  0.32072000  1.0
  C  C243  1  0.63406000  0.42659000  0.67928000  1.0
  C  C244  1  0.45852000  0.71580000  0.28166000  1.0
  C  C245  1  0.54148000  0.28420000  0.71834000  1.0
  C  C246  1  0.04665000  0.63966000  0.15255000  1.0
  C  C247  1  0.95335000  0.36034000  0.84745000  1.0
  C  C248  1  0.05801000  0.57572000  0.21493000  1.0
  C  C249  1  0.94199000  0.42429000  0.78507000  1.0
  C  C250  1  0.95177000  0.69240000  0.15462000  1.0
  C  C251  1  0.04822000  0.30760000  0.84537000  1.0
  Br  Br252  1  0.98597000  0.13379000  0.48570000  1.0
  Br  Br253  1  0.01404000  0.86621000  0.51430000  1.0
  Br  Br254  1  0.25863000  0.01456000  0.44345000  1.0
  Br  Br255  1  0.74137000  0.98545000  0.55656000  1.0
  Br  Br256  1  0.09348000  0.83262000  0.31275000  1.0
  Br  Br257  1  0.90651000  0.16739000  0.68724000  1.0
  Br  Br258  1  0.56384000  0.60546000  0.07211000  1.0
  Br  Br259  1  0.43616000  0.39453000  0.92790000  1.0
  Br  Br260  1  0.64358000  0.59096000  0.84845000  1.0
  Br  Br261  1  0.35642000  0.40904000  0.15155000  1.0
  Br  Br262  1  0.84693000  0.54056000  0.01731000  1.0
  Br  Br263  1  0.15306000  0.45946000  0.98270000  1.0
  O  O264  1  0.09401000  0.07425000  0.29445000  1.0
  O  O265  1  0.90599000  0.92575000  0.70555000  1.0
  O  O266  1  0.16432000  0.23926000  0.29439000  1.0
  O  O267  1  0.83569000  0.76074000  0.70561000  1.0
  O  O268  1  0.98610000  0.20238000  0.24497000  1.0
  O  O269  1  0.01390000  0.79762000  0.75503000  1.0
  O  O270  1  0.13741000  0.04401000  0.64940000  1.0
  O  O271  1  0.86259000  0.95599000  0.35060000  1.0
  O  O272  1  0.32826000  0.03057000  0.69952000  1.0
  O  O273  1  0.67174000  0.96943000  0.30049000  1.0
  O  O274  1  0.27312000  0.17802000  0.66066000  1.0
  O  O275  1  0.72688000  0.82198000  0.33935000  1.0
  O  O276  1  0.69540000  0.34082000  0.19339000  1.0
  O  O277  1  0.30460000  0.65917000  0.80661000  1.0
  O  O278  1  0.79931000  0.26587000  0.10571000  1.0
  O  O279  1  0.20069000  0.73413000  0.89429000  1.0
  O  O280  1  0.65144000  0.36337000  0.05638000  1.0
  O  O281  1  0.34856000  0.63663000  0.94362000  1.0
  O  O282  1  0.27544000  0.62033000  0.10011000  1.0
  O  O283  1  0.72456000  0.37967000  0.89989000  1.0
  O  O284  1  0.28268000  0.66716000  0.23616000  1.0
  O  O285  1  0.71732000  0.33283000  0.76384000  1.0
  O  O286  1  0.13378000  0.70807000  0.15488000  1.0
  O  O287  1  0.86622000  0.29194000  0.84512000  1.0
