# generated using pymatgen
data_Cu6H6C37O44
_symmetry_space_group_name_H-M   'P 1'
_cell_length_a   6.34802000
_cell_length_b   15.19807861
_cell_length_c   15.21280000
_cell_angle_alpha   118.05157519
_cell_angle_beta   97.97050000
_cell_angle_gamma   98.01772776
_symmetry_Int_Tables_number   1
_chemical_formula_structural   Cu6H6C37O44
_chemical_formula_sum   'Cu6 H6 C37 O44'
_cell_volume   1247.09019950
_cell_formula_units_Z   1
loop_
 _symmetry_equiv_pos_site_id
 _symmetry_equiv_pos_as_xyz
  1  'x, y, z'
loop_
 _atom_site_type_symbol
 _atom_site_label
 _atom_site_symmetry_multiplicity
 _atom_site_fract_x
 _atom_site_fract_y
 _atom_site_fract_z
 _atom_site_occupancy
  Cu  Cu0  1  0.85664000  0.42397000  0.68686000  1.0
  Cu  Cu1  1  0.43264000  0.26292000  0.57659000  1.0
  Cu  Cu2  1  0.16997000  0.31324000  0.73754000  1.0
  Cu  Cu3  1  0.14344000  0.57604000  0.31313000  1.0
  Cu  Cu4  1  0.56743000  0.73711000  0.42342000  1.0
  Cu  Cu5  1  0.83010000  0.68677000  0.26245000  1.0
  H  H6  1  0.36903000  0.54280000  0.97536000  1.0
  H  H7  1  0.82627000  0.43267000  0.45739000  1.0
  H  H8  1  0.39329000  0.02434000  0.56740000  1.0
  H  H9  1  0.63106000  0.45721000  0.02463000  1.0
  H  H10  1  0.17384000  0.56735000  0.54262000  1.0
  H  H11  1  0.60677000  0.97568000  0.43259000  1.0
  C  C12  1  0.61568000  0.40698000  0.83132000  1.0
  C  C13  1  0.20871000  0.42428000  0.59323000  1.0
  C  C14  1  0.78468000  0.16898000  0.57619000  1.0
  C  C15  1  0.38438000  0.59302000  0.16866000  1.0
  C  C16  1  0.79137000  0.57573000  0.40677000  1.0
  C  C17  1  0.21536000  0.83103000  0.42380000  1.0
  C  C18  1  0.81666000  0.45182000  0.91516000  1.0
  C  C19  1  0.36467000  0.46323000  0.54818000  1.0
  C  C20  1  0.90165000  0.08501000  0.53687000  1.0
  C  C21  1  0.18341000  0.54818000  0.08482000  1.0
  C  C22  1  0.63544000  0.53679000  0.45182000  1.0
  C  C23  1  0.09840000  0.91501000  0.46313000  1.0
  C  C24  1  0.02978000  0.47522000  0.90011000  1.0
  C  C25  1  0.55448000  0.42490000  0.52491000  1.0
  C  C26  1  0.12956000  0.09983000  0.57527000  1.0
  C  C27  1  0.97029000  0.52478000  0.09986000  1.0
  C  C28  1  0.44562000  0.57512000  0.47510000  1.0
  C  C29  1  0.87051000  0.90019000  0.42472000  1.0
  C  C30  1  0.20675000  0.52468000  0.98665000  1.0
  C  C31  1  0.68215000  0.46211000  0.47549000  1.0
  C  C32  1  0.21983000  0.01316000  0.53804000  1.0
  C  C33  1  0.79333000  0.47532000  0.01333000  1.0
  C  C34  1  0.31796000  0.53791000  0.52451000  1.0
  C  C35  1  0.78024000  0.98686000  0.46195000  1.0
  C  C36  1  0.87049000  0.66701000  0.71518000  1.0
  C  C37  1  0.20322000  0.04827000  0.33290000  1.0
  C  C38  1  0.15482000  0.28440000  0.95200000  1.0
  C  C39  1  0.12967000  0.33299000  0.28481000  1.0
  C  C40  1  0.79692000  0.95175000  0.66709000  1.0
  C  C41  1  0.84526000  0.71562000  0.04801000  1.0
  C  C42  1  0.70253000  0.28919000  0.11056000  1.0
  C  C43  1  0.41204000  0.81977000  0.70842000  1.0
  C  C44  1  0.59275000  0.88860000  0.18030000  1.0
  C  C45  1  0.29755000  0.71082000  0.88944000  1.0
  C  C46  1  0.58814000  0.18021000  0.29160000  1.0
  C  C47  1  0.40731000  0.11138000  0.81974000  1.0
  C  C48  1  0.49865000  0.99987000  0.00003000  1.0
  O  O49  1  0.61670000  0.40725000  0.74725000  1.0
  O  O50  1  0.20947000  0.33995000  0.59321000  1.0
  O  O51  1  0.86973000  0.25293000  0.66062000  1.0
  O  O52  1  0.38334000  0.59277000  0.25274000  1.0
  O  O53  1  0.79059000  0.66006000  0.40678000  1.0
  O  O54  1  0.13034000  0.74710000  0.33938000  1.0
  O  O55  1  0.43770000  0.37188000  0.84618000  1.0
  O  O56  1  0.06587000  0.47423000  0.62827000  1.0
  O  O57  1  0.59198000  0.15430000  0.52635000  1.0
  O  O58  1  0.56237000  0.62812000  0.15380000  1.0
  O  O59  1  0.93423000  0.52579000  0.37173000  1.0
  O  O60  1  0.40806000  0.84572000  0.47364000  1.0
  O  O61  1  0.07481000  0.44935000  0.80838000  1.0
  O  O62  1  0.62530000  0.35889000  0.55078000  1.0
  O  O63  1  0.26654000  0.19161000  0.64130000  1.0
  O  O64  1  0.92526000  0.55066000  0.19159000  1.0
  O  O65  1  0.37478000  0.64112000  0.44921000  1.0
  O  O66  1  0.73351000  0.80841000  0.35869000  1.0
  O  O67  1  0.95585000  0.71322000  0.68070000  1.0
  O  O68  1  0.24191000  0.96752000  0.28672000  1.0
  O  O69  1  0.27398000  0.31903000  0.03274000  1.0
  O  O70  1  0.04436000  0.28675000  0.31928000  1.0
  O  O71  1  0.75821000  0.03251000  0.71327000  1.0
  O  O72  1  0.72613000  0.68098000  0.96726000  1.0
  O  O73  1  0.78649000  0.62157000  0.75074000  1.0
  O  O74  1  0.16528000  0.12937000  0.37834000  1.0
  O  O75  1  0.03594000  0.24867000  0.87093000  1.0
  O  O76  1  0.21360000  0.37844000  0.24925000  1.0
  O  O77  1  0.83485000  0.87065000  0.62166000  1.0
  O  O78  1  0.96411000  0.75136000  0.12908000  1.0
  O  O79  1  0.73953000  0.22295000  0.03746000  1.0
  O  O80  1  0.51448000  0.80991000  0.77272000  1.0
  O  O81  1  0.70761000  0.96300000  0.19173000  1.0
  O  O82  1  0.26056000  0.77710000  0.96252000  1.0
  O  O83  1  0.48565000  0.18999000  0.22726000  1.0
  O  O84  1  0.29259000  0.03703000  0.80848000  1.0
  O  O85  1  0.66858000  0.35491000  0.18415000  1.0
  O  O86  1  0.31312000  0.83067000  0.64470000  1.0
  O  O87  1  0.48026000  0.81372000  0.16779000  1.0
  O  O88  1  0.33149000  0.64506000  0.81587000  1.0
  O  O89  1  0.68715000  0.16939000  0.35537000  1.0
  O  O90  1  0.51966000  0.18622000  0.83210000  1.0
  O  O91  1  0.68221000  0.99545000  0.00002000  1.0
  O  O92  1  0.31512000  0.00429000  0.00004000  1.0
