# generated using pymatgen
data_CoH20C26S(NO3)2
_symmetry_space_group_name_H-M   'P 1'
_cell_length_a   8.57714000
_cell_length_b   11.83730000
_cell_length_c   12.80320000
_cell_angle_alpha   105.47500000
_cell_angle_beta   91.51070000
_cell_angle_gamma   100.86500000
_symmetry_Int_Tables_number   1
_chemical_formula_structural   CoH20C26S(NO3)2
_chemical_formula_sum   'Co2 H40 C52 S2 N4 O12'
_cell_volume   1226.28604234
_cell_formula_units_Z   2
loop_
 _symmetry_equiv_pos_site_id
 _symmetry_equiv_pos_as_xyz
  1  'x, y, z'
loop_
 _atom_site_type_symbol
 _atom_site_label
 _atom_site_symmetry_multiplicity
 _atom_site_fract_x
 _atom_site_fract_y
 _atom_site_fract_z
 _atom_site_occupancy
  Co  Co0  1  0.62817000  0.09220000  0.23600000  1.0
  Co  Co1  1  0.37184000  0.90780000  0.76400000  1.0
  H  H2  1  0.19517000  0.06133000  0.99412000  1.0
  H  H3  1  0.80484000  0.93867000  0.00587000  1.0
  H  H4  1  0.10541000  0.31301000  0.30892000  1.0
  H  H5  1  0.89457000  0.68697000  0.69109000  1.0
  H  H6  1  0.78764000  0.30677000  0.57535000  1.0
  H  H7  1  0.21234000  0.69323000  0.42467000  1.0
  H  H8  1  0.29194000  0.89362000  0.47940000  1.0
  H  H9  1  0.70808000  0.10639000  0.52060000  1.0
  H  H10  1  0.13336000  0.24172000  0.73496000  1.0
  H  H11  1  0.86665000  0.75830000  0.26504000  1.0
  H  H12  1  0.88252000  0.40573000  0.00396000  1.0
  H  H13  1  0.11748000  0.59427000  0.99605000  1.0
  H  H14  1  0.47917000  0.30309000  0.29702000  1.0
  H  H15  1  0.52080000  0.69689000  0.70298000  1.0
  H  H16  1  0.38774000  0.44250000  0.20572000  1.0
  H  H17  1  0.61224000  0.55749000  0.79428000  1.0
  H  H18  1  0.65057000  0.12057000  0.01422000  1.0
  H  H19  1  0.34944000  0.87943000  0.98578000  1.0
  H  H20  1  0.56777000  0.25384000  0.91106000  1.0
  H  H21  1  0.43224000  0.74616000  0.08894000  1.0
  H  H22  1  0.96585000  0.27777000  0.10987000  1.0
  H  H23  1  0.03415000  0.72223000  0.89013000  1.0
  H  H24  1  0.24971000  0.49480000  0.73164000  1.0
  H  H25  1  0.75027000  0.50523000  0.26836000  1.0
  H  H26  1  0.03706000  0.05629000  0.28303000  1.0
  H  H27  1  0.96295000  0.94370000  0.71697000  1.0
  H  H28  1  0.32586000  0.48206000  0.02987000  1.0
  H  H29  1  0.67415000  0.51793000  0.97012000  1.0
  H  H30  1  0.39364000  0.40290000  0.90756000  1.0
  H  H31  1  0.60638000  0.59710000  0.09243000  1.0
  H  H32  1  0.28285000  0.09964000  0.19394000  1.0
  H  H33  1  0.71716000  0.90035000  0.80605000  1.0
  H  H34  1  0.89003000  0.93369000  0.39656000  1.0
  H  H35  1  0.10998000  0.06630000  0.60343000  1.0
  H  H36  1  0.99582000  0.86530000  0.47566000  1.0
  H  H37  1  0.00419000  0.13469000  0.52433000  1.0
  H  H38  1  0.53093000  0.94170000  0.37910000  1.0
  H  H39  1  0.46908000  0.05830000  0.62090000  1.0
  H  H40  1  0.36045000  0.46800000  0.55089000  1.0
  H  H41  1  0.63953000  0.53202000  0.44911000  1.0
  C  C42  1  0.97347000  0.32621000  0.46830000  1.0
  C  C43  1  0.02651000  0.67379000  0.53172000  1.0
  C  C44  1  0.87329000  0.25329000  0.36828000  1.0
  C  C45  1  0.12668000  0.74671000  0.63174000  1.0
  C  C46  1  0.14257000  0.17763000  0.87651000  1.0
  C  C47  1  0.85744000  0.82238000  0.12349000  1.0
  C  C48  1  0.91314000  0.34235000  0.57084000  1.0
  C  C49  1  0.08684000  0.65765000  0.42918000  1.0
  C  C50  1  0.28495000  0.93829000  0.41556000  1.0
  C  C51  1  0.71507000  0.06171000  0.58444000  1.0
  C  C52  1  0.99952000  0.33219000  0.86034000  1.0
  C  C53  1  0.00048000  0.66782000  0.13966000  1.0
  C  C54  1  0.09459000  0.25102000  0.81658000  1.0
  C  C55  1  0.90541000  0.74899000  0.18343000  1.0
  C  C56  1  0.95464000  0.34120000  0.96711000  1.0
  C  C57  1  0.04536000  0.65880000  0.03290000  1.0
  C  C58  1  0.47192000  0.36067000  0.05029000  1.0
  C  C59  1  0.52808000  0.63932000  0.94971000  1.0
  C  C60  1  0.09498000  0.18675000  0.98307000  1.0
  C  C61  1  0.90503000  0.81326000  0.01694000  1.0
  C  C62  1  0.49777000  0.29578000  0.21173000  1.0
  C  C63  1  0.50222000  0.70420000  0.78826000  1.0
  C  C64  1  0.44770000  0.37348000  0.16033000  1.0
  C  C65  1  0.55229000  0.62651000  0.83967000  1.0
  C  C66  1  0.59252000  0.19343000  0.05330000  1.0
  C  C67  1  0.40749000  0.80657000  0.94670000  1.0
  C  C68  1  0.54634000  0.26831000  0.99682000  1.0
  C  C69  1  0.45367000  0.73169000  0.00318000  1.0
  C  C70  1  0.00124000  0.27018000  0.02758000  1.0
  C  C71  1  0.99877000  0.72982000  0.97243000  1.0
  C  C72  1  0.01079000  0.40147000  0.66580000  1.0
  C  C73  1  0.98920000  0.59854000  0.33420000  1.0
  C  C74  1  0.17291000  0.44704000  0.65780000  1.0
  C  C75  1  0.82707000  0.55297000  0.34221000  1.0
  C  C76  1  0.13683000  0.37306000  0.46110000  1.0
  C  C77  1  0.86314000  0.62694000  0.53890000  1.0
  C  C78  1  0.23645000  0.08858000  0.82521000  1.0
  C  C79  1  0.76357000  0.91143000  0.17479000  1.0
  C  C80  1  0.14299000  0.02843000  0.30746000  1.0
  C  C81  1  0.85702000  0.97156000  0.69253000  1.0
  C  C82  1  0.42850000  0.44744000  0.99416000  1.0
  C  C83  1  0.57151000  0.55255000  0.00584000  1.0
  C  C84  1  0.28133000  0.05340000  0.25702000  1.0
  C  C85  1  0.71868000  0.94659000  0.74297000  1.0
  C  C86  1  0.99848000  0.94670000  0.44945000  1.0
  C  C87  1  0.00154000  0.05330000  0.55055000  1.0
  C  C88  1  0.41860000  0.96547000  0.36152000  1.0
  C  C89  1  0.58141000  0.03453000  0.63847000  1.0
  C  C90  1  0.14253000  0.96985000  0.38910000  1.0
  C  C91  1  0.85748000  0.03014000  0.61089000  1.0
  C  C92  1  0.23517000  0.43274000  0.55728000  1.0
  C  C93  1  0.76481000  0.56727000  0.44272000  1.0
  S  S94  1  0.92620000  0.42675000  0.79240000  1.0
  S  S95  1  0.07380000  0.57327000  0.20761000  1.0
  N  N96  1  0.56911000  0.20656000  0.15927000  1.0
  N  N97  1  0.43090000  0.79344000  0.84072000  1.0
  N  N98  1  0.41855000  0.02341000  0.28359000  1.0
  N  N99  1  0.58145000  0.97658000  0.71640000  1.0
  O  O100  1  0.27426000  0.01672000  0.88019000  1.0
  O  O101  1  0.72574000  0.98329000  0.11980000  1.0
  O  O102  1  0.27817000  0.07569000  0.73000000  1.0
  O  O103  1  0.72185000  0.92433000  0.27000000  1.0
  O  O104  1  0.73256000  0.19654000  0.37765000  1.0
  O  O105  1  0.26741000  0.80347000  0.62236000  1.0
  O  O106  1  0.93075000  0.24330000  0.27619000  1.0
  O  O107  1  0.06923000  0.75668000  0.72382000  1.0
  O  O108  1  0.13780000  0.11822000  0.04380000  1.0
  O  O109  1  0.86221000  0.88178000  0.95619000  1.0
  O  O110  1  0.19967000  0.36035000  0.36450000  1.0
  O  O111  1  0.80030000  0.63963000  0.63551000  1.0
