# generated using pymatgen
data_ZnH11C17NO4
_symmetry_space_group_name_H-M   'P 1'
_cell_length_a   18.29560000
_cell_length_b   18.48530000
_cell_length_c   18.48530000
_cell_angle_alpha   109.67800000
_cell_angle_beta   109.26300000
_cell_angle_gamma   109.26400000
_symmetry_Int_Tables_number   1
_chemical_formula_structural   ZnH11C17NO4
_chemical_formula_sum   'Zn12 H132 C204 N12 O48'
_cell_volume   4824.86804463
_cell_formula_units_Z   12
loop_
 _symmetry_equiv_pos_site_id
 _symmetry_equiv_pos_as_xyz
  1  'x, y, z'
loop_
 _atom_site_type_symbol
 _atom_site_label
 _atom_site_symmetry_multiplicity
 _atom_site_fract_x
 _atom_site_fract_y
 _atom_site_fract_z
 _atom_site_occupancy
  Zn  Zn0  1  0.51243000  0.57874000  0.07325000  1.0
  Zn  Zn1  1  0.93370000  0.49453000  0.42126000  1.0
  Zn  Zn2  1  0.43918000  0.92674000  0.50549000  1.0
  Zn  Zn3  1  0.06082000  0.49451000  0.07326000  1.0
  Zn  Zn4  1  0.98757000  0.92675000  0.42126000  1.0
  Zn  Zn5  1  0.56630000  0.57874000  0.50547000  1.0
  Zn  Zn6  1  0.48757000  0.42126000  0.92675000  1.0
  Zn  Zn7  1  0.06630000  0.50547000  0.57874000  1.0
  Zn  Zn8  1  0.56082000  0.07326000  0.49451000  1.0
  Zn  Zn9  1  0.93918000  0.50549000  0.92674000  1.0
  Zn  Zn10  1  0.01243000  0.07325000  0.57874000  1.0
  Zn  Zn11  1  0.43371000  0.42126000  0.49453000  1.0
  H  H12  1  0.78015000  0.65560000  0.28691000  1.0
  H  H13  1  0.36392000  0.22391000  0.99559000  1.0
  H  H14  1  0.73045000  0.02005000  0.30773000  1.0
  H  H15  1  0.43465000  0.85347000  0.25057000  1.0
  H  H16  1  0.32809000  0.69049000  0.17566000  1.0
  H  H17  1  0.37425000  0.58380000  0.10776000  1.0
  H  H18  1  0.77098000  0.90654000  0.24833000  1.0
  H  H19  1  0.58184000  0.97369000  0.29890000  1.0
  H  H20  1  0.66290000  0.74640000  0.17453000  1.0
  H  H21  1  0.12456000  0.63131000  0.34439000  1.0
  H  H22  1  0.14001000  0.77168000  0.77609000  1.0
  H  H23  1  0.71042000  0.28768000  0.97996000  1.0
  H  H24  1  0.58118000  0.39710000  0.14653000  1.0
  H  H25  1  0.63759000  0.48515000  0.30951000  1.0
  H  H26  1  0.79044000  0.52396000  0.41621000  1.0
  H  H27  1  0.86446000  0.34180000  0.09348000  1.0
  H  H28  1  0.60815000  0.32519000  0.02630000  1.0
  H  H29  1  0.91651000  0.42815000  0.25361000  1.0
  H  H30  1  0.49324000  0.71305000  0.36867000  1.0
  H  H31  1  0.36833000  0.00440000  0.22832000  1.0
  H  H32  1  0.42272000  0.69228000  0.71232000  1.0
  H  H33  1  0.18405000  0.74939000  0.60286000  1.0
  H  H34  1  0.15242000  0.82434000  0.51482000  1.0
  H  H35  1  0.26649000  0.89226000  0.47605000  1.0
  H  H36  1  0.52265000  0.75168000  0.65821000  1.0
  H  H37  1  0.28293000  0.70108000  0.67478000  1.0
  H  H38  1  0.48836000  0.82546000  0.57186000  1.0
  H  H39  1  0.00676000  0.63133000  0.28695000  1.0
  H  H40  1  0.13167000  0.77168000  0.99560000  1.0
  H  H41  1  0.07728000  0.28768000  0.30772000  1.0
  H  H42  1  0.31595000  0.39715000  0.25061000  1.0
  H  H43  1  0.34758000  0.48518000  0.17566000  1.0
  H  H44  1  0.23351000  0.52395000  0.10774000  1.0
  H  H45  1  0.97735000  0.34179000  0.24832000  1.0
  H  H46  1  0.21707000  0.32522000  0.29892000  1.0
  H  H47  1  0.01164000  0.42814000  0.17454000  1.0
  H  H48  1  0.71985000  0.71309000  0.34440000  1.0
  H  H49  1  0.13608000  0.00441000  0.77609000  1.0
  H  H50  1  0.76955000  0.69227000  0.97995000  1.0
  H  H51  1  0.06535000  0.74943000  0.14653000  1.0
  H  H52  1  0.17191000  0.82434000  0.30951000  1.0
  H  H53  1  0.12575000  0.89224000  0.41620000  1.0
  H  H54  1  0.72902000  0.75167000  0.09346000  1.0
  H  H55  1  0.91816000  0.70110000  0.02630000  1.0
  H  H56  1  0.83710000  0.82547000  0.25360000  1.0
  H  H57  1  0.37544000  0.65561000  0.36869000  1.0
  H  H58  1  0.35999000  0.22391000  0.22832000  1.0
  H  H59  1  0.78958000  0.02004000  0.71232000  1.0
  H  H60  1  0.91882000  0.85347000  0.60290000  1.0
  H  H61  1  0.86242000  0.69049000  0.51485000  1.0
  H  H62  1  0.70956000  0.58380000  0.47604000  1.0
  H  H63  1  0.63554000  0.90652000  0.65820000  1.0
  H  H64  1  0.89185000  0.97370000  0.67481000  1.0
  H  H65  1  0.58349000  0.74639000  0.57185000  1.0
  H  H66  1  0.21985000  0.34440000  0.71309000  1.0
  H  H67  1  0.63608000  0.77609000  0.00441000  1.0
  H  H68  1  0.26955000  0.97995000  0.69227000  1.0
  H  H69  1  0.56535000  0.14653000  0.74942000  1.0
  H  H70  1  0.67191000  0.30951000  0.82434000  1.0
  H  H71  1  0.62575000  0.41620000  0.89223000  1.0
  H  H72  1  0.22902000  0.09346000  0.75167000  1.0
  H  H73  1  0.41815000  0.02630000  0.70110000  1.0
  H  H74  1  0.33710000  0.25360000  0.82547000  1.0
  H  H75  1  0.87544000  0.36868000  0.65561000  1.0
  H  H76  1  0.85999000  0.22832000  0.22390000  1.0
  H  H77  1  0.28958000  0.71232000  0.02004000  1.0
  H  H78  1  0.41882000  0.60290000  0.85347000  1.0
  H  H79  1  0.36241000  0.51485000  0.69049000  1.0
  H  H80  1  0.20956000  0.47604000  0.58380000  1.0
  H  H81  1  0.13554000  0.65820000  0.90652000  1.0
  H  H82  1  0.39185000  0.67481000  0.97370000  1.0
  H  H83  1  0.08349000  0.57185000  0.74639000  1.0
  H  H84  1  0.50676000  0.28695000  0.63132000  1.0
  H  H85  1  0.63167000  0.99559000  0.77168000  1.0
  H  H86  1  0.57728000  0.30772000  0.28768000  1.0
  H  H87  1  0.81595000  0.25061000  0.39714000  1.0
  H  H88  1  0.84758000  0.17566000  0.48517000  1.0
  H  H89  1  0.73351000  0.10774000  0.52395000  1.0
  H  H90  1  0.47735000  0.24832000  0.34179000  1.0
  H  H91  1  0.71707000  0.29892000  0.32522000  1.0
  H  H92  1  0.51164000  0.17454000  0.42814000  1.0
  H  H93  1  0.99324000  0.36868000  0.71305000  1.0
  H  H94  1  0.86833000  0.22832000  0.00440000  1.0
  H  H95  1  0.92272000  0.71232000  0.69228000  1.0
  H  H96  1  0.68405000  0.60285000  0.74940000  1.0
  H  H97  1  0.65243000  0.51482000  0.82434000  1.0
  H  H98  1  0.76649000  0.47605000  0.89226000  1.0
  H  H99  1  0.02265000  0.65821000  0.75168000  1.0
  H  H100  1  0.78293000  0.67478000  0.70108000  1.0
  H  H101  1  0.98836000  0.57186000  0.82546000  1.0
  H  H102  1  0.28015000  0.28691000  0.65560000  1.0
  H  H103  1  0.86392000  0.99559000  0.22391000  1.0
  H  H104  1  0.23045000  0.30773000  0.02005000  1.0
  H  H105  1  0.93465000  0.25057000  0.85347000  1.0
  H  H106  1  0.82809000  0.17566000  0.69049000  1.0
  H  H107  1  0.87425000  0.10776000  0.58380000  1.0
  H  H108  1  0.27098000  0.24833000  0.90654000  1.0
  H  H109  1  0.08184000  0.29890000  0.97370000  1.0
  H  H110  1  0.16290000  0.17453000  0.74640000  1.0
  H  H111  1  0.62456000  0.34439000  0.63132000  1.0
  H  H112  1  0.64001000  0.77609000  0.77168000  1.0
  H  H113  1  0.21042000  0.97996000  0.28768000  1.0
  H  H114  1  0.08118000  0.14653000  0.39710000  1.0
  H  H115  1  0.13759000  0.30951000  0.48515000  1.0
  H  H116  1  0.29044000  0.41620000  0.52396000  1.0
  H  H117  1  0.36446000  0.09348000  0.34180000  1.0
  H  H118  1  0.10815000  0.02630000  0.32519000  1.0
  H  H119  1  0.41651000  0.25361000  0.42815000  1.0
  H  H120  1  0.77064000  0.52061000  0.04124000  1.0
  H  H121  1  0.93485000  0.68487000  0.36973000  1.0
  H  H122  1  0.25000000  0.52061000  0.47938000  1.0
  H  H123  1  0.25000000  0.68486000  0.31514000  1.0
  H  H124  1  0.72937000  0.95876000  0.47939000  1.0
  H  H125  1  0.56515000  0.63027000  0.31513000  1.0
  H  H126  1  0.22937000  0.47939000  0.95876000  1.0
  H  H127  1  0.06515000  0.31513000  0.63027000  1.0
  H  H128  1  0.75000000  0.47938000  0.52061000  1.0
  H  H129  1  0.75000000  0.31514000  0.68486000  1.0
  H  H130  1  0.27063000  0.04124000  0.52061000  1.0
  H  H131  1  0.43485000  0.36973000  0.68487000  1.0
  H  H132  1  0.48464000  0.46927000  0.23464000  1.0
  H  H133  1  0.32049000  0.14098000  0.07049000  1.0
  H  H134  1  0.01536000  0.76536000  0.53073000  1.0
  H  H135  1  0.17951000  0.92951000  0.85902000  1.0
  H  H136  1  0.25000000  0.76536000  0.23464000  1.0
  H  H137  1  0.25000000  0.92951000  0.07049000  1.0
  H  H138  1  0.51536000  0.53073000  0.76536000  1.0
  H  H139  1  0.67951000  0.85902000  0.92951000  1.0
  H  H140  1  0.98464000  0.23464000  0.46927000  1.0
  H  H141  1  0.82049000  0.07049000  0.14098000  1.0
  H  H142  1  0.75000000  0.23464000  0.76536000  1.0
  H  H143  1  0.75000000  0.07049000  0.92951000  1.0
  C  C144  1  0.66825000  0.55731000  0.10810000  1.0
  C  C145  1  0.76424000  0.58294000  0.15884000  1.0
  C  C146  1  0.81193000  0.63182000  0.25156000  1.0
  C  C147  1  0.44615000  0.40518000  0.06689000  1.0
  C  C148  1  0.42299000  0.35179000  0.10950000  1.0
  C  C149  1  0.37962000  0.25909000  0.06400000  1.0
  C  C150  1  0.68170000  0.95012000  0.27497000  1.0
  C  C151  1  0.45206000  0.80445000  0.22176000  1.0
  C  C152  1  0.39365000  0.71517000  0.18086000  1.0
  C  C153  1  0.41945000  0.65501000  0.14361000  1.0
  C  C154  1  0.70432000  0.88538000  0.24012000  1.0
  C  C155  1  0.53642000  0.83381000  0.22722000  1.0
  C  C156  1  0.59939000  0.92488000  0.26946000  1.0
  C  C157  1  0.55889000  0.76852000  0.19003000  1.0
  C  C158  1  0.64464000  0.79629000  0.19864000  1.0
  C  C159  1  0.11092000  0.55078000  0.44266000  1.0
  C  C160  1  0.18130000  0.57590000  0.41705000  1.0
  C  C161  1  0.18011000  0.61974000  0.36818000  1.0
  C  C162  1  0.04098000  0.66171000  0.59482000  1.0
  C  C163  1  0.07121000  0.75771000  0.64821000  1.0
  C  C164  1  0.12053000  0.80491000  0.74091000  1.0
  C  C165  1  0.73159000  0.32486000  0.04989000  1.0
  C  C166  1  0.64761000  0.41732000  0.19555000  1.0
  C  C167  1  0.67848000  0.46569000  0.28484000  1.0
  C  C168  1  0.76443000  0.48860000  0.34499000  1.0
  C  C169  1  0.81895000  0.35476000  0.11464000  1.0
  C  C170  1  0.70261000  0.39342000  0.16620000  1.0
  C  C171  1  0.67452000  0.34457000  0.07512000  1.0
  C  C172  1  0.79037000  0.42152000  0.23149000  1.0
  C  C173  1  0.84836000  0.40237000  0.20372000  1.0
  C  C174  1  0.56013000  0.89187000  0.44923000  1.0
  C  C175  1  0.60539000  0.84114000  0.42410000  1.0
  C  C176  1  0.56037000  0.74842000  0.38025000  1.0
  C  C177  1  0.37929000  0.93310000  0.33828000  1.0
  C  C178  1  0.31350000  0.89050000  0.24229000  1.0
  C  C179  1  0.31562000  0.93600000  0.19509000  1.0
  C  C180  1  0.40671000  0.72502000  0.67514000  1.0
  C  C181  1  0.23027000  0.77821000  0.58265000  1.0
  C  C182  1  0.21278000  0.81913000  0.53429000  1.0
  C  C183  1  0.27583000  0.85639000  0.51140000  1.0
  C  C184  1  0.46419000  0.75988000  0.64525000  1.0
  C  C185  1  0.30918000  0.77276000  0.60656000  1.0
  C  C186  1  0.32992000  0.73053000  0.65540000  1.0
  C  C187  1  0.36885000  0.80996000  0.57847000  1.0
  C  C188  1  0.44598000  0.80135000  0.59763000  1.0
  C  C189  1  0.93987000  0.55077000  0.10813000  1.0
  C  C190  1  0.89461000  0.57590000  0.15886000  1.0
  C  C191  1  0.93963000  0.61975000  0.25158000  1.0
  C  C192  1  0.12071000  0.66172000  0.06690000  1.0
  C  C193  1  0.18650000  0.75771000  0.10950000  1.0
  C  C194  1  0.18438000  0.80491000  0.06400000  1.0
  C  C195  1  0.09329000  0.32486000  0.27498000  1.0
  C  C196  1  0.26973000  0.41735000  0.22179000  1.0
  C  C197  1  0.28723000  0.46572000  0.18087000  1.0
  C  C198  1  0.22417000  0.48860000  0.14361000  1.0
  C  C199  1  0.03581000  0.35475000  0.24012000  1.0
  C  C200  1  0.19082000  0.39344000  0.22724000  1.0
  C  C201  1  0.17008000  0.34460000  0.26947000  1.0
  C  C202  1  0.13115000  0.42152000  0.19004000  1.0
  C  C203  1  0.05402000  0.40237000  0.19865000  1.0
  C  C204  1  0.83175000  0.89190000  0.44269000  1.0
  C  C205  1  0.73576000  0.84116000  0.41706000  1.0
  C  C206  1  0.68808000  0.74844000  0.36818000  1.0
  C  C207  1  0.05385000  0.93311000  0.59482000  1.0
  C  C208  1  0.07701000  0.89050000  0.64821000  1.0
  C  C209  1  0.12038000  0.93600000  0.74091000  1.0
  C  C210  1  0.81830000  0.72503000  0.04988000  1.0
  C  C211  1  0.04794000  0.77823000  0.19555000  1.0
  C  C212  1  0.10635000  0.81914000  0.28483000  1.0
  C  C213  1  0.08055000  0.85639000  0.34499000  1.0
  C  C214  1  0.79568000  0.75988000  0.11462000  1.0
  C  C215  1  0.96358000  0.77278000  0.16619000  1.0
  C  C216  1  0.90061000  0.73054000  0.07512000  1.0
  C  C217  1  0.94111000  0.80997000  0.23148000  1.0
  C  C218  1  0.85536000  0.80136000  0.20371000  1.0
  C  C219  1  0.38908000  0.55734000  0.44922000  1.0
  C  C220  1  0.31871000  0.58295000  0.42410000  1.0
  C  C221  1  0.31989000  0.63182000  0.38026000  1.0
  C  C222  1  0.45902000  0.40518000  0.33829000  1.0
  C  C223  1  0.42879000  0.35178000  0.24229000  1.0
  C  C224  1  0.37947000  0.25909000  0.19509000  1.0
  C  C225  1  0.76841000  0.95011000  0.67514000  1.0
  C  C226  1  0.85239000  0.80445000  0.58268000  1.0
  C  C227  1  0.82152000  0.71517000  0.53431000  1.0
  C  C228  1  0.73557000  0.65501000  0.51140000  1.0
  C  C229  1  0.68105000  0.88536000  0.64524000  1.0
  C  C230  1  0.79739000  0.83380000  0.60658000  1.0
  C  C231  1  0.82549000  0.92488000  0.65543000  1.0
  C  C232  1  0.70963000  0.76851000  0.57848000  1.0
  C  C233  1  0.65164000  0.79628000  0.59763000  1.0
  C  C234  1  0.33175000  0.44268000  0.89190000  1.0
  C  C235  1  0.23576000  0.41706000  0.84117000  1.0
  C  C236  1  0.18808000  0.36818000  0.74844000  1.0
  C  C237  1  0.55385000  0.59482000  0.93311000  1.0
  C  C238  1  0.57701000  0.64822000  0.89051000  1.0
  C  C239  1  0.62038000  0.74091000  0.93600000  1.0
  C  C240  1  0.31830000  0.04988000  0.72503000  1.0
  C  C241  1  0.54794000  0.19555000  0.77823000  1.0
  C  C242  1  0.60635000  0.28483000  0.81913000  1.0
  C  C243  1  0.58055000  0.34499000  0.85639000  1.0
  C  C244  1  0.29568000  0.11462000  0.75988000  1.0
  C  C245  1  0.46358000  0.16619000  0.77278000  1.0
  C  C246  1  0.40061000  0.07512000  0.73054000  1.0
  C  C247  1  0.44111000  0.23148000  0.80997000  1.0
  C  C248  1  0.35536000  0.20371000  0.80136000  1.0
  C  C249  1  0.88908000  0.44922000  0.55735000  1.0
  C  C250  1  0.81870000  0.42410000  0.58294000  1.0
  C  C251  1  0.81989000  0.38026000  0.63182000  1.0
  C  C252  1  0.95902000  0.33829000  0.40518000  1.0
  C  C253  1  0.92879000  0.24229000  0.35178000  1.0
  C  C254  1  0.87947000  0.19509000  0.25909000  1.0
  C  C255  1  0.26841000  0.67514000  0.95011000  1.0
  C  C256  1  0.35239000  0.58268000  0.80445000  1.0
  C  C257  1  0.32152000  0.53431000  0.71516000  1.0
  C  C258  1  0.23557000  0.51140000  0.65501000  1.0
  C  C259  1  0.18105000  0.64524000  0.88536000  1.0
  C  C260  1  0.29739000  0.60658000  0.83380000  1.0
  C  C261  1  0.32549000  0.65543000  0.92488000  1.0
  C  C262  1  0.20963000  0.57848000  0.76851000  1.0
  C  C263  1  0.15164000  0.59763000  0.79628000  1.0
  C  C264  1  0.43987000  0.10814000  0.55077000  1.0
  C  C265  1  0.39461000  0.15885000  0.57590000  1.0
  C  C266  1  0.43963000  0.25158000  0.61975000  1.0
  C  C267  1  0.62072000  0.06690000  0.66172000  1.0
  C  C268  1  0.68649000  0.10950000  0.75771000  1.0
  C  C269  1  0.68438000  0.06400000  0.80491000  1.0
  C  C270  1  0.59329000  0.27498000  0.32486000  1.0
  C  C271  1  0.76973000  0.22179000  0.41735000  1.0
  C  C272  1  0.78722000  0.18087000  0.46571000  1.0
  C  C273  1  0.72417000  0.14361000  0.48860000  1.0
  C  C274  1  0.53581000  0.24012000  0.35475000  1.0
  C  C275  1  0.69083000  0.22724000  0.39344000  1.0
  C  C276  1  0.67008000  0.26947000  0.34460000  1.0
  C  C277  1  0.63115000  0.19004000  0.42153000  1.0
  C  C278  1  0.55402000  0.19865000  0.40237000  1.0
  C  C279  1  0.06013000  0.44923000  0.89187000  1.0
  C  C280  1  0.10539000  0.42410000  0.84115000  1.0
  C  C281  1  0.06037000  0.38025000  0.74842000  1.0
  C  C282  1  0.87928000  0.33828000  0.93310000  1.0
  C  C283  1  0.81351000  0.24229000  0.89050000  1.0
  C  C284  1  0.81562000  0.19509000  0.93600000  1.0
  C  C285  1  0.90671000  0.67514000  0.72502000  1.0
  C  C286  1  0.73027000  0.58265000  0.77822000  1.0
  C  C287  1  0.71278000  0.53428000  0.81913000  1.0
  C  C288  1  0.77583000  0.51140000  0.85639000  1.0
  C  C289  1  0.96419000  0.64525000  0.75988000  1.0
  C  C290  1  0.80918000  0.60656000  0.77276000  1.0
  C  C291  1  0.82992000  0.65540000  0.73053000  1.0
  C  C292  1  0.86885000  0.57847000  0.80996000  1.0
  C  C293  1  0.94598000  0.59764000  0.80135000  1.0
  C  C294  1  0.16826000  0.10810000  0.55732000  1.0
  C  C295  1  0.26424000  0.15883000  0.58294000  1.0
  C  C296  1  0.31193000  0.25156000  0.63182000  1.0
  C  C297  1  0.94615000  0.06690000  0.40518000  1.0
  C  C298  1  0.92299000  0.10949000  0.35178000  1.0
  C  C299  1  0.87962000  0.06400000  0.25909000  1.0
  C  C300  1  0.18170000  0.27497000  0.95012000  1.0
  C  C301  1  0.95206000  0.22177000  0.80445000  1.0
  C  C302  1  0.89365000  0.18087000  0.71517000  1.0
  C  C303  1  0.91945000  0.14361000  0.65501000  1.0
  C  C304  1  0.20432000  0.24012000  0.88538000  1.0
  C  C305  1  0.03642000  0.22722000  0.83381000  1.0
  C  C306  1  0.09939000  0.26946000  0.92488000  1.0
  C  C307  1  0.05889000  0.19003000  0.76852000  1.0
  C  C308  1  0.14464000  0.19864000  0.79629000  1.0
  C  C309  1  0.61092000  0.44266000  0.55078000  1.0
  C  C310  1  0.68130000  0.41706000  0.57590000  1.0
  C  C311  1  0.68011000  0.36818000  0.61974000  1.0
  C  C312  1  0.54098000  0.59482000  0.66171000  1.0
  C  C313  1  0.57121000  0.64822000  0.75771000  1.0
  C  C314  1  0.62053000  0.74091000  0.80491000  1.0
  C  C315  1  0.23159000  0.04989000  0.32486000  1.0
  C  C316  1  0.14761000  0.19555000  0.41732000  1.0
  C  C317  1  0.17848000  0.28484000  0.46569000  1.0
  C  C318  1  0.26443000  0.34499000  0.48860000  1.0
  C  C319  1  0.31895000  0.11464000  0.35476000  1.0
  C  C320  1  0.20261000  0.16620000  0.39342000  1.0
  C  C321  1  0.17451000  0.07512000  0.34457000  1.0
  C  C322  1  0.29037000  0.23149000  0.42152000  1.0
  C  C323  1  0.34836000  0.20372000  0.40237000  1.0
  C  C324  1  0.80659000  0.55658000  0.11316000  1.0
  C  C325  1  0.89878000  0.64880000  0.29759000  1.0
  C  C326  1  0.25000000  0.55658000  0.44342000  1.0
  C  C327  1  0.25000000  0.64879000  0.35121000  1.0
  C  C328  1  0.69341000  0.88684000  0.44342000  1.0
  C  C329  1  0.60122000  0.70241000  0.35120000  1.0
  C  C330  1  0.19341000  0.44342000  0.88684000  1.0
  C  C331  1  0.10122000  0.35120000  0.70241000  1.0
  C  C332  1  0.75000000  0.44342000  0.55658000  1.0
  C  C333  1  0.75000000  0.35121000  0.64879000  1.0
  C  C334  1  0.30659000  0.11317000  0.55658000  1.0
  C  C335  1  0.39878000  0.29759000  0.64880000  1.0
  C  C336  1  0.44865000  0.39730000  0.19865000  1.0
  C  C337  1  0.35658000  0.21315000  0.10658000  1.0
  C  C338  1  0.05135000  0.80135000  0.60270000  1.0
  C  C339  1  0.14342000  0.89342000  0.78684000  1.0
  C  C340  1  0.25000000  0.80134000  0.19866000  1.0
  C  C341  1  0.25000000  0.89342000  0.10658000  1.0
  C  C342  1  0.55135000  0.60270000  0.80135000  1.0
  C  C343  1  0.64342000  0.78685000  0.89342000  1.0
  C  C344  1  0.94865000  0.19865000  0.39730000  1.0
  C  C345  1  0.85658000  0.10658000  0.21315000  1.0
  C  C346  1  0.75000000  0.19866000  0.80134000  1.0
  C  C347  1  0.75000000  0.10658000  0.89342000  1.0
  N  N348  1  0.49830000  0.67983000  0.14738000  1.0
  N  N349  1  0.81847000  0.46756000  0.32018000  1.0
  N  N350  1  0.35091000  0.85262000  0.53244000  1.0
  N  N351  1  0.14909000  0.46756000  0.14738000  1.0
  N  N352  1  0.00170000  0.85262000  0.32017000  1.0
  N  N353  1  0.68153000  0.67982000  0.53244000  1.0
  N  N354  1  0.50170000  0.32017000  0.85262000  1.0
  N  N355  1  0.18153000  0.53244000  0.67982000  1.0
  N  N356  1  0.64909000  0.14738000  0.46756000  1.0
  N  N357  1  0.85091000  0.53244000  0.85262000  1.0
  N  N358  1  0.99830000  0.14738000  0.67983000  1.0
  N  N359  1  0.31847000  0.32018000  0.46756000  1.0
  O  O360  1  0.64023000  0.60461000  0.14577000  1.0
  O  O361  1  0.46562000  0.48554000  0.10731000  1.0
  O  O362  1  0.62128000  0.48922000  0.03112000  1.0
  O  O363  1  0.44622000  0.36617000  0.99561000  1.0
  O  O364  1  0.03560000  0.54116000  0.39535000  1.0
  O  O365  1  0.98008000  0.62177000  0.51446000  1.0
  O  O366  1  0.13201000  0.54188000  0.51074000  1.0
  O  O367  1  0.08006000  0.62944000  0.63382000  1.0
  O  O368  1  0.49446000  0.85420000  0.45888000  1.0
  O  O369  1  0.35834000  0.89270000  0.37824000  1.0
  O  O370  1  0.59012000  0.96884000  0.45811000  1.0
  O  O371  1  0.45064000  0.00437000  0.37053000  1.0
  O  O372  1  0.00554000  0.54112000  0.14580000  1.0
  O  O373  1  0.14166000  0.62176000  0.10730000  1.0
  O  O374  1  0.90988000  0.54189000  0.03116000  1.0
  O  O375  1  0.04936000  0.62947000  0.99563000  1.0
  O  O376  1  0.85977000  0.85423000  0.39539000  1.0
  O  O377  1  0.03438000  0.89269000  0.51446000  1.0
  O  O378  1  0.87872000  0.96888000  0.51077000  1.0
  O  O379  1  0.05378000  0.00438000  0.63383000  1.0
  O  O380  1  0.46440000  0.60465000  0.45884000  1.0
  O  O381  1  0.51992000  0.48554000  0.37823000  1.0
  O  O382  1  0.36799000  0.48926000  0.45812000  1.0
  O  O383  1  0.41994000  0.36618000  0.37056000  1.0
  O  O384  1  0.35977000  0.39539000  0.85424000  1.0
  O  O385  1  0.53438000  0.51446000  0.89269000  1.0
  O  O386  1  0.37872000  0.51078000  0.96889000  1.0
  O  O387  1  0.55379000  0.63383000  0.00439000  1.0
  O  O388  1  0.96439000  0.45885000  0.60465000  1.0
  O  O389  1  0.01991000  0.37822000  0.48553000  1.0
  O  O390  1  0.86799000  0.45812000  0.48925000  1.0
  O  O391  1  0.91994000  0.37056000  0.36617000  1.0
  O  O392  1  0.50554000  0.14580000  0.54112000  1.0
  O  O393  1  0.64166000  0.10730000  0.62176000  1.0
  O  O394  1  0.40988000  0.03115000  0.54189000  1.0
  O  O395  1  0.54936000  0.99563000  0.62947000  1.0
  O  O396  1  0.99446000  0.45888000  0.85420000  1.0
  O  O397  1  0.85834000  0.37824000  0.89270000  1.0
  O  O398  1  0.09012000  0.45811000  0.96885000  1.0
  O  O399  1  0.95064000  0.37053000  0.00437000  1.0
  O  O400  1  0.14023000  0.14576000  0.60460000  1.0
  O  O401  1  0.96562000  0.10731000  0.48554000  1.0
  O  O402  1  0.12128000  0.03111000  0.48922000  1.0
  O  O403  1  0.94621000  0.99561000  0.36617000  1.0
  O  O404  1  0.53561000  0.39535000  0.54116000  1.0
  O  O405  1  0.48008000  0.51446000  0.62177000  1.0
  O  O406  1  0.63201000  0.51074000  0.54188000  1.0
  O  O407  1  0.58006000  0.63382000  0.62944000  1.0
