# generated using pymatgen
data_AgH18C20(NO)5
_symmetry_space_group_name_H-M   'P 1'
_cell_length_a   9.14276000
_cell_length_b   9.56206000
_cell_length_c   13.38070000
_cell_angle_alpha   74.95550000
_cell_angle_beta   85.33750000
_cell_angle_gamma   66.84020000
_symmetry_Int_Tables_number   1
_chemical_formula_structural   AgH18C20(NO)5
_chemical_formula_sum   'Ag2 H36 C40 N10 O10'
_cell_volume   1038.36871520
_cell_formula_units_Z   2
loop_
 _symmetry_equiv_pos_site_id
 _symmetry_equiv_pos_as_xyz
  1  'x, y, z'
loop_
 _atom_site_type_symbol
 _atom_site_label
 _atom_site_symmetry_multiplicity
 _atom_site_fract_x
 _atom_site_fract_y
 _atom_site_fract_z
 _atom_site_occupancy
  Ag  Ag0  1  0.06098000  0.20027000  0.50677000  1.0
  Ag  Ag1  1  0.93901000  0.79973000  0.49322000  1.0
  H  H2  1  0.35430000  0.09745000  0.14835000  1.0
  H  H3  1  0.64570000  0.90255000  0.85165000  1.0
  H  H4  1  0.54269000  0.30566000  0.17134000  1.0
  H  H5  1  0.45730000  0.69434000  0.82867000  1.0
  H  H6  1  0.31623000  0.56512000  0.14272000  1.0
  H  H7  1  0.68376000  0.43488000  0.85728000  1.0
  H  H8  1  0.42555000  0.16115000  0.81974000  1.0
  H  H9  1  0.57446000  0.83885000  0.18026000  1.0
  H  H10  1  0.11742000  0.24042000  0.86844000  1.0
  H  H11  1  0.88258000  0.75958000  0.13155000  1.0
  H  H12  1  0.17069000  0.32104000  0.03512000  1.0
  H  H13  1  0.82931000  0.67896000  0.96487000  1.0
  H  H14  1  0.28649000  0.40282000  0.94573000  1.0
  H  H15  1  0.71351000  0.59718000  0.05427000  1.0
  H  H16  1  0.89245000  0.25587000  0.12888000  1.0
  H  H17  1  0.10754000  0.74413000  0.87112000  1.0
  H  H18  1  0.71867000  0.10107000  0.04769000  1.0
  H  H19  1  0.28133000  0.89893000  0.95231000  1.0
  H  H20  1  0.83120000  0.18776000  0.95838000  1.0
  H  H21  1  0.16879000  0.81224000  0.04162000  1.0
  H  H22  1  0.13964000  0.28217000  0.68886000  1.0
  H  H23  1  0.86036000  0.71783000  0.31115000  1.0
  H  H24  1  0.75172000  0.69149000  0.74648000  1.0
  H  H25  1  0.24828000  0.30850000  0.25352000  1.0
  H  H26  1  0.60637000  0.69355000  0.59598000  1.0
  H  H27  1  0.39364000  0.30645000  0.40402000  1.0
  H  H28  1  0.73743000  0.48552000  0.49831000  1.0
  H  H29  1  0.26257000  0.51448000  0.50169000  1.0
  H  H30  1  0.91973000  0.18361000  0.31184000  1.0
  H  H31  1  0.08028000  0.81639000  0.68816000  1.0
  H  H32  1  0.25186000  0.78674000  0.20871000  1.0
  H  H33  1  0.74814000  0.21326000  0.79129000  1.0
  H  H34  1  0.43877000  0.74157000  0.35410000  1.0
  H  H35  1  0.56123000  0.25843000  0.64590000  1.0
  H  H36  1  0.34861000  0.91808000  0.47350000  1.0
  H  H37  1  0.65139000  0.08192000  0.52650000  1.0
  C  C38  1  0.37334000  0.14929000  0.98191000  1.0
  C  C39  1  0.62667000  0.85071000  0.01809000  1.0
  C  C40  1  0.41722000  0.05540000  0.08259000  1.0
  C  C41  1  0.58279000  0.94460000  0.91741000  1.0
  C  C42  1  0.52512000  0.39123000  0.09653000  1.0
  C  C43  1  0.47487000  0.60877000  0.90348000  1.0
  C  C44  1  0.62870000  0.35310000  0.01581000  1.0
  C  C45  1  0.37130000  0.64691000  0.98419000  1.0
  C  C46  1  0.39801000  0.53679000  0.08012000  1.0
  C  C47  1  0.60198000  0.46321000  0.91988000  1.0
  C  C48  1  0.45769000  0.09162000  0.89931000  1.0
  C  C49  1  0.54232000  0.90837000  0.10069000  1.0
  C  C50  1  0.23970000  0.30935000  0.96419000  1.0
  C  C51  1  0.76031000  0.69065000  0.03581000  1.0
  C  C52  1  0.04679000  0.47908000  0.82203000  1.0
  C  C53  1  0.95321000  0.52092000  0.17797000  1.0
  C  C54  1  0.76397000  0.19545000  0.03010000  1.0
  C  C55  1  0.23603000  0.80455000  0.96990000  1.0
  C  C56  1  0.96204000  0.01610000  0.16380000  1.0
  C  C57  1  0.03796000  0.98389000  0.83620000  1.0
  C  C58  1  0.02021000  0.37295000  0.67327000  1.0
  C  C59  1  0.97979000  0.62705000  0.32672000  1.0
  C  C60  1  0.95508000  0.48292000  0.73259000  1.0
  C  C61  1  0.04492000  0.51708000  0.26741000  1.0
  C  C62  1  0.80485000  0.60139000  0.70385000  1.0
  C  C63  1  0.19515000  0.39861000  0.29615000  1.0
  C  C64  1  0.72355000  0.60259000  0.61966000  1.0
  C  C65  1  0.27645000  0.39741000  0.38034000  1.0
  C  C66  1  0.79588000  0.48771000  0.56537000  1.0
  C  C67  1  0.20412000  0.51229000  0.43463000  1.0
  C  C68  1  0.03391000  0.08567000  0.31796000  1.0
  C  C69  1  0.96609000  0.91433000  0.68204000  1.0
  C  C70  1  0.07375000  0.99128000  0.24808000  1.0
  C  C71  1  0.92625000  0.00872000  0.75192000  1.0
  C  C72  1  0.21972000  0.86285000  0.26178000  1.0
  C  C73  1  0.78029000  0.13716000  0.73821000  1.0
  C  C74  1  0.32129000  0.83597000  0.34252000  1.0
  C  C75  1  0.67871000  0.16404000  0.65748000  1.0
  C  C76  1  0.27349000  0.93565000  0.40876000  1.0
  C  C77  1  0.72651000  0.06435000  0.59124000  1.0
  N  N78  1  0.13632000  0.33556000  0.87811000  1.0
  N  N79  1  0.86368000  0.66444000  0.12189000  1.0
  N  N80  1  0.87257000  0.16396000  0.11483000  1.0
  N  N81  1  0.12743000  0.83604000  0.88517000  1.0
  N  N82  1  0.94290000  0.37543000  0.59090000  1.0
  N  N83  1  0.05710000  0.62457000  0.40910000  1.0
  N  N84  1  0.13124000  0.05737000  0.39771000  1.0
  N  N85  1  0.86876000  0.94262000  0.60229000  1.0
  N  N86  1  0.37629000  0.00226000  0.64953000  1.0
  N  N87  1  0.62371000  0.99775000  0.35047000  1.0
  O  O88  1  0.03803000  0.60467000  0.83942000  1.0
  O  O89  1  0.96197000  0.39533000  0.16058000  1.0
  O  O90  1  0.95780000  0.89849000  0.14099000  1.0
  O  O91  1  0.04220000  0.10151000  0.85901000  1.0
  O  O92  1  0.34783000  0.14773000  0.61140000  1.0
  O  O93  1  0.65217000  0.85227000  0.38861000  1.0
  O  O94  1  0.50648000  0.91100000  0.69577000  1.0
  O  O95  1  0.49353000  0.08900000  0.30424000  1.0
  O  O96  1  0.27122000  0.94983000  0.63946000  1.0
  O  O97  1  0.72878000  0.05018000  0.36054000  1.0
