# generated using pymatgen
data_CoH14C18(NO2)2
_symmetry_space_group_name_H-M   'P 1'
_cell_length_a   13.60230000
_cell_length_b   14.06900000
_cell_length_c   21.24560000
_cell_angle_alpha   89.99990000
_cell_angle_beta   90.00060000
_cell_angle_gamma   89.99960000
_symmetry_Int_Tables_number   1
_chemical_formula_structural   CoH14C18(NO2)2
_chemical_formula_sum   'Co8 H112 C144 N16 O32'
_cell_volume   4065.78659071
_cell_formula_units_Z   8
loop_
 _symmetry_equiv_pos_site_id
 _symmetry_equiv_pos_as_xyz
  1  'x, y, z'
loop_
 _atom_site_type_symbol
 _atom_site_label
 _atom_site_symmetry_multiplicity
 _atom_site_fract_x
 _atom_site_fract_y
 _atom_site_fract_z
 _atom_site_occupancy
  Co  Co0  1  0.46664000  0.10306000  0.43918000  1.0
  Co  Co1  1  0.03336000  0.89695000  0.93917000  1.0
  Co  Co2  1  0.53336000  0.60306000  0.06082000  1.0
  Co  Co3  1  0.96663000  0.39695000  0.56082000  1.0
  Co  Co4  1  0.53336000  0.89695000  0.56082000  1.0
  Co  Co5  1  0.96664000  0.10305000  0.06082000  1.0
  Co  Co6  1  0.46664000  0.39695000  0.93918000  1.0
  Co  Co7  1  0.03336000  0.60306000  0.43918000  1.0
  H  H8  1  0.63296000  0.03122000  0.35882000  1.0
  H  H9  1  0.86706000  0.96879000  0.85882000  1.0
  H  H10  1  0.36704000  0.53122000  0.14118000  1.0
  H  H11  1  0.13294000  0.46879000  0.64118000  1.0
  H  H12  1  0.36707000  0.96879000  0.64119000  1.0
  H  H13  1  0.13296000  0.03122000  0.14118000  1.0
  H  H14  1  0.63294000  0.46879000  0.85881000  1.0
  H  H15  1  0.86704000  0.53122000  0.35882000  1.0
  H  H16  1  0.81501000  0.02485000  0.35983000  1.0
  H  H17  1  0.68501000  0.97517000  0.85982000  1.0
  H  H18  1  0.18500000  0.52485000  0.14017000  1.0
  H  H19  1  0.31499000  0.47515000  0.64017000  1.0
  H  H20  1  0.18502000  0.97515000  0.64019000  1.0
  H  H21  1  0.31500000  0.02485000  0.14017000  1.0
  H  H22  1  0.81499000  0.47515000  0.85982000  1.0
  H  H23  1  0.68500000  0.52485000  0.35983000  1.0
  H  H24  1  0.80697000  0.17651000  0.53673000  1.0
  H  H25  1  0.69303000  0.82349000  0.03671000  1.0
  H  H26  1  0.19303000  0.67651000  0.96327000  1.0
  H  H27  1  0.30696000  0.32349000  0.46328000  1.0
  H  H28  1  0.19302000  0.82350000  0.46329000  1.0
  H  H29  1  0.30697000  0.17650000  0.96327000  1.0
  H  H30  1  0.80697000  0.32351000  0.03672000  1.0
  H  H31  1  0.69303000  0.67651000  0.53673000  1.0
  H  H32  1  0.62464000  0.17865000  0.52741000  1.0
  H  H33  1  0.87536000  0.82135000  0.02740000  1.0
  H  H34  1  0.37537000  0.67867000  0.97259000  1.0
  H  H35  1  0.12463000  0.32134000  0.47259000  1.0
  H  H36  1  0.37536000  0.82135000  0.47259000  1.0
  H  H37  1  0.12464000  0.17866000  0.97259000  1.0
  H  H38  1  0.62464000  0.32135000  0.02741000  1.0
  H  H39  1  0.87536000  0.67866000  0.52741000  1.0
  H  H40  1  0.32204000  0.03362000  0.34427000  1.0
  H  H41  1  0.17796000  0.96637000  0.84426000  1.0
  H  H42  1  0.67797000  0.53361000  0.15573000  1.0
  H  H43  1  0.82203000  0.46637000  0.65573000  1.0
  H  H44  1  0.67797000  0.96638000  0.65573000  1.0
  H  H45  1  0.82204000  0.03361000  0.15573000  1.0
  H  H46  1  0.32203000  0.46637000  0.84427000  1.0
  H  H47  1  0.17796000  0.53363000  0.34427000  1.0
  H  H48  1  0.14056000  0.01395000  0.33136000  1.0
  H  H49  1  0.35944000  0.98606000  0.83134000  1.0
  H  H50  1  0.85945000  0.51395000  0.16865000  1.0
  H  H51  1  0.64056000  0.48604000  0.66866000  1.0
  H  H52  1  0.85944000  0.98605000  0.66866000  1.0
  H  H53  1  0.64056000  0.01393000  0.16865000  1.0
  H  H54  1  0.14055000  0.48606000  0.83134000  1.0
  H  H55  1  0.35944000  0.51395000  0.33135000  1.0
  H  H56  1  0.10638000  0.14233000  0.51532000  1.0
  H  H57  1  0.39364000  0.85768000  0.01531000  1.0
  H  H58  1  0.89362000  0.64233000  0.98469000  1.0
  H  H59  1  0.60636000  0.35767000  0.48469000  1.0
  H  H60  1  0.89365000  0.85767000  0.48470000  1.0
  H  H61  1  0.60637000  0.14233000  0.98469000  1.0
  H  H62  1  0.10636000  0.35768000  0.01531000  1.0
  H  H63  1  0.39363000  0.64233000  0.51531000  1.0
  H  H64  1  0.28793000  0.15400000  0.52029000  1.0
  H  H65  1  0.21210000  0.84600000  0.02029000  1.0
  H  H66  1  0.71207000  0.65400000  0.97971000  1.0
  H  H67  1  0.78791000  0.34600000  0.47971000  1.0
  H  H68  1  0.71210000  0.84601000  0.47971000  1.0
  H  H69  1  0.78792000  0.15400000  0.97972000  1.0
  H  H70  1  0.28791000  0.34600000  0.02029000  1.0
  H  H71  1  0.21208000  0.65400000  0.52029000  1.0
  H  H72  1  0.95928000  0.13855000  0.49859000  1.0
  H  H73  1  0.54073000  0.86146000  0.99856000  1.0
  H  H74  1  0.04072000  0.63856000  0.00142000  1.0
  H  H75  1  0.45927000  0.36145000  0.50143000  1.0
  H  H76  1  0.04073000  0.86146000  0.50144000  1.0
  H  H77  1  0.45929000  0.13855000  0.00142000  1.0
  H  H78  1  0.95927000  0.36146000  0.99856000  1.0
  H  H79  1  0.54071000  0.63855000  0.49858000  1.0
  H  H80  1  0.97590000  0.03464000  0.37089000  1.0
  H  H81  1  0.52411000  0.96538000  0.87087000  1.0
  H  H82  1  0.02410000  0.53464000  0.12911000  1.0
  H  H83  1  0.47588000  0.46535000  0.62913000  1.0
  H  H84  1  0.02411000  0.96536000  0.62914000  1.0
  H  H85  1  0.47589000  0.03463000  0.12912000  1.0
  H  H86  1  0.97588000  0.46537000  0.87087000  1.0
  H  H87  1  0.52411000  0.53463000  0.37088000  1.0
  H  H88  1  0.49944000  0.38170000  0.32543000  1.0
  H  H89  1  0.00054000  0.61829000  0.82544000  1.0
  H  H90  1  0.50056000  0.88171000  0.17456000  1.0
  H  H91  1  0.99943000  0.11828000  0.67457000  1.0
  H  H92  1  0.50054000  0.61829000  0.67455000  1.0
  H  H93  1  0.99944000  0.38170000  0.17457000  1.0
  H  H94  1  0.49946000  0.11828000  0.82545000  1.0
  H  H95  1  0.00056000  0.88170000  0.32543000  1.0
  H  H96  1  0.46050000  0.21285000  0.23634000  1.0
  H  H97  1  0.03950000  0.78713000  0.73634000  1.0
  H  H98  1  0.53951000  0.71287000  0.26366000  1.0
  H  H99  1  0.96049000  0.28713000  0.76366000  1.0
  H  H100  1  0.53951000  0.78712000  0.76366000  1.0
  H  H101  1  0.96051000  0.21285000  0.26366000  1.0
  H  H102  1  0.46049000  0.28713000  0.73635000  1.0
  H  H103  1  0.03949000  0.71286000  0.23634000  1.0
  H  H104  1  0.44841000  0.25546000  0.12376000  1.0
  H  H105  1  0.05160000  0.74454000  0.62377000  1.0
  H  H106  1  0.55159000  0.75546000  0.37623000  1.0
  H  H107  1  0.94840000  0.24454000  0.87623000  1.0
  H  H108  1  0.55158000  0.74454000  0.87622000  1.0
  H  H109  1  0.94842000  0.25545000  0.37624000  1.0
  H  H110  1  0.44841000  0.24455000  0.62378000  1.0
  H  H111  1  0.05160000  0.75546000  0.12377000  1.0
  H  H112  1  0.50879000  0.42603000  0.20690000  1.0
  H  H113  1  0.99120000  0.57395000  0.70690000  1.0
  H  H114  1  0.49121000  0.92604000  0.29310000  1.0
  H  H115  1  0.00878000  0.07395000  0.79310000  1.0
  H  H116  1  0.49120000  0.57394000  0.79310000  1.0
  H  H117  1  0.00880000  0.42603000  0.29310000  1.0
  H  H118  1  0.50881000  0.07395000  0.70690000  1.0
  H  H119  1  0.99121000  0.92604000  0.20690000  1.0
  C  C120  1  0.67451000  0.06213000  0.39762000  1.0
  C  C121  1  0.82550000  0.93787000  0.89762000  1.0
  C  C122  1  0.32549000  0.56214000  0.10238000  1.0
  C  C123  1  0.17450000  0.43786000  0.60238000  1.0
  C  C124  1  0.32550000  0.93787000  0.60239000  1.0
  C  C125  1  0.17451000  0.06214000  0.10237000  1.0
  C  C126  1  0.67450000  0.43787000  0.89761000  1.0
  C  C127  1  0.82549000  0.56214000  0.39763000  1.0
  C  C128  1  0.77626000  0.05933000  0.39851000  1.0
  C  C129  1  0.72375000  0.94067000  0.89850000  1.0
  C  C130  1  0.22375000  0.55934000  0.10149000  1.0
  C  C131  1  0.27625000  0.44066000  0.60149000  1.0
  C  C132  1  0.22375000  0.94066000  0.60150000  1.0
  C  C133  1  0.27626000  0.05934000  0.10149000  1.0
  C  C134  1  0.77625000  0.44066000  0.89850000  1.0
  C  C135  1  0.72374000  0.55934000  0.39851000  1.0
  C  C136  1  0.82789000  0.10032000  0.44931000  1.0
  C  C137  1  0.67212000  0.89969000  0.94930000  1.0
  C  C138  1  0.17212000  0.60033000  0.05069000  1.0
  C  C139  1  0.32787000  0.39968000  0.55070000  1.0
  C  C140  1  0.17212000  0.89968000  0.55071000  1.0
  C  C141  1  0.32788000  0.10032000  0.05069000  1.0
  C  C142  1  0.82788000  0.39968000  0.94930000  1.0
  C  C143  1  0.67212000  0.60032000  0.44931000  1.0
  C  C144  1  0.77067000  0.14307000  0.49667000  1.0
  C  C145  1  0.72933000  0.85693000  0.99665000  1.0
  C  C146  1  0.22933000  0.64308000  0.00334000  1.0
  C  C147  1  0.27066000  0.35693000  0.50334000  1.0
  C  C148  1  0.22933000  0.85693000  0.50335000  1.0
  C  C149  1  0.27067000  0.14307000  0.00333000  1.0
  C  C150  1  0.77067000  0.35693000  0.99666000  1.0
  C  C151  1  0.72933000  0.64307000  0.49667000  1.0
  C  C152  1  0.66918000  0.14367000  0.49179000  1.0
  C  C153  1  0.83082000  0.85632000  0.99178000  1.0
  C  C154  1  0.33083000  0.64368000  0.00821000  1.0
  C  C155  1  0.16917000  0.35632000  0.50821000  1.0
  C  C156  1  0.33083000  0.85633000  0.50822000  1.0
  C  C157  1  0.16918000  0.14368000  0.00820000  1.0
  C  C158  1  0.66917000  0.35633000  0.99178000  1.0
  C  C159  1  0.83082000  0.64368000  0.49179000  1.0
  C  C160  1  0.27110000  0.05650000  0.38081000  1.0
  C  C161  1  0.22891000  0.94350000  0.88080000  1.0
  C  C162  1  0.72890000  0.55649000  0.11920000  1.0
  C  C163  1  0.77109000  0.44350000  0.61920000  1.0
  C  C164  1  0.72890000  0.94350000  0.61920000  1.0
  C  C165  1  0.77110000  0.05649000  0.11920000  1.0
  C  C166  1  0.27109000  0.44350000  0.88080000  1.0
  C  C167  1  0.22890000  0.55650000  0.38080000  1.0
  C  C168  1  0.17022000  0.04600000  0.37409000  1.0
  C  C169  1  0.32978000  0.95400000  0.87408000  1.0
  C  C170  1  0.82978000  0.54600000  0.12591000  1.0
  C  C171  1  0.67022000  0.45400000  0.62592000  1.0
  C  C172  1  0.82978000  0.95400000  0.62593000  1.0
  C  C173  1  0.67022000  0.04599000  0.12592000  1.0
  C  C174  1  0.17022000  0.45400000  0.87408000  1.0
  C  C175  1  0.32978000  0.54601000  0.37408000  1.0
  C  C176  1  0.10622000  0.07716000  0.42197000  1.0
  C  C177  1  0.39379000  0.92284000  0.92196000  1.0
  C  C178  1  0.89379000  0.57717000  0.07803000  1.0
  C  C179  1  0.60620000  0.42284000  0.57804000  1.0
  C  C180  1  0.89379000  0.92284000  0.57804000  1.0
  C  C181  1  0.60621000  0.07715000  0.07804000  1.0
  C  C182  1  0.10621000  0.42285000  0.92196000  1.0
  C  C183  1  0.39379000  0.57717000  0.42196000  1.0
  C  C184  1  0.15049000  0.11679000  0.47593000  1.0
  C  C185  1  0.34952000  0.88322000  0.97592000  1.0
  C  C186  1  0.84951000  0.61679000  0.02408000  1.0
  C  C187  1  0.65047000  0.38322000  0.52408000  1.0
  C  C188  1  0.84953000  0.88322000  0.52409000  1.0
  C  C189  1  0.65048000  0.11678000  0.02408000  1.0
  C  C190  1  0.15048000  0.38322000  0.97592000  1.0
  C  C191  1  0.34952000  0.61679000  0.47592000  1.0
  C  C192  1  0.25182000  0.12410000  0.47908000  1.0
  C  C193  1  0.24820000  0.87591000  0.97907000  1.0
  C  C194  1  0.74819000  0.62410000  0.02092000  1.0
  C  C195  1  0.75180000  0.37592000  0.52092000  1.0
  C  C196  1  0.74821000  0.87591000  0.52093000  1.0
  C  C197  1  0.75181000  0.12409000  0.02092000  1.0
  C  C198  1  0.25180000  0.37591000  0.97907000  1.0
  C  C199  1  0.24819000  0.62409000  0.47908000  1.0
  C  C200  1  0.93378000  0.10295000  0.45587000  1.0
  C  C201  1  0.56623000  0.89706000  0.95585000  1.0
  C  C202  1  0.06623000  0.60295000  0.04413000  1.0
  C  C203  1  0.43376000  0.39705000  0.54415000  1.0
  C  C204  1  0.06623000  0.89706000  0.54416000  1.0
  C  C205  1  0.43378000  0.10295000  0.04414000  1.0
  C  C206  1  0.93377000  0.39706000  0.95585000  1.0
  C  C207  1  0.56622000  0.60295000  0.45586000  1.0
  C  C208  1  0.00065000  0.06899000  0.41428000  1.0
  C  C209  1  0.49936000  0.93102000  0.91426000  1.0
  C  C210  1  0.99936000  0.56900000  0.08572000  1.0
  C  C211  1  0.50063000  0.43100000  0.58574000  1.0
  C  C212  1  0.99937000  0.93101000  0.58575000  1.0
  C  C213  1  0.50064000  0.06898000  0.08573000  1.0
  C  C214  1  0.00063000  0.43102000  0.91426000  1.0
  C  C215  1  0.49936000  0.56899000  0.41427000  1.0
  C  C216  1  0.47675000  0.23584000  0.35881000  1.0
  C  C217  1  0.02325000  0.76416000  0.85882000  1.0
  C  C218  1  0.52325000  0.73584000  0.14118000  1.0
  C  C219  1  0.97674000  0.26415000  0.64118000  1.0
  C  C220  1  0.52325000  0.76416000  0.64118000  1.0
  C  C221  1  0.97675000  0.23584000  0.14118000  1.0
  C  C222  1  0.47674000  0.26415000  0.85882000  1.0
  C  C223  1  0.02325000  0.73584000  0.35882000  1.0
  C  C224  1  0.48531000  0.30914000  0.30960000  1.0
  C  C225  1  0.01468000  0.69085000  0.80961000  1.0
  C  C226  1  0.51469000  0.80914000  0.19039000  1.0
  C  C227  1  0.98530000  0.19085000  0.69039000  1.0
  C  C228  1  0.51468000  0.69085000  0.69038000  1.0
  C  C229  1  0.98531000  0.30914000  0.19039000  1.0
  C  C230  1  0.48532000  0.19084000  0.80962000  1.0
  C  C231  1  0.01469000  0.80914000  0.30961000  1.0
  C  C232  1  0.47602000  0.28716000  0.24788000  1.0
  C  C233  1  0.02397000  0.71282000  0.74788000  1.0
  C  C234  1  0.52398000  0.78717000  0.25212000  1.0
  C  C235  1  0.97602000  0.21282000  0.75212000  1.0
  C  C236  1  0.52397000  0.71282000  0.75211000  1.0
  C  C237  1  0.97603000  0.28716000  0.25212000  1.0
  C  C238  1  0.47603000  0.21282000  0.74789000  1.0
  C  C239  1  0.02398000  0.78717000  0.24788000  1.0
  C  C240  1  0.48585000  0.39281000  0.08258000  1.0
  C  C241  1  0.01415000  0.60720000  0.58258000  1.0
  C  C242  1  0.51415000  0.89281000  0.41742000  1.0
  C  C243  1  0.98585000  0.10718000  0.91741000  1.0
  C  C244  1  0.51415000  0.60720000  0.91741000  1.0
  C  C245  1  0.98585000  0.39280000  0.41742000  1.0
  C  C246  1  0.48586000  0.10720000  0.58258000  1.0
  C  C247  1  0.01415000  0.89281000  0.08258000  1.0
  C  C248  1  0.47192000  0.32734000  0.13592000  1.0
  C  C249  1  0.02807000  0.67265000  0.63593000  1.0
  C  C250  1  0.52808000  0.82735000  0.36407000  1.0
  C  C251  1  0.97192000  0.17265000  0.86407000  1.0
  C  C252  1  0.52806000  0.67265000  0.86407000  1.0
  C  C253  1  0.97194000  0.32734000  0.36408000  1.0
  C  C254  1  0.47194000  0.17266000  0.63593000  1.0
  C  C255  1  0.02807000  0.82735000  0.13592000  1.0
  C  C256  1  0.48672000  0.35280000  0.19669000  1.0
  C  C257  1  0.01327000  0.64719000  0.69669000  1.0
  C  C258  1  0.51328000  0.85281000  0.30330000  1.0
  C  C259  1  0.98672000  0.14718000  0.80330000  1.0
  C  C260  1  0.51326000  0.64718000  0.80330000  1.0
  C  C261  1  0.98673000  0.35280000  0.30331000  1.0
  C  C262  1  0.48673000  0.14718000  0.69670000  1.0
  C  C263  1  0.01328000  0.85281000  0.19669000  1.0
  N  N264  1  0.62014000  0.10316000  0.44363000  1.0
  N  N265  1  0.87986000  0.89684000  0.94362000  1.0
  N  N266  1  0.37987000  0.60316000  0.05637000  1.0
  N  N267  1  0.12013000  0.39684000  0.55638000  1.0
  N  N268  1  0.37987000  0.89685000  0.55638000  1.0
  N  N269  1  0.12014000  0.10316000  0.05637000  1.0
  N  N270  1  0.62013000  0.39684000  0.94362000  1.0
  N  N271  1  0.87986000  0.60317000  0.44363000  1.0
  N  N272  1  0.31262000  0.09548000  0.43245000  1.0
  N  N273  1  0.18739000  0.90452000  0.93244000  1.0
  N  N274  1  0.68739000  0.59547000  0.06755000  1.0
  N  N275  1  0.81261000  0.40453000  0.56755000  1.0
  N  N276  1  0.68739000  0.90453000  0.56755000  1.0
  N  N277  1  0.81261000  0.09547000  0.06756000  1.0
  N  N278  1  0.31261000  0.40453000  0.93244000  1.0
  N  N279  1  0.18739000  0.59548000  0.43245000  1.0
  O  O280  1  0.46911000  0.14807000  0.34332000  1.0
  O  O281  1  0.03090000  0.85193000  0.84332000  1.0
  O  O282  1  0.53090000  0.64807000  0.15668000  1.0
  O  O283  1  0.96907000  0.35192000  0.65667000  1.0
  O  O284  1  0.53091000  0.85192000  0.65667000  1.0
  O  O285  1  0.96911000  0.14807000  0.15668000  1.0
  O  O286  1  0.46907000  0.35192000  0.84333000  1.0
  O  O287  1  0.03089000  0.64807000  0.34332000  1.0
  O  O288  1  0.47782000  0.25945000  0.41705000  1.0
  O  O289  1  0.02218000  0.74056000  0.91706000  1.0
  O  O290  1  0.52217000  0.75945000  0.08295000  1.0
  O  O291  1  0.97782000  0.24055000  0.58294000  1.0
  O  O292  1  0.52217000  0.74056000  0.58294000  1.0
  O  O293  1  0.97782000  0.25945000  0.08295000  1.0
  O  O294  1  0.47782000  0.24055000  0.91706000  1.0
  O  O295  1  0.02218000  0.75945000  0.41705000  1.0
  O  O296  1  0.45151000  0.36534000  0.02957000  1.0
  O  O297  1  0.04850000  0.63468000  0.52958000  1.0
  O  O298  1  0.54849000  0.86533000  0.47043000  1.0
  O  O299  1  0.95151000  0.13466000  0.97042000  1.0
  O  O300  1  0.54851000  0.63468000  0.97041000  1.0
  O  O301  1  0.95150000  0.36533000  0.47043000  1.0
  O  O302  1  0.45150000  0.13469000  0.52958000  1.0
  O  O303  1  0.04850000  0.86533000  0.02957000  1.0
  O  O304  1  0.53293000  0.46998000  0.09201000  1.0
  O  O305  1  0.96707000  0.53003000  0.59200000  1.0
  O  O306  1  0.46707000  0.96997000  0.40800000  1.0
  O  O307  1  0.03294000  0.03002000  0.90800000  1.0
  O  O308  1  0.46706000  0.53003000  0.90801000  1.0
  O  O309  1  0.03293000  0.46997000  0.40801000  1.0
  O  O310  1  0.53294000  0.03004000  0.59200000  1.0
  O  O311  1  0.96707000  0.96997000  0.09200000  1.0
