# generated using pymatgen
data_CuH26C27SN6(ClO)2
_symmetry_space_group_name_H-M   'P 1'
_cell_length_a   8.59127000
_cell_length_b   13.10100000
_cell_length_c   14.31310000
_cell_angle_alpha   73.70890000
_cell_angle_beta   73.43460000
_cell_angle_gamma   83.51420000
_symmetry_Int_Tables_number   1
_chemical_formula_structural   CuH26C27SN6(ClO)2
_chemical_formula_sum   'Cu2 H52 C54 S2 N12 Cl4 O4'
_cell_volume   1481.18395235
_cell_formula_units_Z   2
loop_
 _symmetry_equiv_pos_site_id
 _symmetry_equiv_pos_as_xyz
  1  'x, y, z'
loop_
 _atom_site_type_symbol
 _atom_site_label
 _atom_site_symmetry_multiplicity
 _atom_site_fract_x
 _atom_site_fract_y
 _atom_site_fract_z
 _atom_site_occupancy
  Cu  Cu0  1  0.73168000  0.44880000  0.17018000  1.0
  Cu  Cu1  1  0.26833000  0.55120000  0.82981000  1.0
  H  H2  1  0.00825000  0.01637000  0.11152000  1.0
  H  H3  1  0.99176000  0.98364000  0.88847000  1.0
  H  H4  1  0.96221000  0.84963000  0.25174000  1.0
  H  H5  1  0.03780000  0.15037000  0.74826000  1.0
  H  H6  1  0.40444000  0.70420000  0.10414000  1.0
  H  H7  1  0.59557000  0.29580000  0.89585000  1.0
  H  H8  1  0.70277000  0.99988000  0.75329000  1.0
  H  H9  1  0.29722000  0.00013000  0.24671000  1.0
  H  H10  1  0.81907000  0.11890000  0.58561000  1.0
  H  H11  1  0.18092000  0.88111000  0.41439000  1.0
  H  H12  1  0.38674000  0.32218000  0.62033000  1.0
  H  H13  1  0.61324000  0.67782000  0.37967000  1.0
  H  H14  1  0.27159000  0.20445000  0.78885000  1.0
  H  H15  1  0.72840000  0.79555000  0.21115000  1.0
  H  H16  1  0.25606000  0.62949000  0.28935000  1.0
  H  H17  1  0.74395000  0.37051000  0.71065000  1.0
  H  H18  1  0.05034000  0.67596000  0.33382000  1.0
  H  H19  1  0.94967000  0.32404000  0.66618000  1.0
  H  H20  1  0.31060000  0.51058000  0.16275000  1.0
  H  H21  1  0.68941000  0.48941000  0.83725000  1.0
  H  H22  1  0.33461000  0.38002000  0.03851000  1.0
  H  H23  1  0.66540000  0.61998000  0.96149000  1.0
  H  H24  1  0.31400000  0.24516000  0.94633000  1.0
  H  H25  1  0.68600000  0.75484000  0.05367000  1.0
  H  H26  1  0.04060000  0.19136000  0.95522000  1.0
  H  H27  1  0.95941000  0.80864000  0.04478000  1.0
  H  H28  1  0.79252000  0.28225000  0.04744000  1.0
  H  H29  1  0.20749000  0.71775000  0.95256000  1.0
  H  H30  1  0.63901000  0.45330000  0.41320000  1.0
  H  H31  1  0.36099000  0.54670000  0.58679000  1.0
  H  H32  1  0.61485000  0.42846000  0.54664000  1.0
  H  H33  1  0.38514000  0.57153000  0.45336000  1.0
  H  H34  1  0.81275000  0.42756000  0.46175000  1.0
  H  H35  1  0.18724000  0.57243000  0.53825000  1.0
  H  H36  1  0.76459000  0.06200000  0.22050000  1.0
  H  H37  1  0.23543000  0.93800000  0.77950000  1.0
  H  H38  1  0.57794000  0.09387000  0.30149000  1.0
  H  H39  1  0.42206000  0.90613000  0.69851000  1.0
  H  H40  1  0.71946000  0.19500000  0.23157000  1.0
  H  H41  1  0.28055000  0.80500000  0.76844000  1.0
  H  H42  1  0.02912000  0.04298000  0.28075000  1.0
  H  H43  1  0.97088000  0.95703000  0.71926000  1.0
  H  H44  1  0.02225000  0.08942000  0.38737000  1.0
  H  H45  1  0.97775000  0.91058000  0.61263000  1.0
  H  H46  1  0.99799000  0.18143000  0.27358000  1.0
  H  H47  1  0.00201000  0.81857000  0.72642000  1.0
  H  H48  1  0.80470000  0.95309000  0.48959000  1.0
  H  H49  1  0.19530000  0.04691000  0.51042000  1.0
  H  H50  1  0.80747000  0.91376000  0.37948000  1.0
  H  H51  1  0.19254000  0.08623000  0.62053000  1.0
  H  H52  1  0.62198000  0.95782000  0.45262000  1.0
  H  H53  1  0.37803000  0.04217000  0.54738000  1.0
  C  C54  1  0.40496000  0.01935000  0.87913000  1.0
  C  C55  1  0.59504000  0.98065000  0.12087000  1.0
  C  C56  1  0.09420000  0.94869000  0.11023000  1.0
  C  C57  1  0.90580000  0.05131000  0.88977000  1.0
  C  C58  1  0.06995000  0.85559000  0.18802000  1.0
  C  C59  1  0.93005000  0.14441000  0.81198000  1.0
  C  C60  1  0.18009000  0.76764000  0.18572000  1.0
  C  C61  1  0.81991000  0.23236000  0.81428000  1.0
  C  C62  1  0.31866000  0.77220000  0.10487000  1.0
  C  C63  1  0.68134000  0.22780000  0.89513000  1.0
  C  C64  1  0.34249000  0.86487000  0.02603000  1.0
  C  C65  1  0.65752000  0.13513000  0.97397000  1.0
  C  C66  1  0.23058000  0.95398000  0.02717000  1.0
  C  C67  1  0.76942000  0.04602000  0.97283000  1.0
  C  C68  1  0.47652000  0.09194000  0.78195000  1.0
  C  C69  1  0.52346000  0.90807000  0.21805000  1.0
  C  C70  1  0.63178000  0.06953000  0.72366000  1.0
  C  C71  1  0.36821000  0.93048000  0.27635000  1.0
  C  C72  1  0.69809000  0.13643000  0.62969000  1.0
  C  C73  1  0.30190000  0.86358000  0.37032000  1.0
  C  C74  1  0.60900000  0.22661000  0.59011000  1.0
  C  C75  1  0.39098000  0.77340000  0.40990000  1.0
  C  C76  1  0.45593000  0.25113000  0.64882000  1.0
  C  C77  1  0.54405000  0.74887000  0.35118000  1.0
  C  C78  1  0.39077000  0.18489000  0.74389000  1.0
  C  C79  1  0.60921000  0.81512000  0.25611000  1.0
  C  C80  1  0.14538000  0.66484000  0.26736000  1.0
  C  C81  1  0.85463000  0.33517000  0.73264000  1.0
  C  C82  1  0.06721000  0.47495000  0.14849000  1.0
  C  C83  1  0.93279000  0.52505000  0.85151000  1.0
  C  C84  1  0.17943000  0.52110000  0.17537000  1.0
  C  C85  1  0.82058000  0.47890000  0.82463000  1.0
  C  C86  1  0.07442000  0.39795000  0.09155000  1.0
  C  C87  1  0.92559000  0.60205000  0.90845000  1.0
  C  C88  1  0.21765000  0.35501000  0.03877000  1.0
  C  C89  1  0.78236000  0.64500000  0.96122000  1.0
  C  C90  1  0.20575000  0.28014000  0.98889000  1.0
  C  C91  1  0.79426000  0.71986000  0.01110000  1.0
  C  C92  1  0.05292000  0.25069000  0.99245000  1.0
  C  C93  1  0.94708000  0.74931000  0.00755000  1.0
  C  C94  1  0.91566000  0.29938000  0.04377000  1.0
  C  C95  1  0.08434000  0.70062000  0.95623000  1.0
  C  C96  1  0.68518000  0.40746000  0.47727000  1.0
  C  C97  1  0.31482000  0.59254000  0.52273000  1.0
  C  C98  1  0.73336000  0.25357000  0.40849000  1.0
  C  C99  1  0.26662000  0.74642000  0.59152000  1.0
  C  C100  1  0.78763000  0.08409000  0.35952000  1.0
  C  C101  1  0.21237000  0.91591000  0.64048000  1.0
  C  C102  1  0.70764000  0.11105000  0.27296000  1.0
  C  C103  1  0.29236000  0.88895000  0.72704000  1.0
  C  C104  1  0.97038000  0.10149000  0.32297000  1.0
  C  C105  1  0.02962000  0.89852000  0.67704000  1.0
  C  C106  1  0.75313000  0.97044000  0.42458000  1.0
  C  C107  1  0.24688000  0.02956000  0.57542000  1.0
  S  S108  1  0.49692000  0.89251000  0.91563000  1.0
  S  S109  1  0.50309000  0.10750000  0.08437000  1.0
  N  N110  1  0.26910000  0.03886000  0.94326000  1.0
  N  N111  1  0.73090000  0.96114000  0.05674000  1.0
  N  N112  1  0.08761000  0.58626000  0.23043000  1.0
  N  N113  1  0.91239000  0.41374000  0.76957000  1.0
  N  N114  1  0.92781000  0.58352000  0.23820000  1.0
  N  N115  1  0.07219000  0.41648000  0.76180000  1.0
  N  N116  1  0.91698000  0.51537000  0.18887000  1.0
  N  N117  1  0.08302000  0.48463000  0.81113000  1.0
  N  N118  1  0.92588000  0.37142000  0.09209000  1.0
  N  N119  1  0.07412000  0.62858000  0.90791000  1.0
  N  N120  1  0.67374000  0.29297000  0.49197000  1.0
  N  N121  1  0.32625000  0.70703000  0.50804000  1.0
  Cl  Cl122  1  0.55131000  0.37628000  0.12401000  1.0
  Cl  Cl123  1  0.44871000  0.62373000  0.87596000  1.0
  Cl  Cl124  1  0.53829000  0.54923000  0.24978000  1.0
  Cl  Cl125  1  0.46170000  0.45076000  0.75021000  1.0
  O  O126  1  0.79985000  0.30961000  0.32439000  1.0
  O  O127  1  0.20013000  0.69037000  0.67562000  1.0
  O  O128  1  0.70705000  0.14832000  0.43138000  1.0
  O  O129  1  0.29294000  0.85167000  0.56864000  1.0
