# generated using pymatgen
data_ZnH7C13NO4
_symmetry_space_group_name_H-M   'P 1'
_cell_length_a   13.54190000
_cell_length_b   13.54200000
_cell_length_c   23.16840000
_cell_angle_alpha   90.00030000
_cell_angle_beta   89.99990000
_cell_angle_gamma   90.00000000
_symmetry_Int_Tables_number   1
_chemical_formula_structural   ZnH7C13NO4
_chemical_formula_sum   'Zn8 H56 C104 N8 O32'
_cell_volume   4248.72335995
_cell_formula_units_Z   8
loop_
 _symmetry_equiv_pos_site_id
 _symmetry_equiv_pos_as_xyz
  1  'x, y, z'
loop_
 _atom_site_type_symbol
 _atom_site_label
 _atom_site_symmetry_multiplicity
 _atom_site_fract_x
 _atom_site_fract_y
 _atom_site_fract_z
 _atom_site_occupancy
  Zn  Zn0  1  0.86000000  0.79880000  0.05723000  1.0
  Zn  Zn1  1  0.14000000  0.20121000  0.55723000  1.0
  Zn  Zn2  1  0.70120000  0.36000000  0.80723000  1.0
  Zn  Zn3  1  0.29880000  0.63999000  0.30723000  1.0
  Zn  Zn4  1  0.64000000  0.29880000  0.69277000  1.0
  Zn  Zn5  1  0.36000000  0.70120000  0.19277000  1.0
  Zn  Zn6  1  0.79880000  0.86000000  0.94277000  1.0
  Zn  Zn7  1  0.20120000  0.14000000  0.44277000  1.0
  H  H8  1  0.99358000  0.66382000  0.28657000  1.0
  H  H9  1  0.00642000  0.33618000  0.78657000  1.0
  H  H10  1  0.83618000  0.49357000  0.03657000  1.0
  H  H11  1  0.16382000  0.50643000  0.53657000  1.0
  H  H12  1  0.50642000  0.16382000  0.46343000  1.0
  H  H13  1  0.49358000  0.83618000  0.96343000  1.0
  H  H14  1  0.66382000  0.99357000  0.71343000  1.0
  H  H15  1  0.33619000  0.00642000  0.21343000  1.0
  H  H16  1  0.76735000  0.75956000  0.16668000  1.0
  H  H17  1  0.23265000  0.24045000  0.66666667  1.0
  H  H18  1  0.74044000  0.26735000  0.91668000  1.0
  H  H19  1  0.25956000  0.73265000  0.41668000  1.0
  H  H20  1  0.73265000  0.25957000  0.58332000  1.0
  H  H21  1  0.26735000  0.74044000  0.08332000  1.0
  H  H22  1  0.75956000  0.76735000  0.83332000  1.0
  H  H23  1  0.24044000  0.23264000  0.33333333  1.0
  H  H24  1  0.05687000  0.74585000  0.11130000  1.0
  H  H25  1  0.94313000  0.25415000  0.61130000  1.0
  H  H26  1  0.75415000  0.55688000  0.86130000  1.0
  H  H27  1  0.24585000  0.44312000  0.36130000  1.0
  H  H28  1  0.44312000  0.24585000  0.63870000  1.0
  H  H29  1  0.55687000  0.75415000  0.13870000  1.0
  H  H30  1  0.74585000  0.05687000  0.88870000  1.0
  H  H31  1  0.25415000  0.94312000  0.38870000  1.0
  H  H32  1  0.66973000  0.68120000  0.21761000  1.0
  H  H33  1  0.33027000  0.31881000  0.71761000  1.0
  H  H34  1  0.81880000  0.16973000  0.96760000  1.0
  H  H35  1  0.18120000  0.83027000  0.46761000  1.0
  H  H36  1  0.83027000  0.18120000  0.53240000  1.0
  H  H37  1  0.16973000  0.81880000  0.03239000  1.0
  H  H38  1  0.68119000  0.66973000  0.78239000  1.0
  H  H39  1  0.31880000  0.33027000  0.28240000  1.0
  H  H40  1  0.58213000  0.67169000  0.39458000  1.0
  H  H41  1  0.41787000  0.32830000  0.89458000  1.0
  H  H42  1  0.82831000  0.08213000  0.14458000  1.0
  H  H43  1  0.17170000  0.91787000  0.64459000  1.0
  H  H44  1  0.91787000  0.17170000  0.35542000  1.0
  H  H45  1  0.08213000  0.82830000  0.85542000  1.0
  H  H46  1  0.67169000  0.58213000  0.60541000  1.0
  H  H47  1  0.32831000  0.41787000  0.10542000  1.0
  H  H48  1  0.75886000  0.69228000  0.42518000  1.0
  H  H49  1  0.24114000  0.30771000  0.92518000  1.0
  H  H50  1  0.80772000  0.25886000  0.17518000  1.0
  H  H51  1  0.19229000  0.74114000  0.67518000  1.0
  H  H52  1  0.74114000  0.19228000  0.32482000  1.0
  H  H53  1  0.25886000  0.80771000  0.82482000  1.0
  H  H54  1  0.69228000  0.75886000  0.57482000  1.0
  H  H55  1  0.30772000  0.24114000  0.07482000  1.0
  H  H56  1  0.88951000  0.71188000  0.35192000  1.0
  H  H57  1  0.11049000  0.28811000  0.85192000  1.0
  H  H58  1  0.78812000  0.38951000  0.10192000  1.0
  H  H59  1  0.21189000  0.61049000  0.60192000  1.0
  H  H60  1  0.61049000  0.21189000  0.39808000  1.0
  H  H61  1  0.38951000  0.78811000  0.89808000  1.0
  H  H62  1  0.71189000  0.88951000  0.64808000  1.0
  H  H63  1  0.28812000  0.11049000  0.14808000  1.0
  C  C64  1  0.14595000  0.68918000  0.21424000  1.0
  C  C65  1  0.85405000  0.31082000  0.71423000  1.0
  C  C66  1  0.81082000  0.64595000  0.96424000  1.0
  C  C67  1  0.18918000  0.35405000  0.46424000  1.0
  C  C68  1  0.35405000  0.18919000  0.53576000  1.0
  C  C69  1  0.64595000  0.81082000  0.03577000  1.0
  C  C70  1  0.68918000  0.14595000  0.78576000  1.0
  C  C71  1  0.31083000  0.85405000  0.28576000  1.0
  C  C72  1  0.03785000  0.70422000  0.20137000  1.0
  C  C73  1  0.96215000  0.29578000  0.70137000  1.0
  C  C74  1  0.79577000  0.53785000  0.95137000  1.0
  C  C75  1  0.20422000  0.46215000  0.45137000  1.0
  C  C76  1  0.46215000  0.20423000  0.54863000  1.0
  C  C77  1  0.53785000  0.79578000  0.04863000  1.0
  C  C78  1  0.70422000  0.03785000  0.79863000  1.0
  C  C79  1  0.29578000  0.96215000  0.29863000  1.0
  C  C80  1  0.96774000  0.68999000  0.24475000  1.0
  C  C81  1  0.03226000  0.31001000  0.74475000  1.0
  C  C82  1  0.81001000  0.46774000  0.99475000  1.0
  C  C83  1  0.18999000  0.53226000  0.49475000  1.0
  C  C84  1  0.53226000  0.18999000  0.50525000  1.0
  C  C85  1  0.46774000  0.81001000  0.00525000  1.0
  C  C86  1  0.68999000  0.96774000  0.75525000  1.0
  C  C87  1  0.31001000  0.03226000  0.25525000  1.0
  C  C88  1  0.86761000  0.70891000  0.23426000  1.0
  C  C89  1  0.13239000  0.29109000  0.73426000  1.0
  C  C90  1  0.79109000  0.36761000  0.98426000  1.0
  C  C91  1  0.20892000  0.63239000  0.48426000  1.0
  C  C92  1  0.63239000  0.20892000  0.51574000  1.0
  C  C93  1  0.36761000  0.79108000  0.01574000  1.0
  C  C94  1  0.70891000  0.86760000  0.76574000  1.0
  C  C95  1  0.29109000  0.13239000  0.26574000  1.0
  C  C96  1  0.84291000  0.74099000  0.17855000  1.0
  C  C97  1  0.15709000  0.25902000  0.67855000  1.0
  C  C98  1  0.75901000  0.34290000  0.92855000  1.0
  C  C99  1  0.24099000  0.65710000  0.42855000  1.0
  C  C100  1  0.65709000  0.24099000  0.57144000  1.0
  C  C101  1  0.34291000  0.75901000  0.07145000  1.0
  C  C102  1  0.74098000  0.84290000  0.82145000  1.0
  C  C103  1  0.25901000  0.15709000  0.32145000  1.0
  C  C104  1  0.00574000  0.73457000  0.14693000  1.0
  C  C105  1  0.99426000  0.26543000  0.64693000  1.0
  C  C106  1  0.76543000  0.50574000  0.89694000  1.0
  C  C107  1  0.23457000  0.49426000  0.39693000  1.0
  C  C108  1  0.49426000  0.23457000  0.60307000  1.0
  C  C109  1  0.50573000  0.76544000  0.10307000  1.0
  C  C110  1  0.73456000  0.00574000  0.85307000  1.0
  C  C111  1  0.26543000  0.99426000  0.35307000  1.0
  C  C112  1  0.79045000  0.69752000  0.27885000  1.0
  C  C113  1  0.20954000  0.30248000  0.77885000  1.0
  C  C114  1  0.80248000  0.29045000  0.02885000  1.0
  C  C115  1  0.19753000  0.70955000  0.52885000  1.0
  C  C116  1  0.70955000  0.19753000  0.47115000  1.0
  C  C117  1  0.29045000  0.80248000  0.97115000  1.0
  C  C118  1  0.69752000  0.79045000  0.72115000  1.0
  C  C119  1  0.30247000  0.20955000  0.22115000  1.0
  C  C120  1  0.69136000  0.68534000  0.26280000  1.0
  C  C121  1  0.30864000  0.31466000  0.76280000  1.0
  C  C122  1  0.81466000  0.19136000  0.01280000  1.0
  C  C123  1  0.18534000  0.80864000  0.51280000  1.0
  C  C124  1  0.80864000  0.18534000  0.48720000  1.0
  C  C125  1  0.19136000  0.81466000  0.98720000  1.0
  C  C126  1  0.68534000  0.69136000  0.73720000  1.0
  C  C127  1  0.31466000  0.30864000  0.23720000  1.0
  C  C128  1  0.61678000  0.67721000  0.30411000  1.0
  C  C129  1  0.38322000  0.32279000  0.80411000  1.0
  C  C130  1  0.82278000  0.11678000  0.05410000  1.0
  C  C131  1  0.17722000  0.88322000  0.55411000  1.0
  C  C132  1  0.88322000  0.17721000  0.44589000  1.0
  C  C133  1  0.11678000  0.82279000  0.94589000  1.0
  C  C134  1  0.67721000  0.61678000  0.69589000  1.0
  C  C135  1  0.32279000  0.38322000  0.19590000  1.0
  C  C136  1  0.64108000  0.67869000  0.36286000  1.0
  C  C137  1  0.35892000  0.32131000  0.86286000  1.0
  C  C138  1  0.82131000  0.14108000  0.11286000  1.0
  C  C139  1  0.17869000  0.85892000  0.61286000  1.0
  C  C140  1  0.85892000  0.17869000  0.38714000  1.0
  C  C141  1  0.14108000  0.82131000  0.88714000  1.0
  C  C142  1  0.67868000  0.64108000  0.63714000  1.0
  C  C143  1  0.32132000  0.35892000  0.13714000  1.0
  C  C144  1  0.73947000  0.69009000  0.37949000  1.0
  C  C145  1  0.26053000  0.30991000  0.87949000  1.0
  C  C146  1  0.80991000  0.23947000  0.12949000  1.0
  C  C147  1  0.19009000  0.76053000  0.62949000  1.0
  C  C148  1  0.76053000  0.19009000  0.37051000  1.0
  C  C149  1  0.23947000  0.80991000  0.87051000  1.0
  C  C150  1  0.69009000  0.73947000  0.62051000  1.0
  C  C151  1  0.30991000  0.26053000  0.12051000  1.0
  C  C152  1  0.81347000  0.70023000  0.33803000  1.0
  C  C153  1  0.18653000  0.29976000  0.83803000  1.0
  C  C154  1  0.79977000  0.31347000  0.08803000  1.0
  C  C155  1  0.20024000  0.68653000  0.58803000  1.0
  C  C156  1  0.68653000  0.20024000  0.41197000  1.0
  C  C157  1  0.31347000  0.79976000  0.91197000  1.0
  C  C158  1  0.70023000  0.81347000  0.66197000  1.0
  C  C159  1  0.29977000  0.18653000  0.16197000  1.0
  C  C160  1  0.51125000  0.66981000  0.28468000  1.0
  C  C161  1  0.48874000  0.33020000  0.78468000  1.0
  C  C162  1  0.83019000  0.01125000  0.03468000  1.0
  C  C163  1  0.16980000  0.98875000  0.53468000  1.0
  C  C164  1  0.98875000  0.16980000  0.46532000  1.0
  C  C165  1  0.01125000  0.83019000  0.96532000  1.0
  C  C166  1  0.66980000  0.51125000  0.71531000  1.0
  C  C167  1  0.33020000  0.48875000  0.21532000  1.0
  N  N168  1  0.90967000  0.75184000  0.13614000  1.0
  N  N169  1  0.09033000  0.24816000  0.63614000  1.0
  N  N170  1  0.74816000  0.40966000  0.88614000  1.0
  N  N171  1  0.25184000  0.59033000  0.38614000  1.0
  N  N172  1  0.59033000  0.25184000  0.61386000  1.0
  N  N173  1  0.40967000  0.74816000  0.11386000  1.0
  N  N174  1  0.75184000  0.90966000  0.86386000  1.0
  N  N175  1  0.24816000  0.09033000  0.36386000  1.0
  O  O176  1  0.20737000  0.71703000  0.17609000  1.0
  O  O177  1  0.79263000  0.28299000  0.67609000  1.0
  O  O178  1  0.78297000  0.70737000  0.92609000  1.0
  O  O179  1  0.21702000  0.29263000  0.42609000  1.0
  O  O180  1  0.29263000  0.21703000  0.57391000  1.0
  O  O181  1  0.70737000  0.78298000  0.07391000  1.0
  O  O182  1  0.71702000  0.20737000  0.82391000  1.0
  O  O183  1  0.28298000  0.79263000  0.32391000  1.0
  O  O184  1  0.16588000  0.65147000  0.26308000  1.0
  O  O185  1  0.83412000  0.34853000  0.76308000  1.0
  O  O186  1  0.84852000  0.66588000  0.01308000  1.0
  O  O187  1  0.15147000  0.33412000  0.51308000  1.0
  O  O188  1  0.33412000  0.15147000  0.48692000  1.0
  O  O189  1  0.66588000  0.84853000  0.98692000  1.0
  O  O190  1  0.65148000  0.16588000  0.73692000  1.0
  O  O191  1  0.34853000  0.83412000  0.23692000  1.0
  O  O192  1  0.49514000  0.67805000  0.23067000  1.0
  O  O193  1  0.50486000  0.32195000  0.73068000  1.0
  O  O194  1  0.82195000  0.99514000  0.98067000  1.0
  O  O195  1  0.17805000  0.00486000  0.48067000  1.0
  O  O196  1  0.00486000  0.17806000  0.51932000  1.0
  O  O197  1  0.99514000  0.82195000  0.01932000  1.0
  O  O198  1  0.67805000  0.49514000  0.76933000  1.0
  O  O199  1  0.32195000  0.50486000  0.26933000  1.0
  O  O200  1  0.44621000  0.65744000  0.32359000  1.0
  O  O201  1  0.55380000  0.34256000  0.82360000  1.0
  O  O202  1  0.84255000  0.94621000  0.07359000  1.0
  O  O203  1  0.15744000  0.05380000  0.57359000  1.0
  O  O204  1  0.05380000  0.15744000  0.42640000  1.0
  O  O205  1  0.94620000  0.84255000  0.92640000  1.0
  O  O206  1  0.65744000  0.44621000  0.67641000  1.0
  O  O207  1  0.34256000  0.55379000  0.17641000  1.0
