# generated using pymatgen
data_Zn4H21C40ClO14
_symmetry_space_group_name_H-M   'P 1'
_cell_length_a   15.09230000
_cell_length_b   15.22770000
_cell_length_c   19.50440000
_cell_angle_alpha   88.32240000
_cell_angle_beta   89.80470000
_cell_angle_gamma   88.24580000
_symmetry_Int_Tables_number   1
_chemical_formula_structural   Zn4H21C40ClO14
_chemical_formula_sum   'Zn4 H21 C40 Cl1 O14'
_cell_volume   4478.48575301
_cell_formula_units_Z   1
loop_
 _symmetry_equiv_pos_site_id
 _symmetry_equiv_pos_as_xyz
  1  'x, y, z'
loop_
 _atom_site_type_symbol
 _atom_site_label
 _atom_site_symmetry_multiplicity
 _atom_site_fract_x
 _atom_site_fract_y
 _atom_site_fract_z
 _atom_site_occupancy
  Zn  Zn0  1  0.43464000  0.57510000  0.43778000  1.0
  Zn  Zn1  1  0.42121000  0.42899000  0.55842000  1.0
  Zn  Zn2  1  0.57538000  0.57393000  0.55769000  1.0
  Zn  Zn3  1  0.57763000  0.41830000  0.44955000  1.0
  H  H4  1  0.40586000  0.58383000  0.22793000  1.0
  H  H5  1  0.61263000  0.56270000  0.76957000  1.0
  H  H6  1  0.00191000  0.69079000  0.49707000  1.0
  H  H7  1  0.83872000  0.33900000  0.50921000  1.0
  H  H8  1  0.85346000  0.62050000  0.51075000  1.0
  H  H9  1  0.35131000  0.45941000  0.76511000  1.0
  H  H10  1  0.40196000  0.51788000  0.00030000  1.0
  H  H11  1  0.64408000  0.41070000  0.11200000  1.0
  H  H12  1  0.60623000  0.56574000  0.89717000  1.0
  H  H13  1  0.63042000  0.40406000  0.23951000  1.0
  H  H14  1  0.60413000  0.48616000  0.00139000  1.0
  H  H15  1  0.34235000  0.46530000  0.89273000  1.0
  H  H16  1  0.41852000  0.59114000  0.10065000  1.0
  H  H17  1  0.23390000  0.67196000  0.47458000  1.0
  H  H18  1  0.48697000  0.16315000  0.62496000  1.0
  H  H19  1  0.49714000  0.99342000  0.35408000  1.0
  H  H20  1  0.50004000  0.00007000  0.63967000  1.0
  H  H21  1  0.50373000  0.83088000  0.36938000  1.0
  H  H22  1  0.51531000  0.85350000  0.58815000  1.0
  H  H23  1  0.15088000  0.39401000  0.50953000  1.0
  H  H24  1  0.00396000  0.32380000  0.51066000  1.0
  C  C25  1  0.49223000  0.26117000  0.51126000  1.0
  C  C26  1  0.53809000  0.50050000  0.02239000  1.0
  C  C27  1  0.46893000  0.51248000  0.97884000  1.0
  C  C28  1  0.51185000  0.73530000  0.48754000  1.0
  C  C29  1  0.48291000  0.50966000  0.75986000  1.0
  C  C30  1  0.49180000  0.16282000  0.51461000  1.0
  C  C31  1  0.51025000  0.83307000  0.48006000  1.0
  C  C32  1  0.50016000  0.96298000  0.40523000  1.0
  C  C33  1  0.50437000  0.87297000  0.41353000  1.0
  C  C34  1  0.51079000  0.88475000  0.53718000  1.0
  C  C35  1  0.50333000  0.97753000  0.53044000  1.0
  C  C36  1  0.53082000  0.49956000  0.09704000  1.0
  C  C37  1  0.49904000  0.01781000  0.46287000  1.0
  C  C38  1  0.49409000  0.11147000  0.45677000  1.0
  C  C39  1  0.49176000  0.12115000  0.58074000  1.0
  C  C40  1  0.26544000  0.52102000  0.49623000  1.0
  C  C41  1  0.49860000  0.03129000  0.58864000  1.0
  C  C42  1  0.16779000  0.53231000  0.49848000  1.0
  C  C43  1  0.83775000  0.48127000  0.51059000  1.0
  C  C44  1  0.97081000  0.38850000  0.51001000  1.0
  C  C45  1  0.87990000  0.39642000  0.50971000  1.0
  C  C46  1  0.88726000  0.55623000  0.51006000  1.0
  C  C47  1  0.59159000  0.44856000  0.13738000  1.0
  C  C48  1  0.98121000  0.55023000  0.50623000  1.0
  C  C49  1  0.02367000  0.46426000  0.50782000  1.0
  C  C50  1  0.11687000  0.45821000  0.50606000  1.0
  C  C51  1  0.12487000  0.61779000  0.49288000  1.0
  C  C52  1  0.73902000  0.48851000  0.50919000  1.0
  C  C53  1  0.03343000  0.62540000  0.49926000  1.0
  C  C54  1  0.48805000  0.50659000  0.68370000  1.0
  C  C55  1  0.50978000  0.49061000  0.31751000  1.0
  C  C56  1  0.51666000  0.49269000  0.24134000  1.0
  C  C57  1  0.45681000  0.54514000  0.20180000  1.0
  C  C58  1  0.58420000  0.44440000  0.20842000  1.0
  C  C59  1  0.46381000  0.54845000  0.13081000  1.0
  C  C60  1  0.55075000  0.54109000  0.86847000  1.0
  C  C61  1  0.55454000  0.54000000  0.79736000  1.0
  C  C62  1  0.40655000  0.48257000  0.79473000  1.0
  C  C63  1  0.40206000  0.48588000  0.86576000  1.0
  C  C64  1  0.47465000  0.51336000  0.90417000  1.0
  Cl  Cl65  1  0.48654000  0.15938000  0.37542000  1.0
  O  O66  1  0.50200000  0.49890000  0.50213000  1.0
  O  O67  1  0.42601000  0.46730000  0.65337000  1.0
  O  O68  1  0.56895000  0.44528000  0.35086000  1.0
  O  O69  1  0.55422000  0.54298000  0.65474000  1.0
  O  O70  1  0.44521000  0.53481000  0.34384000  1.0
  O  O71  1  0.17146000  0.69166000  0.48297000  1.0
  O  O72  1  0.30969000  0.58604000  0.47055000  1.0
  O  O73  1  0.69970000  0.42452000  0.48268000  1.0
  O  O74  1  0.44295000  0.30106000  0.55461000  1.0
  O  O75  1  0.54312000  0.69996000  0.54289000  1.0
  O  O76  1  0.54366000  0.29628000  0.46745000  1.0
  O  O77  1  0.48048000  0.69443000  0.43707000  1.0
  O  O78  1  0.30067000  0.44921000  0.51917000  1.0
  O  O79  1  0.70154000  0.55722000  0.53384000  1.0
