# generated using pymatgen
data_Al6H17C72I3O40
_symmetry_space_group_name_H-M   'P 1'
_cell_length_a   12.66030000
_cell_length_b   12.71650000
_cell_length_c   26.78700000
_cell_angle_alpha   82.18600000
_cell_angle_beta   82.34810000
_cell_angle_gamma   65.47080000
_symmetry_Int_Tables_number   1
_chemical_formula_structural   Al6H17C72I3O40
_chemical_formula_sum   'Al6 H17 C72 I3 O40'
_cell_volume   3872.82191772
_cell_formula_units_Z   1
loop_
 _symmetry_equiv_pos_site_id
 _symmetry_equiv_pos_as_xyz
  1  'x, y, z'
loop_
 _atom_site_type_symbol
 _atom_site_label
 _atom_site_symmetry_multiplicity
 _atom_site_fract_x
 _atom_site_fract_y
 _atom_site_fract_z
 _atom_site_occupancy
  Al  Al0  1  0.39458000  0.42187000  0.51050000  1.0
  Al  Al1  1  0.64086000  0.44300000  0.49187000  1.0
  Al  Al2  1  0.42319000  0.66371000  0.49771000  1.0
  Al  Al3  1  0.92860000  0.93555000  0.97654000  1.0
  Al  Al4  1  0.89613000  0.69573000  0.99668000  1.0
  Al  Al5  1  0.68054000  0.91834000  0.99072000  1.0
  H  H6  1  0.82979000  0.09828000  0.27479000  1.0
  H  H7  1  0.47586000  0.75704000  0.78494000  1.0
  H  H8  1  0.57926000  0.85670000  0.70229000  1.0
  H  H9  1  0.76798000  0.46730000  0.78741000  1.0
  H  H10  1  0.78839000  0.77374000  0.75200000  1.0
  H  H11  1  0.30526000  0.76880000  0.24908000  1.0
  H  H12  1  0.34419000  0.57483000  0.19702000  1.0
  H  H13  1  0.45807000  0.30519000  0.19978000  1.0
  H  H14  1  0.49904000  0.13709000  0.28488000  1.0
  H  H15  1  0.82705000  0.82230000  0.20818000  1.0
  H  H16  1  0.44222000  0.50031000  0.70491000  1.0
  H  H17  1  0.99891000  0.45044000  0.65148000  1.0
  H  H18  1  0.81473000  0.80029000  0.33570000  1.0
  H  H19  1  0.85372000  0.62580000  0.21438000  1.0
  H  H20  1  0.54219000  0.56753000  0.27746000  1.0
  H  H21  1  0.30932000  0.30023000  0.55357000  1.0
  H  H22  1  0.02670000  0.04549000  0.99356000  1.0
  C  C23  1  0.59023000  0.31515000  0.43067000  1.0
  C  C24  1  0.63655000  0.69697000  0.26754000  1.0
  C  C25  1  0.63160000  0.68495000  0.31817000  1.0
  C  C26  1  0.62456000  0.66887000  0.36446000  1.0
  C  C27  1  0.06107000  0.74697000  0.27310000  1.0
  C  C28  1  0.12052000  0.79737000  0.22650000  1.0
  C  C29  1  0.08698000  0.70798000  0.10391000  1.0
  C  C30  1  0.23000000  0.66052000  0.39022000  1.0
  C  C31  1  0.08405000  0.63759000  0.24507000  1.0
  C  C32  1  0.14159000  0.68917000  0.19688000  1.0
  C  C33  1  0.20633000  0.57342000  0.26625000  1.0
  C  C34  1  0.60086000  0.63642000  0.41693000  1.0
  C  C35  1  0.18491000  0.68194000  0.29561000  1.0
  C  C36  1  0.26391000  0.62377000  0.21928000  1.0
  C  C37  1  0.24241000  0.73124000  0.24765000  1.0
  C  C38  1  0.11586000  0.69540000  0.14663000  1.0
  C  C39  1  0.20604000  0.67574000  0.34655000  1.0
  C  C40  1  0.56279000  0.16694000  0.26374000  1.0
  C  C41  1  0.54052000  0.25823000  0.21688000  1.0
  C  C42  1  0.68873000  0.11666000  0.09498000  1.0
  C  C43  1  0.61188000  0.27023000  0.38227000  1.0
  C  C44  1  0.67848000  0.08604000  0.23608000  1.0
  C  C45  1  0.27906000  0.62912000  0.43833000  1.0
  C  C46  1  0.65691000  0.17764000  0.18750000  1.0
  C  C47  1  0.74684000  0.14588000  0.25825000  1.0
  C  C48  1  0.63022000  0.22556000  0.28764000  1.0
  C  C49  1  0.72357000  0.23716000  0.21161000  1.0
  C  C50  1  0.60581000  0.31868000  0.23991000  1.0
  C  C51  1  0.67221000  0.14808000  0.13737000  1.0
  C  C52  1  0.61961000  0.24918000  0.33859000  1.0
  C  C53  1  0.62132000  0.77037000  0.72173000  1.0
  C  C54  1  0.56419000  0.71605000  0.76705000  1.0
  C  C55  1  0.69393000  0.69852000  0.88940000  1.0
  C  C56  1  0.60192000  0.30038000  0.57351000  1.0
  C  C57  1  0.64727000  0.63917000  0.59954000  1.0
  C  C58  1  0.73627000  0.72530000  0.74855000  1.0
  C  C59  1  0.67889000  0.67051000  0.79546000  1.0
  C  C60  1  0.78375000  0.60962000  0.72284000  1.0
  C  C61  1  0.66824000  0.65470000  0.69434000  1.0
  C  C62  1  0.72617000  0.55451000  0.76872000  1.0
  C  C63  1  0.61223000  0.59839000  0.74150000  1.0
  C  C64  1  0.68621000  0.68318000  0.84631000  1.0
  C  C65  1  0.65911000  0.64641000  0.64319000  1.0
  C  C66  1  0.09835000  0.69554000  0.86643000  1.0
  C  C67  1  0.61665000  0.61765000  0.55369000  1.0
  C  C68  1  0.12925000  0.68150000  0.82157000  1.0
  C  C69  1  0.15943000  0.66941000  0.77216000  1.0
  C  C70  1  0.18273000  0.66180000  0.72625000  1.0
  C  C71  1  0.21043000  0.65242000  0.67655000  1.0
  C  C72  1  0.23888000  0.64332000  0.63121000  1.0
  C  C73  1  0.70701000  0.10076000  0.85718000  1.0
  C  C74  1  0.69281000  0.13185000  0.81228000  1.0
  C  C75  1  0.67832000  0.16277000  0.76298000  1.0
  C  C76  1  0.66609000  0.18830000  0.71737000  1.0
  C  C77  1  0.65012000  0.21841000  0.66814000  1.0
  C  C78  1  0.28873000  0.61898000  0.58051000  1.0
  C  C79  1  0.63379000  0.24767000  0.62326000  1.0
  C  C80  1  0.03454000  0.73647000  0.05669000  1.0
  C  C81  1  0.70332000  0.74083000  0.07186000  1.0
  C  C82  1  0.71990000  0.06011000  0.04903000  1.0
  C  C83  1  0.04319000  0.72733000  0.91575000  1.0
  C  C84  1  0.71603000  0.72934000  0.93509000  1.0
  C  C85  1  0.73324000  0.04882000  0.90761000  1.0
  C  C86  1  0.66816000  0.71879000  0.12411000  1.0
  C  C87  1  0.65074000  0.71046000  0.17034000  1.0
  C  C88  1  0.63915000  0.70243000  0.22101000  1.0
  C  C89  1  0.71862000  0.95810000  0.23981000  1.0
  C  C90  1  0.54236000  0.52843000  0.74293000  1.0
  C  C91  1  0.90662000  0.55013000  0.70181000  1.0
  C  C92  1  0.95302000  0.81320000  0.30442000  1.0
  C  C93  1  0.99742000  0.58838000  0.24210000  1.0
  C  C94  1  0.56640000  0.44608000  0.23791000  1.0
  I  I95  1  0.05660000  0.97039000  0.19421000  1.0
  I  I96  1  0.84705000  0.29563000  0.17111000  1.0
  I  I97  1  0.27756000  0.40347000  0.30158000  1.0
  O  O98  1  0.29665000  0.52888000  0.45912000  1.0
  O  O99  1  0.68393000  0.52358000  0.53395000  1.0
  O  O100  1  0.52055000  0.69135000  0.53696000  1.0
  O  O101  1  0.31547000  0.69816000  0.55364000  1.0
  O  O102  1  0.48720000  0.51078000  0.49994000  1.0
  O  O103  1  0.82084000  0.03840000  0.02759000  1.0
  O  O104  1  0.01553000  0.83580000  0.03450000  1.0
  O  O105  1  0.00723000  0.65870000  0.04223000  1.0
  O  O106  1  0.80207000  0.66820000  0.05481000  1.0
  O  O107  1  0.63629000  0.83394000  0.04835000  1.0
  O  O108  1  0.64235000  0.03199000  0.03459000  1.0
  O  O109  1  0.49308000  0.33186000  0.45514000  1.0
  O  O110  1  0.83416000  0.02452000  0.91971000  1.0
  O  O111  1  0.02668000  0.82660000  0.92675000  1.0
  O  O112  1  0.01130000  0.65268000  0.94355000  1.0
  O  O113  1  0.80674000  0.65848000  0.95674000  1.0
  O  O114  1  0.64657000  0.82860000  0.94979000  1.0
  O  O115  1  0.65127000  0.02821000  0.93537000  1.0
  O  O116  1  0.83390000  0.84872000  0.98851000  1.0
  O  O117  1  0.67145000  0.33898000  0.44447000  1.0
  O  O118  1  0.67255000  0.53922000  0.43557000  1.0
  O  O119  1  0.50635000  0.70509000  0.43900000  1.0
  O  O120  1  0.30572000  0.70501000  0.45478000  1.0
  O  O121  1  0.30591000  0.52131000  0.56724000  1.0
  O  O122  1  0.49962000  0.32254000  0.56355000  1.0
  O  O123  1  0.67953000  0.32455000  0.54410000  1.0
  O  O124  1  0.68586000  0.90505000  0.27589000  1.0
  O  O125  1  0.79604000  0.90812000  0.20156000  1.0
  O  O126  1  0.53108000  0.46536000  0.77999000  1.0
  O  O127  1  0.49022000  0.54543000  0.69967000  1.0
  O  O128  1  0.98914000  0.55644000  0.71815000  1.0
  O  O129  1  0.91599000  0.48704000  0.66319000  1.0
  O  O130  1  0.92448000  0.91325000  0.31357000  1.0
  O  O131  1  0.89150000  0.74843000  0.32124000  1.0
  O  O132  1  0.00357000  0.49332000  0.25993000  1.0
  O  O133  1  0.90719000  0.66389000  0.21442000  1.0
  O  O134  1  0.54103000  0.51019000  0.19887000  1.0
  O  O135  1  0.56310000  0.48361000  0.28319000  1.0
  O  O136  1  0.30757000  0.34320000  0.52081000  1.0
  O  O137  1  0.01605000  0.01348000  0.96484000  1.0
