# generated using pymatgen
data_AlH7C9N2O5
_symmetry_space_group_name_H-M   'P 1'
_cell_length_a   6.67216000
_cell_length_b   8.77693000
_cell_length_c   16.93957580
_cell_angle_alpha   101.79598919
_cell_angle_beta   97.61426037
_cell_angle_gamma   104.17620000
_symmetry_Int_Tables_number   1
_chemical_formula_structural   AlH7C9N2O5
_chemical_formula_sum   'Al2 H14 C18 N4 O10'
_cell_volume   923.89567273
_cell_formula_units_Z   2
loop_
 _symmetry_equiv_pos_site_id
 _symmetry_equiv_pos_as_xyz
  1  'x, y, z'
loop_
 _atom_site_type_symbol
 _atom_site_label
 _atom_site_symmetry_multiplicity
 _atom_site_fract_x
 _atom_site_fract_y
 _atom_site_fract_z
 _atom_site_occupancy
  Al  Al0  1  0.49968000  0.99928000  0.50011000  1.0
  Al  Al1  1  0.99970000  0.99935000  0.50013000  1.0
  H  H2  1  0.22686000  0.03205000  0.40098000  1.0
  H  H3  1  0.77241000  0.96656000  0.59930000  1.0
  H  H4  1  0.11876000  0.30999000  0.72913000  1.0
  H  H5  1  0.21142333  0.45967000  0.87809000  1.0
  H  H6  1  0.78704000  0.32043000  0.90323000  1.0
  H  H7  1  0.69701000  0.17399000  0.75333000  1.0
  H  H8  1  0.21477000  0.68288000  0.09652000  1.0
  H  H9  1  0.78860000  0.54114000  0.12171000  1.0
  H  H10  1  0.88067000  0.68947000  0.27086000  1.0
  H  H11  1  0.30402000  0.82766000  0.24664000  1.0
  H  H12  1  0.75322000  0.63518000  0.48739000  1.0
  H  H13  1  0.58380000  0.43876000  0.46254000  1.0
  H  H14  1  0.24648000  0.36352000  0.51260000  1.0
  H  H15  1  0.41551000  0.55997000  0.53743000  1.0
  C  C16  1  0.83569000  0.27849000  0.48885000  1.0
  C  C17  1  0.65679000  0.85983000  0.35517000  1.0
  C  C18  1  0.16362000  0.72011000  0.51126000  1.0
  C  C19  1  0.34299000  0.13971000  0.64496000  1.0
  C  C20  1  0.40104000  0.23097000  0.73298000  1.0
  C  C21  1  0.26401000  0.31215000  0.76798000  1.0
  C  C22  1  0.31440000  0.39486000  0.85015000  1.0
  C  C23  1  0.50305000  0.39566000  0.89907000  1.0
  C  C24  1  0.64172000  0.31710000  0.86397000  1.0
  C  C25  1  0.59127000  0.23579000  0.78129000  1.0
  C  C26  1  0.35955000  0.68534000  0.13582000  1.0
  C  C27  1  0.49794000  0.60651000  0.10068000  1.0
  C  C28  1  0.68587000  0.60620000  0.14966000  1.0
  C  C29  1  0.73599000  0.68819000  0.23195000  1.0
  C  C30  1  0.59920000  0.76956000  0.26700000  1.0
  C  C31  1  0.40960000  0.76576000  0.21863000  1.0
  C  C32  1  0.89440000  0.45422000  0.49441000  1.0
  C  C33  1  0.10496000  0.54432000  0.50555000  1.0
  N  N34  1  0.56812000  0.47237000  0.98371000  1.0
  N  N35  1  0.43308000  0.53022000  0.01598000  1.0
  N  N36  1  0.72519000  0.51817000  0.49125000  1.0
  N  N37  1  0.27428000  0.48044000  0.50860000  1.0
  O  O38  1  0.64180000  0.20953000  0.48719000  1.0
  O  O39  1  0.84859000  0.89094000  0.39029000  1.0
  O  O40  1  0.01996000  0.79417000  0.51520000  1.0
  O  O41  1  0.48792000  0.09883000  0.61112000  1.0
  O  O42  1  0.35754000  0.78913000  0.51302000  1.0
  O  O43  1  0.15105000  0.10824000  0.60993000  1.0
  O  O44  1  0.97937000  0.20448000  0.48495000  1.0
  O  O45  1  0.51166000  0.90022000  0.38906000  1.0
  O  O46  1  0.24748000  0.03531000  0.45904000  1.0
  O  O47  1  0.75193000  0.96330000  0.54124000  1.0
