# generated using pymatgen
data_AgH8C14(NO)3
_symmetry_space_group_name_H-M   'P 1'
_cell_length_a   8.56678000
_cell_length_b   9.38537000
_cell_length_c   9.73244000
_cell_angle_alpha   90.71330000
_cell_angle_beta   112.48800000
_cell_angle_gamma   116.92300000
_symmetry_Int_Tables_number   1
_chemical_formula_structural   AgH8C14(NO)3
_chemical_formula_sum   'Ag2 H16 C28 N6 O6'
_cell_volume   628.06639066
_cell_formula_units_Z   2
loop_
 _symmetry_equiv_pos_site_id
 _symmetry_equiv_pos_as_xyz
  1  'x, y, z'
loop_
 _atom_site_type_symbol
 _atom_site_label
 _atom_site_symmetry_multiplicity
 _atom_site_fract_x
 _atom_site_fract_y
 _atom_site_fract_z
 _atom_site_occupancy
  Ag  Ag0  1  0.71021000  0.52731000  0.60197000  1.0
  Ag  Ag1  1  0.28978000  0.47269000  0.39803000  1.0
  H  H2  1  0.83892000  0.11146000  0.80873000  1.0
  H  H3  1  0.16107000  0.88854000  0.19127000  1.0
  H  H4  1  0.71486000  0.02737000  0.00333000  1.0
  H  H5  1  0.28514000  0.97264000  0.99667000  1.0
  H  H6  1  0.63608000  0.74855000  0.05672000  1.0
  H  H7  1  0.36394000  0.25146000  0.94329000  1.0
  H  H8  1  0.65558000  0.55403000  0.89126000  1.0
  H  H9  1  0.34443000  0.44598000  0.10875000  1.0
  H  H10  1  0.75503000  0.15024000  0.23057000  1.0
  H  H11  1  0.24495000  0.84975000  0.76943000  1.0
  H  H12  1  0.88731000  0.36856000  0.09115000  1.0
  H  H13  1  0.11268000  0.63143000  0.90884000  1.0
  H  H14  1  0.93017000  0.64460000  0.16510000  1.0
  H  H15  1  0.06985000  0.35540000  0.83490000  1.0
  H  H16  1  0.83956000  0.69495000  0.36871000  1.0
  H  H17  1  0.16046000  0.30505000  0.63129000  1.0
  C  C18  1  0.89552000  0.92462000  0.64225000  1.0
  C  C19  1  0.10449000  0.07537000  0.35776000  1.0
  C  C20  1  0.96400000  0.97434000  0.55112000  1.0
  C  C21  1  0.03602000  0.02562000  0.44889000  1.0
  C  C22  1  0.82029000  0.87837000  0.75087000  1.0
  C  C23  1  0.17971000  0.12162000  0.24913000  1.0
  C  C24  1  0.80394000  0.99085000  0.83363000  1.0
  C  C25  1  0.19606000  0.00915000  0.16637000  1.0
  C  C26  1  0.73536000  0.94383000  0.94297000  1.0
  C  C27  1  0.26463000  0.05617000  0.05703000  1.0
  C  C28  1  0.68759000  0.78716000  0.97003000  1.0
  C  C29  1  0.31242000  0.21285000  0.02997000  1.0
  C  C30  1  0.70058000  0.68028000  0.88028000  1.0
  C  C31  1  0.29943000  0.31973000  0.11973000  1.0
  C  C32  1  0.55310000  0.06614000  0.47949000  1.0
  C  C33  1  0.44689000  0.93387000  0.52050000  1.0
  C  C34  1  0.64613000  0.18771000  0.44053000  1.0
  C  C35  1  0.35385000  0.81229000  0.55946000  1.0
  C  C36  1  0.73233000  0.31146000  0.37095000  1.0
  C  C37  1  0.26766000  0.68854000  0.62905000  1.0
  C  C38  1  0.78015000  0.27394000  0.25755000  1.0
  C  C39  1  0.21984000  0.72606000  0.74245000  1.0
  C  C40  1  0.85239000  0.39400000  0.18190000  1.0
  C  C41  1  0.14761000  0.60598000  0.81810000  1.0
  C  C42  1  0.87349000  0.54741000  0.22119000  1.0
  C  C43  1  0.12651000  0.45258000  0.77881000  1.0
  C  C44  1  0.82597000  0.57709000  0.33613000  1.0
  C  C45  1  0.17404000  0.42291000  0.66387000  1.0
  N  N46  1  0.76272000  0.72213000  0.77165000  1.0
  N  N47  1  0.23728000  0.27787000  0.22836000  1.0
  N  N48  1  0.75795000  0.46284000  0.41158000  1.0
  N  N49  1  0.24206000  0.53717000  0.58842000  1.0
  N  N50  1  0.58007000  0.26076000  0.78374000  1.0
  N  N51  1  0.41993000  0.73925000  0.21625000  1.0
  O  O52  1  0.76134000  0.33381000  0.81867000  1.0
  O  O53  1  0.23866000  0.66619000  0.18133000  1.0
  O  O54  1  0.47360000  0.31084000  0.69085000  1.0
  O  O55  1  0.52641000  0.68916000  0.30913000  1.0
  O  O56  1  0.50648000  0.14273000  0.84074000  1.0
  O  O57  1  0.49352000  0.85728000  0.15926000  1.0
