# generated using pymatgen
data_CdH16C22N4O5
_symmetry_space_group_name_H-M   'P 1'
_cell_length_a   12.66490000
_cell_length_b   13.94220000
_cell_length_c   13.94230000
_cell_angle_alpha   100.48700000
_cell_angle_beta   98.28890000
_cell_angle_gamma   98.28860000
_symmetry_Int_Tables_number   1
_chemical_formula_structural   CdH16C22N4O5
_chemical_formula_sum   'Cd4 H64 C88 N16 O20'
_cell_volume   2358.45453112
_cell_formula_units_Z   4
loop_
 _symmetry_equiv_pos_site_id
 _symmetry_equiv_pos_as_xyz
  1  'x, y, z'
loop_
 _atom_site_type_symbol
 _atom_site_label
 _atom_site_symmetry_multiplicity
 _atom_site_fract_x
 _atom_site_fract_y
 _atom_site_fract_z
 _atom_site_occupancy
  Cd  Cd0  1  0.42341000  0.31619000  0.42003000  1.0
  Cd  Cd1  1  0.07659000  0.57997000  0.68381000  1.0
  Cd  Cd2  1  0.57659000  0.68381000  0.57998000  1.0
  Cd  Cd3  1  0.92341000  0.42002000  0.31619000  1.0
  H  H4  1  0.61259000  0.15404000  0.63982000  1.0
  H  H5  1  0.68324000  0.05149000  0.75662000  1.0
  H  H6  1  0.83993000  0.00024000  0.85013000  1.0
  H  H7  1  0.02845000  0.06375000  0.83028000  1.0
  H  H8  1  0.06011000  0.17322000  0.71210000  1.0
  H  H9  1  0.98614000  0.25339000  0.57926000  1.0
  H  H10  1  0.36219000  0.11619000  0.48195000  1.0
  H  H11  1  0.20324000  0.99898000  0.51043000  1.0
  H  H12  1  0.99394000  0.18273000  0.39020000  1.0
  H  H13  1  0.16151000  0.29474000  0.37119000  1.0
  H  H14  1  0.59983000  0.19146000  0.32269000  1.0
  H  H15  1  0.61488000  0.06929000  0.17164000  1.0
  H  H16  1  0.29188000  0.09714000  0.04460000  1.0
  H  H17  1  0.28953000  0.21983000  0.20286000  1.0
  H  H18  1  0.45874000  0.46583000  0.59240000  1.0
  H  H19  1  0.35865000  0.48503000  0.52555000  1.0
  H  H20  1  0.88741000  0.36017000  0.84595000  1.0
  H  H21  1  0.81676000  0.24338000  0.94850000  1.0
  H  H22  1  0.66008000  0.14988000  0.99975000  1.0
  H  H23  1  0.47155000  0.16973000  0.93625000  1.0
  H  H24  1  0.43989000  0.28792000  0.82678000  1.0
  H  H25  1  0.51387000  0.42075000  0.74661000  1.0
  H  H26  1  0.13781000  0.51805000  0.88380000  1.0
  H  H27  1  0.29677000  0.48957000  0.00101000  1.0
  H  H28  1  0.50607000  0.60980000  0.81728000  1.0
  H  H29  1  0.33850000  0.62882000  0.70526000  1.0
  H  H30  1  0.90018000  0.67731000  0.80854000  1.0
  H  H31  1  0.88512000  0.82835000  0.93071000  1.0
  H  H32  1  0.20812000  0.95540000  0.90287000  1.0
  H  H33  1  0.21048000  0.79714000  0.78018000  1.0
  H  H34  1  0.04127000  0.40760000  0.53418000  1.0
  H  H35  1  0.14135000  0.47445000  0.51497000  1.0
  H  H36  1  0.38741000  0.84596000  0.36018000  1.0
  H  H37  1  0.31676000  0.94850000  0.24338000  1.0
  H  H38  1  0.16008000  0.99975000  0.14987000  1.0
  H  H39  1  0.97155000  0.93625000  0.16972000  1.0
  H  H40  1  0.93989000  0.82678000  0.28790000  1.0
  H  H41  1  0.01386000  0.74661000  0.42074000  1.0
  H  H42  1  0.63781000  0.88381000  0.51805000  1.0
  H  H43  1  0.79676000  0.00101000  0.48956000  1.0
  H  H44  1  0.00607000  0.81727000  0.60980000  1.0
  H  H45  1  0.83849000  0.70526000  0.62882000  1.0
  H  H46  1  0.40017000  0.80855000  0.67731000  1.0
  H  H47  1  0.38512000  0.93072000  0.82835000  1.0
  H  H48  1  0.70811000  0.90285000  0.95541000  1.0
  H  H49  1  0.71046000  0.78017000  0.79714000  1.0
  H  H50  1  0.54126000  0.53418000  0.40760000  1.0
  H  H51  1  0.64135000  0.51497000  0.47445000  1.0
  H  H52  1  0.11259000  0.63983000  0.15404000  1.0
  H  H53  1  0.18323000  0.75661000  0.05149000  1.0
  H  H54  1  0.33991000  0.85012000  0.00024000  1.0
  H  H55  1  0.52844000  0.83027000  0.06374000  1.0
  H  H56  1  0.56010000  0.71209000  0.17321000  1.0
  H  H57  1  0.48613000  0.57925000  0.25338000  1.0
  H  H58  1  0.86219000  0.48195000  0.11619000  1.0
  H  H59  1  0.70324000  0.51043000  0.99898000  1.0
  H  H60  1  0.49394000  0.39019000  0.18272000  1.0
  H  H61  1  0.66151000  0.37118000  0.29474000  1.0
  H  H62  1  0.09982000  0.32269000  0.19146000  1.0
  H  H63  1  0.11488000  0.17166000  0.06929000  1.0
  H  H64  1  0.79188000  0.04460000  0.09714000  1.0
  H  H65  1  0.78953000  0.20286000  0.21983000  1.0
  H  H66  1  0.95873000  0.59240000  0.46582000  1.0
  H  H67  1  0.85865000  0.52555000  0.48503000  1.0
  C  C68  1  0.61494000  0.27056000  0.51033000  1.0
  C  C69  1  0.71083000  0.23230000  0.55718000  1.0
  C  C70  1  0.69466000  0.17428000  0.62617000  1.0
  C  C71  1  0.78153000  0.14172000  0.67986000  1.0
  C  C72  1  0.76565000  0.07777000  0.74680000  1.0
  C  C73  1  0.85304000  0.04960000  0.79898000  1.0
  C  C74  1  0.95987000  0.08530000  0.78773000  1.0
  C  C75  1  0.97796000  0.14672000  0.72239000  1.0
  C  C76  1  0.88968000  0.17512000  0.66623000  1.0
  C  C77  1  0.90449000  0.23206000  0.59347000  1.0
  C  C78  1  0.81776000  0.25701000  0.53686000  1.0
  C  C79  1  0.83816000  0.29703000  0.44737000  1.0
  C  C80  1  0.27896000  0.12803000  0.46407000  1.0
  C  C81  1  0.19176000  0.06410000  0.48012000  1.0
  C  C82  1  0.08740000  0.08435000  0.45423000  1.0
  C  C83  1  0.07436000  0.16630000  0.41170000  1.0
  C  C84  1  0.16649000  0.22815000  0.40107000  1.0
  C  C85  1  0.53255000  0.16797000  0.26028000  1.0
  C  C86  1  0.54188000  0.10132000  0.17613000  1.0
  C  C87  1  0.45490000  0.07615000  0.09644000  1.0
  C  C88  1  0.36099000  0.11673000  0.10526000  1.0
  C  C89  1  0.35879000  0.18319000  0.19222000  1.0
  C  C90  1  0.88506000  0.48967000  0.72943000  1.0
  C  C91  1  0.78917000  0.44282000  0.76769000  1.0
  C  C92  1  0.80533000  0.37383000  0.82571000  1.0
  C  C93  1  0.71847000  0.32014000  0.85827000  1.0
  C  C94  1  0.73435000  0.25320000  0.92222000  1.0
  C  C95  1  0.64696000  0.20102000  0.95040000  1.0
  C  C96  1  0.54013000  0.21228000  0.91469000  1.0
  C  C97  1  0.52205000  0.27762000  0.85328000  1.0
  C  C98  1  0.61032000  0.33377000  0.82487000  1.0
  C  C99  1  0.59551000  0.40653000  0.76793000  1.0
  C  C100  1  0.68224000  0.46314000  0.74298000  1.0
  C  C101  1  0.66184000  0.55263000  0.70297000  1.0
  C  C102  1  0.22105000  0.53593000  0.87197000  1.0
  C  C103  1  0.30825000  0.51988000  0.93589000  1.0
  C  C104  1  0.41261000  0.54577000  0.91565000  1.0
  C  C105  1  0.42565000  0.58830000  0.83371000  1.0
  C  C106  1  0.33352000  0.59894000  0.77185000  1.0
  C  C107  1  0.96745000  0.73972000  0.83203000  1.0
  C  C108  1  0.95812000  0.82387000  0.89868000  1.0
  C  C109  1  0.04510000  0.90357000  0.92385000  1.0
  C  C110  1  0.13901000  0.89474000  0.88328000  1.0
  C  C111  1  0.14121000  0.80779000  0.81681000  1.0
  C  C112  1  0.38505000  0.72944000  0.48967000  1.0
  C  C113  1  0.28917000  0.76769000  0.44282000  1.0
  C  C114  1  0.30533000  0.82571000  0.37383000  1.0
  C  C115  1  0.21847000  0.85827000  0.32014000  1.0
  C  C116  1  0.23435000  0.92223000  0.25320000  1.0
  C  C117  1  0.14696000  0.95040000  0.20102000  1.0
  C  C118  1  0.04013000  0.91470000  0.21227000  1.0
  C  C119  1  0.02204000  0.85328000  0.27760000  1.0
  C  C120  1  0.11032000  0.82488000  0.33376000  1.0
  C  C121  1  0.09551000  0.76794000  0.40653000  1.0
  C  C122  1  0.18223000  0.74299000  0.46314000  1.0
  C  C123  1  0.16184000  0.70297000  0.55263000  1.0
  C  C124  1  0.72105000  0.87197000  0.53593000  1.0
  C  C125  1  0.80824000  0.93589000  0.51988000  1.0
  C  C126  1  0.91261000  0.91565000  0.54576000  1.0
  C  C127  1  0.92564000  0.83370000  0.58830000  1.0
  C  C128  1  0.83351000  0.77185000  0.59893000  1.0
  C  C129  1  0.46745000  0.83203000  0.73972000  1.0
  C  C130  1  0.45811000  0.89869000  0.82387000  1.0
  C  C131  1  0.54509000  0.92385000  0.90357000  1.0
  C  C132  1  0.63900000  0.88327000  0.89475000  1.0
  C  C133  1  0.64120000  0.81681000  0.80779000  1.0
  C  C134  1  0.11494000  0.51034000  0.27057000  1.0
  C  C135  1  0.21083000  0.55718000  0.23231000  1.0
  C  C136  1  0.19466000  0.62617000  0.17428000  1.0
  C  C137  1  0.28152000  0.67985000  0.14172000  1.0
  C  C138  1  0.26565000  0.74679000  0.07777000  1.0
  C  C139  1  0.35303000  0.79898000  0.04959000  1.0
  C  C140  1  0.45987000  0.78772000  0.08530000  1.0
  C  C141  1  0.47795000  0.72239000  0.14671000  1.0
  C  C142  1  0.38968000  0.66623000  0.17512000  1.0
  C  C143  1  0.40449000  0.59347000  0.23206000  1.0
  C  C144  1  0.31776000  0.53686000  0.25701000  1.0
  C  C145  1  0.33816000  0.44737000  0.29703000  1.0
  C  C146  1  0.77896000  0.46407000  0.12803000  1.0
  C  C147  1  0.69176000  0.48011000  0.06410000  1.0
  C  C148  1  0.58740000  0.45423000  0.08435000  1.0
  C  C149  1  0.57436000  0.41170000  0.16629000  1.0
  C  C150  1  0.66649000  0.40106000  0.22815000  1.0
  C  C151  1  0.03255000  0.26028000  0.16798000  1.0
  C  C152  1  0.04189000  0.17614000  0.10132000  1.0
  C  C153  1  0.95490000  0.09644000  0.07615000  1.0
  C  C154  1  0.86099000  0.10526000  0.11673000  1.0
  C  C155  1  0.85879000  0.19222000  0.18319000  1.0
  N  N156  1  0.26676000  0.20911000  0.42649000  1.0
  N  N157  1  0.44307000  0.20881000  0.26774000  1.0
  N  N158  1  0.45458000  0.01225000  0.00490000  1.0
  N  N159  1  0.99202000  0.02466000  0.46666000  1.0
  N  N160  1  0.23325000  0.57351000  0.79089000  1.0
  N  N161  1  0.05694000  0.73226000  0.79120000  1.0
  N  N162  1  0.04542000  0.99510000  0.98775000  1.0
  N  N163  1  0.50798000  0.53334000  0.97534000  1.0
  N  N164  1  0.73324000  0.79089000  0.57352000  1.0
  N  N165  1  0.55693000  0.79120000  0.73227000  1.0
  N  N166  1  0.54542000  0.98775000  0.99510000  1.0
  N  N167  1  0.00798000  0.97534000  0.53334000  1.0
  N  N168  1  0.76676000  0.42649000  0.20911000  1.0
  N  N169  1  0.94306000  0.26774000  0.20881000  1.0
  N  N170  1  0.95458000  0.00491000  0.01225000  1.0
  N  N171  1  0.49202000  0.46666000  0.02466000  1.0
  O  O172  1  0.52230000  0.21435000  0.49796000  1.0
  O  O173  1  0.62645000  0.35492000  0.48713000  1.0
  O  O174  1  0.76997000  0.27052000  0.36858000  1.0
  O  O175  1  0.93080000  0.35316000  0.45374000  1.0
  O  O176  1  0.38623000  0.43177000  0.55306000  1.0
  O  O177  1  0.97770000  0.50204000  0.78565000  1.0
  O  O178  1  0.87356000  0.51286000  0.64507000  1.0
  O  O179  1  0.73004000  0.63142000  0.72948000  1.0
  O  O180  1  0.56920000  0.54628000  0.64684000  1.0
  O  O181  1  0.11378000  0.44694000  0.56823000  1.0
  O  O182  1  0.47770000  0.78565000  0.50204000  1.0
  O  O183  1  0.37355000  0.64508000  0.51287000  1.0
  O  O184  1  0.23003000  0.72947000  0.63142000  1.0
  O  O185  1  0.06920000  0.64684000  0.54627000  1.0
  O  O186  1  0.61378000  0.56823000  0.44694000  1.0
  O  O187  1  0.02230000  0.49796000  0.21435000  1.0
  O  O188  1  0.12645000  0.48714000  0.35493000  1.0
  O  O189  1  0.26996000  0.36858000  0.27053000  1.0
  O  O190  1  0.43080000  0.45373000  0.35316000  1.0
  O  O191  1  0.88622000  0.55306000  0.43177000  1.0
