# generated using pymatgen
data_ZnH12C15(N2O)3
_symmetry_space_group_name_H-M   'P 1'
_cell_length_a   7.80096000
_cell_length_b   8.77967000
_cell_length_c   12.42000000
_cell_angle_alpha   86.92330000
_cell_angle_beta   81.09520000
_cell_angle_gamma   85.96570000
_symmetry_Int_Tables_number   1
_chemical_formula_structural   ZnH12C15(N2O)3
_chemical_formula_sum   'Zn2 H24 C30 N12 O6'
_cell_volume   837.51839004
_cell_formula_units_Z   2
loop_
 _symmetry_equiv_pos_site_id
 _symmetry_equiv_pos_as_xyz
  1  'x, y, z'
loop_
 _atom_site_type_symbol
 _atom_site_label
 _atom_site_symmetry_multiplicity
 _atom_site_fract_x
 _atom_site_fract_y
 _atom_site_fract_z
 _atom_site_occupancy
  Zn  Zn0  1  0.00000000  0.50000000  0.50000000  1.0
  Zn  Zn1  1  0.00000000  0.00000000  0.00000000  1.0
  H  H2  1  0.98474000  0.74174000  0.68606000  1.0
  H  H3  1  0.01527000  0.25825000  0.31394000  1.0
  H  H4  1  0.05536000  0.63504000  0.80007000  1.0
  H  H5  1  0.94464000  0.36496000  0.19993000  1.0
  H  H6  1  0.84178000  0.61809000  0.76895000  1.0
  H  H7  1  0.15822000  0.38191000  0.23105000  1.0
  H  H8  1  0.40215000  0.10131000  0.94417000  1.0
  H  H9  1  0.59786000  0.89869000  0.05583000  1.0
  H  H10  1  0.39915000  0.26969000  0.02003000  1.0
  H  H11  1  0.60085000  0.73031000  0.97997000  1.0
  H  H12  1  0.28179000  0.27169000  0.90671000  1.0
  H  H13  1  0.71821000  0.72831000  0.09329000  1.0
  H  H14  1  0.13367000  0.72796000  0.18662000  1.0
  H  H15  1  0.86633000  0.27203000  0.81339000  1.0
  H  H16  1  0.26651000  0.60483000  0.09321000  1.0
  H  H17  1  0.73349000  0.39517000  0.90679000  1.0
  H  H18  1  0.03829000  0.63511000  0.08760000  1.0
  H  H19  1  0.96171000  0.36488000  0.91240000  1.0
  H  H20  1  0.15143000  0.45856000  0.68375000  1.0
  H  H21  1  0.84857000  0.54144000  0.31625000  1.0
  H  H22  1  0.26066000  0.77808000  0.96118000  1.0
  H  H23  1  0.73934000  0.22191000  0.03882000  1.0
  H  H24  1  0.20429000  0.11554000  0.11618000  1.0
  H  H25  1  0.79572000  0.88446000  0.88383000  1.0
  C  C26  1  0.97793000  0.63270000  0.73372000  1.0
  C  C27  1  0.02207000  0.36730000  0.26629000  1.0
  C  C28  1  0.32208000  0.20240000  0.97541000  1.0
  C  C29  1  0.67793000  0.79760000  0.02459000  1.0
  C  C30  1  0.15480000  0.68920000  0.10296000  1.0
  C  C31  1  0.84520000  0.31079000  0.89704000  1.0
  C  C32  1  0.27811000  0.91789000  0.57081000  1.0
  C  C33  1  0.72189000  0.08213000  0.42919000  1.0
  C  C34  1  0.37215000  0.85572000  0.47724000  1.0
  C  C35  1  0.62785000  0.14429000  0.52276000  1.0
  C  C36  1  0.39643000  0.79437000  0.57982000  1.0
  C  C37  1  0.60358000  0.20564000  0.42018000  1.0
  C  C38  1  0.15928000  0.02660000  0.62549000  1.0
  C  C39  1  0.84072000  0.97341000  0.37451000  1.0
  C  C40  1  0.08247000  0.14961000  0.57013000  1.0
  C  C41  1  0.91753000  0.85039000  0.42987000  1.0
  C  C42  1  0.13026000  0.02188000  0.73975000  1.0
  C  C43  1  0.86974000  0.97813000  0.26025000  1.0
  C  C44  1  0.42129000  0.85050000  0.36411000  1.0
  C  C45  1  0.57871000  0.14951000  0.63588000  1.0
  C  C46  1  0.55147000  0.74036000  0.32396000  1.0
  C  C47  1  0.44853000  0.25964000  0.67603000  1.0
  C  C48  1  0.34603000  0.95210000  0.29110000  1.0
  C  C49  1  0.65397000  0.04789000  0.70890000  1.0
  C  C50  1  0.48126000  0.68922000  0.64579000  1.0
  C  C51  1  0.51875000  0.31079000  0.35420000  1.0
  C  C52  1  0.43137000  0.68655000  0.75943000  1.0
  C  C53  1  0.56862000  0.31345000  0.24056000  1.0
  C  C54  1  0.61586000  0.58959000  0.59890000  1.0
  C  C55  1  0.38414000  0.41041000  0.40110000  1.0
  N  N56  1  0.01891000  0.25437000  0.52492000  1.0
  N  N57  1  0.98108000  0.74564000  0.47507000  1.0
  N  N58  1  0.11019000  0.01757000  0.83514000  1.0
  N  N59  1  0.88980000  0.98242000  0.16486000  1.0
  N  N60  1  0.66200000  0.64780000  0.29452000  1.0
  N  N61  1  0.33800000  0.35220000  0.70548000  1.0
  N  N62  1  0.28332000  0.03706000  0.23019000  1.0
  N  N63  1  0.71667000  0.96294000  0.76981000  1.0
  N  N64  1  0.38247000  0.68871000  0.85334000  1.0
  N  N65  1  0.61753000  0.31129000  0.14666000  1.0
  N  N66  1  0.73013000  0.50907000  0.55673000  1.0
  N  N67  1  0.26987000  0.49093000  0.44327000  1.0
  O  O68  1  0.03999000  0.50794000  0.66481000  1.0
  O  O69  1  0.96001000  0.49205000  0.33519000  1.0
  O  O70  1  0.16730000  0.15921000  0.04665000  1.0
  O  O71  1  0.83270000  0.84078000  0.95335000  1.0
  O  O72  1  0.19134000  0.81878000  0.02927000  1.0
  O  O73  1  0.80867000  0.18121000  0.97073000  1.0
