# generated using pymatgen
data_CuH23C18BrN3O
_symmetry_space_group_name_H-M   'P 1'
_cell_length_a   8.60469000
_cell_length_b   8.61016000
_cell_length_c   14.24270000
_cell_angle_alpha   105.25700000
_cell_angle_beta   100.58000000
_cell_angle_gamma   105.04300000
_symmetry_Int_Tables_number   1
_chemical_formula_structural   CuH23C18BrN3O
_chemical_formula_sum   'Cu2 H46 C36 Br2 N6 O2'
_cell_volume   946.51612177
_cell_formula_units_Z   2
loop_
 _symmetry_equiv_pos_site_id
 _symmetry_equiv_pos_as_xyz
  1  'x, y, z'
loop_
 _atom_site_type_symbol
 _atom_site_label
 _atom_site_symmetry_multiplicity
 _atom_site_fract_x
 _atom_site_fract_y
 _atom_site_fract_z
 _atom_site_occupancy
  Cu  Cu0  1  0.78564000  0.29085000  0.12463000  1.0
  Cu  Cu1  1  0.16675000  0.66059000  0.87508000  1.0
  H  H2  1  0.28052000  0.50484000  0.99017000  1.0
  H  H3  1  0.51467000  0.28943000  0.00979000  1.0
  H  H4  1  0.40747000  0.44279000  0.16582000  1.0
  H  H5  1  0.27736000  0.24091000  0.83406000  1.0
  H  H6  1  0.21963000  0.48597000  0.50174000  1.0
  H  H7  1  0.98379000  0.71878000  0.49796000  1.0
  H  H8  1  0.10627000  0.96122000  0.32595000  1.0
  H  H9  1  0.63532000  0.78058000  0.67455000  1.0
  H  H10  1  0.24147000  0.70055000  0.42357000  1.0
  H  H11  1  0.27644000  0.81848000  0.57547000  1.0
  H  H12  1  0.29857000  0.66283000  0.30808000  1.0
  H  H13  1  0.35461000  0.99080000  0.69096000  1.0
  H  H14  1  0.08507000  0.62489000  0.30616000  1.0
  H  H15  1  0.31919000  0.77934000  0.69281000  1.0
  H  H16  1  0.20946000  0.27991000  0.58742000  1.0
  H  H17  1  0.69202000  0.62327000  0.41271000  1.0
  H  H18  1  0.06018000  0.07655000  0.51494000  1.0
  H  H19  1  0.56112000  0.54623000  0.48521000  1.0
  H  H20  1  0.27493000  0.10848000  0.52828000  1.0
  H  H21  1  0.57990000  0.74777000  0.47222000  1.0
  H  H22  1  0.06293000  0.03991000  0.07747000  1.0
  H  H23  1  0.96290000  0.98467000  0.92270000  1.0
  H  H24  1  0.18970000  0.94515000  0.14012000  1.0
  H  H25  1  0.80572000  0.04934000  0.86028000  1.0
  H  H26  1  0.97505000  0.88764000  0.13282000  1.0
  H  H27  1  0.75504000  0.84204000  0.86746000  1.0
  H  H28  1  0.58728000  0.41449000  0.86438000  1.0
  H  H29  1  0.54992000  0.72299000  0.13636000  1.0
  H  H30  1  0.61193000  0.22656000  0.78692000  1.0
  H  H31  1  0.43918000  0.82549000  0.21352000  1.0
  H  H32  1  0.79143000  0.58939000  0.81483000  1.0
  H  H33  1  0.77445000  0.97627000  0.18534000  1.0
  H  H34  1  0.90837000  0.48750000  0.68263000  1.0
  H  H35  1  0.80497000  0.22543000  0.31737000  1.0
  H  H36  1  0.87680000  0.18017000  0.60581000  1.0
  H  H37  1  0.57449000  0.27133000  0.39433000  1.0
  H  H38  1  0.99741000  0.26142000  0.73318000  1.0
  H  H39  1  0.52853000  0.26443000  0.26691000  1.0
  H  H40  1  0.78454000  0.12877000  0.69906000  1.0
  H  H41  1  0.42961000  0.08606000  0.30119000  1.0
  H  H42  1  0.65207000  0.31269000  0.54714000  1.0
  H  H43  1  0.76544000  0.10481000  0.45301000  1.0
  H  H44  1  0.55163000  0.23929000  0.63228000  1.0
  H  H45  1  0.60664000  0.91958000  0.36796000  1.0
  H  H46  1  0.59728000  0.45597000  0.64006000  1.0
  H  H47  1  0.81558000  0.95704000  0.36001000  1.0
  C  C48  1  0.99464000  0.34265000  0.09797000  1.0
  C  C49  1  0.24497000  0.89607000  0.90183000  1.0
  C  C50  1  0.21920000  0.45631000  0.04156000  1.0
  C  C51  1  0.41492000  0.17685000  0.95831000  1.0
  C  C52  1  0.27937000  0.42367000  0.12657000  1.0
  C  C53  1  0.29742000  0.15207000  0.87325000  1.0
  C  C54  1  0.14974000  0.30629000  0.24867000  1.0
  C  C55  1  0.05786000  0.90075000  0.75119000  1.0
  C  C56  1  0.18368000  0.43497000  0.34141000  1.0
  C  C57  1  0.09352000  0.84238000  0.65825000  1.0
  C  C58  1  0.20382000  0.61552000  0.34520000  1.0
  C  C59  1  0.27025000  0.85898000  0.65398000  1.0
  C  C60  1  0.19257000  0.38818000  0.42875000  1.0
  C  C61  1  0.95915000  0.76430000  0.57108000  1.0
  C  C62  1  0.16679000  0.21878000  0.42491000  1.0
  C  C63  1  0.79362000  0.74237000  0.57520000  1.0
  C  C64  1  0.17830000  0.16972000  0.51911000  1.0
  C  C65  1  0.65020000  0.66016000  0.48111000  1.0
  C  C66  1  0.12935000  0.09448000  0.33062000  1.0
  C  C67  1  0.76390000  0.79888000  0.66966000  1.0
  C  C68  1  0.12105000  0.13461000  0.24115000  1.0
  C  C69  1  0.89370000  0.87965000  0.75899000  1.0
  C  C70  1  0.08513000  0.99583000  0.14251000  1.0
  C  C71  1  0.85375000  0.94223000  0.85776000  1.0
  C  C72  1  0.93380000  0.41627000  0.94411000  1.0
  C  C73  1  0.47217000  0.98914000  0.05588000  1.0
  C  C74  1  0.67815000  0.35394000  0.84211000  1.0
  C  C75  1  0.51158000  0.83609000  0.15831000  1.0
  C  C76  1  0.81123000  0.46614000  0.80739000  1.0
  C  C77  1  0.65861000  0.00365000  0.19277000  1.0
  C  C78  1  0.81618000  0.38824000  0.69802000  1.0
  C  C79  1  0.69018000  0.11811000  0.30207000  1.0
  C  C80  1  0.87206000  0.23142000  0.68394000  1.0
  C  C81  1  0.54755000  0.18838000  0.31621000  1.0
  C  C82  1  0.64493000  0.34781000  0.62567000  1.0
  C  C83  1  0.72191000  0.01925000  0.37448000  1.0
  Br  Br84  1  0.73746000  0.55379000  0.20780000  1.0
  Br  Br85  1  0.34672000  0.52991000  0.79172000  1.0
  N  N86  1  0.04514000  0.40597000  0.02420000  1.0
  N  N87  1  0.38190000  0.02024000  0.97567000  1.0
  N  N88  1  0.14174000  0.35432000  0.15893000  1.0
  N  N89  1  0.19579000  0.98218000  0.84081000  1.0
  N  N90  1  0.97066000  0.49722000  0.88249000  1.0
  N  N91  1  0.61469000  0.08766000  0.11747000  1.0
  O  O92  1  0.77226000  0.33029000  0.93115000  1.0
  O  O93  1  0.39909000  0.84080000  0.06905000  1.0
