# generated using pymatgen
data_ZnH9C16N3O5
_symmetry_space_group_name_H-M   'P 1'
_cell_length_a   10.39820000
_cell_length_b   13.89430000
_cell_length_c   15.13000000
_cell_angle_alpha   90.00000000
_cell_angle_beta   103.53500000
_cell_angle_gamma   90.00000000
_symmetry_Int_Tables_number   1
_chemical_formula_structural   ZnH9C16N3O5
_chemical_formula_sum   'Zn4 H36 C64 N12 O20'
_cell_volume   2125.20830542
_cell_formula_units_Z   4
loop_
 _symmetry_equiv_pos_site_id
 _symmetry_equiv_pos_as_xyz
  1  'x, y, z'
loop_
 _atom_site_type_symbol
 _atom_site_label
 _atom_site_symmetry_multiplicity
 _atom_site_fract_x
 _atom_site_fract_y
 _atom_site_fract_z
 _atom_site_occupancy
  Zn  Zn0  1  0.17041000  0.84920000  0.57966000  1.0
  Zn  Zn1  1  0.32959000  0.34920000  0.42034000  1.0
  Zn  Zn2  1  0.82959000  0.15080000  0.42034000  1.0
  Zn  Zn3  1  0.67041000  0.65080000  0.57966000  1.0
  H  H4  1  0.30043000  0.00758000  0.65409000  1.0
  H  H5  1  0.19957000  0.50758000  0.34591000  1.0
  H  H6  1  0.69957000  0.99242000  0.34591000  1.0
  H  H7  1  0.80043000  0.49242000  0.65409000  1.0
  H  H8  1  0.14909000  0.03877000  0.59804000  1.0
  H  H9  1  0.35091000  0.53877000  0.40196000  1.0
  H  H10  1  0.85091000  0.96123000  0.40196000  1.0
  H  H11  1  0.64909000  0.46123000  0.59804000  1.0
  H  H12  1  0.90533000  0.74265000  0.50951000  1.0
  H  H13  1  0.59466000  0.24265000  0.49049000  1.0
  H  H14  1  0.09467000  0.25735000  0.49049000  1.0
  H  H15  1  0.40533000  0.75735000  0.50951000  1.0
  H  H16  1  0.14706000  0.91943000  0.79167000  1.0
  H  H17  1  0.35294000  0.41943000  0.20833000  1.0
  H  H18  1  0.85294000  0.08057000  0.20833000  1.0
  H  H19  1  0.64706000  0.58057000  0.79167000  1.0
  H  H20  1  0.73060000  0.72800000  0.79208000  1.0
  H  H21  1  0.76940000  0.22800000  0.20793000  1.0
  H  H22  1  0.26939000  0.27200000  0.20792000  1.0
  H  H23  1  0.23061000  0.77200000  0.79208000  1.0
  H  H24  1  0.79841000  0.88782000  0.10392000  1.0
  H  H25  1  0.70159000  0.38782000  0.89608000  1.0
  H  H26  1  0.20159000  0.11218000  0.89608000  1.0
  H  H27  1  0.29841000  0.61218000  0.10392000  1.0
  H  H28  1  0.82937000  0.88723000  0.27177000  1.0
  H  H29  1  0.67063000  0.38722000  0.72823000  1.0
  H  H30  1  0.17063000  0.11278000  0.72823000  1.0
  H  H31  1  0.32937000  0.61278000  0.27177000  1.0
  H  H32  1  0.21420000  0.83153000  0.13518000  1.0
  H  H33  1  0.28581000  0.33153000  0.86482000  1.0
  H  H34  1  0.78580000  0.16847000  0.86482000  1.0
  H  H35  1  0.71419000  0.66847000  0.13518000  1.0
  H  H36  1  0.24562000  0.83607000  0.30464000  1.0
  H  H37  1  0.25438000  0.33607000  0.69536000  1.0
  H  H38  1  0.75438000  0.16392000  0.69536000  1.0
  H  H39  1  0.74562000  0.66393000  0.30464000  1.0
  C  C40  1  0.91468000  0.76242000  0.58010000  1.0
  C  C41  1  0.58532000  0.26241000  0.41990000  1.0
  C  C42  1  0.08532000  0.23759000  0.41990000  1.0
  C  C43  1  0.41468000  0.73759000  0.58010000  1.0
  C  C44  1  0.87049000  0.77557000  0.71266000  1.0
  C  C45  1  0.62951000  0.27556000  0.28734000  1.0
  C  C46  1  0.12950000  0.22444000  0.28734000  1.0
  C  C47  1  0.37050000  0.72444000  0.71266000  1.0
  C  C48  1  0.98788000  0.82904000  0.71255000  1.0
  C  C49  1  0.51212000  0.32904000  0.28745000  1.0
  C  C50  1  0.01212000  0.17096000  0.28745000  1.0
  C  C51  1  0.48788000  0.67096000  0.71255000  1.0
  C  C52  1  0.05851000  0.87721000  0.79057000  1.0
  C  C53  1  0.44149000  0.37720000  0.20943000  1.0
  C  C54  1  0.94148000  0.12280000  0.20943000  1.0
  C  C55  1  0.55852000  0.62280000  0.79057000  1.0
  C  C56  1  0.01031000  0.86486000  0.86783000  1.0
  C  C57  1  0.48969000  0.36486000  0.13217000  1.0
  C  C58  1  0.98968000  0.13514000  0.13217000  1.0
  C  C59  1  0.51031000  0.63514000  0.86783000  1.0
  C  C60  1  0.89434000  0.81195000  0.86684000  1.0
  C  C61  1  0.60566000  0.31195000  0.13316000  1.0
  C  C62  1  0.10566000  0.18805000  0.13316000  1.0
  C  C63  1  0.39434000  0.68805000  0.86684000  1.0
  C  C64  1  0.81995000  0.76769000  0.79012000  1.0
  C  C65  1  0.68005000  0.26769000  0.20988000  1.0
  C  C66  1  0.18005000  0.23231000  0.20988000  1.0
  C  C67  1  0.31995000  0.73231000  0.79012000  1.0
  C  C68  1  0.06784000  0.89537000  0.96280000  1.0
  C  C69  1  0.43216000  0.39537000  0.03720000  1.0
  C  C70  1  0.93216000  0.10463000  0.03720000  1.0
  C  C71  1  0.56784000  0.60463000  0.96280000  1.0
  C  C72  1  0.87378000  0.80714000  0.95972000  1.0
  C  C73  1  0.62622000  0.30713000  0.04028000  1.0
  C  C74  1  0.12622000  0.19287000  0.04028000  1.0
  C  C75  1  0.37379000  0.69286000  0.95972000  1.0
  C  C76  1  0.00461000  0.86006000  0.11045000  1.0
  C  C77  1  0.49539000  0.36006000  0.88955000  1.0
  C  C78  1  0.99539000  0.13994000  0.88954000  1.0
  C  C79  1  0.50461000  0.63994000  0.11045000  1.0
  C  C80  1  0.89548000  0.87575000  0.14819000  1.0
  C  C81  1  0.60453000  0.37575000  0.85181000  1.0
  C  C82  1  0.10452000  0.12425000  0.85181000  1.0
  C  C83  1  0.39548000  0.62425000  0.14819000  1.0
  C  C84  1  0.91387000  0.87668000  0.24186000  1.0
  C  C85  1  0.58613000  0.37668000  0.75814000  1.0
  C  C86  1  0.08613000  0.12332000  0.75814000  1.0
  C  C87  1  0.41387000  0.62332000  0.24186000  1.0
  C  C88  1  0.13135000  0.84551000  0.16605000  1.0
  C  C89  1  0.36865000  0.34551000  0.83395000  1.0
  C  C90  1  0.86865000  0.15449000  0.83395000  1.0
  C  C91  1  0.63135000  0.65449000  0.16605000  1.0
  C  C92  1  0.14823000  0.84757000  0.26000000  1.0
  C  C93  1  0.35177000  0.34756000  0.74000000  1.0
  C  C94  1  0.85177000  0.15243000  0.74000000  1.0
  C  C95  1  0.64823000  0.65243000  0.26000000  1.0
  C  C96  1  0.03991000  0.86359000  0.29865000  1.0
  C  C97  1  0.46009000  0.36359000  0.70135000  1.0
  C  C98  1  0.96009000  0.13641000  0.70135000  1.0
  C  C99  1  0.53991000  0.63641000  0.29865000  1.0
  C  C100  1  0.05666000  0.86671000  0.39865000  1.0
  C  C101  1  0.44334000  0.36671000  0.60135000  1.0
  C  C102  1  0.94334000  0.13329000  0.60135000  1.0
  C  C103  1  0.55666000  0.63329000  0.39865000  1.0
  N  N104  1  0.01308000  0.81840000  0.62712000  1.0
  N  N105  1  0.48692000  0.31840000  0.37288000  1.0
  N  N106  1  0.98692000  0.18160000  0.37288000  1.0
  N  N107  1  0.51308000  0.68160000  0.62712000  1.0
  N  N108  1  0.82695000  0.73460000  0.62776000  1.0
  N  N109  1  0.67305000  0.23460000  0.37224000  1.0
  N  N110  1  0.17305000  0.26540000  0.37224000  1.0
  N  N111  1  0.32695000  0.76540000  0.62776000  1.0
  N  N112  1  0.98383000  0.85507000  0.01531000  1.0
  N  N113  1  0.51617000  0.35507000  0.98469000  1.0
  N  N114  1  0.01617000  0.14494000  0.98469000  1.0
  N  N115  1  0.48383000  0.64493000  0.01531000  1.0
  O  O116  1  0.16658000  0.83546000  0.44852000  1.0
  O  O117  1  0.33342000  0.33546000  0.55148000  1.0
  O  O118  1  0.83342000  0.16454000  0.55148000  1.0
  O  O119  1  0.66658000  0.66454000  0.44852000  1.0
  O  O120  1  0.96506000  0.89764000  0.43376000  1.0
  O  O121  1  0.53494000  0.39764000  0.56624000  1.0
  O  O122  1  0.03494000  0.10236000  0.56623000  1.0
  O  O123  1  0.46506000  0.60236000  0.43376000  1.0
  O  O124  1  0.16466000  0.94542000  0.99320000  1.0
  O  O125  1  0.33534000  0.44542000  0.00681000  1.0
  O  O126  1  0.83534000  0.05458000  0.00680000  1.0
  O  O127  1  0.66466000  0.55458000  0.99319000  1.0
  O  O128  1  0.78409000  0.76811000  0.98617000  1.0
  O  O129  1  0.71591000  0.26811000  0.01383000  1.0
  O  O130  1  0.21591000  0.23188000  0.01383000  1.0
  O  O131  1  0.28409000  0.73189000  0.98617000  1.0
  O  O132  1  0.22402000  0.98727000  0.60801000  1.0
  O  O133  1  0.27597000  0.48727000  0.39199000  1.0
  O  O134  1  0.77597000  0.01273000  0.39199000  1.0
  O  O135  1  0.72402000  0.51273000  0.60801000  1.0
