# generated using pymatgen
data_Cd2CuH14C10N4(ClO2)4
_symmetry_space_group_name_H-M   'P 1'
_cell_length_a   6.66353000
_cell_length_b   8.06312000
_cell_length_c   10.41430000
_cell_angle_alpha   76.09190000
_cell_angle_beta   75.79840000
_cell_angle_gamma   86.13860000
_symmetry_Int_Tables_number   1
_chemical_formula_structural   Cd2CuH14C10N4(ClO2)4
_chemical_formula_sum   'Cd2 Cu1 H14 C10 N4 Cl4 O8'
_cell_volume   526.52359581
_cell_formula_units_Z   1
loop_
 _symmetry_equiv_pos_site_id
 _symmetry_equiv_pos_as_xyz
  1  'x, y, z'
loop_
 _atom_site_type_symbol
 _atom_site_label
 _atom_site_symmetry_multiplicity
 _atom_site_fract_x
 _atom_site_fract_y
 _atom_site_fract_z
 _atom_site_occupancy
  Cd  Cd0  1  0.28805000  0.49256000  0.91294000  1.0
  Cd  Cd1  1  0.71195000  0.50744000  0.08706000  1.0
  Cu  Cu2  1  0.00001000  0.00001000  0.50000000  1.0
  H  H3  1  0.96033000  0.47695000  0.72806000  1.0
  H  H4  1  0.03967000  0.52305000  0.27194000  1.0
  H  H5  1  0.41280000  0.12017000  0.82648000  1.0
  H  H6  1  0.58719000  0.87983000  0.17352000  1.0
  H  H7  1  0.31952000  0.94005000  0.68293000  1.0
  H  H8  1  0.68047000  0.05995000  0.31707000  1.0
  H  H9  1  0.37938000  0.19213000  0.31764000  1.0
  H  H10  1  0.62063000  0.80787000  0.68235000  1.0
  H  H11  1  0.22573000  0.15487000  0.23815000  1.0
  H  H12  1  0.77426000  0.84514000  0.76185000  1.0
  H  H13  1  0.55290000  0.56642000  0.63757000  1.0
  H  H14  1  0.44711000  0.43358000  0.36243000  1.0
  H  H15  1  0.35306000  0.68527000  0.62721000  1.0
  H  H16  1  0.64696000  0.31473000  0.37279000  1.0
  C  C17  1  0.99098000  0.25907000  0.63659000  1.0
  C  C18  1  0.00901000  0.74094000  0.36342000  1.0
  C  C19  1  0.04046000  0.35682000  0.71795000  1.0
  C  C20  1  0.95955000  0.64318000  0.28206000  1.0
  C  C21  1  0.29005000  0.15963000  0.77255000  1.0
  C  C22  1  0.70995000  0.84037000  0.22745000  1.0
  C  C23  1  0.23987000  0.05981000  0.69261000  1.0
  C  C24  1  0.76013000  0.94019000  0.30739000  1.0
  C  C25  1  0.83488000  0.31375000  0.55200000  1.0
  C  C26  1  0.16512000  0.68626000  0.44800000  1.0
  N  N27  1  0.09237000  0.11172000  0.62431000  1.0
  N  N28  1  0.90763000  0.88828000  0.37569000  1.0
  N  N29  1  0.19126000  0.30776000  0.78392000  1.0
  N  N30  1  0.80873000  0.69224000  0.21609000  1.0
  Cl  Cl31  1  0.39863000  0.69835000  0.04508000  1.0
  Cl  Cl32  1  0.60136000  0.30163000  0.95494000  1.0
  Cl  Cl33  1  0.02358000  0.30048000  0.11961000  1.0
  Cl  Cl34  1  0.97641000  0.69951000  0.88038000  1.0
  O  O35  1  0.82432000  0.21718000  0.47114000  1.0
  O  O36  1  0.17569000  0.78282000  0.52885000  1.0
  O  O37  1  0.73217000  0.44806000  0.55778000  1.0
  O  O38  1  0.26783000  0.55194000  0.44221000  1.0
  O  O39  1  0.29275000  0.09989000  0.31219000  1.0
  O  O40  1  0.70725000  0.90011000  0.68780000  1.0
  O  O41  1  0.45566000  0.64506000  0.68374000  1.0
  O  O42  1  0.54435000  0.35494000  0.31626000  1.0
