# generated using pymatgen
data_NiH12(CN)10
_symmetry_space_group_name_H-M   'P 1'
_cell_length_a   8.78688000
_cell_length_b   9.36600000
_cell_length_c   10.19400000
_cell_angle_alpha   104.70000000
_cell_angle_beta   102.77100000
_cell_angle_gamma   113.13600000
_symmetry_Int_Tables_number   1
_chemical_formula_structural   NiH12(CN)10
_chemical_formula_sum   'Ni2 H24 C20 N20'
_cell_volume   696.01029488
_cell_formula_units_Z   2
loop_
 _symmetry_equiv_pos_site_id
 _symmetry_equiv_pos_as_xyz
  1  'x, y, z'
loop_
 _atom_site_type_symbol
 _atom_site_label
 _atom_site_symmetry_multiplicity
 _atom_site_fract_x
 _atom_site_fract_y
 _atom_site_fract_z
 _atom_site_occupancy
  Ni  Ni0  1  0.50000000  0.00000000  0.00000000  1.0
  Ni  Ni1  1  0.50000000  0.50000000  0.50000000  1.0
  H  H2  1  0.42333000  0.26392000  0.18444000  1.0
  H  H3  1  0.57667000  0.73608000  0.81556000  1.0
  H  H4  1  0.58111000  0.24601000  0.31369000  1.0
  H  H5  1  0.41889000  0.75399000  0.68631000  1.0
  H  H6  1  0.51778000  0.17391000  0.51091000  1.0
  H  H7  1  0.48222000  0.82609000  0.48909000  1.0
  H  H8  1  0.30942000  0.13849000  0.53009000  1.0
  H  H9  1  0.69058000  0.86151000  0.46991000  1.0
  H  H10  1  0.04270000  0.89689000  0.36458000  1.0
  H  H11  1  0.95730000  0.10311000  0.63542000  1.0
  H  H12  1  0.04512000  0.74709000  0.21834000  1.0
  H  H13  1  0.95489000  0.25291000  0.78166000  1.0
  H  H14  1  0.15230000  0.01816000  0.01545000  1.0
  H  H15  1  0.84770000  0.98184000  0.98455000  1.0
  H  H16  1  0.10999000  0.81732000  0.02153000  1.0
  H  H17  1  0.89001000  0.18268000  0.97847000  1.0
  H  H18  1  0.32679000  0.79157000  0.19079000  1.0
  H  H19  1  0.67322000  0.20843000  0.80921000  1.0
  H  H20  1  0.52662000  0.97633000  0.31654000  1.0
  H  H21  1  0.47338000  0.02367000  0.68346000  1.0
  H  H22  1  0.09719000  0.16919000  0.36018000  1.0
  H  H23  1  0.90281000  0.83081000  0.63982000  1.0
  H  H24  1  0.14593000  0.22022000  0.21141000  1.0
  H  H25  1  0.85407000  0.77978000  0.78859000  1.0
  C  C26  1  0.43979000  0.19592000  0.25449000  1.0
  C  C27  1  0.56021000  0.80408000  0.74551000  1.0
  C  C28  1  0.37565000  0.12316000  0.45233000  1.0
  C  C29  1  0.62435000  0.87684000  0.54767000  1.0
  C  C30  1  0.10724000  0.88136000  0.28503000  1.0
  C  C31  1  0.89276000  0.11865000  0.71497000  1.0
  C  C32  1  0.16860000  0.95121000  0.08719000  1.0
  C  C33  1  0.83140000  0.04879000  0.91282000  1.0
  C  C34  1  0.38416000  0.92500000  0.25842000  1.0
  C  C35  1  0.61584000  0.07500000  0.74158000  1.0
  C  C36  1  0.16162000  0.15107000  0.28113000  1.0
  C  C37  1  0.83838000  0.84893000  0.71887000  1.0
  C  C38  1  0.15200000  0.65727000  0.78190000  1.0
  C  C39  1  0.84799000  0.34273000  0.21810000  1.0
  C  C40  1  0.86133000  0.49819000  0.63327000  1.0
  C  C41  1  0.13866000  0.50181000  0.36672000  1.0
  C  C42  1  0.63221000  0.77011000  0.11903000  1.0
  C  C43  1  0.36779000  0.22989000  0.88098000  1.0
  C  C44  1  0.62061000  0.60875000  0.25347000  1.0
  C  C45  1  0.37939000  0.39125000  0.74653000  1.0
  N  N46  1  0.36272000  0.01643000  0.16178000  1.0
  N  N47  1  0.63728000  0.98357000  0.83822000  1.0
  N  N48  1  0.35464000  0.22208000  0.36207000  1.0
  N  N49  1  0.64536000  0.77792000  0.63793000  1.0
  N  N50  1  0.29713000  0.94467000  0.36377000  1.0
  N  N51  1  0.70287000  0.05533000  0.63623000  1.0
  N  N52  1  0.08077000  0.97265000  0.19134000  1.0
  N  N53  1  0.91923000  0.02735000  0.80866000  1.0
  N  N54  1  0.28149000  0.78090000  0.86368000  1.0
  N  N55  1  0.71850000  0.21910000  0.13632000  1.0
  N  N56  1  0.01647000  0.51447000  0.69368000  1.0
  N  N57  1  0.98353000  0.48553000  0.30632000  1.0
  N  N58  1  0.71587000  0.47160000  0.57531000  1.0
  N  N59  1  0.28413000  0.52840000  0.42469000  1.0
  N  N60  1  0.60444000  0.86781000  0.07888000  1.0
  N  N61  1  0.39555000  0.13219000  0.92112000  1.0
  N  N62  1  0.67166000  0.66401000  0.15825000  1.0
  N  N63  1  0.32834000  0.33599000  0.84175000  1.0
  N  N64  1  0.58127000  0.55416000  0.34009000  1.0
  N  N65  1  0.41872000  0.44584000  0.65991000  1.0
