# generated using pymatgen
data_CoH20C20(N7O)2
_symmetry_space_group_name_H-M   'P 1'
_cell_length_a   7.60354000
_cell_length_b   8.51517000
_cell_length_c   9.63657000
_cell_angle_alpha   75.29360000
_cell_angle_beta   88.13190000
_cell_angle_gamma   78.35280000
_symmetry_Int_Tables_number   1
_chemical_formula_structural   CoH20C20(N7O)2
_chemical_formula_sum   'Co1 H20 C20 N14 O2'
_cell_volume   590.94304173
_cell_formula_units_Z   1
loop_
 _symmetry_equiv_pos_site_id
 _symmetry_equiv_pos_as_xyz
  1  'x, y, z'
loop_
 _atom_site_type_symbol
 _atom_site_label
 _atom_site_symmetry_multiplicity
 _atom_site_fract_x
 _atom_site_fract_y
 _atom_site_fract_z
 _atom_site_occupancy
  Co  Co0  1  0.00000000  0.50000000  0.50000000  1.0
  H  H1  1  0.34629000  0.40231000  0.99295000  1.0
  H  H2  1  0.65371000  0.59770000  0.00706000  1.0
  H  H3  1  0.50519000  0.28873000  0.23096000  1.0
  H  H4  1  0.49482000  0.71127000  0.76904000  1.0
  H  H5  1  0.86828000  0.93075000  0.05905000  1.0
  H  H6  1  0.13171000  0.06925000  0.94095000  1.0
  H  H7  1  0.71839000  0.04763000  0.82199000  1.0
  H  H8  1  0.28160000  0.95236000  0.17802000  1.0
  H  H9  1  0.68816000  0.01029000  0.39225000  1.0
  H  H10  1  0.31184000  0.98971000  0.60774000  1.0
  H  H11  1  0.87230000  0.90456000  0.31002000  1.0
  H  H12  1  0.12770000  0.09545000  0.68998000  1.0
  H  H13  1  0.74196000  0.24925000  0.48944000  1.0
  H  H14  1  0.25804000  0.75075000  0.51056000  1.0
  H  H15  1  0.24028000  0.29629000  0.29535000  1.0
  H  H16  1  0.75973000  0.70371000  0.70464000  1.0
  H  H17  1  0.91479000  0.35838000  0.78773000  1.0
  H  H18  1  0.08520000  0.64161000  0.21227000  1.0
  H  H19  1  0.74906000  0.35012000  0.69527000  1.0
  H  H20  1  0.25095000  0.64987000  0.30472000  1.0
  C  C21  1  0.42796000  0.29409000  0.75242000  1.0
  C  C22  1  0.57203000  0.70591000  0.24758000  1.0
  C  C23  1  0.52074000  0.23227000  0.89202000  1.0
  C  C24  1  0.47925000  0.76773000  0.10798000  1.0
  C  C25  1  0.46123000  0.29939000  0.00834000  1.0
  C  C26  1  0.53876000  0.70061000  0.99167000  1.0
  C  C27  1  0.54908000  0.23458000  0.14120000  1.0
  C  C28  1  0.45092000  0.76542000  0.85880000  1.0
  C  C29  1  0.75571000  0.03584000  0.04461000  1.0
  C  C30  1  0.24429000  0.96416000  0.95539000  1.0
  C  C31  1  0.67044000  0.10130000  0.91087000  1.0
  C  C32  1  0.32955000  0.89870000  0.08913000  1.0
  C  C33  1  0.69503000  0.10034000  0.16115000  1.0
  C  C34  1  0.30498000  0.89967000  0.83885000  1.0
  C  C35  1  0.78645000  0.02566000  0.30626000  1.0
  C  C36  1  0.21355000  0.97434000  0.69374000  1.0
  C  C37  1  0.86148000  0.23679000  0.42417000  1.0
  C  C38  1  0.13853000  0.76321000  0.57582000  1.0
  C  C39  1  0.11397000  0.25736000  0.32292000  1.0
  C  C40  1  0.88603000  0.74263000  0.67708000  1.0
  N  N41  1  0.22851000  0.39723000  0.58930000  1.0
  N  N42  1  0.77149000  0.60276000  0.41070000  1.0
  N  N43  1  0.37929000  0.34726000  0.52484000  1.0
  N  N44  1  0.62072000  0.65274000  0.47516000  1.0
  N  N45  1  0.50766000  0.28115000  0.62659000  1.0
  N  N46  1  0.49234000  0.71885000  0.37341000  1.0
  N  N47  1  0.25345000  0.36725000  0.73167000  1.0
  N  N48  1  0.74654000  0.63274000  0.26834000  1.0
  N  N49  1  0.89985000  0.13110000  0.34015000  1.0
  N  N50  1  0.10016000  0.86890000  0.65985000  1.0
  N  N51  1  0.05937000  0.14259000  0.27402000  1.0
  N  N52  1  0.94063000  0.85741000  0.72597000  1.0
  N  N53  1  0.99618000  0.31909000  0.41538000  1.0
  N  N54  1  0.00383000  0.68091000  0.58462000  1.0
  O  O55  1  0.87774000  0.35112000  0.69429000  1.0
  O  O56  1  0.12226000  0.64887000  0.30571000  1.0
