# generated using pymatgen
data_HgH3C4I2N
_symmetry_space_group_name_H-M   'P 1'
_cell_length_a   4.34762000
_cell_length_b   14.76530000
_cell_length_c   24.92300000
_cell_angle_alpha   89.99870000
_cell_angle_beta   89.99930000
_cell_angle_gamma   92.65450000
_symmetry_Int_Tables_number   1
_chemical_formula_structural   HgH3C4I2N
_chemical_formula_sum   'Hg8 H24 C32 I16 N8'
_cell_volume   1598.18815922
_cell_formula_units_Z   8
loop_
 _symmetry_equiv_pos_site_id
 _symmetry_equiv_pos_as_xyz
  1  'x, y, z'
loop_
 _atom_site_type_symbol
 _atom_site_label
 _atom_site_symmetry_multiplicity
 _atom_site_fract_x
 _atom_site_fract_y
 _atom_site_fract_z
 _atom_site_occupancy
  Hg  Hg0  1  0.06491000  0.70505000  0.24991000  1.0
  Hg  Hg1  1  0.93512000  0.79495000  0.74991000  1.0
  Hg  Hg2  1  0.93510000  0.29495000  0.75009000  1.0
  Hg  Hg3  1  0.06490000  0.20506000  0.25009000  1.0
  Hg  Hg4  1  0.22057000  0.69897000  0.58212000  1.0
  Hg  Hg5  1  0.77942000  0.80103000  0.08212000  1.0
  Hg  Hg6  1  0.77943000  0.30104000  0.41788000  1.0
  Hg  Hg7  1  0.22059000  0.19897000  0.91788000  1.0
  H  H8  1  0.51591000  0.85030000  0.50931000  1.0
  H  H9  1  0.48410000  0.64969000  0.00931000  1.0
  H  H10  1  0.48406000  0.14971000  0.49070000  1.0
  H  H11  1  0.51593000  0.35030000  0.99069000  1.0
  H  H12  1  0.26652000  0.87745000  0.31403000  1.0
  H  H13  1  0.73349000  0.62254000  0.81403000  1.0
  H  H14  1  0.73347000  0.12255000  0.68597000  1.0
  H  H15  1  0.26652000  0.37746000  0.18597000  1.0
  H  H16  1  0.59454000  0.99646000  0.35948000  1.0
  H  H17  1  0.40543000  0.50353000  0.85949000  1.0
  H  H18  1  0.40543000  0.00354000  0.64052000  1.0
  H  H19  1  0.59458000  0.49646000  0.14051000  1.0
  H  H20  1  0.72115000  0.98278000  0.45621000  1.0
  H  H21  1  0.27883000  0.51722000  0.95621000  1.0
  H  H22  1  0.27880000  0.01723000  0.54379000  1.0
  H  H23  1  0.72120000  0.48278000  0.04379000  1.0
  H  H24  1  0.80268000  0.60371000  0.36856000  1.0
  H  H25  1  0.19734000  0.89628000  0.86855000  1.0
  H  H26  1  0.19733000  0.39628000  0.63144000  1.0
  H  H27  1  0.80266000  0.10372000  0.13145000  1.0
  H  H28  1  0.89580000  0.59540000  0.46820000  1.0
  H  H29  1  0.10420000  0.90460000  0.96819000  1.0
  H  H30  1  0.10420000  0.40461000  0.53181000  1.0
  H  H31  1  0.89580000  0.09540000  0.03181000  1.0
  C  C32  1  0.46179000  0.85684000  0.46682000  1.0
  C  C33  1  0.53821000  0.64315000  0.96682000  1.0
  C  C34  1  0.53819000  0.14317000  0.53318000  1.0
  C  C35  1  0.46180000  0.35685000  0.03318000  1.0
  C  C36  1  0.27510000  0.78806000  0.44181000  1.0
  C  C37  1  0.72491000  0.71193000  0.94181000  1.0
  C  C38  1  0.72489000  0.21194000  0.55819000  1.0
  C  C39  1  0.27510000  0.28807000  0.05819000  1.0
  C  C40  1  0.20855000  0.79511000  0.38544000  1.0
  C  C41  1  0.79147000  0.70488000  0.88544000  1.0
  C  C42  1  0.79144000  0.20489000  0.61456000  1.0
  C  C43  1  0.20853000  0.29512000  0.11456000  1.0
  C  C44  1  0.32286000  0.87188000  0.35646000  1.0
  C  C45  1  0.67715000  0.62811000  0.85647000  1.0
  C  C46  1  0.67713000  0.12812000  0.64354000  1.0
  C  C47  1  0.32286000  0.37189000  0.14353000  1.0
  C  C48  1  0.50353000  0.93782000  0.38202000  1.0
  C  C49  1  0.49647000  0.56218000  0.88203000  1.0
  C  C50  1  0.49645000  0.06218000  0.61798000  1.0
  C  C51  1  0.50355000  0.43782000  0.11797000  1.0
  C  C52  1  0.57485000  0.92997000  0.43723000  1.0
  C  C53  1  0.42513000  0.57001000  0.93723000  1.0
  C  C54  1  0.42512000  0.07003000  0.56277000  1.0
  C  C55  1  0.57489000  0.42998000  0.06277000  1.0
  C  C56  1  0.93601000  0.65799000  0.38905000  1.0
  C  C57  1  0.06400000  0.84200000  0.88905000  1.0
  C  C58  1  0.06399000  0.34201000  0.61095000  1.0
  C  C59  1  0.93600000  0.15800000  0.11095000  1.0
  C  C60  1  0.99302000  0.65256000  0.44494000  1.0
  C  C61  1  0.00698000  0.84743000  0.94494000  1.0
  C  C62  1  0.00698000  0.34744000  0.55506000  1.0
  C  C63  1  0.99302000  0.15257000  0.05506000  1.0
  I  I64  1  0.92301000  0.84952000  0.60432000  1.0
  I  I65  1  0.07700000  0.65048000  0.10432000  1.0
  I  I66  1  0.07699000  0.15048000  0.39568000  1.0
  I  I67  1  0.92301000  0.34952000  0.89568000  1.0
  I  I68  1  0.46496000  0.57228000  0.26030000  1.0
  I  I69  1  0.53506000  0.92772000  0.76030000  1.0
  I  I70  1  0.53505000  0.42772000  0.73970000  1.0
  I  I71  1  0.46495000  0.07228000  0.23970000  1.0
  I  I72  1  0.61476000  0.56303000  0.57634000  1.0
  I  I73  1  0.38524000  0.93697000  0.07634000  1.0
  I  I74  1  0.38524000  0.43697000  0.42366000  1.0
  I  I75  1  0.61476000  0.06303000  0.92366000  1.0
  I  I76  1  0.76592000  0.85071000  0.21939000  1.0
  I  I77  1  0.23410000  0.64930000  0.71939000  1.0
  I  I78  1  0.23409000  0.14930000  0.78060000  1.0
  I  I79  1  0.76591000  0.35070000  0.28061000  1.0
  N  N80  1  0.16051000  0.71554000  0.47076000  1.0
  N  N81  1  0.83950000  0.78445000  0.97076000  1.0
  N  N82  1  0.83949000  0.28446000  0.52924000  1.0
  N  N83  1  0.16051000  0.21555000  0.02924000  1.0
  N  N84  1  0.04005000  0.72766000  0.35995000  1.0
  N  N85  1  0.95996000  0.77233000  0.85995000  1.0
  N  N86  1  0.95995000  0.27234000  0.64005000  1.0
  N  N87  1  0.04004000  0.22767000  0.14005000  1.0
