# generated using pymatgen
data_CuH6C7(NO)3
_symmetry_space_group_name_H-M   'P 1'
_cell_length_a   10.11910000
_cell_length_b   10.11910000
_cell_length_c   16.42890000
_cell_angle_alpha   90.00020000
_cell_angle_beta   90.00000000
_cell_angle_gamma   60.00000000
_symmetry_Int_Tables_number   1
_chemical_formula_structural   CuH6C7(NO)3
_chemical_formula_sum   'Cu6 H36 C42 N18 O18'
_cell_volume   1456.87702110
_cell_formula_units_Z   6
loop_
 _symmetry_equiv_pos_site_id
 _symmetry_equiv_pos_as_xyz
  1  'x, y, z'
loop_
 _atom_site_type_symbol
 _atom_site_label
 _atom_site_symmetry_multiplicity
 _atom_site_fract_x
 _atom_site_fract_y
 _atom_site_fract_z
 _atom_site_occupancy
  Cu  Cu0  1  0.25695000  0.60259000  0.97625000  1.0
  Cu  Cu1  1  0.60259000  0.14046000  0.64291000  1.0
  Cu  Cu2  1  0.14046000  0.25694000  0.30958000  1.0
  Cu  Cu3  1  0.74305000  0.85954000  0.35709000  1.0
  Cu  Cu4  1  0.39740000  0.74306000  0.69042000  1.0
  Cu  Cu5  1  0.85954000  0.39741000  0.02375000  1.0
  H  H6  1  0.45790000  0.71496000  0.22784000  1.0
  H  H7  1  0.71495000  0.82715000  0.89451000  1.0
  H  H8  1  0.82715000  0.45790000  0.56118000  1.0
  H  H9  1  0.54210000  0.17285000  0.10549000  1.0
  H  H10  1  0.28505000  0.54210000  0.43882000  1.0
  H  H11  1  0.17286000  0.28504000  0.77216000  1.0
  H  H12  1  0.22303000  0.48820000  0.15515000  1.0
  H  H13  1  0.48819000  0.28878000  0.82182000  1.0
  H  H14  1  0.28878000  0.22302000  0.48849000  1.0
  H  H15  1  0.77697000  0.71122000  0.17818000  1.0
  H  H16  1  0.51181000  0.77697000  0.51151000  1.0
  H  H17  1  0.71122000  0.51182000  0.84485000  1.0
  H  H18  1  0.35677000  0.54850000  0.28446000  1.0
  H  H19  1  0.54850000  0.09473000  0.95112000  1.0
  H  H20  1  0.09474000  0.35677000  0.61779000  1.0
  H  H21  1  0.64323000  0.90527000  0.04888000  1.0
  H  H22  1  0.45150000  0.64323000  0.38221000  1.0
  H  H23  1  0.90527000  0.45150000  0.71554000  1.0
  H  H24  1  0.43617000  0.86707000  0.09873000  1.0
  H  H25  1  0.86707000  0.69676000  0.76540000  1.0
  H  H26  1  0.69676000  0.43617000  0.43206000  1.0
  H  H27  1  0.56383000  0.30324000  0.23461000  1.0
  H  H28  1  0.13292000  0.56384000  0.56794000  1.0
  H  H29  1  0.30324000  0.13293000  0.90127000  1.0
  H  H30  1  0.25182000  0.92986000  0.05881000  1.0
  H  H31  1  0.92985000  0.81833000  0.72547000  1.0
  H  H32  1  0.81833000  0.25182000  0.39214000  1.0
  H  H33  1  0.74818000  0.18167000  0.27453000  1.0
  H  H34  1  0.07015000  0.74818000  0.60786000  1.0
  H  H35  1  0.18168000  0.07015000  0.94119000  1.0
  H  H36  1  0.42432000  0.87803000  0.94676000  1.0
  H  H37  1  0.87802000  0.69765000  0.61343000  1.0
  H  H38  1  0.69765000  0.42433000  0.28010000  1.0
  H  H39  1  0.57568000  0.30234000  0.38657000  1.0
  H  H40  1  0.12198000  0.57567000  0.71990000  1.0
  H  H41  1  0.30235000  0.12197000  0.05324000  1.0
  C  C42  1  0.60579000  0.66260000  0.98390000  1.0
  C  C43  1  0.66260000  0.73161000  0.65056000  1.0
  C  C44  1  0.73161000  0.60578000  0.31723000  1.0
  C  C45  1  0.39421000  0.26839000  0.34944000  1.0
  C  C46  1  0.33739000  0.39422000  0.68277000  1.0
  C  C47  1  0.26839000  0.33740000  0.01610000  1.0
  C  C48  1  0.35667000  0.71996000  0.85387000  1.0
  C  C49  1  0.71995000  0.92337000  0.52054000  1.0
  C  C50  1  0.92337000  0.35667000  0.18721000  1.0
  C  C51  1  0.64333000  0.07663000  0.47946000  1.0
  C  C52  1  0.28004000  0.64333000  0.81279000  1.0
  C  C53  1  0.07663000  0.28004000  0.14613000  1.0
  C  C54  1  0.27497000  0.55910000  0.15761000  1.0
  C  C55  1  0.55910000  0.16593000  0.82427000  1.0
  C  C56  1  0.16594000  0.27496000  0.49094000  1.0
  C  C57  1  0.72503000  0.83406000  0.17573000  1.0
  C  C58  1  0.44090000  0.72503000  0.50906000  1.0
  C  C59  1  0.83407000  0.44091000  0.84239000  1.0
  C  C60  1  0.34272000  0.58788000  0.22213000  1.0
  C  C61  1  0.58788000  0.06941000  0.88880000  1.0
  C  C62  1  0.06941000  0.34272000  0.55546000  1.0
  C  C63  1  0.65728000  0.93059000  0.11121000  1.0
  C  C64  1  0.41212000  0.65728000  0.44454000  1.0
  C  C65  1  0.93060000  0.41212000  0.77787000  1.0
  C  C66  1  0.35239000  0.71440000  0.11425000  1.0
  C  C67  1  0.71440000  0.93321000  0.78091000  1.0
  C  C68  1  0.93321000  0.35239000  0.44758000  1.0
  C  C69  1  0.64761000  0.06679000  0.21909000  1.0
  C  C70  1  0.28560000  0.64761000  0.55242000  1.0
  C  C71  1  0.06679000  0.28560000  0.88575000  1.0
  C  C72  1  0.36705000  0.82950000  0.06498000  1.0
  C  C73  1  0.82949000  0.80346000  0.73165000  1.0
  C  C74  1  0.80346000  0.36705000  0.39832000  1.0
  C  C75  1  0.63294000  0.19655000  0.26835000  1.0
  C  C76  1  0.17051000  0.63294000  0.60168000  1.0
  C  C77  1  0.19655000  0.17051000  0.93502000  1.0
  C  C78  1  0.43314000  0.77867000  0.97892000  1.0
  C  C79  1  0.77867000  0.78819000  0.64559000  1.0
  C  C80  1  0.78819000  0.43314000  0.31226000  1.0
  C  C81  1  0.56686000  0.21181000  0.35441000  1.0
  C  C82  1  0.22133000  0.56686000  0.68774000  1.0
  C  C83  1  0.21181000  0.22133000  0.02108000  1.0
  N  N84  1  0.28191000  0.63831000  0.09075000  1.0
  N  N85  1  0.63831000  0.07978000  0.75742000  1.0
  N  N86  1  0.07978000  0.28191000  0.42408000  1.0
  N  N87  1  0.71809000  0.92022000  0.24258000  1.0
  N  N88  1  0.36169000  0.71809000  0.57591000  1.0
  N  N89  1  0.92022000  0.36169000  0.90925000  1.0
  N  N90  1  0.34970000  0.72009000  0.93397000  1.0
  N  N91  1  0.72009000  0.93020000  0.60063000  1.0
  N  N92  1  0.93021000  0.34970000  0.26730000  1.0
  N  N93  1  0.65029000  0.06979000  0.39937000  1.0
  N  N94  1  0.27991000  0.65030000  0.73270000  1.0
  N  N95  1  0.06979000  0.27992000  0.06603000  1.0
  N  N96  1  0.39089000  0.68501000  0.19379000  1.0
  N  N97  1  0.68501000  0.92411000  0.86046000  1.0
  N  N98  1  0.92411000  0.39088000  0.52712000  1.0
  N  N99  1  0.60912000  0.07589000  0.13954000  1.0
  N  N100  1  0.31499000  0.60911000  0.47288000  1.0
  N  N101  1  0.07590000  0.31498000  0.80621000  1.0
  O  O102  1  0.64093000  0.52502000  0.00064000  1.0
  O  O103  1  0.52502000  0.83405000  0.66731000  1.0
  O  O104  1  0.83405000  0.64093000  0.33397000  1.0
  O  O105  1  0.35907000  0.16595000  0.33269000  1.0
  O  O106  1  0.47498000  0.35907000  0.66603000  1.0
  O  O107  1  0.16595000  0.47498000  0.99936000  1.0
  O  O108  1  0.69911000  0.70888000  0.97413000  1.0
  O  O109  1  0.70887000  0.59201000  0.64079000  1.0
  O  O110  1  0.59201000  0.69912000  0.30746000  1.0
  O  O111  1  0.30088000  0.40799000  0.35921000  1.0
  O  O112  1  0.29113000  0.30088000  0.69254000  1.0
  O  O113  1  0.40799000  0.29113000  0.02588000  1.0
  O  O114  1  0.42480000  0.77224000  0.80960000  1.0
  O  O115  1  0.77221000  0.80296000  0.47627000  1.0
  O  O116  1  0.80296000  0.42482000  0.14294000  1.0
  O  O117  1  0.57518000  0.19704000  0.52373000  1.0
  O  O118  1  0.22778000  0.57518000  0.85706000  1.0
  O  O119  1  0.19704000  0.22777000  0.19040000  1.0
