# generated using pymatgen
data_CuH3C4BrN2Cl
_symmetry_space_group_name_H-M   'P 1'
_cell_length_a   3.84651000
_cell_length_b   12.65100000
_cell_length_c   13.07450000
_cell_angle_alpha   90.00030000
_cell_angle_beta   90.00040000
_cell_angle_gamma   90.51190000
_symmetry_Int_Tables_number   1
_chemical_formula_structural   CuH3C4BrN2Cl
_chemical_formula_sum   'Cu4 H12 C16 Br4 N8 Cl4'
_cell_volume   636.20851516
_cell_formula_units_Z   4
loop_
 _symmetry_equiv_pos_site_id
 _symmetry_equiv_pos_as_xyz
  1  'x, y, z'
loop_
 _atom_site_type_symbol
 _atom_site_label
 _atom_site_symmetry_multiplicity
 _atom_site_fract_x
 _atom_site_fract_y
 _atom_site_fract_z
 _atom_site_occupancy
  Cu  Cu0  1  0.44556000  0.67881000  0.34063000  1.0
  Cu  Cu1  1  0.44559000  0.17881000  0.15936000  1.0
  Cu  Cu2  1  0.55441000  0.32119000  0.65936000  1.0
  Cu  Cu3  1  0.55442000  0.82119000  0.84064000  1.0
  H  H4  1  0.20831000  0.38211000  0.08124000  1.0
  H  H5  1  0.20826000  0.88212000  0.41875000  1.0
  H  H6  1  0.79172000  0.61788000  0.91876000  1.0
  H  H7  1  0.79175000  0.11788000  0.58125000  1.0
  H  H8  1  0.67225000  0.28845000  0.35480000  1.0
  H  H9  1  0.67224000  0.78845000  0.14519000  1.0
  H  H10  1  0.32773000  0.71155000  0.64520000  1.0
  H  H11  1  0.32773000  0.21155000  0.85480000  1.0
  H  H12  1  0.69398000  0.47577000  0.41324000  1.0
  H  H13  1  0.69398000  0.97577000  0.08675000  1.0
  H  H14  1  0.30603000  0.52424000  0.58675000  1.0
  H  H15  1  0.30603000  0.02423000  0.91325000  1.0
  C  C16  1  0.33430000  0.50752000  0.18875000  1.0
  C  C17  1  0.33429000  0.00753000  0.31125000  1.0
  C  C18  1  0.66570000  0.49248000  0.81125000  1.0
  C  C19  1  0.66572000  0.99248000  0.68875000  1.0
  C  C20  1  0.31797000  0.40327000  0.15537000  1.0
  C  C21  1  0.31793000  0.90328000  0.34463000  1.0
  C  C22  1  0.68204000  0.59672000  0.84463000  1.0
  C  C23  1  0.68207000  0.09672000  0.65537000  1.0
  C  C24  1  0.57266000  0.35098000  0.30613000  1.0
  C  C25  1  0.57264000  0.85099000  0.19387000  1.0
  C  C26  1  0.42732000  0.64902000  0.69388000  1.0
  C  C27  1  0.42733000  0.14902000  0.80613000  1.0
  C  C28  1  0.58401000  0.45504000  0.33898000  1.0
  C  C29  1  0.58401000  0.95504000  0.16102000  1.0
  C  C30  1  0.41599000  0.54496000  0.66103000  1.0
  C  C31  1  0.41601000  0.04496000  0.83898000  1.0
  Br  Br32  1  0.94511000  0.67757000  0.46327000  1.0
  Br  Br33  1  0.94512000  0.17757000  0.03672000  1.0
  Br  Br34  1  0.05488000  0.32243000  0.53672000  1.0
  Br  Br35  1  0.05488000  0.82243000  0.96328000  1.0
  N  N36  1  0.46308000  0.53547000  0.28095000  1.0
  N  N37  1  0.46307000  0.03547000  0.21905000  1.0
  N  N38  1  0.53693000  0.46453000  0.71905000  1.0
  N  N39  1  0.53694000  0.96453000  0.78095000  1.0
  N  N40  1  0.43706000  0.32371000  0.21427000  1.0
  N  N41  1  0.43703000  0.82372000  0.28573000  1.0
  N  N42  1  0.56294000  0.67628000  0.78574000  1.0
  N  N43  1  0.56296000  0.17628000  0.71427000  1.0
  Cl  Cl44  1  0.19445000  0.60724000  0.10965000  1.0
  Cl  Cl45  1  0.19445000  0.10725000  0.39034000  1.0
  Cl  Cl46  1  0.80555000  0.39275000  0.89034000  1.0
  Cl  Cl47  1  0.80557000  0.89275000  0.60965000  1.0
