# generated using pymatgen
data_KBH7C14OF15
_symmetry_space_group_name_H-M   'P 1'
_cell_length_a   8.85085000
_cell_length_b   9.03150000
_cell_length_c   11.89960000
_cell_angle_alpha   78.04740000
_cell_angle_beta   82.20850000
_cell_angle_gamma   85.29970000
_symmetry_Int_Tables_number   1
_chemical_formula_structural   KBH7C14OF15
_chemical_formula_sum   'K2 B2 H14 C28 O2 F30'
_cell_volume   920.57272358
_cell_formula_units_Z   2
loop_
 _symmetry_equiv_pos_site_id
 _symmetry_equiv_pos_as_xyz
  1  'x, y, z'
loop_
 _atom_site_type_symbol
 _atom_site_label
 _atom_site_symmetry_multiplicity
 _atom_site_fract_x
 _atom_site_fract_y
 _atom_site_fract_z
 _atom_site_occupancy
  K  K0  1  0.78571000  0.29196000  0.02756000  1.0
  K  K1  1  0.21429000  0.70803000  0.97244000  1.0
  B  B2  1  0.20778000  0.19041000  0.18718000  1.0
  B  B3  1  0.79223000  0.80959000  0.81282000  1.0
  H  H4  1  0.30331000  0.04251000  0.33939000  1.0
  H  H5  1  0.69670000  0.95749000  0.66061000  1.0
  H  H6  1  0.41000000  0.02993000  0.20554000  1.0
  H  H7  1  0.59000000  0.97007000  0.79446000  1.0
  H  H8  1  0.69722000  0.34664000  0.32814000  1.0
  H  H9  1  0.30278000  0.65336000  0.67187000  1.0
  H  H10  1  0.73922000  0.39711000  0.51872000  1.0
  H  H11  1  0.26077000  0.60289000  0.48129000  1.0
  H  H12  1  0.55342000  0.31078000  0.69242000  1.0
  H  H13  1  0.44657000  0.68922000  0.30758000  1.0
  H  H14  1  0.32846000  0.17301000  0.67470000  1.0
  H  H15  1  0.67153000  0.82700000  0.32529000  1.0
  H  H16  1  0.28973000  0.11838000  0.48641000  1.0
  H  H17  1  0.71026000  0.88164000  0.51358000  1.0
  C  C18  1  0.08349000  0.28878000  0.26531000  1.0
  C  C19  1  0.91651000  0.71121000  0.73469000  1.0
  C  C20  1  0.11176000  0.44986000  0.28294000  1.0
  C  C21  1  0.88823000  0.55014000  0.71706000  1.0
  C  C22  1  0.11658000  0.04716000  0.16319000  1.0
  C  C23  1  0.88341000  0.95284000  0.83681000  1.0
  C  C24  1  0.01784000  0.94153000  0.26143000  1.0
  C  C25  1  0.98216000  0.05847000  0.73857000  1.0
  C  C26  1  0.26093000  0.30197000  0.06066000  1.0
  C  C27  1  0.73907000  0.69803000  0.93934000  1.0
  C  C28  1  0.35824000  0.24389000  0.95749000  1.0
  C  C29  1  0.64176000  0.75611000  0.04251000  1.0
  C  C30  1  0.35200000  0.11035000  0.25718000  1.0
  C  C31  1  0.64801000  0.88966000  0.74282000  1.0
  C  C32  1  0.47797000  0.20014000  0.27689000  1.0
  C  C33  1  0.52204000  0.79986000  0.72311000  1.0
  C  C34  1  0.49183000  0.22936000  0.39361000  1.0
  C  C35  1  0.50817000  0.77064000  0.60639000  1.0
  C  C36  1  0.61766000  0.30854000  0.40481000  1.0
  C  C37  1  0.38234000  0.69146000  0.59520000  1.0
  C  C38  1  0.64066000  0.33657000  0.51146000  1.0
  C  C39  1  0.35934000  0.66343000  0.48854000  1.0
  C  C40  1  0.53640000  0.28780000  0.60881000  1.0
  C  C41  1  0.46359000  0.71220000  0.39119000  1.0
  C  C42  1  0.40997000  0.21046000  0.59886000  1.0
  C  C43  1  0.59002000  0.78954000  0.40114000  1.0
  C  C44  1  0.38800000  0.18028000  0.49212000  1.0
  C  C45  1  0.61199000  0.81973000  0.50787000  1.0
  O  O46  1  0.57824000  0.24441000  0.19563000  1.0
  O  O47  1  0.42177000  0.75559000  0.80437000  1.0
  F  F48  1  0.94047000  0.31235000  0.22189000  1.0
  F  F49  1  0.05953000  0.68764000  0.77811000  1.0
  F  F50  1  0.05536000  0.20518000  0.37735000  1.0
  F  F51  1  0.94464000  0.79482000  0.62265000  1.0
  F  F52  1  0.25316000  0.45848000  0.31142000  1.0
  F  F53  1  0.74683000  0.54153000  0.68858000  1.0
  F  F54  1  0.00877000  0.49229000  0.36707000  1.0
  F  F55  1  0.99122000  0.50771000  0.63293000  1.0
  F  F56  1  0.09617000  0.55541000  0.18380000  1.0
  F  F57  1  0.90382000  0.44459000  0.81620000  1.0
  F  F58  1  0.22275000  0.94464000  0.11621000  1.0
  F  F59  1  0.77725000  0.05536000  0.88379000  1.0
  F  F60  1  0.01688000  0.09484000  0.07853000  1.0
  F  F61  1  0.98312000  0.90516000  0.92147000  1.0
  F  F62  1  0.09782000  0.87985000  0.35068000  1.0
  F  F63  1  0.90218000  0.12015000  0.64932000  1.0
  F  F64  1  0.88940000  0.01502000  0.30267000  1.0
  F  F65  1  0.11060000  0.98498000  0.69733000  1.0
  F  F66  1  0.97211000  0.82549000  0.21909000  1.0
  F  F67  1  0.02789000  0.17451000  0.78091000  1.0
  F  F68  1  0.34567000  0.41852000  0.07774000  1.0
  F  F69  1  0.65432000  0.58148000  0.92226000  1.0
  F  F70  1  0.13428000  0.37972000  0.00896000  1.0
  F  F71  1  0.86573000  0.62028000  0.99104000  1.0
  F  F72  1  0.48877000  0.16600000  0.98912000  1.0
  F  F73  1  0.51123000  0.83400000  0.01088000  1.0
  F  F74  1  0.28024000  0.15278000  0.91181000  1.0
  F  F75  1  0.71976000  0.84722000  0.08820000  1.0
  F  F76  1  0.40006000  0.36375000  0.87136000  1.0
  F  F77  1  0.59995000  0.63625000  0.12864000  1.0
