# generated using pymatgen
data_Zn3H21C27N3O10
_symmetry_space_group_name_H-M   'P 1'
_cell_length_a   9.19142000
_cell_length_b   18.71480000
_cell_length_c   20.03060000
_cell_angle_alpha   90.00090000
_cell_angle_beta   90.00050000
_cell_angle_gamma   89.99970000
_symmetry_Int_Tables_number   1
_chemical_formula_structural   Zn3H21C27N3O10
_chemical_formula_sum   'Zn12 H84 C108 N12 O40'
_cell_volume   3445.57541668
_cell_formula_units_Z   4
loop_
 _symmetry_equiv_pos_site_id
 _symmetry_equiv_pos_as_xyz
  1  'x, y, z'
loop_
 _atom_site_type_symbol
 _atom_site_label
 _atom_site_symmetry_multiplicity
 _atom_site_fract_x
 _atom_site_fract_y
 _atom_site_fract_z
 _atom_site_occupancy
  Zn  Zn0  1  0.73545000  0.36371000  0.33415000  1.0
  Zn  Zn1  1  0.43931000  0.27251000  0.38063000  1.0
  Zn  Zn2  1  0.64510000  0.67821000  0.07631000  1.0
  Zn  Zn3  1  0.73545000  0.63629000  0.66586000  1.0
  Zn  Zn4  1  0.43931000  0.72749000  0.61936000  1.0
  Zn  Zn5  1  0.64510000  0.32179000  0.92369000  1.0
  Zn  Zn6  1  0.23545000  0.86372000  0.16585000  1.0
  Zn  Zn7  1  0.93931000  0.77251000  0.11936000  1.0
  Zn  Zn8  1  0.14509000  0.17822000  0.42369000  1.0
  Zn  Zn9  1  0.23546000  0.13629000  0.83415000  1.0
  Zn  Zn10  1  0.93932000  0.22750000  0.88063000  1.0
  Zn  Zn11  1  0.14510000  0.82179000  0.57630000  1.0
  H  H12  1  0.69624000  0.23532000  0.36113000  1.0
  H  H13  1  0.17890000  0.30681000  0.39761000  1.0
  H  H14  1  0.21266000  0.21265000  0.07387000  1.0
  H  H15  1  0.54043000  0.53692000  0.23518000  1.0
  H  H16  1  0.12489000  0.62109000  0.17679000  1.0
  H  H17  1  0.00114000  0.52579000  0.24336000  1.0
  H  H18  1  0.14979000  0.43306000  0.30232000  1.0
  H  H19  1  0.25872000  0.41651000  0.42562000  1.0
  H  H20  1  0.73840000  0.10408000  0.45226000  1.0
  H  H21  1  0.98729000  0.27707000  0.27939000  1.0
  H  H22  1  0.06141000  0.35639000  0.07977000  1.0
  H  H23  1  0.86583000  0.44709000  0.10121000  1.0
  H  H24  1  0.73428000  0.44439000  0.21093000  1.0
  H  H25  1  0.11430000  0.19984000  0.17723000  1.0
  H  H26  1  0.24007000  0.26160000  0.20971000  1.0
  H  H27  1  0.39445000  0.24711000  0.99450000  1.0
  H  H28  1  0.31644000  0.37233000  0.17351000  1.0
  H  H29  1  0.51350000  0.45341000  0.13628000  1.0
  H  H30  1  0.64913000  0.42576000  0.02989000  1.0
  H  H31  1  0.69625000  0.76469000  0.63886000  1.0
  H  H32  1  0.17890000  0.69319000  0.60240000  1.0
  H  H33  1  0.21264000  0.78735000  0.92614000  1.0
  H  H34  1  0.54044000  0.46308000  0.76484000  1.0
  H  H35  1  0.12488000  0.37891000  0.82320000  1.0
  H  H36  1  0.00115000  0.47422000  0.75662000  1.0
  H  H37  1  0.14981000  0.56694000  0.69767000  1.0
  H  H38  1  0.25872000  0.58350000  0.57441000  1.0
  H  H39  1  0.73842000  0.89592000  0.54774000  1.0
  H  H40  1  0.98729000  0.72292000  0.72061000  1.0
  H  H41  1  0.06139000  0.64359000  0.92023000  1.0
  H  H42  1  0.86582000  0.55290000  0.89879000  1.0
  H  H43  1  0.73427000  0.55560000  0.78907000  1.0
  H  H44  1  0.11428000  0.80015000  0.82277000  1.0
  H  H45  1  0.24004000  0.73840000  0.79029000  1.0
  H  H46  1  0.39444000  0.75289000  0.00550000  1.0
  H  H47  1  0.31642000  0.62767000  0.82649000  1.0
  H  H48  1  0.51349000  0.54659000  0.86372000  1.0
  H  H49  1  0.64913000  0.57424000  0.97011000  1.0
  H  H50  1  0.19624000  0.73532000  0.13886000  1.0
  H  H51  1  0.67890000  0.80681000  0.10239000  1.0
  H  H52  1  0.71266000  0.71266000  0.42613000  1.0
  H  H53  1  0.04042000  0.03692000  0.26483000  1.0
  H  H54  1  0.62488000  0.12109000  0.32321000  1.0
  H  H55  1  0.50113000  0.02579000  0.25663000  1.0
  H  H56  1  0.64979000  0.93306000  0.19768000  1.0
  H  H57  1  0.75872000  0.91649000  0.07440000  1.0
  H  H58  1  0.23843000  0.60408000  0.04774000  1.0
  H  H59  1  0.48729000  0.77708000  0.22060000  1.0
  H  H60  1  0.56139000  0.85641000  0.42023000  1.0
  H  H61  1  0.36581000  0.94710000  0.39879000  1.0
  H  H62  1  0.23426000  0.94440000  0.28907000  1.0
  H  H63  1  0.61427000  0.69985000  0.32277000  1.0
  H  H64  1  0.74004000  0.76160000  0.29028000  1.0
  H  H65  1  0.89446000  0.74712000  0.50548000  1.0
  H  H66  1  0.81643000  0.87234000  0.32648000  1.0
  H  H67  1  0.01351000  0.95342000  0.36371000  1.0
  H  H68  1  0.14913000  0.92577000  0.47010000  1.0
  H  H69  1  0.19626000  0.26469000  0.86113000  1.0
  H  H70  1  0.67892000  0.19319000  0.89761000  1.0
  H  H71  1  0.71264000  0.28734000  0.57387000  1.0
  H  H72  1  0.04044000  0.96308000  0.73517000  1.0
  H  H73  1  0.62489000  0.87891000  0.67679000  1.0
  H  H74  1  0.50115000  0.97422000  0.74336000  1.0
  H  H75  1  0.64980000  0.06695000  0.80231000  1.0
  H  H76  1  0.75873000  0.08349000  0.92561000  1.0
  H  H77  1  0.23843000  0.39592000  0.95227000  1.0
  H  H78  1  0.48728000  0.22292000  0.77939000  1.0
  H  H79  1  0.56138000  0.14359000  0.57977000  1.0
  H  H80  1  0.36579000  0.05290000  0.60121000  1.0
  H  H81  1  0.23425000  0.05560000  0.71093000  1.0
  H  H82  1  0.61427000  0.30015000  0.67723000  1.0
  H  H83  1  0.74004000  0.23839000  0.70971000  1.0
  H  H84  1  0.89443000  0.25290000  0.49451000  1.0
  H  H85  1  0.81644000  0.12766000  0.67351000  1.0
  H  H86  1  0.01351000  0.04658000  0.63627000  1.0
  H  H87  1  0.14913000  0.07424000  0.52988000  1.0
  H  H88  1  0.85402000  0.50001000  0.50000000  1.0
  H  H89  1  0.39504000  0.50000000  0.50001000  1.0
  H  H90  1  0.35403000  0.99999000  0.00000000  1.0
  H  H91  1  0.89504000  0.99999000  0.00001000  1.0
  H  H92  1  0.33608000  0.00000000  0.50000000  1.0
  H  H93  1  0.87428000  0.00000000  0.50000000  1.0
  H  H94  1  0.83609000  0.50000000  0.00000000  1.0
  H  H95  1  0.37429000  0.50000000  0.00001000  1.0
  C  C96  1  0.44567000  0.42339000  0.30590000  1.0
  C  C97  1  0.35427000  0.47948000  0.27256000  1.0
  C  C98  1  0.42224000  0.53422000  0.23681000  1.0
  C  C99  1  0.34035000  0.58473000  0.20170000  1.0
  C  C100  1  0.18801000  0.58176000  0.20458000  1.0
  C  C101  1  0.11962000  0.52803000  0.24140000  1.0
  C  C102  1  0.20170000  0.47629000  0.27464000  1.0
  C  C103  1  0.41678000  0.63762000  0.15777000  1.0
  C  C104  1  0.96579000  0.40376000  0.41306000  1.0
  C  C105  1  0.04797000  0.45278000  0.45849000  1.0
  C  C106  1  0.20064000  0.45285000  0.45869000  1.0
  C  C107  1  0.44039000  0.11913000  0.44610000  1.0
  C  C108  1  0.52842000  0.05821000  0.47306000  1.0
  C  C109  1  0.68094000  0.05836000  0.47330000  1.0
  C  C110  1  0.96254000  0.31236000  0.23757000  1.0
  C  C111  1  0.03947000  0.30874000  0.17744000  1.0
  C  C112  1  0.00361000  0.35745000  0.12726000  1.0
  C  C113  1  0.89412000  0.40744000  0.13868000  1.0
  C  C114  1  0.82162000  0.40700000  0.19936000  1.0
  C  C115  1  0.15964000  0.25355000  0.16939000  1.0
  C  C116  1  0.41980000  0.29102000  0.02847000  1.0
  C  C117  1  0.34039000  0.30087000  0.08820000  1.0
  C  C118  1  0.37616000  0.36065000  0.12785000  1.0
  C  C119  1  0.48672000  0.40609000  0.10709000  1.0
  C  C120  1  0.56119000  0.39212000  0.04813000  1.0
  C  C121  1  0.44569000  0.57661000  0.69410000  1.0
  C  C122  1  0.35428000  0.52052000  0.72744000  1.0
  C  C123  1  0.42225000  0.46579000  0.76320000  1.0
  C  C124  1  0.34034000  0.41527000  0.79830000  1.0
  C  C125  1  0.18801000  0.41825000  0.79542000  1.0
  C  C126  1  0.11963000  0.47198000  0.75859000  1.0
  C  C127  1  0.20171000  0.52371000  0.72536000  1.0
  C  C128  1  0.41679000  0.36239000  0.84223000  1.0
  C  C129  1  0.96578000  0.59624000  0.58695000  1.0
  C  C130  1  0.04797000  0.54723000  0.54153000  1.0
  C  C131  1  0.20064000  0.54715000  0.54132000  1.0
  C  C132  1  0.44040000  0.88087000  0.55389000  1.0
  C  C133  1  0.52843000  0.94179000  0.52693000  1.0
  C  C134  1  0.68094000  0.94164000  0.52670000  1.0
  C  C135  1  0.96253000  0.68763000  0.76243000  1.0
  C  C136  1  0.03946000  0.69124000  0.82256000  1.0
  C  C137  1  0.00359000  0.64253000  0.87274000  1.0
  C  C138  1  0.89412000  0.59255000  0.86131000  1.0
  C  C139  1  0.82162000  0.59299000  0.80064000  1.0
  C  C140  1  0.15961000  0.74644000  0.83062000  1.0
  C  C141  1  0.41979000  0.70898000  0.97153000  1.0
  C  C142  1  0.34037000  0.69913000  0.91180000  1.0
  C  C143  1  0.37615000  0.63935000  0.87215000  1.0
  C  C144  1  0.48672000  0.59391000  0.89291000  1.0
  C  C145  1  0.56118000  0.60788000  0.95187000  1.0
  C  C146  1  0.94567000  0.92339000  0.19410000  1.0
  C  C147  1  0.85426000  0.97948000  0.22744000  1.0
  C  C148  1  0.92224000  0.03422000  0.26319000  1.0
  C  C149  1  0.84033000  0.08473000  0.29830000  1.0
  C  C150  1  0.68800000  0.08175000  0.29542000  1.0
  C  C151  1  0.61962000  0.02802000  0.25861000  1.0
  C  C152  1  0.70170000  0.97628000  0.22536000  1.0
  C  C153  1  0.91678000  0.13762000  0.34223000  1.0
  C  C154  1  0.46578000  0.90375000  0.08694000  1.0
  C  C155  1  0.54798000  0.95276000  0.04152000  1.0
  C  C156  1  0.70064000  0.95284000  0.04132000  1.0
  C  C157  1  0.94041000  0.61913000  0.05389000  1.0
  C  C158  1  0.02844000  0.55821000  0.02693000  1.0
  C  C159  1  0.18096000  0.55836000  0.02671000  1.0
  C  C160  1  0.46253000  0.81238000  0.26243000  1.0
  C  C161  1  0.53945000  0.80876000  0.32256000  1.0
  C  C162  1  0.50358000  0.85746000  0.37274000  1.0
  C  C163  1  0.39410000  0.90745000  0.36132000  1.0
  C  C164  1  0.32160000  0.90701000  0.30063000  1.0
  C  C165  1  0.65961000  0.75356000  0.33061000  1.0
  C  C166  1  0.91980000  0.79103000  0.47151000  1.0
  C  C167  1  0.84039000  0.80088000  0.41179000  1.0
  C  C168  1  0.87617000  0.86066000  0.37214000  1.0
  C  C169  1  0.98673000  0.90610000  0.39290000  1.0
  C  C170  1  0.06119000  0.89213000  0.45186000  1.0
  C  C171  1  0.94569000  0.07661000  0.80591000  1.0
  C  C172  1  0.85427000  0.02052000  0.77256000  1.0
  C  C173  1  0.92225000  0.96579000  0.73680000  1.0
  C  C174  1  0.84035000  0.91528000  0.70169000  1.0
  C  C175  1  0.68802000  0.91825000  0.70458000  1.0
  C  C176  1  0.61963000  0.97198000  0.74139000  1.0
  C  C177  1  0.70171000  0.02372000  0.77464000  1.0
  C  C178  1  0.91679000  0.86239000  0.65777000  1.0
  C  C179  1  0.46580000  0.09624000  0.91306000  1.0
  C  C180  1  0.54798000  0.04723000  0.95849000  1.0
  C  C181  1  0.70065000  0.04714000  0.95869000  1.0
  C  C182  1  0.94041000  0.38087000  0.94611000  1.0
  C  C183  1  0.02844000  0.44179000  0.97307000  1.0
  C  C184  1  0.18096000  0.44164000  0.97331000  1.0
  C  C185  1  0.46252000  0.18763000  0.73757000  1.0
  C  C186  1  0.53944000  0.19125000  0.67744000  1.0
  C  C187  1  0.50358000  0.14254000  0.62726000  1.0
  C  C188  1  0.39409000  0.09255000  0.63869000  1.0
  C  C189  1  0.32160000  0.09299000  0.69937000  1.0
  C  C190  1  0.65961000  0.24644000  0.66939000  1.0
  C  C191  1  0.91979000  0.20898000  0.52848000  1.0
  C  C192  1  0.84038000  0.19913000  0.58820000  1.0
  C  C193  1  0.87616000  0.13935000  0.62784000  1.0
  C  C194  1  0.98673000  0.09391000  0.60708000  1.0
  C  C195  1  0.06119000  0.10788000  0.54812000  1.0
  C  C196  1  0.97239000  0.50001000  0.50000000  1.0
  C  C197  1  0.27629000  0.50000000  0.50001000  1.0
  C  C198  1  0.47240000  0.99999000  0.00000000  1.0
  C  C199  1  0.77629000  0.99999000  0.00000000  1.0
  C  C200  1  0.45431000  0.00000000  0.50000000  1.0
  C  C201  1  0.75584000  0.00000000  0.50000000  1.0
  C  C202  1  0.95433000  0.50000000  0.00000000  1.0
  C  C203  1  0.25586000  0.50000000  0.00001000  1.0
  N  N204  1  0.85538000  0.36005000  0.24795000  1.0
  N  N205  1  0.23199000  0.25392000  0.10525000  1.0
  N  N206  1  0.52689000  0.33524000  0.00973000  1.0
  N  N207  1  0.85538000  0.63993000  0.75205000  1.0
  N  N208  1  0.23197000  0.74607000  0.89476000  1.0
  N  N209  1  0.52688000  0.66476000  0.99027000  1.0
  N  N210  1  0.35537000  0.86007000  0.25205000  1.0
  N  N211  1  0.73198000  0.75394000  0.39474000  1.0
  N  N212  1  0.02689000  0.83525000  0.49026000  1.0
  N  N213  1  0.35537000  0.13993000  0.74795000  1.0
  N  N214  1  0.73197000  0.24606000  0.60525000  1.0
  N  N215  1  0.02688000  0.16477000  0.50973000  1.0
  O  O216  1  0.58324000  0.43391000  0.30534000  1.0
  O  O217  1  0.38065000  0.36999000  0.33117000  1.0
  O  O218  1  0.55640000  0.62937000  0.15326000  1.0
  O  O219  1  0.34773000  0.68439000  0.12564000  1.0
  O  O220  1  0.82735000  0.41542000  0.40814000  1.0
  O  O221  1  0.03009000  0.35531000  0.38072000  1.0
  O  O222  1  0.50537000  0.17705000  0.43264000  1.0
  O  O223  1  0.30399000  0.10678000  0.43951000  1.0
  O  O224  1  0.63158000  0.27540000  0.34776000  1.0
  O  O225  1  0.24546000  0.26735000  0.41145000  1.0
  O  O226  1  0.58326000  0.56609000  0.69468000  1.0
  O  O227  1  0.38067000  0.63001000  0.66883000  1.0
  O  O228  1  0.55638000  0.37064000  0.84674000  1.0
  O  O229  1  0.34773000  0.31562000  0.87437000  1.0
  O  O230  1  0.82734000  0.58459000  0.59186000  1.0
  O  O231  1  0.03007000  0.64470000  0.61929000  1.0
  O  O232  1  0.50538000  0.82295000  0.56735000  1.0
  O  O233  1  0.30400000  0.89322000  0.56048000  1.0
  O  O234  1  0.63158000  0.72460000  0.65224000  1.0
  O  O235  1  0.24546000  0.73265000  0.58855000  1.0
  O  O236  1  0.08324000  0.93391000  0.19467000  1.0
  O  O237  1  0.88065000  0.86999000  0.16883000  1.0
  O  O238  1  0.05638000  0.12936000  0.34674000  1.0
  O  O239  1  0.84773000  0.18440000  0.37436000  1.0
  O  O240  1  0.32735000  0.91541000  0.09186000  1.0
  O  O241  1  0.53006000  0.85530000  0.11928000  1.0
  O  O242  1  0.00537000  0.67705000  0.06735000  1.0
  O  O243  1  0.80400000  0.60678000  0.06049000  1.0
  O  O244  1  0.13158000  0.77540000  0.15224000  1.0
  O  O245  1  0.74546000  0.76735000  0.08854000  1.0
  O  O246  1  0.08326000  0.06608000  0.80534000  1.0
  O  O247  1  0.88067000  0.13001000  0.83117000  1.0
  O  O248  1  0.05640000  0.87064000  0.65325000  1.0
  O  O249  1  0.84773000  0.81562000  0.62563000  1.0
  O  O250  1  0.32735000  0.08458000  0.90814000  1.0
  O  O251  1  0.53009000  0.14469000  0.88073000  1.0
  O  O252  1  0.00538000  0.32295000  0.93265000  1.0
  O  O253  1  0.80400000  0.39322000  0.93952000  1.0
  O  O254  1  0.13160000  0.22460000  0.84776000  1.0
  O  O255  1  0.74548000  0.23266000  0.91144000  1.0
