# generated using pymatgen
data_CoMo3H8C10(NO5)2
_symmetry_space_group_name_H-M   'P 1'
_cell_length_a   7.09667000
_cell_length_b   10.40740000
_cell_length_c   10.63140000
_cell_angle_alpha   90.95350000
_cell_angle_beta   90.16760000
_cell_angle_gamma   100.75820000
_symmetry_Int_Tables_number   1
_chemical_formula_structural   CoMo3H8C10(NO5)2
_chemical_formula_sum   'Co2 Mo6 H16 C20 N4 O20'
_cell_volume   771.29020407
_cell_formula_units_Z   2
loop_
 _symmetry_equiv_pos_site_id
 _symmetry_equiv_pos_as_xyz
  1  'x, y, z'
loop_
 _atom_site_type_symbol
 _atom_site_label
 _atom_site_symmetry_multiplicity
 _atom_site_fract_x
 _atom_site_fract_y
 _atom_site_fract_z
 _atom_site_occupancy
  Co  Co0  1  0.75542000  0.08035000  0.19481000  1.0
  Co  Co1  1  0.24485000  0.91938000  0.80510000  1.0
  Mo  Mo2  1  0.88525000  0.34595000  0.98151000  1.0
  Mo  Mo3  1  0.11466000  0.65387000  0.01830000  1.0
  Mo  Mo4  1  0.62147000  0.53321000  0.86718000  1.0
  Mo  Mo5  1  0.37813000  0.46652000  0.13304000  1.0
  Mo  Mo6  1  0.72470000  0.89116000  0.89971000  1.0
  Mo  Mo7  1  0.27542000  0.10849000  0.10032000  1.0
  H  H8  1  0.80613000  0.36327000  0.27314000  1.0
  H  H9  1  0.19378000  0.63653000  0.72617000  1.0
  H  H10  1  0.81636000  0.47766000  0.48254000  1.0
  H  H11  1  0.18344000  0.52254000  0.51653000  1.0
  H  H12  1  0.79565000  0.34491000  0.67924000  1.0
  H  H13  1  0.20447000  0.65577000  0.32014000  1.0
  H  H14  1  0.76463000  0.10278000  0.65845000  1.0
  H  H15  1  0.23557000  0.89783000  0.34144000  1.0
  H  H16  1  0.75599000  0.89935000  0.61918000  1.0
  H  H17  1  0.24431000  0.10123000  0.38111000  1.0
  H  H18  1  0.70757000  0.66448000  0.55258000  1.0
  H  H19  1  0.29245000  0.33595000  0.44813000  1.0
  H  H20  1  0.67232000  0.60856000  0.32029000  1.0
  H  H21  1  0.32741000  0.39129000  0.68050000  1.0
  H  H22  1  0.68085000  0.78760000  0.16810000  1.0
  H  H23  1  0.31935000  0.21205000  0.83233000  1.0
  C  C24  1  0.79871000  0.30976000  0.36049000  1.0
  C  C25  1  0.20125000  0.69026000  0.63895000  1.0
  C  C26  1  0.80478000  0.37209000  0.47754000  1.0
  C  C27  1  0.19503000  0.62812000  0.52181000  1.0
  C  C28  1  0.79389000  0.29855000  0.58671000  1.0
  C  C29  1  0.20614000  0.70190000  0.41279000  1.0
  C  C30  1  0.77648000  0.16361000  0.57541000  1.0
  C  C31  1  0.22375000  0.83684000  0.42434000  1.0
  C  C32  1  0.77009000  0.10613000  0.45553000  1.0
  C  C33  1  0.23015000  0.89410000  0.54431000  1.0
  C  C34  1  0.74660000  0.96656000  0.42948000  1.0
  C  C35  1  0.25364000  0.03362000  0.57063000  1.0
  C  C36  1  0.74044000  0.87101000  0.52027000  1.0
  C  C37  1  0.25978000  0.12938000  0.48006000  1.0
  C  C38  1  0.71442000  0.74023000  0.48238000  1.0
  C  C39  1  0.28557000  0.26007000  0.51817000  1.0
  C  C40  1  0.69372000  0.70916000  0.35467000  1.0
  C  C41  1  0.30624000  0.29081000  0.64592000  1.0
  C  C42  1  0.69919000  0.80854000  0.26805000  1.0
  C  C43  1  0.30101000  0.19128000  0.73236000  1.0
  N  N44  1  0.78115000  0.17887000  0.34912000  1.0
  N  N45  1  0.21903000  0.82114000  0.65057000  1.0
  N  N46  1  0.72833000  0.93483000  0.30430000  1.0
  N  N47  1  0.27189000  0.06505000  0.69588000  1.0
  O  O48  1  0.00602000  0.26081000  0.88303000  1.0
  O  O49  1  0.99398000  0.73944000  0.11638000  1.0
  O  O50  1  0.79002000  0.23328000  0.09811000  1.0
  O  O51  1  0.21042000  0.76620000  0.90153000  1.0
  O  O52  1  0.91923000  0.54372000  0.91465000  1.0
  O  O53  1  0.08033000  0.45609000  0.08535000  1.0
  O  O54  1  0.66158000  0.35548000  0.88436000  1.0
  O  O55  1  0.33787000  0.64427000  0.11589000  1.0
  O  O56  1  0.63241000  0.54965000  0.70765000  1.0
  O  O57  1  0.36678000  0.45006000  0.29257000  1.0
  O  O58  1  0.37406000  0.50195000  0.90175000  1.0
  O  O59  1  0.62561000  0.49784000  0.09881000  1.0
  O  O60  1  0.67332000  0.71128000  0.92601000  1.0
  O  O61  1  0.32629000  0.28843000  0.07412000  1.0
  O  O62  1  0.05736000  0.07154000  0.17960000  1.0
  O  O63  1  0.94285000  0.92799000  0.82050000  1.0
  O  O64  1  0.72278000  0.97551000  0.04561000  1.0
  O  O65  1  0.27742000  0.02395000  0.95451000  1.0
  O  O66  1  0.44857000  0.06877000  0.20275000  1.0
  O  O67  1  0.55166000  0.93114000  0.79730000  1.0
