# generated using pymatgen
data_PrH10C9S3N3O8
_symmetry_space_group_name_H-M   'P 1'
_cell_length_a   8.72551000
_cell_length_b   13.21570000
_cell_length_c   14.43070000
_cell_angle_alpha   90.00000000
_cell_angle_beta   90.00010000
_cell_angle_gamma   94.30810000
_symmetry_Int_Tables_number   1
_chemical_formula_structural   PrH10C9S3N3O8
_chemical_formula_sum   'Pr4 H40 C36 S12 N12 O32'
_cell_volume   1659.35597967
_cell_formula_units_Z   4
loop_
 _symmetry_equiv_pos_site_id
 _symmetry_equiv_pos_as_xyz
  1  'x, y, z'
loop_
 _atom_site_type_symbol
 _atom_site_label
 _atom_site_symmetry_multiplicity
 _atom_site_fract_x
 _atom_site_fract_y
 _atom_site_fract_z
 _atom_site_occupancy
  Pr  Pr0  1  0.24937000  0.49865000  0.50082000  1.0
  Pr  Pr1  1  0.25063000  0.00135000  0.00082000  1.0
  Pr  Pr2  1  0.75063000  0.50135000  0.49918000  1.0
  Pr  Pr3  1  0.74937000  0.99865000  0.99918000  1.0
  H  H4  1  0.24514000  0.38042000  0.83210000  1.0
  H  H5  1  0.25486000  0.11957000  0.33211000  1.0
  H  H6  1  0.75486000  0.61957000  0.16790000  1.0
  H  H7  1  0.74514000  0.88043000  0.66789000  1.0
  H  H8  1  0.09344000  0.46285000  0.82561000  1.0
  H  H9  1  0.40656000  0.03715000  0.32561000  1.0
  H  H10  1  0.90656000  0.53715000  0.17439000  1.0
  H  H11  1  0.59344000  0.96285000  0.67439000  1.0
  H  H12  1  0.62473000  0.79604000  0.17021000  1.0
  H  H13  1  0.87527000  0.70396000  0.67020000  1.0
  H  H14  1  0.37527000  0.20396000  0.82980000  1.0
  H  H15  1  0.12472000  0.29604000  0.32979000  1.0
  H  H16  1  0.58239000  0.71968000  0.07145000  1.0
  H  H17  1  0.91760000  0.78032000  0.57145000  1.0
  H  H18  1  0.41760000  0.28032000  0.92855000  1.0
  H  H19  1  0.08240000  0.21968000  0.42854000  1.0
  H  H20  1  0.85980000  0.26120000  0.04886000  1.0
  H  H21  1  0.64020000  0.23881000  0.54886000  1.0
  H  H22  1  0.14020000  0.73880000  0.95114000  1.0
  H  H23  1  0.35980000  0.76120000  0.45114000  1.0
  H  H24  1  0.00053000  0.33247000  0.97965000  1.0
  H  H25  1  0.49947000  0.16753000  0.47965000  1.0
  H  H26  1  0.99948000  0.66753000  0.02035000  1.0
  H  H27  1  0.50053000  0.83247000  0.52035000  1.0
  H  H28  1  0.23135000  0.64644000  0.32414000  1.0
  H  H29  1  0.26865000  0.85356000  0.82414000  1.0
  H  H30  1  0.76866000  0.35356000  0.67586000  1.0
  H  H31  1  0.73134000  0.14644000  0.17586000  1.0
  H  H32  1  0.06144000  0.61526000  0.35780000  1.0
  H  H33  1  0.43856000  0.88474000  0.85780000  1.0
  H  H34  1  0.93856000  0.38474000  0.64220000  1.0
  H  H35  1  0.56144000  0.11526000  0.14220000  1.0
  H  H36  1  0.29079000  0.46505000  0.28081000  1.0
  H  H37  1  0.20921000  0.03495000  0.78081000  1.0
  H  H38  1  0.70921000  0.53495000  0.71919000  1.0
  H  H39  1  0.79079000  0.96505000  0.21919000  1.0
  H  H40  1  0.44854000  0.45368000  0.33055000  1.0
  H  H41  1  0.05146000  0.04632000  0.83055000  1.0
  H  H42  1  0.55146000  0.54632000  0.66945000  1.0
  H  H43  1  0.94854000  0.95368000  0.16945000  1.0
  C  C44  1  0.29546000  0.53250000  0.97561000  1.0
  C  C45  1  0.20454000  0.96750000  0.47561000  1.0
  C  C46  1  0.70454000  0.46750000  0.02439000  1.0
  C  C47  1  0.79546000  0.03250000  0.52439000  1.0
  C  C48  1  0.34266000  0.58372000  0.12255000  1.0
  C  C49  1  0.15734000  0.91628000  0.62255000  1.0
  C  C50  1  0.65734000  0.41628000  0.87745000  1.0
  C  C51  1  0.84266000  0.08372000  0.37745000  1.0
  C  C52  1  0.17925000  0.44586000  0.09398000  1.0
  C  C53  1  0.32075000  0.05414000  0.59398000  1.0
  C  C54  1  0.82075000  0.55414000  0.90602000  1.0
  C  C55  1  0.67925000  0.94586000  0.40602000  1.0
  C  C56  1  0.21359000  0.45460000  0.80705000  1.0
  C  C57  1  0.28641000  0.04540000  0.30705000  1.0
  C  C58  1  0.78641000  0.54540000  0.19295000  1.0
  C  C59  1  0.71359000  0.95460000  0.69295000  1.0
  C  C60  1  0.23315000  0.46016000  0.70301000  1.0
  C  C61  1  0.26685000  0.03984000  0.20301000  1.0
  C  C62  1  0.76685000  0.53984000  0.29699000  1.0
  C  C63  1  0.73315000  0.96016000  0.79699000  1.0
  C  C64  1  0.53043000  0.75863000  0.12957000  1.0
  C  C65  1  0.96957000  0.74137000  0.62956000  1.0
  C  C66  1  0.46957000  0.24138000  0.87044000  1.0
  C  C67  1  0.03043000  0.25862000  0.37044000  1.0
  C  C68  1  0.43190000  0.83767000  0.08915000  1.0
  C  C69  1  0.06811000  0.66234000  0.58915000  1.0
  C  C70  1  0.56811000  0.16234000  0.91085000  1.0
  C  C71  1  0.93189000  0.33766000  0.41085000  1.0
  C  C72  1  0.98290000  0.28129000  0.03936000  1.0
  C  C73  1  0.51709000  0.21871000  0.53936000  1.0
  C  C74  1  0.01710000  0.71871000  0.96064000  1.0
  C  C75  1  0.48290000  0.78129000  0.46064000  1.0
  C  C76  1  0.07055000  0.18761000  0.02347000  1.0
  C  C77  1  0.42944000  0.31239000  0.52347000  1.0
  C  C78  1  0.92945000  0.81239000  0.97653000  1.0
  C  C79  1  0.57055000  0.68761000  0.47652000  1.0
  S  S80  1  0.33654000  0.55468000  0.85958000  1.0
  S  S81  1  0.16346000  0.94532000  0.35958000  1.0
  S  S82  1  0.66346000  0.44531000  0.14042000  1.0
  S  S83  1  0.83654000  0.05469000  0.64042000  1.0
  S  S84  1  0.43264000  0.66579000  0.20396000  1.0
  S  S85  1  0.06736000  0.83421000  0.70396000  1.0
  S  S86  1  0.56736000  0.33421000  0.79604000  1.0
  S  S87  1  0.93264000  0.16579000  0.29604000  1.0
  S  S88  1  0.05084000  0.35180000  0.14020000  1.0
  S  S89  1  0.44916000  0.14820000  0.64020000  1.0
  S  S90  1  0.94917000  0.64820000  0.85980000  1.0
  S  S91  1  0.55084000  0.85180000  0.35980000  1.0
  N  N92  1  0.37071000  0.59971000  0.03284000  1.0
  N  N93  1  0.12929000  0.90029000  0.53284000  1.0
  N  N94  1  0.62929000  0.40029000  0.96716000  1.0
  N  N95  1  0.87071000  0.09971000  0.46716000  1.0
  N  N96  1  0.24971000  0.50708000  0.15846000  1.0
  N  N97  1  0.25029000  0.99292000  0.65846000  1.0
  N  N98  1  0.75029000  0.49292000  0.84154000  1.0
  N  N99  1  0.74971000  0.00708000  0.34154000  1.0
  N  N100  1  0.19652000  0.45508000  0.00210000  1.0
  N  N101  1  0.30349000  0.04492000  0.50211000  1.0
  N  N102  1  0.80349000  0.54492000  0.99789000  1.0
  N  N103  1  0.69651000  0.95508000  0.49789000  1.0
  O  O104  1  0.35669000  0.50060000  0.66777000  1.0
  O  O105  1  0.14330000  0.99940000  0.16777000  1.0
  O  O106  1  0.64331000  0.49940000  0.33223000  1.0
  O  O107  1  0.85669000  0.00060000  0.83223000  1.0
  O  O108  1  0.12320000  0.42438000  0.65215000  1.0
  O  O109  1  0.37680000  0.07562000  0.15215000  1.0
  O  O110  1  0.87680000  0.57562000  0.34785000  1.0
  O  O111  1  0.62320000  0.92438000  0.84785000  1.0
  O  O112  1  0.50641000  0.91502000  0.05154000  1.0
  O  O113  1  0.99359000  0.58498000  0.55154000  1.0
  O  O114  1  0.49359000  0.08498000  0.94846000  1.0
  O  O115  1  0.00641000  0.41502000  0.44846000  1.0
  O  O116  1  0.28796000  0.82902000  0.09086000  1.0
  O  O117  1  0.21205000  0.67099000  0.59086000  1.0
  O  O118  1  0.71205000  0.17099000  0.90914000  1.0
  O  O119  1  0.78795000  0.32901000  0.40914000  1.0
  O  O120  1  0.21486000  0.19465000  0.01922000  1.0
  O  O121  1  0.28514000  0.30535000  0.51922000  1.0
  O  O122  1  0.78515000  0.80535000  0.98078000  1.0
  O  O123  1  0.71485000  0.69465000  0.48078000  1.0
  O  O124  1  0.99281000  0.10156000  0.01455000  1.0
  O  O125  1  0.50719000  0.39844000  0.51455000  1.0
  O  O126  1  0.00719000  0.89844000  0.98545000  1.0
  O  O127  1  0.49281000  0.60156000  0.48545000  1.0
  O  O128  1  0.17022000  0.62778000  0.37904000  1.0
  O  O129  1  0.32978000  0.87222000  0.87904000  1.0
  O  O130  1  0.82978000  0.37222000  0.62096000  1.0
  O  O131  1  0.67022000  0.12778000  0.12096000  1.0
  O  O132  1  0.33599000  0.44244000  0.33984000  1.0
  O  O133  1  0.16400000  0.05756000  0.83984000  1.0
  O  O134  1  0.66400000  0.55756000  0.66016000  1.0
  O  O135  1  0.83599000  0.94244000  0.16016000  1.0
