# generated using pymatgen
data_ZnH17C12N2ClO2
_symmetry_space_group_name_H-M   'P 1'
_cell_length_a   7.00510000
_cell_length_b   13.19550000
_cell_length_c   16.35180000
_cell_angle_alpha   90.00010000
_cell_angle_beta   90.00000000
_cell_angle_gamma   90.00000000
_symmetry_Int_Tables_number   1
_chemical_formula_structural   ZnH17C12N2ClO2
_chemical_formula_sum   'Zn4 H68 C48 N8 Cl4 O8'
_cell_volume   1511.49166620
_cell_formula_units_Z   4
loop_
 _symmetry_equiv_pos_site_id
 _symmetry_equiv_pos_as_xyz
  1  'x, y, z'
loop_
 _atom_site_type_symbol
 _atom_site_label
 _atom_site_symmetry_multiplicity
 _atom_site_fract_x
 _atom_site_fract_y
 _atom_site_fract_z
 _atom_site_occupancy
  Zn  Zn0  1  0.80323000  0.30195000  0.89339000  1.0
  Zn  Zn1  1  0.69676000  0.69804000  0.39339000  1.0
  Zn  Zn2  1  0.30323000  0.19804000  0.10661000  1.0
  Zn  Zn3  1  0.19677000  0.80196000  0.60661000  1.0
  H  H4  1  0.84279000  0.12661000  0.82073000  1.0
  H  H5  1  0.65722000  0.87339000  0.32073000  1.0
  H  H6  1  0.34278000  0.37339000  0.17927000  1.0
  H  H7  1  0.15722000  0.62661000  0.67927000  1.0
  H  H8  1  0.52092000  0.04444000  0.87756000  1.0
  H  H9  1  0.97907000  0.95556000  0.37757000  1.0
  H  H10  1  0.02092000  0.45556000  0.12243000  1.0
  H  H11  1  0.47907000  0.54444000  0.62243000  1.0
  H  H12  1  0.71478000  0.00539000  0.00625000  1.0
  H  H13  1  0.78522000  0.99461000  0.50625000  1.0
  H  H14  1  0.21478000  0.49461000  0.99375000  1.0
  H  H15  1  0.28522000  0.50539000  0.49375000  1.0
  H  H16  1  0.89709000  0.08459000  0.96716000  1.0
  H  H17  1  0.60291000  0.91541000  0.46717000  1.0
  H  H18  1  0.39709000  0.41541000  0.03284000  1.0
  H  H19  1  0.10291000  0.58459000  0.53284000  1.0
  H  H20  1  0.68869000  0.22754000  0.72666000  1.0
  H  H21  1  0.81132000  0.77246000  0.22666000  1.0
  H  H22  1  0.18868000  0.27246000  0.27334000  1.0
  H  H23  1  0.31132000  0.72754000  0.77334000  1.0
  H  H24  1  0.48341000  0.23635000  0.79029000  1.0
  H  H25  1  0.01659000  0.76365000  0.29030000  1.0
  H  H26  1  0.98341000  0.26365000  0.20971000  1.0
  H  H27  1  0.51659000  0.73635000  0.70971000  1.0
  H  H28  1  0.60616000  0.88217000  0.61794000  1.0
  H  H29  1  0.89385000  0.11783000  0.11794000  1.0
  H  H30  1  0.10615000  0.61783000  0.38206000  1.0
  H  H31  1  0.39385000  0.38217000  0.88206000  1.0
  H  H32  1  0.76928000  0.03310000  0.67596000  1.0
  H  H33  1  0.73072000  0.96690000  0.17597000  1.0
  H  H34  1  0.26928000  0.46691000  0.32404000  1.0
  H  H35  1  0.23072000  0.53309000  0.82404000  1.0
  H  H36  1  0.08282000  0.97028000  0.71071000  1.0
  H  H37  1  0.41719000  0.02972000  0.21071000  1.0
  H  H38  1  0.58282000  0.52973000  0.28928000  1.0
  H  H39  1  0.91718000  0.47028000  0.78929000  1.0
  H  H40  1  0.22303000  0.13098000  0.77039000  1.0
  H  H41  1  0.27697000  0.86902000  0.27040000  1.0
  H  H42  1  0.72303000  0.36903000  0.22960000  1.0
  H  H43  1  0.77697000  0.63097000  0.72960000  1.0
  H  H44  1  0.90542000  0.96718000  0.84026000  1.0
  H  H45  1  0.59458000  0.03282000  0.34026000  1.0
  H  H46  1  0.40543000  0.53282000  0.15974000  1.0
  H  H47  1  0.09457000  0.46718000  0.65974000  1.0
  H  H48  1  0.65837000  0.83115000  0.94964000  1.0
  H  H49  1  0.84163000  0.16885000  0.44964000  1.0
  H  H50  1  0.15837000  0.66885000  0.05036000  1.0
  H  H51  1  0.34163000  0.33115000  0.55036000  1.0
  H  H52  1  0.76846000  0.79526000  0.85545000  1.0
  H  H53  1  0.73154000  0.20473000  0.35545000  1.0
  H  H54  1  0.26846000  0.70473000  0.14455000  1.0
  H  H55  1  0.23154000  0.29527000  0.64455000  1.0
  H  H56  1  0.58374000  0.88661000  0.85579000  1.0
  H  H57  1  0.91626000  0.11339000  0.35579000  1.0
  H  H58  1  0.08374000  0.61339000  0.14421000  1.0
  H  H59  1  0.41626000  0.38661000  0.64421000  1.0
  H  H60  1  0.14570000  0.95880000  0.95417000  1.0
  H  H61  1  0.35430000  0.04120000  0.45417000  1.0
  H  H62  1  0.64570000  0.54120000  0.04583000  1.0
  H  H63  1  0.85430000  0.45880000  0.54583000  1.0
  H  H64  1  0.09917000  0.83723000  0.91066000  1.0
  H  H65  1  0.40082000  0.16277000  0.41066000  1.0
  H  H66  1  0.59918000  0.66277000  0.08934000  1.0
  H  H67  1  0.90082000  0.33723000  0.58934000  1.0
  H  H68  1  0.99749000  0.87089000  0.00644000  1.0
  H  H69  1  0.50250000  0.12911000  0.50645000  1.0
  H  H70  1  0.49749000  0.62911000  0.99355000  1.0
  H  H71  1  0.00250000  0.37089000  0.49355000  1.0
  C  C72  1  0.62851000  0.09568000  0.90402000  1.0
  C  C73  1  0.87149000  0.90432000  0.40402000  1.0
  C  C74  1  0.12850000  0.40432000  0.09598000  1.0
  C  C75  1  0.37149000  0.59568000  0.59598000  1.0
  C  C76  1  0.78021000  0.03314000  0.94934000  1.0
  C  C77  1  0.71979000  0.96686000  0.44934000  1.0
  C  C78  1  0.28021000  0.46686000  0.05066000  1.0
  C  C79  1  0.21978000  0.53314000  0.55066000  1.0
  C  C80  1  0.50815000  0.09462000  0.72862000  1.0
  C  C81  1  0.99186000  0.90538000  0.22862000  1.0
  C  C82  1  0.00814000  0.40538000  0.27138000  1.0
  C  C83  1  0.49186000  0.59462000  0.77138000  1.0
  C  C84  1  0.59725000  0.18532000  0.76943000  1.0
  C  C85  1  0.90275000  0.81468000  0.26944000  1.0
  C  C86  1  0.09725000  0.31468000  0.23057000  1.0
  C  C87  1  0.40275000  0.68532000  0.73057000  1.0
  C  C88  1  0.52438000  0.16379000  0.96530000  1.0
  C  C89  1  0.97561000  0.83621000  0.46530000  1.0
  C  C90  1  0.02440000  0.33620000  0.03470000  1.0
  C  C91  1  0.47560000  0.66380000  0.53470000  1.0
  C  C92  1  0.52644000  0.93901000  0.65206000  1.0
  C  C93  1  0.97356000  0.06099000  0.15207000  1.0
  C  C94  1  0.02644000  0.56099000  0.34794000  1.0
  C  C95  1  0.47356000  0.43901000  0.84794000  1.0
  C  C96  1  0.61589000  0.02393000  0.68477000  1.0
  C  C97  1  0.88411000  0.97607000  0.18478000  1.0
  C  C98  1  0.11589000  0.47607000  0.31523000  1.0
  C  C99  1  0.38411000  0.52393000  0.81523000  1.0
  C  C100  1  0.23346000  0.98972000  0.70387000  1.0
  C  C101  1  0.26655000  0.01028000  0.20387000  1.0
  C  C102  1  0.73346000  0.51028000  0.29613000  1.0
  C  C103  1  0.76655000  0.48972000  0.79613000  1.0
  C  C104  1  0.31228000  0.07663000  0.73751000  1.0
  C  C105  1  0.18772000  0.92337000  0.23752000  1.0
  C  C106  1  0.81228000  0.42337000  0.26248000  1.0
  C  C107  1  0.68772000  0.57663000  0.76249000  1.0
  C  C108  1  0.85944000  0.94196000  0.90170000  1.0
  C  C109  1  0.64056000  0.05804000  0.40170000  1.0
  C  C110  1  0.35944000  0.55803000  0.09830000  1.0
  C  C111  1  0.14056000  0.44197000  0.59830000  1.0
  C  C112  1  0.70870000  0.85919000  0.88997000  1.0
  C  C113  1  0.79129000  0.14081000  0.38997000  1.0
  C  C114  1  0.20871000  0.64081000  0.11003000  1.0
  C  C115  1  0.29129000  0.35919000  0.61003000  1.0
  C  C116  1  0.03605000  0.90010000  0.94553000  1.0
  C  C117  1  0.46395000  0.09990000  0.44553000  1.0
  C  C118  1  0.53605000  0.59990000  0.05447000  1.0
  C  C119  1  0.96394000  0.40010000  0.55447000  1.0
  N  N120  1  0.71875000  0.15901000  0.84070000  1.0
  N  N121  1  0.78125000  0.84098000  0.34071000  1.0
  N  N122  1  0.21875000  0.34098000  0.15929000  1.0
  N  N123  1  0.28125000  0.65901000  0.65929000  1.0
  N  N124  1  0.33844000  0.92184000  0.66197000  1.0
  N  N125  1  0.16157000  0.07815000  0.16197000  1.0
  N  N126  1  0.83844000  0.57816000  0.33803000  1.0
  N  N127  1  0.66156000  0.42184000  0.83803000  1.0
  Cl  Cl128  1  0.07766000  0.29528000  0.80951000  1.0
  Cl  Cl129  1  0.42234000  0.70472000  0.30952000  1.0
  Cl  Cl130  1  0.57766000  0.20472000  0.19048000  1.0
  Cl  Cl131  1  0.92234000  0.79528000  0.69049000  1.0
  O  O132  1  0.56251000  0.25750000  0.96798000  1.0
  O  O133  1  0.93749000  0.74250000  0.46798000  1.0
  O  O134  1  0.06250000  0.24251000  0.03202000  1.0
  O  O135  1  0.43750000  0.75749000  0.53202000  1.0
  O  O136  1  0.40781000  0.11822000  0.01226000  1.0
  O  O137  1  0.09219000  0.88177000  0.51227000  1.0
  O  O138  1  0.90780000  0.38178000  0.98773000  1.0
  O  O139  1  0.59220000  0.61822000  0.48773000  1.0
