# generated using pymatgen
data_ZnH15C14NO4
_symmetry_space_group_name_H-M   'P 1'
_cell_length_a   6.19815000
_cell_length_b   9.03601000
_cell_length_c   12.24190000
_cell_angle_alpha   81.50710000
_cell_angle_beta   80.75620000
_cell_angle_gamma   85.66220000
_symmetry_Int_Tables_number   1
_chemical_formula_structural   ZnH15C14NO4
_chemical_formula_sum   'Zn2 H30 C28 N2 O8'
_cell_volume   668.35492370
_cell_formula_units_Z   2
loop_
 _symmetry_equiv_pos_site_id
 _symmetry_equiv_pos_as_xyz
  1  'x, y, z'
loop_
 _atom_site_type_symbol
 _atom_site_label
 _atom_site_symmetry_multiplicity
 _atom_site_fract_x
 _atom_site_fract_y
 _atom_site_fract_z
 _atom_site_occupancy
  Zn  Zn0  1  0.52330000  0.86332000  0.57342000  1.0
  Zn  Zn1  1  0.47669000  0.13667000  0.42658000  1.0
  H  H2  1  0.10234000  0.64909000  0.37832000  1.0
  H  H3  1  0.89765000  0.35090000  0.62167000  1.0
  H  H4  1  0.91330000  0.76272000  0.23513000  1.0
  H  H5  1  0.08670000  0.23728000  0.76486000  1.0
  H  H6  1  0.94690000  0.00981000  0.13001000  1.0
  H  H7  1  0.05310000  0.99019000  0.86999000  1.0
  H  H8  1  0.14076000  0.05562000  0.20914000  1.0
  H  H9  1  0.85924000  0.94438000  0.79086000  1.0
  H  H10  1  0.20860000  0.81375000  0.05343000  1.0
  H  H11  1  0.79140000  0.18625000  0.94657000  1.0
  H  H12  1  0.32845000  0.98912000  0.02666000  1.0
  H  H13  1  0.67154000  0.01089000  0.97334000  1.0
  H  H14  1  0.59548000  0.79189000  0.10004000  1.0
  H  H15  1  0.40452000  0.20812000  0.89996000  1.0
  H  H16  1  0.51556000  0.91868000  0.19732000  1.0
  H  H17  1  0.48444000  0.08133000  0.80268000  1.0
  H  H18  1  0.50241000  0.64952000  0.29229000  1.0
  H  H19  1  0.49759000  0.35048000  0.70770000  1.0
  H  H20  1  0.31864000  0.61537000  0.20343000  1.0
  H  H21  1  0.68137000  0.38464000  0.79657000  1.0
  H  H22  1  0.94130000  0.68460000  0.61098000  1.0
  H  H23  1  0.05870000  0.31540000  0.38902000  1.0
  H  H24  1  0.11419000  0.57102000  0.77404000  1.0
  H  H25  1  0.88582000  0.42899000  0.22596000  1.0
  H  H26  1  0.49678000  0.65561000  0.98315000  1.0
  H  H27  1  0.50323000  0.34441000  0.01686000  1.0
  H  H28  1  0.34868000  0.76707000  0.80909000  1.0
  H  H29  1  0.65132000  0.23294000  0.19091000  1.0
  H  H30  1  0.79398000  0.55537000  0.07436000  1.0
  H  H31  1  0.20603000  0.44464000  0.92565000  1.0
  C  C32  1  0.26247000  0.83137000  0.41376000  1.0
  C  C33  1  0.73753000  0.16860000  0.58624000  1.0
  C  C34  1  0.17520000  0.75039000  0.33038000  1.0
  C  C35  1  0.82480000  0.24961000  0.66962000  1.0
  C  C36  1  0.99770000  0.84403000  0.27063000  1.0
  C  C37  1  0.00230000  0.15596000  0.72937000  1.0
  C  C38  1  0.08319000  0.96341000  0.17424000  1.0
  C  C39  1  0.91681000  0.03658000  0.82576000  1.0
  C  C40  1  0.26997000  0.90034000  0.09405000  1.0
  C  C41  1  0.73003000  0.09966000  0.90595000  1.0
  C  C42  1  0.45505000  0.83176000  0.15750000  1.0
  C  C43  1  0.54495000  0.16825000  0.84250000  1.0
  C  C44  1  0.37211000  0.70238000  0.24588000  1.0
  C  C45  1  0.62789000  0.29762000  0.75412000  1.0
  C  C46  1  0.82088000  0.90741000  0.35605000  1.0
  C  C47  1  0.17910000  0.09259000  0.64394000  1.0
  C  C48  1  0.84701000  0.67247000  0.69479000  1.0
  C  C49  1  0.15299000  0.32753000  0.30521000  1.0
  C  C50  1  0.94266000  0.60999000  0.78722000  1.0
  C  C51  1  0.05735000  0.39001000  0.21279000  1.0
  C  C52  1  0.81888000  0.60138000  0.89472000  1.0
  C  C53  1  0.18113000  0.39863000  0.10528000  1.0
  C  C54  1  0.60000000  0.65782000  0.90220000  1.0
  C  C55  1  0.40000000  0.34218000  0.09780000  1.0
  C  C56  1  0.51544000  0.71804000  0.80615000  1.0
  C  C57  1  0.48457000  0.28196000  0.19386000  1.0
  C  C58  1  0.90276000  0.53829000  0.99709000  1.0
  C  C59  1  0.09726000  0.46173000  0.00292000  1.0
  N  N60  1  0.63610000  0.72488000  0.70398000  1.0
  N  N61  1  0.36389000  0.27511000  0.29603000  1.0
  O  O62  1  0.31858000  0.75172000  0.50089000  1.0
  O  O63  1  0.68142000  0.24827000  0.49910000  1.0
  O  O64  1  0.28515000  0.97129000  0.38786000  1.0
  O  O65  1  0.71484000  0.02870000  0.61214000  1.0
  O  O66  1  0.73663000  0.03813000  0.32998000  1.0
  O  O67  1  0.26335000  0.96186000  0.67001000  1.0
  O  O68  1  0.76721000  0.82102000  0.44679000  1.0
  O  O69  1  0.23279000  0.17898000  0.55321000  1.0
