# generated using pymatgen
data_KH6C8O3
_symmetry_space_group_name_H-M   'P 1'
_cell_length_a   3.99677000
_cell_length_b   11.28130000
_cell_length_c   18.16930000
_cell_angle_alpha   106.66500000
_cell_angle_beta   89.99980000
_cell_angle_gamma   89.99980000
_symmetry_Int_Tables_number   1
_chemical_formula_structural   KH6C8O3
_chemical_formula_sum   'K4 H24 C32 O12'
_cell_volume   784.82176323
_cell_formula_units_Z   4
loop_
 _symmetry_equiv_pos_site_id
 _symmetry_equiv_pos_as_xyz
  1  'x, y, z'
loop_
 _atom_site_type_symbol
 _atom_site_label
 _atom_site_symmetry_multiplicity
 _atom_site_fract_x
 _atom_site_fract_y
 _atom_site_fract_z
 _atom_site_occupancy
  K  K0  1  0.69481000  0.14842000  0.06066000  1.0
  K  K1  1  0.19483000  0.35158000  0.93934000  1.0
  K  K2  1  0.30517000  0.85158000  0.93934000  1.0
  K  K3  1  0.80517000  0.64843000  0.06066000  1.0
  H  H4  1  0.71254000  0.25300000  0.80319000  1.0
  H  H5  1  0.21254000  0.24700000  0.19681000  1.0
  H  H6  1  0.28747000  0.74700000  0.19681000  1.0
  H  H7  1  0.78746000  0.75300000  0.80319000  1.0
  H  H8  1  0.90818000  0.25160000  0.67349000  1.0
  H  H9  1  0.40819000  0.24840000  0.32651000  1.0
  H  H10  1  0.09182000  0.74840000  0.32650000  1.0
  H  H11  1  0.59181000  0.75159000  0.67349000  1.0
  H  H12  1  0.31018000  0.88496000  0.64056000  1.0
  H  H13  1  0.81017000  0.61505000  0.35944000  1.0
  H  H14  1  0.68983000  0.11505000  0.35944000  1.0
  H  H15  1  0.18982000  0.38495000  0.64056000  1.0
  H  H16  1  0.10915000  0.88717000  0.76911000  1.0
  H  H17  1  0.60915000  0.61283000  0.23089000  1.0
  H  H18  1  0.89085000  0.11283000  0.23089000  1.0
  H  H19  1  0.39085000  0.38717000  0.76911000  1.0
  H  H20  1  0.27167000  0.89624000  0.51067000  1.0
  H  H21  1  0.77167000  0.60376000  0.48933000  1.0
  H  H22  1  0.72833000  0.10376000  0.48933000  1.0
  H  H23  1  0.22833000  0.39624000  0.51067000  1.0
  H  H24  1  0.63955000  0.95441000  0.56607000  1.0
  H  H25  1  0.13955000  0.54559000  0.43393000  1.0
  H  H26  1  0.36045000  0.04559000  0.43393000  1.0
  H  H27  1  0.86045000  0.45441000  0.56607000  1.0
  C  C28  1  0.78306000  0.07529000  0.87563000  1.0
  C  C29  1  0.28305000  0.42471000  0.12437000  1.0
  C  C30  1  0.21694000  0.92472000  0.12437000  1.0
  C  C31  1  0.71694000  0.57528000  0.87563000  1.0
  C  C32  1  0.89773000  0.07030000  0.79573000  1.0
  C  C33  1  0.39773000  0.42970000  0.20427000  1.0
  C  C34  1  0.10228000  0.92970000  0.20427000  1.0
  C  C35  1  0.60227000  0.57030000  0.79573000  1.0
  C  C36  1  0.84309000  0.17217000  0.76727000  1.0
  C  C37  1  0.34310000  0.32783000  0.23273000  1.0
  C  C38  1  0.15691000  0.82783000  0.23273000  1.0
  C  C39  1  0.65690000  0.67217000  0.76727000  1.0
  C  C40  1  0.95482000  0.17245000  0.69507000  1.0
  C  C41  1  0.45483000  0.32756000  0.30493000  1.0
  C  C42  1  0.04518000  0.82756000  0.30493000  1.0
  C  C43  1  0.54518000  0.67244000  0.69507000  1.0
  C  C44  1  0.13013000  0.06989000  0.64940000  1.0
  C  C45  1  0.63013000  0.43010000  0.35060000  1.0
  C  C46  1  0.86988000  0.93011000  0.35060000  1.0
  C  C47  1  0.36988000  0.56989000  0.64940000  1.0
  C  C48  1  0.17944000  0.96603000  0.67574000  1.0
  C  C49  1  0.67944000  0.53397000  0.32426000  1.0
  C  C50  1  0.82056000  0.03397000  0.32426000  1.0
  C  C51  1  0.32056000  0.46603000  0.67574000  1.0
  C  C52  1  0.06456000  0.96743000  0.74852000  1.0
  C  C53  1  0.56455000  0.53257000  0.25148000  1.0
  C  C54  1  0.93545000  0.03257000  0.25148000  1.0
  C  C55  1  0.43544000  0.46743000  0.74852000  1.0
  C  C56  1  0.43263000  0.97810000  0.53288000  1.0
  C  C57  1  0.93264000  0.52190000  0.46712000  1.0
  C  C58  1  0.56736000  0.02190000  0.46712000  1.0
  C  C59  1  0.06736000  0.47810000  0.53288000  1.0
  O  O60  1  0.81116000  0.97839000  0.89804000  1.0
  O  O61  1  0.31117000  0.52161000  0.10196000  1.0
  O  O62  1  0.18884000  0.02161000  0.10196000  1.0
  O  O63  1  0.68884000  0.47839000  0.89804000  1.0
  O  O64  1  0.66798000  0.17816000  0.91735000  1.0
  O  O65  1  0.16796000  0.32184000  0.08265000  1.0
  O  O66  1  0.33202000  0.82184000  0.08265000  1.0
  O  O67  1  0.83201000  0.67816000  0.91735000  1.0
  O  O68  1  0.24306000  0.07934000  0.58003000  1.0
  O  O69  1  0.74307000  0.42066000  0.41997000  1.0
  O  O70  1  0.75693000  0.92066000  0.41997000  1.0
  O  O71  1  0.25693000  0.57934000  0.58003000  1.0
