# generated using pymatgen
data_CuP2H12C8(NO3)2
_symmetry_space_group_name_H-M   'P 1'
_cell_length_a   8.16557000
_cell_length_b   8.89366000
_cell_length_c   10.24700000
_cell_angle_alpha   70.91710000
_cell_angle_beta   69.10730000
_cell_angle_gamma   68.23750000
_symmetry_Int_Tables_number   1
_chemical_formula_structural   CuP2H12C8(NO3)2
_chemical_formula_sum   'Cu2 P4 H24 C16 N4 O12'
_cell_volume   629.20889780
_cell_formula_units_Z   2
loop_
 _symmetry_equiv_pos_site_id
 _symmetry_equiv_pos_as_xyz
  1  'x, y, z'
loop_
 _atom_site_type_symbol
 _atom_site_label
 _atom_site_symmetry_multiplicity
 _atom_site_fract_x
 _atom_site_fract_y
 _atom_site_fract_z
 _atom_site_occupancy
  Cu  Cu0  1  0.50648000  0.59486000  0.25325000  1.0
  Cu  Cu1  1  0.49352000  0.40514000  0.74675000  1.0
  P  P2  1  0.77325000  0.32906000  0.39007000  1.0
  P  P3  1  0.22675000  0.67094000  0.60992000  1.0
  P  P4  1  0.17099000  0.55956000  0.24310000  1.0
  P  P5  1  0.82901000  0.44043000  0.75690000  1.0
  H  H6  1  0.26296000  0.93270000  0.19085000  1.0
  H  H7  1  0.73706000  0.06730000  0.80913000  1.0
  H  H8  1  0.27930000  0.22045000  0.15038000  1.0
  H  H9  1  0.72070000  0.77955000  0.84962000  1.0
  H  H10  1  0.84568000  0.00468000  0.15984000  1.0
  H  H11  1  0.15431000  0.99532000  0.84017000  1.0
  H  H12  1  0.80951000  0.72780000  0.18993000  1.0
  H  H13  1  0.19049000  0.27220000  0.81007000  1.0
  H  H14  1  0.49391000  0.39894000  0.08117000  1.0
  H  H15  1  0.50609000  0.60106000  0.91884000  1.0
  H  H16  1  0.71415000  0.30868000  0.11249000  1.0
  H  H17  1  0.28585000  0.69132000  0.88751000  1.0
  H  H18  1  0.65593000  0.11096000  0.38731000  1.0
  H  H19  1  0.34408000  0.88903000  0.61270000  1.0
  H  H20  1  0.50752000  0.24037000  0.50911000  1.0
  H  H21  1  0.49248000  0.75963000  0.49090000  1.0
  H  H22  1  0.25423000  0.39610000  0.46278000  1.0
  H  H23  1  0.74577000  0.60390000  0.53723000  1.0
  H  H24  1  0.25595000  0.26265000  0.36576000  1.0
  H  H25  1  0.74405000  0.73735000  0.63424000  1.0
  H  H26  1  0.99363000  0.38827000  0.20230000  1.0
  H  H27  1  0.00637000  0.61174000  0.79770000  1.0
  H  H28  1  0.06002000  0.70003000  0.40824000  1.0
  H  H29  1  0.93998000  0.29997000  0.59176000  1.0
  C  C30  1  0.38841000  0.95579000  0.18288000  1.0
  C  C31  1  0.61160000  0.04421000  0.81711000  1.0
  C  C32  1  0.39869000  0.11441000  0.16304000  1.0
  C  C33  1  0.60131000  0.88559000  0.83696000  1.0
  C  C34  1  0.56199000  0.13579000  0.15960000  1.0
  C  C35  1  0.43801000  0.86421000  0.84040000  1.0
  C  C36  1  0.71353000  0.99519000  0.16624000  1.0
  C  C37  1  0.28648000  0.00481000  0.83375000  1.0
  C  C38  1  0.69548000  0.84018000  0.18270000  1.0
  C  C39  1  0.30452000  0.15983000  0.81729000  1.0
  C  C40  1  0.57207000  0.30369000  0.15312000  1.0
  C  C41  1  0.42793000  0.69631000  0.84689000  1.0
  C  C42  1  0.59953000  0.23957000  0.40091000  1.0
  C  C43  1  0.40048000  0.76043000  0.59910000  1.0
  C  C44  1  0.29391000  0.37353000  0.35509000  1.0
  C  C45  1  0.70609000  0.62647000  0.64491000  1.0
  N  N46  1  0.53409000  0.82103000  0.19469000  1.0
  N  N47  1  0.46592000  0.17896000  0.80531000  1.0
  N  N48  1  0.49404000  0.35046000  0.29580000  1.0
  N  N49  1  0.50596000  0.64954000  0.70421000  1.0
  O  O50  1  0.92703000  0.29597000  0.24681000  1.0
  O  O51  1  0.07295000  0.70403000  0.75317000  1.0
  O  O52  1  0.67417000  0.51760000  0.37077000  1.0
  O  O53  1  0.32582000  0.48240000  0.62923000  1.0
  O  O54  1  0.83998000  0.25038000  0.52330000  1.0
  O  O55  1  0.16004000  0.74962000  0.47668000  1.0
  O  O56  1  0.31257000  0.65811000  0.16108000  1.0
  O  O57  1  0.68742000  0.34189000  0.83892000  1.0
  O  O58  1  0.09661000  0.51640000  0.14881000  1.0
  O  O59  1  0.90339000  0.48360000  0.85119000  1.0
  O  O60  1  0.00816000  0.65937000  0.35121000  1.0
  O  O61  1  0.99184000  0.34063000  0.64879000  1.0
