# generated using pymatgen
data_CuH18C24SN2O7
_symmetry_space_group_name_H-M   'P 1'
_cell_length_a   6.76717000
_cell_length_b   16.40190000
_cell_length_c   23.37500000
_cell_angle_alpha   89.99990000
_cell_angle_beta   92.44160000
_cell_angle_gamma   89.99970000
_symmetry_Int_Tables_number   1
_chemical_formula_structural   CuH18C24SN2O7
_chemical_formula_sum   'Cu4 H72 C96 S4 N8 O28'
_cell_volume   2592.13978676
_cell_formula_units_Z   4
loop_
 _symmetry_equiv_pos_site_id
 _symmetry_equiv_pos_as_xyz
  1  'x, y, z'
loop_
 _atom_site_type_symbol
 _atom_site_label
 _atom_site_symmetry_multiplicity
 _atom_site_fract_x
 _atom_site_fract_y
 _atom_site_fract_z
 _atom_site_occupancy
  Cu  Cu0  1  0.74607000  0.61945000  0.10490000  1.0
  Cu  Cu1  1  0.75392000  0.11945000  0.39511000  1.0
  Cu  Cu2  1  0.25393000  0.38056000  0.89511000  1.0
  Cu  Cu3  1  0.24604000  0.88055000  0.60490000  1.0
  H  H4  1  0.73519000  0.47754000  0.18858000  1.0
  H  H5  1  0.76480000  0.97756000  0.31142000  1.0
  H  H6  1  0.26487000  0.52245000  0.81143000  1.0
  H  H7  1  0.23515000  0.02246000  0.68857000  1.0
  H  H8  1  0.70743000  0.32456000  0.17860000  1.0
  H  H9  1  0.79251000  0.82457000  0.32138000  1.0
  H  H10  1  0.29260000  0.67544000  0.82139000  1.0
  H  H11  1  0.20743000  0.17544000  0.67859000  1.0
  H  H12  1  0.68739000  0.26540000  0.07908000  1.0
  H  H13  1  0.81257000  0.76540000  0.42091000  1.0
  H  H14  1  0.31261000  0.73461000  0.92092000  1.0
  H  H15  1  0.18741000  0.23460000  0.57907000  1.0
  H  H16  1  0.71210000  0.35712000  0.99540000  1.0
  H  H17  1  0.78787000  0.85711000  0.50459000  1.0
  H  H18  1  0.28788000  0.64290000  0.00460000  1.0
  H  H19  1  0.21212000  0.14288000  0.49540000  1.0
  H  H20  1  0.73912000  0.44476000  0.92923000  1.0
  H  H21  1  0.76086000  0.94476000  0.57077000  1.0
  H  H22  1  0.26085000  0.55523000  0.07078000  1.0
  H  H23  1  0.23910000  0.05522000  0.42923000  1.0
  H  H24  1  0.77147000  0.55629000  0.85887000  1.0
  H  H25  1  0.72854000  0.05630000  0.64113000  1.0
  H  H26  1  0.22852000  0.44370000  0.14114000  1.0
  H  H27  1  0.27142000  0.94370000  0.35887000  1.0
  H  H28  1  0.80107000  0.70165000  0.89438000  1.0
  H  H29  1  0.69893000  0.20166000  0.60562000  1.0
  H  H30  1  0.19892000  0.29834000  0.10562000  1.0
  H  H31  1  0.30103000  0.79834000  0.39438000  1.0
  H  H32  1  0.79696000  0.72714000  0.00019000  1.0
  H  H33  1  0.70303000  0.22713000  0.49980000  1.0
  H  H34  1  0.20303000  0.27287000  0.99980000  1.0
  H  H35  1  0.29692000  0.77285000  0.50019000  1.0
  H  H36  1  0.73125000  0.88131000  0.11697000  1.0
  H  H37  1  0.76877000  0.38132000  0.38303000  1.0
  H  H38  1  0.26873000  0.11869000  0.88304000  1.0
  H  H39  1  0.23125000  0.61869000  0.61696000  1.0
  H  H40  1  0.64587000  0.02987000  0.10819000  1.0
  H  H41  1  0.85415000  0.52988000  0.39180000  1.0
  H  H42  1  0.35411000  0.97012000  0.89181000  1.0
  H  H43  1  0.14590000  0.47013000  0.60820000  1.0
  H  H44  1  0.06971000  0.96446000  0.03512000  1.0
  H  H45  1  0.43031000  0.46446000  0.46489000  1.0
  H  H46  1  0.93028000  0.03553000  0.96488000  1.0
  H  H47  1  0.56973000  0.53552000  0.53512000  1.0
  H  H48  1  0.15502000  0.81807000  0.04587000  1.0
  H  H49  1  0.34498000  0.31808000  0.45414000  1.0
  H  H50  1  0.84496000  0.18192000  0.95413000  1.0
  H  H51  1  0.65502000  0.68191000  0.54586000  1.0
  H  H52  1  0.18255000  0.12190000  0.27304000  1.0
  H  H53  1  0.31748000  0.62190000  0.22696000  1.0
  H  H54  1  0.81746000  0.87810000  0.72696000  1.0
  H  H55  1  0.68255000  0.37812000  0.77305000  1.0
  H  H56  1  0.39311000  0.10905000  0.18903000  1.0
  H  H57  1  0.10690000  0.60906000  0.31097000  1.0
  H  H58  1  0.60688000  0.89093000  0.81097000  1.0
  H  H59  1  0.89314000  0.39095000  0.68904000  1.0
  H  H60  1  0.87754000  0.14238000  0.07555000  1.0
  H  H61  1  0.62248000  0.64238000  0.42446000  1.0
  H  H62  1  0.12245000  0.85762000  0.92446000  1.0
  H  H63  1  0.37758000  0.35762000  0.57555000  1.0
  H  H64  1  0.67241000  0.16422000  0.16075000  1.0
  H  H65  1  0.82762000  0.66421000  0.33926000  1.0
  H  H66  1  0.32760000  0.83579000  0.83926000  1.0
  H  H67  1  0.17242000  0.33579000  0.66075000  1.0
  H  H68  1  0.01726000  0.66285000  0.17578000  1.0
  H  H69  1  0.48276000  0.16286000  0.32422000  1.0
  H  H70  1  0.98274000  0.33717000  0.82422000  1.0
  H  H71  1  0.51725000  0.83716000  0.67578000  1.0
  H  H72  1  0.15812000  0.66976000  0.12174000  1.0
  H  H73  1  0.34188000  0.16976000  0.37825000  1.0
  H  H74  1  0.84188000  0.33024000  0.87826000  1.0
  H  H75  1  0.65810000  0.83025000  0.62174000  1.0
  C  C76  1  0.73338000  0.44751000  0.14698000  1.0
  C  C77  1  0.76658000  0.94752000  0.35301000  1.0
  C  C78  1  0.26666000  0.55249000  0.85302000  1.0
  C  C79  1  0.23335000  0.05249000  0.64698000  1.0
  C  C80  1  0.71670000  0.36324000  0.14086000  1.0
  C  C81  1  0.78327000  0.86324000  0.35912000  1.0
  C  C82  1  0.28332000  0.63677000  0.85913000  1.0
  C  C83  1  0.21669000  0.13677000  0.64086000  1.0
  C  C84  1  0.70810000  0.33051000  0.08574000  1.0
  C  C85  1  0.79186000  0.83052000  0.41425000  1.0
  C  C86  1  0.29189000  0.66949000  0.91426000  1.0
  C  C87  1  0.20811000  0.16949000  0.58574000  1.0
  C  C88  1  0.72089000  0.38207000  0.03869000  1.0
  C  C89  1  0.77908000  0.88207000  0.46131000  1.0
  C  C90  1  0.27911000  0.61793000  0.96131000  1.0
  C  C91  1  0.22090000  0.11792000  0.53869000  1.0
  C  C92  1  0.73922000  0.46585000  0.04805000  1.0
  C  C93  1  0.76076000  0.96585000  0.45196000  1.0
  C  C94  1  0.26077000  0.53416000  0.95196000  1.0
  C  C95  1  0.23921000  0.03415000  0.54804000  1.0
  C  C96  1  0.75400000  0.52674000  0.00209000  1.0
  C  C97  1  0.74597000  0.02673000  0.49790000  1.0
  C  C98  1  0.24597000  0.47327000  0.99790000  1.0
  C  C99  1  0.25400000  0.97325000  0.50209000  1.0
  C  C100  1  0.75335000  0.50758000  0.94384000  1.0
  C  C101  1  0.74665000  0.00758000  0.55616000  1.0
  C  C102  1  0.24664000  0.49243000  0.05616000  1.0
  C  C103  1  0.25331000  0.99241000  0.44384000  1.0
  C  C104  1  0.77095000  0.57056000  0.90438000  1.0
  C  C105  1  0.72904000  0.07056000  0.59562000  1.0
  C  C106  1  0.22902000  0.42944000  0.09562000  1.0
  C  C107  1  0.27093000  0.92943000  0.40438000  1.0
  C  C108  1  0.78792000  0.65071000  0.92384000  1.0
  C  C109  1  0.71207000  0.15072000  0.57616000  1.0
  C  C110  1  0.21207000  0.34928000  0.07616000  1.0
  C  C111  1  0.28788000  0.84928000  0.42384000  1.0
  C  C112  1  0.78643000  0.66569000  0.98252000  1.0
  C  C113  1  0.71355000  0.16570000  0.51748000  1.0
  C  C114  1  0.21355000  0.33430000  0.01748000  1.0
  C  C115  1  0.28640000  0.83430000  0.48252000  1.0
  C  C116  1  0.49901000  0.75225000  0.08745000  1.0
  C  C117  1  0.00101000  0.25225000  0.41255000  1.0
  C  C118  1  0.50101000  0.24775000  0.91256000  1.0
  C  C119  1  0.99898000  0.74775000  0.58744000  1.0
  C  C120  1  0.44801000  0.84124000  0.08245000  1.0
  C  C121  1  0.05199000  0.34125000  0.41755000  1.0
  C  C122  1  0.55197000  0.15875000  0.91755000  1.0
  C  C123  1  0.94801000  0.65875000  0.58245000  1.0
  C  C124  1  0.58668000  0.90068000  0.09982000  1.0
  C  C125  1  0.91334000  0.40069000  0.40018000  1.0
  C  C126  1  0.41331000  0.09932000  0.90018000  1.0
  C  C127  1  0.08670000  0.59932000  0.59982000  1.0
  C  C128  1  0.53993000  0.98304000  0.09465000  1.0
  C  C129  1  0.96009000  0.48305000  0.40534000  1.0
  C  C130  1  0.46005000  0.01695000  0.90534000  1.0
  C  C131  1  0.03993000  0.51695000  0.59466000  1.0
  C  C132  1  0.35435000  0.00513000  0.07108000  1.0
  C  C133  1  0.14568000  0.50513000  0.42893000  1.0
  C  C134  1  0.64565000  0.99487000  0.92892000  1.0
  C  C135  1  0.85437000  0.49486000  0.57108000  1.0
  C  C136  1  0.21414000  0.94675000  0.05332000  1.0
  C  C137  1  0.28589000  0.44674000  0.44669000  1.0
  C  C138  1  0.78586000  0.05325000  0.94668000  1.0
  C  C139  1  0.71416000  0.55324000  0.55332000  1.0
  C  C140  1  0.26196000  0.86459000  0.05936000  1.0
  C  C141  1  0.23805000  0.36459000  0.44065000  1.0
  C  C142  1  0.73804000  0.13540000  0.94064000  1.0
  C  C143  1  0.76198000  0.63540000  0.55936000  1.0
  C  C144  1  0.78447000  0.15002000  0.27232000  1.0
  C  C145  1  0.71555000  0.65001000  0.22768000  1.0
  C  C146  1  0.21553000  0.84999000  0.72768000  1.0
  C  C147  1  0.28449000  0.35001000  0.77232000  1.0
  C  C148  1  0.91451000  0.14345000  0.22176000  1.0
  C  C149  1  0.58552000  0.64345000  0.27825000  1.0
  C  C150  1  0.08550000  0.85655000  0.77825000  1.0
  C  C151  1  0.41453000  0.35657000  0.72176000  1.0
  C  C152  1  0.11764000  0.12767000  0.22973000  1.0
  C  C153  1  0.38239000  0.62767000  0.27028000  1.0
  C  C154  1  0.88237000  0.87233000  0.77028000  1.0
  C  C155  1  0.61766000  0.37234000  0.72973000  1.0
  C  C156  1  0.23473000  0.11935000  0.18256000  1.0
  C  C157  1  0.26531000  0.61935000  0.31745000  1.0
  C  C158  1  0.76528000  0.88064000  0.81744000  1.0
  C  C159  1  0.73475000  0.38065000  0.68256000  1.0
  C  C160  1  0.14578000  0.12457000  0.12748000  1.0
  C  C161  1  0.35423000  0.62457000  0.37252000  1.0
  C  C162  1  0.85420000  0.87543000  0.87252000  1.0
  C  C163  1  0.64581000  0.37543000  0.62748000  1.0
  C  C164  1  0.94366000  0.13965000  0.11884000  1.0
  C  C165  1  0.55636000  0.63965000  0.38117000  1.0
  C  C166  1  0.05634000  0.86035000  0.88117000  1.0
  C  C167  1  0.44368000  0.36035000  0.61883000  1.0
  C  C168  1  0.82955000  0.15087000  0.16644000  1.0
  C  C169  1  0.67047000  0.65086000  0.33357000  1.0
  C  C170  1  0.17045000  0.84914000  0.83357000  1.0
  C  C171  1  0.32958000  0.34914000  0.66644000  1.0
  S  S172  1  0.29088000  0.10996000  0.06664000  1.0
  S  S173  1  0.20914000  0.60997000  0.43336000  1.0
  S  S174  1  0.70912000  0.89003000  0.93336000  1.0
  S  S175  1  0.79090000  0.39003000  0.56664000  1.0
  N  N176  1  0.74306000  0.49723000  0.10170000  1.0
  N  N177  1  0.75693000  0.99725000  0.39828000  1.0
  N  N178  1  0.25695000  0.50276000  0.89829000  1.0
  N  N179  1  0.24304000  0.00277000  0.60170000  1.0
  N  N180  1  0.76954000  0.60504000  0.02043000  1.0
  N  N181  1  0.73046000  0.10505000  0.47955000  1.0
  N  N182  1  0.23045000  0.39496000  0.97955000  1.0
  N  N183  1  0.26950000  0.89495000  0.52043000  1.0
  O  O184  1  0.68396000  0.73667000  0.09748000  1.0
  O  O185  1  0.81606000  0.23668000  0.40252000  1.0
  O  O186  1  0.31606000  0.26333000  0.90252000  1.0
  O  O187  1  0.18391000  0.76333000  0.59749000  1.0
  O  O188  1  0.36481000  0.69943000  0.08078000  1.0
  O  O189  1  0.13525000  0.19942000  0.41922000  1.0
  O  O190  1  0.63525000  0.30057000  0.91923000  1.0
  O  O191  1  0.86476000  0.80057000  0.58076000  1.0
  O  O192  1  0.47124000  0.15766000  0.07462000  1.0
  O  O193  1  0.02876000  0.65766000  0.42538000  1.0
  O  O194  1  0.52874000  0.84234000  0.92538000  1.0
  O  O195  1  0.97129000  0.34234000  0.57464000  1.0
  O  O196  1  0.16332000  0.12374000  0.01600000  1.0
  O  O197  1  0.33668000  0.62375000  0.48401000  1.0
  O  O198  1  0.83665000  0.87625000  0.98401000  1.0
  O  O199  1  0.66338000  0.37624000  0.51600000  1.0
  O  O200  1  0.86018000  0.11663000  0.31812000  1.0
  O  O201  1  0.63986000  0.61662000  0.18189000  1.0
  O  O202  1  0.13983000  0.88338000  0.68189000  1.0
  O  O203  1  0.36021000  0.38338000  0.81812000  1.0
  O  O204  1  0.61790000  0.18356000  0.26607000  1.0
  O  O205  1  0.88212000  0.68354000  0.23393000  1.0
  O  O206  1  0.38210000  0.81647000  0.73393000  1.0
  O  O207  1  0.11788000  0.31648000  0.76607000  1.0
  O  O208  1  0.06128000  0.63481000  0.14051000  1.0
  O  O209  1  0.43873000  0.13481000  0.35948000  1.0
  O  O210  1  0.93872000  0.36520000  0.85949000  1.0
  O  O211  1  0.56126000  0.86519000  0.64051000  1.0
