# generated using pymatgen
data_ZnH8C6N2O5
_symmetry_space_group_name_H-M   'P 1'
_cell_length_a   4.76567000
_cell_length_b   9.05944000
_cell_length_c   9.45435000
_cell_angle_alpha   89.99910000
_cell_angle_beta   89.99900000
_cell_angle_gamma   87.08060000
_symmetry_Int_Tables_number   1
_chemical_formula_structural   ZnH8C6N2O5
_chemical_formula_sum   'Zn2 H16 C12 N4 O10'
_cell_volume   407.65520167
_cell_formula_units_Z   2
loop_
 _symmetry_equiv_pos_site_id
 _symmetry_equiv_pos_as_xyz
  1  'x, y, z'
loop_
 _atom_site_type_symbol
 _atom_site_label
 _atom_site_symmetry_multiplicity
 _atom_site_fract_x
 _atom_site_fract_y
 _atom_site_fract_z
 _atom_site_occupancy
  Zn  Zn0  1  0.81788000  0.23549000  0.99055000  1.0
  Zn  Zn1  1  0.18212000  0.76451000  0.49056000  1.0
  H  H2  1  0.70113000  0.50245000  0.08981000  1.0
  H  H3  1  0.29887000  0.49755000  0.58981000  1.0
  H  H4  1  0.42002000  0.43994000  0.00831000  1.0
  H  H5  1  0.57998000  0.56007000  0.50831000  1.0
  H  H6  1  0.25615000  0.31876000  0.19682000  1.0
  H  H7  1  0.74385000  0.68124000  0.69682000  1.0
  H  H8  1  0.41112000  0.46745000  0.28137000  1.0
  H  H9  1  0.58889000  0.53255000  0.78137000  1.0
  H  H10  1  0.40339000  0.26096000  0.46637000  1.0
  H  H11  1  0.59662000  0.73903000  0.96637000  1.0
  H  H12  1  0.96469000  0.09926000  0.44700000  1.0
  H  H13  1  0.03530000  0.90074000  0.94700000  1.0
  H  H14  1  0.57593000  0.15731000  0.70160000  1.0
  H  H15  1  0.42407000  0.84269000  0.20160000  1.0
  H  H16  1  0.89490000  0.04954000  0.70487000  1.0
  H  H17  1  0.10509000  0.95046000  0.20487000  1.0
  C  C18  1  0.45692000  0.37047000  0.21395000  1.0
  C  C19  1  0.54308000  0.62953000  0.71395000  1.0
  C  C20  1  0.65052000  0.25706000  0.28771000  1.0
  C  C21  1  0.34948000  0.74294000  0.78771000  1.0
  C  C22  1  0.75562000  0.10764000  0.49493000  1.0
  C  C23  1  0.24438000  0.89236000  0.99494000  1.0
  C  C24  1  0.62244000  0.95816000  0.48095000  1.0
  C  C25  1  0.37756000  0.04184000  0.98095000  1.0
  C  C26  1  0.78405000  0.14388000  0.65192000  1.0
  C  C27  1  0.21594000  0.85612000  0.15193000  1.0
  C  C28  1  0.94568000  0.28174000  0.68252000  1.0
  C  C29  1  0.05433000  0.71825000  0.18253000  1.0
  N  N30  1  0.57857000  0.41128000  0.07730000  1.0
  N  N31  1  0.42144000  0.58873000  0.57730000  1.0
  N  N32  1  0.59033000  0.22295000  0.42129000  1.0
  N  N33  1  0.40967000  0.77705000  0.92130000  1.0
  O  O34  1  0.85690000  0.19690000  0.22264000  1.0
  O  O35  1  0.14310000  0.80310000  0.72264000  1.0
  O  O36  1  0.35601000  0.96062000  0.46653000  1.0
  O  O37  1  0.64400000  0.03938000  0.96654000  1.0
  O  O38  1  0.77047000  0.83848000  0.48831000  1.0
  O  O39  1  0.22954000  0.16152000  0.98831000  1.0
  O  O40  1  0.91119000  0.34048000  0.80555000  1.0
  O  O41  1  0.08880000  0.65952000  0.30556000  1.0
  O  O42  1  0.10270000  0.33257000  0.58872000  1.0
  O  O43  1  0.89729000  0.66743000  0.08873000  1.0
