# generated using pymatgen
data_HgH8C10S2(BrN)2
_symmetry_space_group_name_H-M   'P 1'
_cell_length_a   8.27857000
_cell_length_b   8.27864000
_cell_length_c   11.08640000
_cell_angle_alpha   88.17790000
_cell_angle_beta   88.17780000
_cell_angle_gamma   73.08000000
_symmetry_Int_Tables_number   1
_chemical_formula_structural   HgH8C10S2(BrN)2
_chemical_formula_sum   'Hg2 H16 C20 S4 Br4 N4'
_cell_volume   726.34965163
_cell_formula_units_Z   2
loop_
 _symmetry_equiv_pos_site_id
 _symmetry_equiv_pos_as_xyz
  1  'x, y, z'
loop_
 _atom_site_type_symbol
 _atom_site_label
 _atom_site_symmetry_multiplicity
 _atom_site_fract_x
 _atom_site_fract_y
 _atom_site_fract_z
 _atom_site_occupancy
  Hg  Hg0  1  0.98910000  0.01091000  0.75000000  1.0
  Hg  Hg1  1  0.01090000  0.98909000  0.25000000  1.0
  H  H2  1  0.93677000  0.39663000  0.63737000  1.0
  H  H3  1  0.60337000  0.06324000  0.86263000  1.0
  H  H4  1  0.06324000  0.60337000  0.36263000  1.0
  H  H5  1  0.39662000  0.93676000  0.13737000  1.0
  H  H6  1  0.58244000  0.20470000  0.35982000  1.0
  H  H7  1  0.79530000  0.41756000  0.14018000  1.0
  H  H8  1  0.41756000  0.79531000  0.64018000  1.0
  H  H9  1  0.20469000  0.58244000  0.85982000  1.0
  H  H10  1  0.74249000  0.01986000  0.52456000  1.0
  H  H11  1  0.98014000  0.25751000  0.97543000  1.0
  H  H12  1  0.25752000  0.98014000  0.47544000  1.0
  H  H13  1  0.01985000  0.74249000  0.02456000  1.0
  H  H14  1  0.78118000  0.60096000  0.48092000  1.0
  H  H15  1  0.39904000  0.21881000  0.01908000  1.0
  H  H16  1  0.21883000  0.39904000  0.51908000  1.0
  H  H17  1  0.60095000  0.78118000  0.98093000  1.0
  C  C18  1  0.85617000  0.35960000  0.57408000  1.0
  C  C19  1  0.64040000  0.14383000  0.92592000  1.0
  C  C20  1  0.14384000  0.64040000  0.42592000  1.0
  C  C21  1  0.35959000  0.85617000  0.07408000  1.0
  C  C22  1  0.65846000  0.25300000  0.41969000  1.0
  C  C23  1  0.74700000  0.34154000  0.08030000  1.0
  C  C24  1  0.34155000  0.74701000  0.58031000  1.0
  C  C25  1  0.25299000  0.65846000  0.91969000  1.0
  C  C26  1  0.74835000  0.14936000  0.51088000  1.0
  C  C27  1  0.85064000  0.25165000  0.98911000  1.0
  C  C28  1  0.25166000  0.85064000  0.48912000  1.0
  C  C29  1  0.14935000  0.74835000  0.01088000  1.0
  C  C30  1  0.66853000  0.41842000  0.40714000  1.0
  C  C31  1  0.58158000  0.33147000  0.09286000  1.0
  C  C32  1  0.33148000  0.58158000  0.59287000  1.0
  C  C33  1  0.41842000  0.66853000  0.90714000  1.0
  C  C34  1  0.76956000  0.47303000  0.48656000  1.0
  C  C35  1  0.52697000  0.23044000  0.01344000  1.0
  C  C36  1  0.23046000  0.52697000  0.51344000  1.0
  C  C37  1  0.47302000  0.76955000  0.98657000  1.0
  S  S38  1  0.56082000  0.56666000  0.29730000  1.0
  S  S39  1  0.43334000  0.43918000  0.20269000  1.0
  S  S40  1  0.43919000  0.43334000  0.70269000  1.0
  S  S41  1  0.56666000  0.56082000  0.79731000  1.0
  Br  Br42  1  0.86178000  0.76942000  0.72734000  1.0
  Br  Br43  1  0.23059000  0.13821000  0.77267000  1.0
  Br  Br44  1  0.13822000  0.23058000  0.27266000  1.0
  Br  Br45  1  0.76941000  0.86179000  0.22733000  1.0
  N  N46  1  0.84582000  0.20081000  0.58648000  1.0
  N  N47  1  0.79918000  0.15418000  0.91351000  1.0
  N  N48  1  0.15419000  0.79919000  0.41352000  1.0
  N  N49  1  0.20080000  0.84582000  0.08648000  1.0
