# generated using pymatgen
data_CuH36C16S4(ClO6)2
_symmetry_space_group_name_H-M   'P 1'
_cell_length_a   7.79022000
_cell_length_b   8.76386000
_cell_length_c   11.43920000
_cell_angle_alpha   98.75490000
_cell_angle_beta   97.32470000
_cell_angle_gamma   114.41300000
_symmetry_Int_Tables_number   1
_chemical_formula_structural   CuH36C16S4(ClO6)2
_chemical_formula_sum   'Cu1 H36 C16 S4 Cl2 O12'
_cell_volume   686.95827860
_cell_formula_units_Z   1
loop_
 _symmetry_equiv_pos_site_id
 _symmetry_equiv_pos_as_xyz
  1  'x, y, z'
loop_
 _atom_site_type_symbol
 _atom_site_label
 _atom_site_symmetry_multiplicity
 _atom_site_fract_x
 _atom_site_fract_y
 _atom_site_fract_z
 _atom_site_occupancy
  Cu  Cu0  1  0.50000000  0.00000000  0.50000000  1.0
  H  H1  1  0.55759000  0.38015000  0.01528000  1.0
  H  H2  1  0.44240000  0.61985000  0.98472000  1.0
  H  H3  1  0.74393000  0.57030000  0.99463000  1.0
  H  H4  1  0.25607000  0.42970000  0.00537000  1.0
  H  H5  1  0.77112000  0.37736000  0.98146000  1.0
  H  H6  1  0.22888000  0.62264000  0.01854000  1.0
  H  H7  1  0.49672000  0.23924000  0.79583000  1.0
  H  H8  1  0.50328000  0.76076000  0.20417000  1.0
  H  H9  1  0.47242000  0.43287000  0.80975000  1.0
  H  H10  1  0.52758000  0.56713000  0.19025000  1.0
  H  H11  1  0.84326000  0.40002000  0.77375000  1.0
  H  H12  1  0.15674000  0.59999000  0.22625000  1.0
  H  H13  1  0.80990000  0.58802000  0.77505000  1.0
  H  H14  1  0.19010000  0.41198000  0.22495000  1.0
  H  H15  1  0.44249000  0.51063000  0.62520000  1.0
  H  H16  1  0.55750000  0.48937000  0.37480000  1.0
  H  H17  1  0.66640000  0.65302000  0.59385000  1.0
  H  H18  1  0.33360000  0.34697000  0.40614000  1.0
  H  H19  1  0.09673000  0.19020000  0.57236000  1.0
  H  H20  1  0.90327000  0.80980000  0.42764000  1.0
  H  H21  1  0.15460000  0.02154000  0.60937000  1.0
  H  H22  1  0.84540000  0.97846000  0.39064000  1.0
  H  H23  1  0.08092000  0.04640000  0.82259000  1.0
  H  H24  1  0.91908000  0.95360000  0.17741000  1.0
  H  H25  1  0.07050000  0.24081000  0.79632000  1.0
  H  H26  1  0.92950000  0.75919000  0.20368000  1.0
  H  H27  1  0.92082000  0.17514000  0.97053000  1.0
  H  H28  1  0.07919000  0.82486000  0.02947000  1.0
  H  H29  1  0.73431000  0.12616000  0.84628000  1.0
  H  H30  1  0.26569000  0.87384000  0.15372000  1.0
  H  H31  1  0.64955000  0.90056000  0.96821000  1.0
  H  H32  1  0.35046000  0.09944000  0.03179000  1.0
  H  H33  1  0.84255000  0.85546000  0.93277000  1.0
  H  H34  1  0.15745000  0.14454000  0.06723000  1.0
  H  H35  1  0.64223000  0.81274000  0.81690000  1.0
  H  H36  1  0.35777000  0.18726000  0.18311000  1.0
  C  C37  1  0.66746000  0.42977000  0.96190000  1.0
  C  C38  1  0.33254000  0.57023000  0.03810000  1.0
  C  C39  1  0.57687000  0.38002000  0.82671000  1.0
  C  C40  1  0.42313000  0.61998000  0.17329000  1.0
  C  C41  1  0.73407000  0.44693000  0.75549000  1.0
  C  C42  1  0.26593000  0.55307000  0.24451000  1.0
  C  C43  1  0.54687000  0.52287000  0.56671000  1.0
  C  C44  1  0.45313000  0.47713000  0.43329000  1.0
  C  C45  1  0.04233000  0.05108000  0.56521000  1.0
  C  C46  1  0.95767000  0.94892000  0.43479000  1.0
  C  C47  1  0.98495000  0.10594000  0.79957000  1.0
  C  C48  1  0.01506000  0.89407000  0.20043000  1.0
  C  C49  1  0.84180000  0.08519000  0.88276000  1.0
  C  C50  1  0.15820000  0.91481000  0.11725000  1.0
  C  C51  1  0.73864000  0.90269000  0.90099000  1.0
  C  C52  1  0.26136000  0.09732000  0.09902000  1.0
  S  S53  1  0.65423000  0.38019000  0.59161000  1.0
  S  S54  1  0.34577000  0.61981000  0.40839000  1.0
  S  S55  1  0.85133000  0.99267000  0.64766000  1.0
  S  S56  1  0.14867000  0.00732000  0.35234000  1.0
  Cl  Cl57  1  0.19995000  0.73932000  0.71478000  1.0
  Cl  Cl58  1  0.80005000  0.26068000  0.28522000  1.0
  O  O59  1  0.47070000  0.20549000  0.56585000  1.0
  O  O60  1  0.52929000  0.79451000  0.43415000  1.0
  O  O61  1  0.74769000  0.10188000  0.61454000  1.0
  O  O62  1  0.25231000  0.89812000  0.38546000  1.0
  O  O63  1  0.19418000  0.82052000  0.83494000  1.0
  O  O64  1  0.80581000  0.17947000  0.16506000  1.0
  O  O65  1  0.02597000  0.70801000  0.62844000  1.0
  O  O66  1  0.97403000  0.29197000  0.37155000  1.0
  O  O67  1  0.20899000  0.57675000  0.71821000  1.0
  O  O68  1  0.79101000  0.42324000  0.28180000  1.0
  O  O69  1  0.37068000  0.85548000  0.67678000  1.0
  O  O70  1  0.62932000  0.14451000  0.32322000  1.0
