# generated using pymatgen
data_CdH28C34(NO)4
_symmetry_space_group_name_H-M   'P 1'
_cell_length_a   11.12450000
_cell_length_b   11.12470000
_cell_length_c   15.77210000
_cell_angle_alpha   69.89540000
_cell_angle_beta   69.89600000
_cell_angle_gamma   80.87930000
_symmetry_Int_Tables_number   1
_chemical_formula_structural   CdH28C34(NO)4
_chemical_formula_sum   'Cd2 H56 C68 N8 O8'
_cell_volume   1719.48112357
_cell_formula_units_Z   2
loop_
 _symmetry_equiv_pos_site_id
 _symmetry_equiv_pos_as_xyz
  1  'x, y, z'
loop_
 _atom_site_type_symbol
 _atom_site_label
 _atom_site_symmetry_multiplicity
 _atom_site_fract_x
 _atom_site_fract_y
 _atom_site_fract_z
 _atom_site_occupancy
  Cd  Cd0  1  0.29961000  0.70039000  0.75000000  1.0
  Cd  Cd1  1  0.70039000  0.29961000  0.25000000  1.0
  H  H2  1  0.12957000  0.31986000  0.96540000  1.0
  H  H3  1  0.68014000  0.87043000  0.53459000  1.0
  H  H4  1  0.87044000  0.68013000  0.03460000  1.0
  H  H5  1  0.31986000  0.12957000  0.46541000  1.0
  H  H6  1  0.14203000  0.45755000  0.86462000  1.0
  H  H7  1  0.54245000  0.85797000  0.63538000  1.0
  H  H8  1  0.85797000  0.54244000  0.13538000  1.0
  H  H9  1  0.45755000  0.14203000  0.36462000  1.0
  H  H10  1  0.07806000  0.46039000  0.06952000  1.0
  H  H11  1  0.53960000  0.92194000  0.43048000  1.0
  H  H12  1  0.92194000  0.53960000  0.93048000  1.0
  H  H13  1  0.46040000  0.07806000  0.56952000  1.0
  H  H14  1  0.10211000  0.59844000  0.96776000  1.0
  H  H15  1  0.40156000  0.89789000  0.53224000  1.0
  H  H16  1  0.89788000  0.40156000  0.03224000  1.0
  H  H17  1  0.59845000  0.10211000  0.46776000  1.0
  H  H18  1  0.59328000  0.66989000  0.77320000  1.0
  H  H19  1  0.33011000  0.40673000  0.72680000  1.0
  H  H20  1  0.40672000  0.33010000  0.22679000  1.0
  H  H21  1  0.66989000  0.59329000  0.27320000  1.0
  H  H22  1  0.79246000  0.57521000  0.81536000  1.0
  H  H23  1  0.42478000  0.20755000  0.68465000  1.0
  H  H24  1  0.20754000  0.42478000  0.18464000  1.0
  H  H25  1  0.57521000  0.79246000  0.31536000  1.0
  H  H26  1  0.79423000  0.36159000  0.93574000  1.0
  H  H27  1  0.63840000  0.20578000  0.56427000  1.0
  H  H28  1  0.20578000  0.63841000  0.06426000  1.0
  H  H29  1  0.36158000  0.79422000  0.43575000  1.0
  H  H30  1  0.59883000  0.23569000  0.01761000  1.0
  H  H31  1  0.76431000  0.40117000  0.48239000  1.0
  H  H32  1  0.40117000  0.76432000  0.98240000  1.0
  H  H33  1  0.23568000  0.59882000  0.51761000  1.0
  H  H34  1  0.22658000  0.22967000  0.09005000  1.0
  H  H35  1  0.77033000  0.77342000  0.40994000  1.0
  H  H36  1  0.77342000  0.77033000  0.90995000  1.0
  H  H37  1  0.22967000  0.22658000  0.59006000  1.0
  H  H38  1  0.38812000  0.17855000  0.08066000  1.0
  H  H39  1  0.82145000  0.61188000  0.41933000  1.0
  H  H40  1  0.61188000  0.82146000  0.91934000  1.0
  H  H41  1  0.17855000  0.38812000  0.58067000  1.0
  H  H42  1  0.50482000  0.15470000  0.89240000  1.0
  H  H43  1  0.84530000  0.49518000  0.60760000  1.0
  H  H44  1  0.49518000  0.84529000  0.10761000  1.0
  H  H45  1  0.15471000  0.50482000  0.39240000  1.0
  H  H46  1  0.48807000  0.01107000  0.80577000  1.0
  H  H47  1  0.98892000  0.51192000  0.69423000  1.0
  H  H48  1  0.51193000  0.98892000  0.19424000  1.0
  H  H49  1  0.01109000  0.48808000  0.30576000  1.0
  H  H50  1  0.10336000  0.93054000  0.98808000  1.0
  H  H51  1  0.06945000  0.89664000  0.51192000  1.0
  H  H52  1  0.89664000  0.06946000  0.01192000  1.0
  H  H53  1  0.93055000  0.10336000  0.48808000  1.0
  H  H54  1  0.11679000  0.07594000  0.07519000  1.0
  H  H55  1  0.92406000  0.88321000  0.42481000  1.0
  H  H56  1  0.88321000  0.92406000  0.92482000  1.0
  H  H57  1  0.07594000  0.11680000  0.57519000  1.0
  C  C58  1  0.29363000  0.42983000  0.92161000  1.0
  C  C59  1  0.57017000  0.70637000  0.57839000  1.0
  C  C60  1  0.70637000  0.57017000  0.07839000  1.0
  C  C61  1  0.42983000  0.29363000  0.42161000  1.0
  C  C62  1  0.15641000  0.42026000  0.93488000  1.0
  C  C63  1  0.57974000  0.84359000  0.56512000  1.0
  C  C64  1  0.84359000  0.57973000  0.06512000  1.0
  C  C65  1  0.42027000  0.15641000  0.43488000  1.0
  C  C66  1  0.06954000  0.49972000  0.99735000  1.0
  C  C67  1  0.50027000  0.93046000  0.50264000  1.0
  C  C68  1  0.93045000  0.50027000  0.00265000  1.0
  C  C69  1  0.49973000  0.06954000  0.49736000  1.0
  C  C70  1  0.48463000  0.50435000  0.87133000  1.0
  C  C71  1  0.49565000  0.51537000  0.62868000  1.0
  C  C72  1  0.51537000  0.49565000  0.12867000  1.0
  C  C73  1  0.50435000  0.48463000  0.37132000  1.0
  C  C74  1  0.59466000  0.57583000  0.82563000  1.0
  C  C75  1  0.42417000  0.40534000  0.67438000  1.0
  C  C76  1  0.40534000  0.42417000  0.17437000  1.0
  C  C77  1  0.57582000  0.59467000  0.32562000  1.0
  C  C78  1  0.70488000  0.52228000  0.85016000  1.0
  C  C79  1  0.47771000  0.29513000  0.64984000  1.0
  C  C80  1  0.29512000  0.47772000  0.14983000  1.0
  C  C81  1  0.52228000  0.70488000  0.35016000  1.0
  C  C82  1  0.70645000  0.40081000  0.91821000  1.0
  C  C83  1  0.59918000  0.29355000  0.58179000  1.0
  C  C84  1  0.29355000  0.59919000  0.08178000  1.0
  C  C85  1  0.40081000  0.70645000  0.41821000  1.0
  C  C86  1  0.48701000  0.38333000  0.94062000  1.0
  C  C87  1  0.61667000  0.51299000  0.55938000  1.0
  C  C88  1  0.51298000  0.61667000  0.05938000  1.0
  C  C89  1  0.38333000  0.48702000  0.44062000  1.0
  C  C90  1  0.59720000  0.32925000  0.96488000  1.0
  C  C91  1  0.67075000  0.40280000  0.53512000  1.0
  C  C92  1  0.40280000  0.67075000  0.03512000  1.0
  C  C93  1  0.32925000  0.59720000  0.46488000  1.0
  C  C94  1  0.32032000  0.21552000  0.03971000  1.0
  C  C95  1  0.78448000  0.67967000  0.46028000  1.0
  C  C96  1  0.67967000  0.78448000  0.96029000  1.0
  C  C97  1  0.21552000  0.32032000  0.53972000  1.0
  C  C98  1  0.31223000  0.12368000  0.99017000  1.0
  C  C99  1  0.87632000  0.68777000  0.50983000  1.0
  C  C100  1  0.68777000  0.87632000  0.00984000  1.0
  C  C101  1  0.12368000  0.31223000  0.49017000  1.0
  C  C102  1  0.41679000  0.10510000  0.91422000  1.0
  C  C103  1  0.89490000  0.58321000  0.58578000  1.0
  C  C104  1  0.58321000  0.89490000  0.08579000  1.0
  C  C105  1  0.10511000  0.41679000  0.41422000  1.0
  C  C106  1  0.40785000  0.02565000  0.86533000  1.0
  C  C107  1  0.97434000  0.59215000  0.63466000  1.0
  C  C108  1  0.59215000  0.97435000  0.13467000  1.0
  C  C109  1  0.02566000  0.40785000  0.36533000  1.0
  C  C110  1  0.29452000  0.96292000  0.89158000  1.0
  C  C111  1  0.03707000  0.70547000  0.60842000  1.0
  C  C112  1  0.70548000  0.03708000  0.10842000  1.0
  C  C113  1  0.96293000  0.29453000  0.39158000  1.0
  C  C114  1  0.19063000  0.98032000  0.96810000  1.0
  C  C115  1  0.01968000  0.80937000  0.53190000  1.0
  C  C116  1  0.80937000  0.01968000  0.03190000  1.0
  C  C117  1  0.98032000  0.19064000  0.46810000  1.0
  C  C118  1  0.19928000  0.06053000  0.01686000  1.0
  C  C119  1  0.93946000  0.80072000  0.48314000  1.0
  C  C120  1  0.80072000  0.93946000  0.98315000  1.0
  C  C121  1  0.06054000  0.19928000  0.51686000  1.0
  C  C122  1  0.28621000  0.87552000  0.83973000  1.0
  C  C123  1  0.12447000  0.71378000  0.66027000  1.0
  C  C124  1  0.71379000  0.12448000  0.16027000  1.0
  C  C125  1  0.87553000  0.28622000  0.33972000  1.0
  N  N126  1  0.36287000  0.52973000  0.86167000  1.0
  N  N127  1  0.47027000  0.63714000  0.63833000  1.0
  N  N128  1  0.63714000  0.47027000  0.13833000  1.0
  N  N129  1  0.52973000  0.36287000  0.36167000  1.0
  N  N130  1  0.36405000  0.33973000  0.97190000  1.0
  N  N131  1  0.66026000  0.63595000  0.52809000  1.0
  N  N132  1  0.63595000  0.66027000  0.02810000  1.0
  N  N133  1  0.33974000  0.36405000  0.47191000  1.0
  O  O134  1  0.38439000  0.86441000  0.76960000  1.0
  O  O135  1  0.13559000  0.61561000  0.73040000  1.0
  O  O136  1  0.61561000  0.13561000  0.23039000  1.0
  O  O137  1  0.86441000  0.38439000  0.26959000  1.0
  O  O138  1  0.18551000  0.81406000  0.86758000  1.0
  O  O139  1  0.18593000  0.81449000  0.63242000  1.0
  O  O140  1  0.81450000  0.18593000  0.13242000  1.0
  O  O141  1  0.81407000  0.18552000  0.36757000  1.0
