# generated using pymatgen
data_Zn4H22C29N2O17
_symmetry_space_group_name_H-M   'P 1'
_cell_length_a   18.02840000
_cell_length_b   18.23310000
_cell_length_c   18.43040000
_cell_angle_alpha   90.36480000
_cell_angle_beta   119.23630000
_cell_angle_gamma   119.17810000
_symmetry_Int_Tables_number   1
_chemical_formula_structural   Zn4H22C29N2O17
_chemical_formula_sum   'Zn8 H44 C58 N4 O34'
_cell_volume   4371.65415434
_cell_formula_units_Z   2
loop_
 _symmetry_equiv_pos_site_id
 _symmetry_equiv_pos_as_xyz
  1  'x, y, z'
loop_
 _atom_site_type_symbol
 _atom_site_label
 _atom_site_symmetry_multiplicity
 _atom_site_fract_x
 _atom_site_fract_y
 _atom_site_fract_z
 _atom_site_occupancy
  Zn  Zn0  1  0.59062000  0.29206000  0.38129000  1.0
  Zn  Zn1  1  0.59677000  0.30052000  0.21308000  1.0
  Zn  Zn2  1  0.40494000  0.70354000  0.61958000  1.0
  Zn  Zn3  1  0.40427000  0.70245000  0.78910000  1.0
  Zn  Zn4  1  0.41250000  0.29502000  0.20684000  1.0
  Zn  Zn5  1  0.58486000  0.87842000  0.78967000  1.0
  Zn  Zn6  1  0.41600000  0.12345000  0.20987000  1.0
  Zn  Zn7  1  0.58980000  0.70939000  0.79363000  1.0
  H  H8  1  0.91885000  0.34139000  0.48268000  1.0
  H  H9  1  0.91555000  0.41612000  0.56825000  1.0
  H  H10  1  0.08412000  0.51823000  0.65884000  1.0
  H  H11  1  0.08447000  0.43063000  0.57256000  1.0
  H  H12  1  0.90807000  0.50195000  0.35112000  1.0
  H  H13  1  0.90424000  0.56163000  0.42222000  1.0
  H  H14  1  0.08284000  0.65358000  0.50638000  1.0
  H  H15  1  0.08698000  0.59020000  0.43882000  1.0
  H  H16  1  0.33766000  0.93850000  0.34419000  1.0
  H  H17  1  0.36252000  0.95194000  0.01975000  1.0
  H  H18  1  0.66497000  0.63959000  0.62401000  1.0
  H  H19  1  0.66077000  0.59888000  0.00149000  1.0
  H  H20  1  0.64419000  0.05033000  0.64815000  1.0
  H  H21  1  0.65718000  0.05664000  0.99398000  1.0
  H  H22  1  0.34281000  0.37047000  0.37634000  1.0
  H  H23  1  0.35092000  0.40927000  0.00537000  1.0
  H  H24  1  0.64410000  0.14984000  0.55455000  1.0
  H  H25  1  0.66563000  0.15904000  0.09389000  1.0
  H  H26  1  0.33460000  0.46289000  0.46972000  1.0
  H  H27  1  0.34976000  0.50542000  0.90837000  1.0
  H  H28  1  0.10161000  0.93527000  0.04994000  1.0
  H  H29  1  0.90881000  0.83808000  0.95305000  1.0
  H  H30  1  0.90019000  0.06941000  0.94783000  1.0
  H  H31  1  0.09300000  0.16666000  0.04557000  1.0
  H  H32  1  0.83243000  0.20476000  0.37391000  1.0
  H  H33  1  0.74415000  0.23566000  0.33116000  1.0
  H  H34  1  0.77221000  0.20228000  0.26273000  1.0
  H  H35  1  0.87091000  0.36705000  0.30932000  1.0
  H  H36  1  0.95407000  0.33190000  0.35576000  1.0
  H  H37  1  0.76784000  0.38048000  0.56875000  1.0
  H  H38  1  0.88028000  0.46086000  0.67028000  1.0
  H  H39  1  0.77751000  0.47409000  0.61333000  1.0
  H  H40  1  0.91227000  0.57454000  0.59053000  1.0
  H  H41  1  0.80516000  0.49346000  0.49150000  1.0
  H  H42  1  0.01399000  0.58119000  0.72390000  1.0
  H  H43  1  0.14826000  0.63147000  0.78816000  1.0
  H  H44  1  0.09970000  0.69829000  0.76515000  1.0
  H  H45  1  0.16764000  0.68615000  0.67513000  1.0
  H  H46  1  0.04214000  0.65904000  0.61056000  1.0
  H  H47  1  0.04769000  0.45954000  0.35085000  1.0
  H  H48  1  0.17481000  0.55208000  0.42722000  1.0
  H  H49  1  0.15282000  0.45322000  0.37904000  1.0
  H  H50  1  0.20455000  0.47787000  0.53775000  1.0
  H  H51  1  0.09484000  0.37441000  0.46340000  1.0
  C  C52  1  0.50238000  0.39162000  0.11408000  1.0
  C  C53  1  0.50630000  0.39459000  0.38816000  1.0
  C  C54  1  0.50102000  0.88956000  0.88817000  1.0
  C  C55  1  0.49560000  0.88406000  0.60881000  1.0
  C  C56  1  0.49235000  0.10887000  0.38756000  1.0
  C  C57  1  0.51711000  0.12000000  0.12280000  1.0
  C  C58  1  0.49594000  0.60954000  0.61261000  1.0
  C  C59  1  0.50257000  0.61289000  0.88896000  1.0
  C  C60  1  0.22295000  0.11418000  0.11083000  1.0
  C  C61  1  0.77898000  0.89054000  0.88636000  1.0
  C  C62  1  0.78048000  0.38415000  0.39010000  1.0
  C  C63  1  0.21521000  0.60952000  0.61160000  1.0
  C  C64  1  0.94289000  0.39048000  0.45070000  1.0
  C  C65  1  0.93176000  0.47564000  0.54772000  1.0
  C  C66  1  0.05235000  0.54469000  0.60715000  1.0
  C  C67  1  0.06421000  0.45357000  0.51486000  1.0
  C  C68  1  0.93732000  0.52507000  0.42032000  1.0
  C  C69  1  0.05566000  0.58547000  0.47784000  1.0
  C  C70  1  0.89738000  0.44488000  0.45144000  1.0
  C  C71  1  0.09760000  0.54968000  0.55250000  1.0
  C  C72  1  0.40476000  0.96372000  0.41092000  1.0
  C  C73  1  0.42718000  0.97547000  0.01417000  1.0
  C  C74  1  0.59375000  0.58084000  0.57001000  1.0
  C  C75  1  0.59280000  0.55802000  0.00233000  1.0
  C  C76  1  0.40430000  0.91145000  0.46533000  1.0
  C  C77  1  0.42199000  0.92198000  0.95575000  1.0
  C  C78  1  0.59601000  0.53259000  0.51341000  1.0
  C  C79  1  0.59383000  0.50819000  0.05906000  1.0
  C  C80  1  0.49037000  0.94111000  0.55085000  1.0
  C  C81  1  0.50416000  0.94905000  0.94777000  1.0
  C  C82  1  0.50667000  0.45501000  0.44447000  1.0
  C  C83  1  0.50690000  0.45313000  0.06042000  1.0
  C  C84  1  0.57711000  0.02733000  0.58191000  1.0
  C  C85  1  0.59273000  0.03498000  0.99955000  1.0
  C  C86  1  0.41268000  0.43027000  0.43015000  1.0
  C  C87  1  0.41871000  0.45226000  0.00483000  1.0
  C  C88  1  0.57748000  0.08220000  0.52985000  1.0
  C  C89  1  0.59792000  0.09148000  0.05573000  1.0
  C  C90  1  0.40821000  0.48094000  0.48284000  1.0
  C  C91  1  0.41762000  0.50474000  0.95035000  1.0
  C  C92  1  0.49155000  0.05018000  0.44389000  1.0
  C  C93  1  0.51534000  0.06148000  0.06378000  1.0
  C  C94  1  0.49906000  0.55533000  0.55422000  1.0
  C  C95  1  0.50431000  0.55704000  0.94821000  1.0
  C  C96  1  0.05673000  0.96390000  0.02732000  1.0
  C  C97  1  0.94997000  0.91004000  0.97358000  1.0
  C  C98  1  0.89366000  0.94827000  0.94475000  1.0
  C  C99  1  0.10820000  0.05650000  0.05313000  1.0
  C  C100  1  0.94510000  0.04085000  0.97066000  1.0
  C  C101  1  0.05185000  0.09471000  0.02475000  1.0
  C  C102  1  0.89607000  0.33520000  0.35788000  1.0
  C  C103  1  0.80607000  0.23947000  0.32974000  1.0
  C  C104  1  0.86707000  0.50347000  0.55657000  1.0
  C  C105  1  0.82021000  0.45200000  0.60458000  1.0
  C  C106  1  0.08862000  0.63657000  0.65502000  1.0
  C  C107  1  0.08694000  0.63689000  0.73717000  1.0
  C  C108  1  0.12418000  0.44526000  0.48130000  1.0
  C  C109  1  0.12444000  0.47958000  0.40550000  1.0
  N  N110  1  0.30586000  0.82544000  0.43146000  1.0
  N  N111  1  0.32139000  0.83782000  0.89641000  1.0
  N  N112  1  0.69524000  0.57090000  0.52340000  1.0
  N  N113  1  0.69346000  0.52073000  0.12267000  1.0
  O  O114  1  0.50286000  0.25318000  0.25204000  1.0
  O  O115  1  0.49675000  0.74900000  0.74879000  1.0
  O  O116  1  0.55562000  0.36026000  0.12729000  1.0
  O  O117  1  0.56933000  0.37272000  0.42787000  1.0
  O  O118  1  0.43758000  0.80617000  0.86562000  1.0
  O  O119  1  0.44790000  0.80156000  0.57186000  1.0
  O  O120  1  0.55535000  0.19192000  0.42766000  1.0
  O  O121  1  0.58377000  0.20306000  0.14900000  1.0
  O  O122  1  0.41677000  0.61226000  0.57726000  1.0
  O  O123  1  0.43673000  0.63198000  0.86486000  1.0
  O  O124  1  0.43769000  0.36723000  0.30647000  1.0
  O  O125  1  0.44207000  0.37389000  0.13844000  1.0
  O  O126  1  0.55119000  0.92505000  0.69076000  1.0
  O  O127  1  0.56468000  0.92915000  0.86714000  1.0
  O  O128  1  0.45012000  0.08047000  0.14057000  1.0
  O  O129  1  0.43010000  0.07063000  0.30466000  1.0
  O  O130  1  0.56697000  0.63616000  0.86816000  1.0
  O  O131  1  0.57301000  0.64824000  0.69242000  1.0
  O  O132  1  0.26579000  0.19807000  0.13371000  1.0
  O  O133  1  0.73262000  0.92956000  0.85830000  1.0
  O  O134  1  0.73845000  0.38593000  0.31131000  1.0
  O  O135  1  0.73076000  0.33333333  0.41993000  1.0
  O  O136  1  0.26084000  0.61416000  0.69260000  1.0
  O  O137  1  0.26167000  0.65087000  0.57588000  1.0
  O  O138  1  0.26912000  0.07484000  0.13271000  1.0
  O  O139  1  0.73620000  0.80691000  0.86896000  1.0
  O  O140  1  0.26247000  0.77623000  0.35759000  1.0
  O  O141  1  0.27257000  0.81108000  0.47831000  1.0
  O  O142  1  0.28767000  0.78365000  0.93024000  1.0
  O  O143  1  0.27686000  0.83104000  0.81763000  1.0
  O  O144  1  0.77476000  0.61627000  0.59800000  1.0
  O  O145  1  0.69183000  0.55756000  0.45547000  1.0
  O  O146  1  0.73842000  0.51290000  0.09273000  1.0
  O  O147  1  0.72596000  0.54175000  0.20117000  1.0
