# generated using pymatgen
data_VZnH6C9NO5
_symmetry_space_group_name_H-M   'P 1'
_cell_length_a   10.55660000
_cell_length_b   10.68420000
_cell_length_c   11.21310000
_cell_angle_alpha   80.94360000
_cell_angle_beta   63.07620000
_cell_angle_gamma   63.66130000
_symmetry_Int_Tables_number   1
_chemical_formula_structural   VZnH6C9NO5
_chemical_formula_sum   'V4 Zn4 H24 C36 N4 O20'
_cell_volume   1009.06884743
_cell_formula_units_Z   4
loop_
 _symmetry_equiv_pos_site_id
 _symmetry_equiv_pos_as_xyz
  1  'x, y, z'
loop_
 _atom_site_type_symbol
 _atom_site_label
 _atom_site_symmetry_multiplicity
 _atom_site_fract_x
 _atom_site_fract_y
 _atom_site_fract_z
 _atom_site_occupancy
  V  V0  1  0.16205000  0.03777000  0.28224000  1.0
  V  V1  1  0.83795000  0.96222000  0.71776000  1.0
  V  V2  1  0.20165000  0.76913000  0.46296000  1.0
  V  V3  1  0.79835000  0.23087000  0.53704000  1.0
  Zn  Zn4  1  0.29012000  0.50102000  0.28040000  1.0
  Zn  Zn5  1  0.70988000  0.49898000  0.71960000  1.0
  Zn  Zn6  1  0.25534000  0.76825000  0.09328000  1.0
  Zn  Zn7  1  0.74466000  0.23175000  0.90672000  1.0
  H  H8  1  0.94692000  0.40815000  0.27103000  1.0
  H  H9  1  0.05308000  0.59185000  0.72897000  1.0
  H  H10  1  0.71538000  0.40678000  0.26548000  1.0
  H  H11  1  0.28462000  0.59322000  0.73452000  1.0
  H  H12  1  0.68195000  0.75994000  0.01458000  1.0
  H  H13  1  0.31805000  0.24006000  0.98542000  1.0
  H  H14  1  0.90862000  0.76438000  0.02570000  1.0
  H  H15  1  0.09138000  0.23561000  0.97430000  1.0
  H  H16  1  0.11603000  0.32561000  0.41170000  1.0
  H  H17  1  0.88398000  0.67439000  0.58829000  1.0
  H  H18  1  0.11639000  0.14633000  0.57862000  1.0
  H  H19  1  0.88361000  0.85367000  0.42138000  1.0
  H  H20  1  0.50381000  0.18284000  0.59149000  1.0
  H  H21  1  0.49619000  0.81716000  0.40851000  1.0
  H  H22  1  0.47936000  0.36737000  0.43264000  1.0
  H  H23  1  0.52064000  0.63263000  0.56736000  1.0
  H  H24  1  0.12908000  0.99671000  0.70548000  1.0
  H  H25  1  0.87092000  0.00329000  0.29452000  1.0
  H  H26  1  0.12567000  0.83721000  0.88868000  1.0
  H  H27  1  0.87433000  0.16279000  0.11132000  1.0
  H  H28  1  0.48562000  0.87998000  0.91358000  1.0
  H  H29  1  0.51438000  0.12002000  0.08642000  1.0
  H  H30  1  0.50682000  0.03987000  0.73106000  1.0
  H  H31  1  0.49318000  0.96013000  0.26894000  1.0
  C  C32  1  0.07842000  0.59119000  0.15556000  1.0
  C  C33  1  0.92157000  0.40881000  0.84444000  1.0
  C  C34  1  0.94166000  0.58741000  0.14978000  1.0
  C  C35  1  0.05834000  0.41259000  0.85022000  1.0
  C  C36  1  0.88752000  0.48577000  0.21625000  1.0
  C  C37  1  0.11248000  0.51423000  0.78375000  1.0
  C  C38  1  0.75920000  0.48366000  0.21131000  1.0
  C  C39  1  0.24080000  0.51634000  0.78869000  1.0
  C  C40  1  0.68364000  0.58283000  0.13941000  1.0
  C  C41  1  0.31636000  0.41717000  0.86059000  1.0
  C  C42  1  0.73800000  0.68413000  0.07251000  1.0
  C  C43  1  0.26199000  0.31588000  0.92749000  1.0
  C  C44  1  0.86611000  0.68609000  0.07786000  1.0
  C  C45  1  0.13389000  0.31390000  0.92214000  1.0
  C  C46  1  0.54260000  0.58392000  0.13740000  1.0
  C  C47  1  0.45740000  0.41608000  0.86260000  1.0
  C  C48  1  0.19914000  0.29114000  0.45514000  1.0
  C  C49  1  0.80086000  0.70886000  0.54486000  1.0
  C  C50  1  0.20262000  0.18848000  0.54750000  1.0
  C  C51  1  0.79738000  0.81152000  0.45250000  1.0
  C  C52  1  0.31324000  0.14406000  0.59985000  1.0
  C  C53  1  0.68677000  0.85594000  0.40015000  1.0
  C  C54  1  0.41515000  0.20959000  0.55579000  1.0
  C  C55  1  0.58485000  0.79041000  0.44421000  1.0
  C  C56  1  0.40359000  0.31340000  0.46468000  1.0
  C  C57  1  0.59641000  0.68660000  0.53532000  1.0
  C  C58  1  0.31721000  0.03697000  0.70100000  1.0
  C  C59  1  0.68279000  0.96304000  0.29900000  1.0
  C  C60  1  0.21292000  0.97386000  0.74563000  1.0
  C  C61  1  0.78708000  0.02614000  0.25437000  1.0
  C  C62  1  0.20876000  0.88421000  0.84969000  1.0
  C  C63  1  0.79124000  0.11579000  0.15031000  1.0
  C  C64  1  0.40906000  0.90789000  0.86437000  1.0
  C  C65  1  0.59094000  0.09211000  0.13563000  1.0
  C  C66  1  0.41993000  0.99858000  0.76071000  1.0
  C  C67  1  0.58006000  0.00142000  0.23929000  1.0
  N  N68  1  0.29835000  0.35282000  0.41372000  1.0
  N  N69  1  0.70165000  0.64717000  0.58627000  1.0
  N  N70  1  0.30342000  0.85311000  0.91000000  1.0
  N  N71  1  0.69657000  0.14690000  0.09001000  1.0
  O  O72  1  0.15123000  0.49286000  0.21325000  1.0
  O  O73  1  0.84877000  0.50714000  0.78675000  1.0
  O  O74  1  0.11289000  0.69328000  0.10212000  1.0
  O  O75  1  0.88711000  0.30672000  0.89788000  1.0
  O  O76  1  0.46372000  0.69070000  0.09099000  1.0
  O  O77  1  0.53628000  0.30930000  0.90901000  1.0
  O  O78  1  0.50878000  0.47969000  0.18345000  1.0
  O  O79  1  0.49122000  0.52031000  0.81655000  1.0
  O  O80  1  0.12824000  0.94735000  0.19802000  1.0
  O  O81  1  0.87176000  0.05265000  0.80198000  1.0
  O  O82  1  0.02142000  0.82639000  0.61276000  1.0
  O  O83  1  0.97858000  0.17361000  0.38724000  1.0
  O  O84  1  0.28243000  0.10328000  0.17901000  1.0
  O  O85  1  0.71757000  0.89671000  0.82099000  1.0
  O  O86  1  0.24842000  0.91435000  0.38525000  1.0
  O  O87  1  0.75158000  0.08565000  0.61474000  1.0
  O  O88  1  0.34323000  0.65636000  0.49830000  1.0
  O  O89  1  0.65677000  0.34364000  0.50170000  1.0
  O  O90  1  0.18072000  0.69325000  0.35404000  1.0
  O  O91  1  0.81928000  0.30675000  0.64597000  1.0
