# generated using pymatgen
data_CdH11C14NO6
_symmetry_space_group_name_H-M   'P 1'
_cell_length_a   7.03523000
_cell_length_b   9.27799000
_cell_length_c   12.10310000
_cell_angle_alpha   74.62310000
_cell_angle_beta   80.49030000
_cell_angle_gamma   72.12660000
_symmetry_Int_Tables_number   1
_chemical_formula_structural   CdH11C14NO6
_chemical_formula_sum   'Cd2 H22 C28 N2 O12'
_cell_volume   721.92858104
_cell_formula_units_Z   2
loop_
 _symmetry_equiv_pos_site_id
 _symmetry_equiv_pos_as_xyz
  1  'x, y, z'
loop_
 _atom_site_type_symbol
 _atom_site_label
 _atom_site_symmetry_multiplicity
 _atom_site_fract_x
 _atom_site_fract_y
 _atom_site_fract_z
 _atom_site_occupancy
  Cd  Cd0  1  0.60276000  0.59742000  0.85315000  1.0
  Cd  Cd1  1  0.39724000  0.40258000  0.14685000  1.0
  H  H2  1  0.59145000  0.24047000  0.96574000  1.0
  H  H3  1  0.40854000  0.75954000  0.03426000  1.0
  H  H4  1  0.24667000  0.45520000  0.92512000  1.0
  H  H5  1  0.75333000  0.54480000  0.07489000  1.0
  H  H6  1  0.17413000  0.62316000  0.95093000  1.0
  H  H7  1  0.82587000  0.37684000  0.04907000  1.0
  H  H8  1  0.80554000  0.04174000  0.05550000  1.0
  H  H9  1  0.19446000  0.95826000  0.94450000  1.0
  H  H10  1  0.60339000  0.95485000  0.09356000  1.0
  H  H11  1  0.39661000  0.04515000  0.90644000  1.0
  H  H12  1  0.81507000  0.80626000  0.26160000  1.0
  H  H13  1  0.18495000  0.19374000  0.73840000  1.0
  H  H14  1  0.86414000  0.80192000  0.45987000  1.0
  H  H15  1  0.13586000  0.19807000  0.54013000  1.0
  H  H16  1  0.54178000  0.29142000  0.39398000  1.0
  H  H17  1  0.45823000  0.70858000  0.60602000  1.0
  H  H18  1  0.84403000  0.80093000  0.62470000  1.0
  H  H19  1  0.15596000  0.19907000  0.37530000  1.0
  H  H20  1  0.82411000  0.05720000  0.87315000  1.0
  H  H21  1  0.17588000  0.94280000  0.12685000  1.0
  H  H22  1  0.64824000  0.30590000  0.53686000  1.0
  H  H23  1  0.35173000  0.69410000  0.46314000  1.0
  C  C24  1  0.65154000  0.05575000  0.09757000  1.0
  C  C25  1  0.34846000  0.94425000  0.90243000  1.0
  C  C26  1  0.66287000  0.05151000  0.22176000  1.0
  C  C27  1  0.33714000  0.94849000  0.77824000  1.0
  C  C28  1  0.75806000  0.91195000  0.29417000  1.0
  C  C29  1  0.24196000  0.08804000  0.70582000  1.0
  C  C30  1  0.78453000  0.91035000  0.40540000  1.0
  C  C31  1  0.21547000  0.08964000  0.59460000  1.0
  C  C32  1  0.71322000  0.04789000  0.44591000  1.0
  C  C33  1  0.28679000  0.95211000  0.55409000  1.0
  C  C34  1  0.61122000  0.18069000  0.36946000  1.0
  C  C35  1  0.38879000  0.81930000  0.63054000  1.0
  C  C36  1  0.74082000  0.05263000  0.56331000  1.0
  C  C37  1  0.25917000  0.94736000  0.43670000  1.0
  C  C38  1  0.81080000  0.91406000  0.64513000  1.0
  C  C39  1  0.18920000  0.08594000  0.35487000  1.0
  C  C40  1  0.84108000  0.91532000  0.75586000  1.0
  C  C41  1  0.15891000  0.08468000  0.24413000  1.0
  C  C42  1  0.79710000  0.05680000  0.78745000  1.0
  C  C43  1  0.20289000  0.94320000  0.21255000  1.0
  C  C44  1  0.72487000  0.19634000  0.70829000  1.0
  C  C45  1  0.27512000  0.80367000  0.29171000  1.0
  C  C46  1  0.69947000  0.19412000  0.59660000  1.0
  C  C47  1  0.30051000  0.80588000  0.40340000  1.0
  C  C48  1  0.68222000  0.34780000  0.74209000  1.0
  C  C49  1  0.31778000  0.65220000  0.25791000  1.0
  C  C50  1  0.92750000  0.76543000  0.83913000  1.0
  C  C51  1  0.07250000  0.23457000  0.16087000  1.0
  N  N52  1  0.58856000  0.18215000  0.26088000  1.0
  N  N53  1  0.41145000  0.81785000  0.73912000  1.0
  O  O54  1  0.52007000  0.19564000  0.04008000  1.0
  O  O55  1  0.47993000  0.80436000  0.95992000  1.0
  O  O56  1  0.29557000  0.52373000  0.95505000  1.0
  O  O57  1  0.70443000  0.47627000  0.04495000  1.0
  O  O58  1  0.68468000  0.34060000  0.85062000  1.0
  O  O59  1  0.31533000  0.65939000  0.14939000  1.0
  O  O60  1  0.64847000  0.47463000  0.66851000  1.0
  O  O61  1  0.35155000  0.52537000  0.33150000  1.0
  O  O62  1  0.01407000  0.77378000  0.92060000  1.0
  O  O63  1  0.98592000  0.22622000  0.07940000  1.0
  O  O64  1  0.91587000  0.63845000  0.82156000  1.0
  O  O65  1  0.08413000  0.36155000  0.17843000  1.0
