# generated using pymatgen
data_TbCoH18C16(N4O3)2
_symmetry_space_group_name_H-M   'P 1'
_cell_length_a   9.08375000
_cell_length_b   9.08876000
_cell_length_c   16.02556301
_cell_angle_alpha   99.01369855
_cell_angle_beta   97.62346015
_cell_angle_gamma   119.20100000
_symmetry_Int_Tables_number   1
_chemical_formula_structural   TbCoH18C16(N4O3)2
_chemical_formula_sum   'Tb2 Co2 H36 C32 N16 O12'
_cell_volume   1106.60692206
_cell_formula_units_Z   2
loop_
 _symmetry_equiv_pos_site_id
 _symmetry_equiv_pos_as_xyz
  1  'x, y, z'
loop_
 _atom_site_type_symbol
 _atom_site_label
 _atom_site_symmetry_multiplicity
 _atom_site_fract_x
 _atom_site_fract_y
 _atom_site_fract_z
 _atom_site_occupancy
  Tb  Tb0  1  0.90269000  0.65246000  0.74997000  1.0
  Tb  Tb1  1  0.09732000  0.34754000  0.25003000  1.0
  Co  Co2  1  0.99999000  0.00000000  0.50000000  1.0
  Co  Co3  1  0.50000000  0.00000000  0.00000000  1.0
  H  H4  1  0.27023000  0.37472000  0.00121000  1.0
  H  H5  1  0.37508000  0.77025000  0.49881000  1.0
  H  H6  1  0.72978000  0.62528000  0.99879000  1.0
  H  H7  1  0.62493000  0.22975000  0.50119000  1.0
  H  H8  1  0.89080000  0.10661000  0.70541000  1.0
  H  H9  1  0.40168000  0.68552000  0.79458000  1.0
  H  H10  1  0.10920000  0.89340000  0.29459000  1.0
  H  H11  1  0.59832000  0.31448000  0.20542000  1.0
  H  H12  1  0.08168000  0.05186000  0.95373000  1.0
  H  H13  1  0.09931000  0.62851000  0.54619000  1.0
  H  H14  1  0.91833000  0.94815000  0.04627000  1.0
  H  H15  1  0.90070000  0.37150000  0.45381000  1.0
  H  H16  1  0.25743000  0.55261000  0.89695000  1.0
  H  H17  1  0.65705000  0.86140000  0.60308000  1.0
  H  H18  1  0.74257000  0.44739000  0.10305000  1.0
  H  H19  1  0.34295000  0.13860000  0.39692000  1.0
  H  H20  1  0.51287000  0.44397000  0.74984000  1.0
  H  H21  1  0.69397000  0.26311000  0.75010000  1.0
  H  H22  1  0.48713000  0.55603000  0.25016000  1.0
  H  H23  1  0.30603000  0.73689000  0.24990000  1.0
  H  H24  1  0.60635000  0.60028000  0.83796000  1.0
  H  H25  1  0.76280000  0.26880000  0.66203000  1.0
  H  H26  1  0.39366000  0.39972000  0.16204000  1.0
  H  H27  1  0.23719000  0.73120000  0.33797000  1.0
  H  H28  1  0.04502000  0.65667000  0.93443000  1.0
  H  H29  1  0.72252000  0.61091000  0.56548000  1.0
  H  H30  1  0.95498000  0.34334000  0.06557000  1.0
  H  H31  1  0.27747000  0.38907000  0.43452000  1.0
  H  H32  1  0.86861000  0.47119000  0.90052000  1.0
  H  H33  1  0.57109000  0.46818000  0.59940000  1.0
  H  H34  1  0.13139000  0.52882000  0.09948000  1.0
  H  H35  1  0.42890000  0.53182000  0.40061000  1.0
  H  H36  1  0.65160000  0.81171000  0.74144000  1.0
  H  H37  1  0.07000000  0.40933000  0.75856000  1.0
  H  H38  1  0.34840000  0.18830000  0.25857000  1.0
  H  H39  1  0.93000000  0.59067000  0.24144000  1.0
  C  C40  1  0.02039000  0.91612000  0.59741000  1.0
  C  C41  1  0.31858000  0.92259000  0.90268000  1.0
  C  C42  1  0.97959000  0.08387000  0.40258000  1.0
  C  C43  1  0.68142000  0.07740000  0.09732000  1.0
  C  C44  1  0.89342000  0.10956000  0.55065000  1.0
  C  C45  1  0.55859000  0.84245000  0.94944000  1.0
  C  C46  1  0.10657000  0.89044000  0.44935000  1.0
  C  C47  1  0.44141000  0.15755000  0.05056000  1.0
  C  C48  1  0.17898000  0.41146000  0.88034000  1.0
  C  C49  1  0.53236000  0.79953000  0.61969000  1.0
  C  C50  1  0.82103000  0.58855000  0.11966000  1.0
  C  C51  1  0.46765000  0.20047000  0.38031000  1.0
  C  C52  1  0.18306000  0.31135000  0.93662000  1.0
  C  C53  1  0.37606000  0.74742000  0.56339000  1.0
  C  C54  1  0.81694000  0.68866000  0.06338000  1.0
  C  C55  1  0.62395000  0.25258000  0.43661000  1.0
  C  C56  1  0.07708000  0.13081000  0.91012000  1.0
  C  C57  1  0.22180000  0.66754000  0.58984000  1.0
  C  C58  1  0.92294000  0.86920000  0.08989000  1.0
  C  C59  1  0.77821000  0.33246000  0.41016000  1.0
  C  C60  1  0.96410000  0.04711000  0.82587000  1.0
  C  C61  1  0.22199000  0.63848000  0.67407000  1.0
  C  C62  1  0.03590000  0.95289000  0.17413000  1.0
  C  C63  1  0.77801000  0.36153000  0.32593000  1.0
  C  C64  1  0.96834000  0.15658000  0.77187000  1.0
  C  C65  1  0.38539000  0.69675000  0.72811000  1.0
  C  C66  1  0.03166000  0.84342000  0.22813000  1.0
  C  C67  1  0.61463000  0.30326000  0.27190000  1.0
  C  C68  1  0.21779000  0.20208000  0.54883000  1.0
  C  C69  1  0.65331000  0.16864000  0.95089000  1.0
  C  C70  1  0.78217000  0.79789000  0.45116000  1.0
  C  C71  1  0.34671000  0.83137000  0.04911000  1.0
  N  N72  1  0.82434000  0.17438000  0.58382000  1.0
  N  N73  1  0.58984000  0.73993000  0.91625000  1.0
  N  N74  1  0.17564000  0.82562000  0.41618000  1.0
  N  N75  1  0.41017000  0.26007000  0.08375000  1.0
  N  N76  1  0.02475000  0.85315000  0.65546000  1.0
  N  N77  1  0.19756000  0.86869000  0.84465000  1.0
  N  N78  1  0.97524000  0.14684000  0.34453000  1.0
  N  N79  1  0.80244000  0.13130000  0.15535000  1.0
  N  N80  1  0.07293000  0.33081000  0.79997000  1.0
  N  N81  1  0.53171000  0.77343000  0.70003000  1.0
  N  N82  1  0.92708000  0.66919000  0.20003000  1.0
  N  N83  1  0.46830000  0.22658000  0.29998000  1.0
  N  N84  1  0.35521000  0.32894000  0.57780000  1.0
  N  N85  1  0.75127000  0.27693000  0.92183000  1.0
  N  N86  1  0.64478000  0.67105000  0.42220000  1.0
  N  N87  1  0.24872000  0.72305000  0.07817000  1.0
  O  O88  1  0.62399000  0.52835000  0.79050000  1.0
  O  O89  1  0.73811000  0.33371000  0.70949000  1.0
  O  O90  1  0.37601000  0.47165000  0.20950000  1.0
  O  O91  1  0.26189000  0.66629000  0.29051000  1.0
  O  O92  1  0.94129000  0.58626000  0.88674000  1.0
  O  O93  1  0.69985000  0.55491000  0.61323000  1.0
  O  O94  1  0.05872000  0.41374000  0.11326000  1.0
  O  O95  1  0.30013000  0.44508000  0.38677000  1.0
  O  O96  1  0.85965000  0.87676000  0.79758000  1.0
  O  O97  1  0.07978000  0.56216000  0.70238000  1.0
  O  O98  1  0.14036000  0.12325000  0.20242000  1.0
  O  O99  1  0.92022000  0.43785000  0.29762000  1.0
