# generated using pymatgen
data_TlH4C6SNO5
_symmetry_space_group_name_H-M   'P 1'
_cell_length_a   7.74011000
_cell_length_b   8.24402000
_cell_length_c   14.46554983
_cell_angle_alpha   89.99995871
_cell_angle_beta   104.51107192
_cell_angle_gamma   89.99970000
_symmetry_Int_Tables_number   1
_chemical_formula_structural   TlH4C6SNO5
_chemical_formula_sum   'Tl4 H16 C24 S4 N4 O20'
_cell_volume   893.59554205
_cell_formula_units_Z   4
loop_
 _symmetry_equiv_pos_site_id
 _symmetry_equiv_pos_as_xyz
  1  'x, y, z'
loop_
 _atom_site_type_symbol
 _atom_site_label
 _atom_site_symmetry_multiplicity
 _atom_site_fract_x
 _atom_site_fract_y
 _atom_site_fract_z
 _atom_site_occupancy
  Tl  Tl0  1  0.67944000  0.64382000  0.58586000  1.0
  Tl  Tl1  1  0.82056000  0.14381000  0.41414000  1.0
  Tl  Tl2  1  0.32056000  0.35618000  0.41414000  1.0
  Tl  Tl3  1  0.17944000  0.85618000  0.58586000  1.0
  H  H4  1  0.59151000  0.39139000  0.20627000  1.0
  H  H5  1  0.90849000  0.89141000  0.79373000  1.0
  H  H6  1  0.40850000  0.60861000  0.79373000  1.0
  H  H7  1  0.09151000  0.10859000  0.20627000  1.0
  H  H8  1  0.73308000  0.88744000  0.28551000  1.0
  H  H9  1  0.76692000  0.38745000  0.71449000  1.0
  H  H10  1  0.26693000  0.11256000  0.71450000  1.0
  H  H11  1  0.23307000  0.61255000  0.28550000  1.0
  H  H12  1  0.38572000  0.48661000  0.05642000  1.0
  H  H13  1  0.11428000  0.98662000  0.94358000  1.0
  H  H14  1  0.61428000  0.51339000  0.94358000  1.0
  H  H15  1  0.88572000  0.01338000  0.05642000  1.0
  H  H16  1  0.34522000  0.78166000  0.02145000  1.0
  H  H17  1  0.15478000  0.28167000  0.97855000  1.0
  H  H18  1  0.65479000  0.21834000  0.97856000  1.0
  H  H19  1  0.84522000  0.71833000  0.02145000  1.0
  C  C20  1  0.67206000  0.63522000  0.25627000  1.0
  C  C21  1  0.82793000  0.13523000  0.74373000  1.0
  C  C22  1  0.32794000  0.36477000  0.74373000  1.0
  C  C23  1  0.17206000  0.86477000  0.25627000  1.0
  C  C24  1  0.57633000  0.52111000  0.19161000  1.0
  C  C25  1  0.92366000  0.02113000  0.80838000  1.0
  C  C26  1  0.42367000  0.47889000  0.80839000  1.0
  C  C27  1  0.07633000  0.97888000  0.19161000  1.0
  C  C28  1  0.65635000  0.79976000  0.23612000  1.0
  C  C29  1  0.84365000  0.29978000  0.76388000  1.0
  C  C30  1  0.34365000  0.20024000  0.76388000  1.0
  C  C31  1  0.15634000  0.70022000  0.23612000  1.0
  C  C32  1  0.46047000  0.57451000  0.10702000  1.0
  C  C33  1  0.03954000  0.07452000  0.89298000  1.0
  C  C34  1  0.53955000  0.42549000  0.89299000  1.0
  C  C35  1  0.96045000  0.92548000  0.10701000  1.0
  C  C36  1  0.53781000  0.84977000  0.15173000  1.0
  C  C37  1  0.96220000  0.34978000  0.84827000  1.0
  C  C38  1  0.46220000  0.15023000  0.84827000  1.0
  C  C39  1  0.03780000  0.65022000  0.15173000  1.0
  C  C40  1  0.43774000  0.73970000  0.08662000  1.0
  C  C41  1  0.06227000  0.23971000  0.91338000  1.0
  C  C42  1  0.56227000  0.26030000  0.91338000  1.0
  C  C43  1  0.93773000  0.76028000  0.08662000  1.0
  S  S44  1  0.81389000  0.56880000  0.36697000  1.0
  S  S45  1  0.68611000  0.06882000  0.63303000  1.0
  S  S46  1  0.18611000  0.43119000  0.63303000  1.0
  S  S47  1  0.31389000  0.93118000  0.36697000  1.0
  N  N48  1  0.51927000  0.02382000  0.13228000  1.0
  N  N49  1  0.98072000  0.52384000  0.86772000  1.0
  N  N50  1  0.48074000  0.97618000  0.86773000  1.0
  N  N51  1  0.01928000  0.47616000  0.13228000  1.0
  O  O52  1  0.88418000  0.71506000  0.42089000  1.0
  O  O53  1  0.61581000  0.21507000  0.57911000  1.0
  O  O54  1  0.11583000  0.28494000  0.57911000  1.0
  O  O55  1  0.38418000  0.78493000  0.42089000  1.0
  O  O56  1  0.94863000  0.46430000  0.34116000  1.0
  O  O57  1  0.55138000  0.96431000  0.65885000  1.0
  O  O58  1  0.05138000  0.53570000  0.65885000  1.0
  O  O59  1  0.44862000  0.03570000  0.34115000  1.0
  O  O60  1  0.69444000  0.47360000  0.41252000  1.0
  O  O61  1  0.80554000  0.97362000  0.58747000  1.0
  O  O62  1  0.30556000  0.52640000  0.58748000  1.0
  O  O63  1  0.19444000  0.02639000  0.41252000  1.0
  O  O64  1  0.38731000  0.07176000  0.07033000  1.0
  O  O65  1  0.11270000  0.57177000  0.92967000  1.0
  O  O66  1  0.61270000  0.92824000  0.92967000  1.0
  O  O67  1  0.88730000  0.42823000  0.07032000  1.0
  O  O68  1  0.63741000  0.11568000  0.17846000  1.0
  O  O69  1  0.86260000  0.61570000  0.82154000  1.0
  O  O70  1  0.36260000  0.88432000  0.82155000  1.0
  O  O71  1  0.13740000  0.38430000  0.17845000  1.0
