# generated using pymatgen
data_ZnH22(C13O3)2
_symmetry_space_group_name_H-M   'P 1'
_cell_length_a   6.45508000
_cell_length_b   7.25761000
_cell_length_c   22.78333634
_cell_angle_alpha   90.82662355
_cell_angle_beta   98.10940328
_cell_angle_gamma   90.06430000
_symmetry_Int_Tables_number   1
_chemical_formula_structural   ZnH22(C13O3)2
_chemical_formula_sum   'Zn2 H44 C52 O12'
_cell_volume   1056.57563340
_cell_formula_units_Z   2
loop_
 _symmetry_equiv_pos_site_id
 _symmetry_equiv_pos_as_xyz
  1  'x, y, z'
loop_
 _atom_site_type_symbol
 _atom_site_label
 _atom_site_symmetry_multiplicity
 _atom_site_fract_x
 _atom_site_fract_y
 _atom_site_fract_z
 _atom_site_occupancy
  Zn  Zn0  1  0.99999000  0.00000000  0.50000000  1.0
  Zn  Zn1  1  0.50000000  0.50000000  0.50000000  1.0
  H  H2  1  0.39848000  0.74527000  0.32580000  1.0
  H  H3  1  0.07090000  0.75459000  0.67411000  1.0
  H  H4  1  0.60149000  0.25469000  0.67419000  1.0
  H  H5  1  0.92909000  0.24539000  0.32588000  1.0
  H  H6  1  0.12010000  0.78701000  0.13730000  1.0
  H  H7  1  0.98114000  0.71336000  0.86245000  1.0
  H  H8  1  0.87988000  0.21303000  0.86270000  1.0
  H  H9  1  0.01889000  0.28665000  0.13753000  1.0
  H  H10  1  0.64638000  0.89057000  0.26842000  1.0
  H  H11  1  0.37562000  0.61079000  0.73173000  1.0
  H  H12  1  0.35362000  0.10949000  0.73159000  1.0
  H  H13  1  0.62439000  0.38919000  0.26827000  1.0
  H  H14  1  0.60172000  0.07487000  0.19754000  1.0
  H  H15  1  0.40145000  0.42602000  0.80273000  1.0
  H  H16  1  0.39825000  0.92515000  0.80246000  1.0
  H  H17  1  0.59859000  0.57397000  0.19729000  1.0
  H  H18  1  0.27083000  0.83918000  0.22272000  1.0
  H  H19  1  0.04575000  0.66095000  0.77718000  1.0
  H  H20  1  0.72916000  0.16080000  0.77728000  1.0
  H  H21  1  0.95427000  0.33901000  0.22281000  1.0
  H  H22  1  0.77919000  0.81197000  0.37171000  1.0
  H  H23  1  0.40550000  0.68917000  0.62840000  1.0
  H  H24  1  0.22082000  0.18808000  0.62829000  1.0
  H  H25  1  0.59448000  0.31082000  0.37160000  1.0
  H  H26  1  0.47677000  0.16547000  0.09506000  1.0
  H  H27  1  0.37990000  0.33473000  0.90526000  1.0
  H  H28  1  0.52318000  0.83450000  0.90494000  1.0
  H  H29  1  0.62020000  0.66526000  0.09476000  1.0
  H  H30  1  0.67464000  0.07298000  0.01282000  1.0
  H  H31  1  0.66119000  0.42675000  0.98724000  1.0
  H  H32  1  0.32531000  0.92702000  0.98718000  1.0
  H  H33  1  0.33894000  0.57329000  0.01278000  1.0
  H  H34  1  0.99798000  0.88302000  0.03542000  1.0
  H  H35  1  0.96187000  0.61700000  0.96437000  1.0
  H  H36  1  0.00198000  0.11699000  0.96458000  1.0
  H  H37  1  0.03821000  0.38305000  0.03562000  1.0
  H  H38  1  0.39489000  0.91474000  0.54696000  1.0
  H  H39  1  0.84869000  0.58542000  0.45300000  1.0
  H  H40  1  0.60509000  0.08526000  0.45304000  1.0
  H  H41  1  0.15132000  0.41458000  0.54699000  1.0
  H  H42  1  0.36384000  0.11196000  0.51691000  1.0
  H  H43  1  0.84701000  0.38835000  0.48316000  1.0
  H  H44  1  0.63611000  0.88804000  0.48309000  1.0
  H  H45  1  0.15299000  0.61165000  0.51684000  1.0
  C  C46  1  0.17882000  0.71591000  0.41663000  1.0
  C  C47  1  0.76106000  0.78400000  0.58332000  1.0
  C  C48  1  0.82118000  0.28410000  0.58337000  1.0
  C  C49  1  0.23891000  0.21599000  0.41668000  1.0
  C  C50  1  0.09744000  0.77025000  0.35501000  1.0
  C  C51  1  0.74064000  0.73001000  0.64494000  1.0
  C  C52  1  0.90255000  0.22977000  0.64499000  1.0
  C  C53  1  0.25934000  0.26997000  0.35505000  1.0
  C  C54  1  0.23431000  0.77879000  0.31250000  1.0
  C  C55  1  0.91987000  0.72134000  0.68743000  1.0
  C  C56  1  0.76567000  0.22120000  0.68750000  1.0
  C  C57  1  0.08012000  0.27863000  0.31256000  1.0
  C  C58  1  0.94816000  0.86958000  0.23727000  1.0
  C  C59  1  0.70851000  0.63111000  0.76275000  1.0
  C  C60  1  0.05182000  0.13042000  0.76273000  1.0
  C  C61  1  0.29151000  0.36887000  0.23725000  1.0
  C  C62  1  0.87159000  0.92417000  0.17575000  1.0
  C  C63  1  0.69353000  0.57646000  0.82429000  1.0
  C  C64  1  0.12838000  0.07584000  0.82425000  1.0
  C  C65  1  0.30650000  0.42352000  0.17571000  1.0
  C  C66  1  0.98071000  0.87241000  0.12879000  1.0
  C  C67  1  0.85022000  0.62794000  0.87110000  1.0
  C  C68  1  0.01926000  0.12760000  0.87121000  1.0
  C  C69  1  0.14983000  0.37207000  0.12889000  1.0
  C  C70  1  0.81215000  0.85966000  0.28036000  1.0
  C  C71  1  0.52955000  0.64123000  0.71970000  1.0
  C  C72  1  0.18784000  0.14037000  0.71964000  1.0
  C  C73  1  0.47045000  0.35876000  0.28030000  1.0
  C  C74  1  0.68878000  0.03014000  0.16220000  1.0
  C  C75  1  0.52426000  0.47043000  0.83798000  1.0
  C  C76  1  0.31119000  0.96987000  0.83780000  1.0
  C  C77  1  0.47580000  0.52955000  0.16203000  1.0
  C  C78  1  0.16104000  0.82923000  0.25477000  1.0
  C  C79  1  0.90400000  0.67111000  0.74517000  1.0
  C  C80  1  0.83894000  0.17075000  0.74523000  1.0
  C  C81  1  0.09600000  0.32886000  0.25482000  1.0
  C  C82  1  0.88539000  0.81270000  0.33854000  1.0
  C  C83  1  0.54488000  0.68802000  0.66150000  1.0
  C  C84  1  0.11461000  0.18733000  0.66146000  1.0
  C  C85  1  0.45511000  0.31196000  0.33850000  1.0
  C  C86  1  0.61831000  0.08292000  0.10418000  1.0
  C  C87  1  0.51244000  0.41722000  0.89601000  1.0
  C  C88  1  0.38165000  0.91707000  0.89582000  1.0
  C  C89  1  0.48766000  0.58277000  0.10401000  1.0
  C  C90  1  0.72954000  0.03147000  0.05819000  1.0
  C  C91  1  0.67024000  0.46846000  0.94185000  1.0
  C  C92  1  0.27042000  0.96853000  0.94181000  1.0
  C  C93  1  0.32986000  0.53155000  0.05815000  1.0
  C  C94  1  0.91069000  0.92571000  0.07087000  1.0
  C  C95  1  0.83868000  0.57438000  0.92903000  1.0
  C  C96  1  0.08927000  0.07430000  0.92913000  1.0
  C  C97  1  0.16139000  0.42564000  0.07096000  1.0
  O  O98  1  0.36166000  0.65106000  0.42703000  1.0
  O  O99  1  0.93391000  0.84845000  0.57293000  1.0
  O  O100  1  0.63832000  0.34893000  0.57297000  1.0
  O  O101  1  0.06604000  0.15154000  0.42706000  1.0
  O  O102  1  0.05754000  0.73522000  0.45737000  1.0
  O  O103  1  0.59922000  0.76482000  0.54256000  1.0
  O  O104  1  0.94246000  0.26479000  0.54263000  1.0
  O  O105  1  0.40074000  0.23517000  0.45744000  1.0
  O  O106  1  0.30244000  0.02440000  0.54341000  1.0
  O  O107  1  0.75947000  0.47586000  0.45665000  1.0
  O  O108  1  0.69752000  0.97560000  0.45659000  1.0
  O  O109  1  0.24053000  0.52415000  0.54335000  1.0
