# generated using pymatgen
data_H17PbC16(NO2)3
_symmetry_space_group_name_H-M   'P 1'
_cell_length_a   9.04993000
_cell_length_b   9.33531000
_cell_length_c   11.54100000
_cell_angle_alpha   67.19150000
_cell_angle_beta   89.20920000
_cell_angle_gamma   68.39480000
_symmetry_Int_Tables_number   1
_chemical_formula_structural   H17PbC16(NO2)3
_chemical_formula_sum   'H34 Pb2 C32 N6 O12'
_cell_volume   826.13036313
_cell_formula_units_Z   2
loop_
 _symmetry_equiv_pos_site_id
 _symmetry_equiv_pos_as_xyz
  1  'x, y, z'
loop_
 _atom_site_type_symbol
 _atom_site_label
 _atom_site_symmetry_multiplicity
 _atom_site_fract_x
 _atom_site_fract_y
 _atom_site_fract_z
 _atom_site_occupancy
  H  H0  1  0.19568000  0.20253000  0.51032000  1.0
  H  H1  1  0.80437000  0.79745000  0.48972000  1.0
  H  H2  1  0.10881000  0.38511000  0.39067000  1.0
  H  H3  1  0.89110000  0.61487000  0.60939000  1.0
  H  H4  1  0.24848000  0.59410000  0.92877000  1.0
  H  H5  1  0.75157000  0.40579000  0.07121000  1.0
  H  H6  1  0.08708000  0.59702000  0.80349000  1.0
  H  H7  1  0.91292000  0.40299000  0.19657000  1.0
  H  H8  1  0.20083000  0.08628000  0.07630000  1.0
  H  H9  1  0.79901000  0.91373000  0.92373000  1.0
  H  H10  1  0.09893000  0.03133000  0.90146000  1.0
  H  H11  1  0.90092000  0.96874000  0.09853000  1.0
  H  H12  1  0.00503000  0.26673000  0.68325000  1.0
  H  H13  1  0.99478000  0.73339000  0.31677000  1.0
  H  H14  1  0.38250000  0.71907000  0.98798000  1.0
  H  H15  1  0.61742000  0.28094000  0.01200000  1.0
  H  H16  1  0.29197000  0.58625000  0.32900000  1.0
  H  H17  1  0.70787000  0.41390000  0.67097000  1.0
  H  H18  1  0.57012000  0.98420000  0.19077000  1.0
  H  H19  1  0.42990000  0.01577000  0.80919000  1.0
  H  H20  1  0.51776000  0.86144000  0.04653000  1.0
  H  H21  1  0.48209000  0.13867000  0.95338000  1.0
  H  H22  1  0.25929000  0.57194000  0.64707000  1.0
  H  H23  1  0.74063000  0.42804000  0.35292000  1.0
  H  H24  1  0.13140000  0.66926000  0.49748000  1.0
  H  H25  1  0.86866000  0.33079000  0.50245000  1.0
  H  H26  1  0.30943000  0.48116000  0.53357000  1.0
  H  H27  1  0.69049000  0.51878000  0.46644000  1.0
  H  H28  1  0.05048000  0.14910000  0.23427000  1.0
  H  H29  1  0.94956000  0.85100000  0.76581000  1.0
  H  H30  1  0.07571000  0.93378000  0.30995000  1.0
  H  H31  1  0.92458000  0.06622000  0.69003000  1.0
  H  H32  1  0.05955000  0.05003000  0.40187000  1.0
  H  H33  1  0.94064000  0.94986000  0.59823000  1.0
  Pb  Pb34  1  0.47262000  0.21482000  0.34970000  1.0
  Pb  Pb35  1  0.52754000  0.78532000  0.65016000  1.0
  C  C36  1  0.09406000  0.46914000  0.82925000  1.0
  C  C37  1  0.90588000  0.53088000  0.17078000  1.0
  C  C38  1  0.15802000  0.34351000  0.95224000  1.0
  C  C39  1  0.84195000  0.65647000  0.04778000  1.0
  C  C40  1  0.15484000  0.18441000  0.98031000  1.0
  C  C41  1  0.84509000  0.81559000  0.01969000  1.0
  C  C42  1  0.09891000  0.15478000  0.88385000  1.0
  C  C43  1  0.90097000  0.84528000  0.11614000  1.0
  C  C44  1  0.04477000  0.28606000  0.76268000  1.0
  C  C45  1  0.95508000  0.71402000  0.23734000  1.0
  C  C46  1  0.22790000  0.36806000  0.05548000  1.0
  C  C47  1  0.77207000  0.63192000  0.94454000  1.0
  C  C48  1  0.36364000  0.65870000  0.08664000  1.0
  C  C49  1  0.63634000  0.34129000  0.91335000  1.0
  C  C50  1  0.39977000  0.71770000  0.17667000  1.0
  C  C51  1  0.60025000  0.28228000  0.82333000  1.0
  C  C52  1  0.35380000  0.67220000  0.29958000  1.0
  C  C53  1  0.64626000  0.32779000  0.70040000  1.0
  C  C54  1  0.38310000  0.74080000  0.37931000  1.0
  C  C55  1  0.61695000  0.25915000  0.62068000  1.0
  C  C56  1  0.45453000  0.86332000  0.33892000  1.0
  C  C57  1  0.54542000  0.13673000  0.66103000  1.0
  C  C58  1  0.50786000  0.89850000  0.21957000  1.0
  C  C59  1  0.49214000  0.10147000  0.78042000  1.0
  C  C60  1  0.47941000  0.82886000  0.13993000  1.0
  C  C61  1  0.52057000  0.17111000  0.86004000  1.0
  C  C62  1  0.25649000  0.59960000  0.54595000  1.0
  C  C63  1  0.74352000  0.40035000  0.45405000  1.0
  C  C64  1  0.83476000  0.10786000  0.29765000  1.0
  C  C65  1  0.16546000  0.89202000  0.70239000  1.0
  C  C66  1  0.01450000  0.05939000  0.31001000  1.0
  C  C67  1  0.98570000  0.94055000  0.69006000  1.0
  N  N68  1  0.03797000  0.44169000  0.73646000  1.0
  N  N69  1  0.96189000  0.55839000  0.26358000  1.0
  N  N70  1  0.26076000  0.50810000  0.02302000  1.0
  N  N71  1  0.73925000  0.49182000  0.97700000  1.0
  N  N72  1  0.30734000  0.54097000  0.11916000  1.0
  N  N73  1  0.69269000  0.45899000  0.88084000  1.0
  O  O74  1  0.25556000  0.25961000  0.16795000  1.0
  O  O75  1  0.74446000  0.74035000  0.83207000  1.0
  O  O76  1  0.34604000  0.70402000  0.50013000  1.0
  O  O77  1  0.65410000  0.29584000  0.49989000  1.0
  O  O78  1  0.46578000  0.93785000  0.41277000  1.0
  O  O79  1  0.53399000  0.06240000  0.58709000  1.0
  O  O80  1  0.78168000  0.00408000  0.37496000  1.0
  O  O81  1  0.21850000  0.99589000  0.62513000  1.0
  O  O82  1  0.74062000  0.25115000  0.21279000  1.0
  O  O83  1  0.25963000  0.74867000  0.78715000  1.0
  O  O84  1  0.21057000  0.30464000  0.45136000  1.0
  O  O85  1  0.78940000  0.69535000  0.54858000  1.0
