# generated using pymatgen
data_Zn2H11C29(N2O)4
_symmetry_space_group_name_H-M   'P 1'
_cell_length_a   18.67760000
_cell_length_b   19.15560000
_cell_length_c   19.50550000
_cell_angle_alpha   111.19200000
_cell_angle_beta   103.02300000
_cell_angle_gamma   109.40500000
_symmetry_Int_Tables_number   1
_chemical_formula_structural   Zn2H11C29(N2O)4
_chemical_formula_sum   'Zn4 H22 C58 N16 O8'
_cell_volume   5643.80593138
_cell_formula_units_Z   2
loop_
 _symmetry_equiv_pos_site_id
 _symmetry_equiv_pos_as_xyz
  1  'x, y, z'
loop_
 _atom_site_type_symbol
 _atom_site_label
 _atom_site_symmetry_multiplicity
 _atom_site_fract_x
 _atom_site_fract_y
 _atom_site_fract_z
 _atom_site_occupancy
  Zn  Zn0  1  0.00688000  0.12643000  0.63307000  1.0
  Zn  Zn1  1  0.00403000  0.89885000  0.39429000  1.0
  Zn  Zn2  1  0.89180000  0.89319000  0.51270000  1.0
  Zn  Zn3  1  0.11789000  0.12244000  0.50281000  1.0
  H  H4  1  0.66203000  0.39849000  0.02575000  1.0
  H  H5  1  0.83318000  0.13184000  0.65189000  1.0
  H  H6  1  0.29599000  0.27954000  0.64682000  1.0
  H  H7  1  0.73301000  0.71435000  0.35666000  1.0
  H  H8  1  0.02959000  0.73225000  0.25636000  1.0
  H  H9  1  0.93647000  0.34106000  0.68482000  1.0
  H  H10  1  0.17385000  0.18126000  0.77889000  1.0
  H  H11  1  0.86739000  0.81002000  0.23069000  1.0
  H  H12  1  0.28933000  0.13129000  0.59933000  1.0
  H  H13  1  0.72215000  0.88790000  0.44180000  1.0
  H  H14  1  0.76747000  0.75766000  0.53934000  1.0
  H  H15  1  0.44728000  0.48598000  0.96518000  1.0
  H  H16  1  0.21219000  0.27060000  0.47288000  1.0
  H  H17  1  0.50095000  0.32166000  0.01934000  1.0
  H  H18  1  0.60959000  0.56305000  0.97166000  1.0
  H  H19  1  0.93387000  0.75454000  0.55850000  1.0
  H  H20  1  0.00191000  0.16964000  0.38249000  1.0
  H  H21  1  0.05501000  0.12466000  0.80734000  1.0
  H  H22  1  0.96893000  0.88454000  0.20856000  1.0
  H  H23  1  0.51457000  0.48286000  0.10967000  1.0
  H  H24  1  0.59564000  0.40137000  0.88199000  1.0
  H  H25  1  0.14413000  0.86050000  0.46482000  1.0
  C  C26  1  0.01202000  0.06199000  0.75868000  1.0
  C  C27  1  0.49613000  0.46802000  0.97987000  1.0
  C  C28  1  0.52491000  0.37570000  0.00898000  1.0
  C  C29  1  0.58440000  0.50894000  0.98159000  1.0
  C  C30  1  0.34636000  0.28200000  0.80355000  1.0
  C  C31  1  0.72897000  0.65011000  0.19234000  1.0
  C  C32  1  0.57785000  0.42034000  0.93290000  1.0
  C  C33  1  0.53136000  0.46417000  0.05808000  1.0
  C  C34  1  0.48702000  0.37741000  0.92842000  1.0
  C  C35  1  0.62189000  0.50853000  0.06280000  1.0
  C  C36  1  0.41329000  0.31815000  0.85942000  1.0
  C  C37  1  0.01033000  0.94774000  0.25684000  1.0
  C  C38  1  0.68493000  0.58170000  0.13287000  1.0
  C  C39  1  0.32225000  0.98440000  0.55316000  1.0
  C  C40  1  0.66437000  0.99663000  0.54423000  1.0
  C  C41  1  0.16694000  0.92814000  0.49349000  1.0
  C  C42  1  0.81972000  0.07362000  0.60181000  1.0
  C  C43  1  0.38827000  0.98256000  0.55716000  1.0
  C  C44  1  0.59783000  0.99050000  0.54813000  1.0
  C  C45  1  0.45987000  0.98253000  0.55657000  1.0
  C  C46  1  0.52591000  0.98538000  0.55267000  1.0
  C  C47  1  0.95192000  0.29441000  0.46713000  1.0
  C  C48  1  0.24888000  0.99178000  0.54036000  1.0
  C  C49  1  0.95475000  0.61898000  0.44643000  1.0
  C  C50  1  0.94484000  0.35197000  0.45696000  1.0
  C  C51  1  0.94816000  0.55237000  0.44515000  1.0
  C  C52  1  0.94168000  0.41769000  0.44936000  1.0
  C  C53  1  0.94340000  0.48143000  0.44586000  1.0
  C  C54  1  0.95123000  0.99376000  0.83294000  1.0
  C  C55  1  0.02799000  0.02843000  0.18080000  1.0
  C  C56  1  0.95715000  0.00206000  0.89989000  1.0
  C  C57  1  0.00745000  0.02520000  0.11473000  1.0
  C  C58  1  0.96943000  0.01081000  0.97336000  1.0
  C  C59  1  0.74202000  0.00566000  0.54512000  1.0
  C  C60  1  0.98670000  0.01943000  0.04194000  1.0
  C  C61  1  0.94933000  0.75615000  0.50854000  1.0
  C  C62  1  0.99452000  0.17891000  0.43823000  1.0
  C  C63  1  0.25243000  0.24999000  0.66841000  1.0
  C  C64  1  0.77561000  0.75102000  0.33875000  1.0
  C  C65  1  0.97992000  0.73117000  0.40118000  1.0
  C  C66  1  0.97067000  0.21918000  0.54918000  1.0
  C  C67  1  0.19012000  0.19951000  0.73581000  1.0
  C  C68  1  0.84410000  0.79987000  0.27419000  1.0
  C  C69  1  0.24133000  0.06696000  0.56212000  1.0
  C  C70  1  0.96126000  0.69542000  0.45132000  1.0
  C  C71  1  0.76264000  0.94875000  0.49414000  1.0
  C  C72  1  0.91556000  0.92982000  0.68189000  1.0
  C  C73  1  0.09458000  0.08414000  0.33219000  1.0
  C  C74  1  0.95722000  0.99383000  0.76303000  1.0
  C  C75  1  0.04439000  0.02208000  0.25111000  1.0
  C  C76  1  0.99884000  0.69956000  0.33091000  1.0
  C  C77  1  0.96276000  0.25880000  0.62418000  1.0
  C  C78  1  0.84499000  0.84747000  0.64484000  1.0
  C  C79  1  0.14591000  0.17443000  0.36815000  1.0
  C  C80  1  0.96810000  0.23425000  0.48235000  1.0
  C  C81  1  0.26928000  0.24547000  0.74048000  1.0
  C  C82  1  0.77891000  0.72765000  0.26245000  1.0
  C  C83  1  0.61410000  0.41799000  0.01218000  1.0
  N  N84  1  0.00406000  0.04018000  0.68236000  1.0
  N  N85  1  0.99620000  0.15995000  0.54252000  1.0
  N  N86  1  0.13201000  0.17921000  0.66726000  1.0
  N  N87  1  0.87803000  0.86073000  0.35151000  1.0
  N  N88  1  0.16184000  0.04860000  0.52891000  1.0
  N  N89  1  0.84544000  0.98010000  0.51966000  1.0
  N  N90  1  0.94616000  0.95947000  0.63594000  1.0
  N  N91  1  0.08839000  0.04790000  0.37997000  1.0
  N  N92  1  0.03718000  0.96489000  0.33409000  1.0
  N  N93  1  0.11595000  0.96339000  0.48652000  1.0
  N  N94  1  0.88000000  0.05691000  0.58588000  1.0
  N  N95  1  0.95944000  0.82124000  0.49308000  1.0
  N  N96  1  0.01193000  0.13610000  0.47650000  1.0
  N  N97  1  0.17043000  0.21035000  0.62477000  1.0
  N  N98  1  0.83451000  0.82963000  0.39062000  1.0
  N  N99  1  0.97817000  0.80572000  0.42801000  1.0
  O  O100  1  0.99984000  0.63243000  0.29941000  1.0
  O  O101  1  0.01711000  0.75757000  0.30266000  1.0
  O  O102  1  0.98081000  0.24103000  0.67914000  1.0
  O  O103  1  0.93653000  0.31737000  0.63110000  1.0
  O  O104  1  0.81125000  0.81100000  0.67683000  1.0
  O  O105  1  0.81555000  0.81197000  0.56098000  1.0
  O  O106  1  0.15681000  0.21763000  0.33510000  1.0
  O  O107  1  0.18332000  0.20959000  0.45165000  1.0
