# generated using pymatgen
data_CuH36C46S2N8(OF)6
_symmetry_space_group_name_H-M   'P 1'
_cell_length_a   9.11792000
_cell_length_b   11.23120000
_cell_length_c   12.16970000
_cell_angle_alpha   114.02200000
_cell_angle_beta   104.87700000
_cell_angle_gamma   93.49650000
_symmetry_Int_Tables_number   1
_chemical_formula_structural   CuH36C46S2N8(OF)6
_chemical_formula_sum   'Cu1 H36 C46 S2 N8 O6 F6'
_cell_volume   1080.63765150
_cell_formula_units_Z   1
loop_
 _symmetry_equiv_pos_site_id
 _symmetry_equiv_pos_as_xyz
  1  'x, y, z'
loop_
 _atom_site_type_symbol
 _atom_site_label
 _atom_site_symmetry_multiplicity
 _atom_site_fract_x
 _atom_site_fract_y
 _atom_site_fract_z
 _atom_site_occupancy
  Cu  Cu0  1  0.00000000  0.50000000  0.50000000  1.0
  H  H1  1  0.83083000  0.72732000  0.55266000  1.0
  H  H2  1  0.16917000  0.27269000  0.44735000  1.0
  H  H3  1  0.21646000  0.74923000  0.54516000  1.0
  H  H4  1  0.78354000  0.25077000  0.45484000  1.0
  H  H5  1  0.79705000  0.38577000  0.18813000  1.0
  H  H6  1  0.20295000  0.61423000  0.81187000  1.0
  H  H7  1  0.27338000  0.52649000  0.30578000  1.0
  H  H8  1  0.72663000  0.47351000  0.69422000  1.0
  H  H9  1  0.66917000  0.23090000  0.28610000  1.0
  H  H10  1  0.33084000  0.76911000  0.71390000  1.0
  H  H11  1  0.29737000  0.92701000  0.50034000  1.0
  H  H12  1  0.70263000  0.07299000  0.49965000  1.0
  H  H13  1  0.17434000  0.94321000  0.37060000  1.0
  H  H14  1  0.82566000  0.05678000  0.62939000  1.0
  H  H15  1  0.39047000  0.13654000  0.17923000  1.0
  H  H16  1  0.60954000  0.86347000  0.82077000  1.0
  H  H17  1  0.61726000  0.84415000  0.55481000  1.0
  H  H18  1  0.38274000  0.15586000  0.44519000  1.0
  H  H19  1  0.42910000  0.75296000  0.50020000  1.0
  H  H20  1  0.57090000  0.24704000  0.49981000  1.0
  H  H21  1  0.02146000  0.76829000  0.12721000  1.0
  H  H22  1  0.97853000  0.23170000  0.87279000  1.0
  H  H23  1  0.24645000  0.93191000  0.20315000  1.0
  H  H24  1  0.75355000  0.06808000  0.79685000  1.0
  H  H25  1  0.19453000  0.28043000  0.18872000  1.0
  H  H26  1  0.80547000  0.71957000  0.81128000  1.0
  H  H27  1  0.69888000  0.73240000  0.31155000  1.0
  H  H28  1  0.30112000  0.26760000  0.68845000  1.0
  H  H29  1  0.65725000  0.79018000  0.13308000  1.0
  H  H30  1  0.34275000  0.20981000  0.86692000  1.0
  H  H31  1  0.69354000  0.40552000  0.98660000  1.0
  H  H32  1  0.30645000  0.59448000  0.01340000  1.0
  H  H33  1  0.80231000  0.59359000  0.95766000  1.0
  H  H34  1  0.19768000  0.40641000  0.04234000  1.0
  H  H35  1  0.42930000  0.89063000  0.07731000  1.0
  H  H36  1  0.57070000  0.10936000  0.92269000  1.0
  C  C37  1  0.74531000  0.63880000  0.48781000  1.0
  C  C38  1  0.25470000  0.36120000  0.51219000  1.0
  C  C39  1  0.14335000  0.70173000  0.44791000  1.0
  C  C40  1  0.85665000  0.29827000  0.55208000  1.0
  C  C41  1  0.51539000  0.51437000  0.36869000  1.0
  C  C42  1  0.48461000  0.48564000  0.63131000  1.0
  C  C43  1  0.62912000  0.43320000  0.36698000  1.0
  C  C44  1  0.37088000  0.56680000  0.63302000  1.0
  C  C45  1  0.02843000  0.67493000  0.25345000  1.0
  C  C46  1  0.97156000  0.32507000  0.74655000  1.0
  C  C47  1  0.96443000  0.56900000  0.27251000  1.0
  C  C48  1  0.03556000  0.43100000  0.72749000  1.0
  C  C49  1  0.84404000  0.46914000  0.17568000  1.0
  C  C50  1  0.15595000  0.53086000  0.82433000  1.0
  C  C51  1  0.35885000  0.46282000  0.30372000  1.0
  C  C52  1  0.64115000  0.53718000  0.69628000  1.0
  C  C53  1  0.58444000  0.29542000  0.29518000  1.0
  C  C54  1  0.41557000  0.70458000  0.70482000  1.0
  C  C55  1  0.36623000  0.85332000  0.32770000  1.0
  C  C56  1  0.63376000  0.14667000  0.67230000  1.0
  C  C57  1  0.49588000  0.79761000  0.35936000  1.0
  C  C58  1  0.50412000  0.20239000  0.64064000  1.0
  C  C59  1  0.24612000  0.87814000  0.39697000  1.0
  C  C60  1  0.75387000  0.12186000  0.60302000  1.0
  C  C61  1  0.42763000  0.24361000  0.23266000  1.0
  C  C62  1  0.57237000  0.75639000  0.76734000  1.0
  C  C63  1  0.53116000  0.76468000  0.47146000  1.0
  C  C64  1  0.46884000  0.23532000  0.52854000  1.0
  C  C65  1  0.97300000  0.68621000  0.14066000  1.0
  C  C66  1  0.02700000  0.31379000  0.85934000  1.0
  C  C67  1  0.34528000  0.88687000  0.22629000  1.0
  C  C68  1  0.65472000  0.11312000  0.77370000  1.0
  C  C69  1  0.31614000  0.32540000  0.23726000  1.0
  C  C70  1  0.68386000  0.67460000  0.76275000  1.0
  C  C71  1  0.59843000  0.77562000  0.28791000  1.0
  C  C72  1  0.40157000  0.22439000  0.71209000  1.0
  C  C73  1  0.17248000  0.97174000  0.90522000  1.0
  C  C74  1  0.82753000  0.02827000  0.09479000  1.0
  C  C75  1  0.57527000  0.80806000  0.18659000  1.0
  C  C76  1  0.42473000  0.19194000  0.81341000  1.0
  C  C77  1  0.78805000  0.48100000  0.06348000  1.0
  C  C78  1  0.21194000  0.51900000  0.93652000  1.0
  C  C79  1  0.85067000  0.58790000  0.04668000  1.0
  C  C80  1  0.14932000  0.41210000  0.95332000  1.0
  C  C81  1  0.44828000  0.86446000  0.15599000  1.0
  C  C82  1  0.55172000  0.13554000  0.84401000  1.0
  S  S83  1  0.05938000  0.88916000  0.73412000  1.0
  S  S84  1  0.94062000  0.11085000  0.26588000  1.0
  N  N85  1  0.59418000  0.64369000  0.44635000  1.0
  N  N86  1  0.40582000  0.35631000  0.55366000  1.0
  N  N87  1  0.77249000  0.51574000  0.44364000  1.0
  N  N88  1  0.22752000  0.48426000  0.55637000  1.0
  N  N89  1  0.04031000  0.58989000  0.39623000  1.0
  N  N90  1  0.95968000  0.41011000  0.60377000  1.0
  N  N91  1  0.14280000  0.75606000  0.36681000  1.0
  N  N92  1  0.85720000  0.24394000  0.63318000  1.0
  O  O93  1  0.06656000  0.74887000  0.70016000  1.0
  O  O94  1  0.93345000  0.25113000  0.29985000  1.0
  O  O95  1  0.90575000  0.92039000  0.73191000  1.0
  O  O96  1  0.09425000  0.07962000  0.26810000  1.0
  O  O97  1  0.14323000  0.94983000  0.67735000  1.0
  O  O98  1  0.85676000  0.05017000  0.32265000  1.0
  F  F99  1  0.16448000  0.10246000  0.95712000  1.0
  F  F100  1  0.83553000  0.89754000  0.04288000  1.0
  F  F101  1  0.32451000  0.96293000  0.92136000  1.0
  F  F102  1  0.67550000  0.03708000  0.07863000  1.0
  F  F103  1  0.12081000  0.91513000  0.97103000  1.0
  F  F104  1  0.87921000  0.08487000  0.02897000  1.0
