# generated using pymatgen
data_CdH16C19(NO2)4
_symmetry_space_group_name_H-M   'P 1'
_cell_length_a   7.87064000
_cell_length_b   11.35810000
_cell_length_c   11.96570000
_cell_angle_alpha   84.95660000
_cell_angle_beta   73.32280000
_cell_angle_gamma   82.28500000
_symmetry_Int_Tables_number   1
_chemical_formula_structural   CdH16C19(NO2)4
_chemical_formula_sum   'Cd2 H32 C38 N8 O16'
_cell_volume   1014.03533713
_cell_formula_units_Z   2
loop_
 _symmetry_equiv_pos_site_id
 _symmetry_equiv_pos_as_xyz
  1  'x, y, z'
loop_
 _atom_site_type_symbol
 _atom_site_label
 _atom_site_symmetry_multiplicity
 _atom_site_fract_x
 _atom_site_fract_y
 _atom_site_fract_z
 _atom_site_occupancy
  Cd  Cd0  1  0.23836000  0.99443000  0.99682000  1.0
  Cd  Cd1  1  0.76164000  0.00557000  0.00318000  1.0
  H  H2  1  0.61225000  0.68941000  0.77036000  1.0
  H  H3  1  0.38776000  0.31059000  0.22964000  1.0
  H  H4  1  0.86155000  0.58959000  0.61339000  1.0
  H  H5  1  0.13846000  0.41041000  0.38660000  1.0
  H  H6  1  0.09612000  0.91822000  0.52547000  1.0
  H  H7  1  0.90388000  0.08178000  0.47453000  1.0
  H  H8  1  0.84750000  0.01755000  0.68371000  1.0
  H  H9  1  0.15250000  0.98245000  0.31629000  1.0
  H  H10  1  0.03407000  0.36156000  0.75172000  1.0
  H  H11  1  0.96594000  0.63844000  0.24828000  1.0
  H  H12  1  0.27053000  0.43727000  0.57992000  1.0
  H  H13  1  0.72947000  0.56273000  0.42008000  1.0
  H  H14  1  0.52884000  0.08073000  0.52631000  1.0
  H  H15  1  0.47116000  0.91927000  0.47369000  1.0
  H  H16  1  0.29204000  0.00424000  0.69723000  1.0
  H  H17  1  0.70796000  0.99576000  0.30277000  1.0
  H  H18  1  0.85572000  0.28098000  0.06042000  1.0
  H  H19  1  0.14427000  0.71901000  0.93959000  1.0
  H  H20  1  0.91414000  0.34841000  0.17051000  1.0
  H  H21  1  0.08585000  0.65159000  0.82949000  1.0
  H  H22  1  0.95363000  0.19176000  0.15892000  1.0
  H  H23  1  0.04637000  0.80824000  0.84108000  1.0
  H  H24  1  0.16423000  0.48540000  0.01060000  1.0
  H  H25  1  0.83577000  0.51460000  0.98940000  1.0
  H  H26  1  0.66549000  0.37680000  0.83790000  1.0
  H  H27  1  0.33452000  0.62320000  0.16210000  1.0
  H  H28  1  0.52904000  0.51219000  0.88528000  1.0
  H  H29  1  0.47096000  0.48782000  0.11472000  1.0
  H  H30  1  0.52521000  0.45074000  0.75475000  1.0
  H  H31  1  0.47479000  0.54926000  0.24525000  1.0
  H  H32  1  0.50396000  0.18109000  0.87062000  1.0
  H  H33  1  0.49604000  0.81891000  0.12938000  1.0
  C  C34  1  0.56701000  0.91956000  0.82733000  1.0
  C  C35  1  0.43299000  0.08043000  0.17266000  1.0
  C  C36  1  0.71577000  0.85893000  0.73523000  1.0
  C  C37  1  0.28423000  0.14107000  0.26477000  1.0
  C  C38  1  0.71952000  0.73831000  0.71680000  1.0
  C  C39  1  0.28048000  0.26169000  0.28320000  1.0
  C  C40  1  0.85723000  0.68270000  0.63011000  1.0
  C  C41  1  0.14278000  0.31730000  0.36989000  1.0
  C  C42  1  0.98776000  0.75094000  0.56132000  1.0
  C  C43  1  0.01225000  0.24906000  0.43868000  1.0
  C  C44  1  0.98848000  0.87035000  0.57939000  1.0
  C  C45  1  0.01152000  0.12965000  0.42061000  1.0
  C  C46  1  0.85198000  0.92423000  0.66745000  1.0
  C  C47  1  0.14801000  0.07577000  0.33255000  1.0
  C  C48  1  0.00286000  0.13338000  0.83165000  1.0
  C  C49  1  0.99714000  0.86662000  0.16835000  1.0
  C  C50  1  0.14810000  0.17885000  0.73315000  1.0
  C  C51  1  0.85190000  0.82115000  0.26685000  1.0
  C  C52  1  0.14300000  0.30091000  0.70184000  1.0
  C  C53  1  0.85700000  0.69909000  0.29816000  1.0
  C  C54  1  0.27320000  0.34333000  0.60716000  1.0
  C  C55  1  0.72680000  0.65667000  0.39284000  1.0
  C  C56  1  0.40714000  0.26122000  0.54456000  1.0
  C  C57  1  0.59286000  0.73877000  0.45544000  1.0
  C  C58  1  0.41856000  0.13994000  0.57635000  1.0
  C  C59  1  0.58144000  0.86006000  0.42365000  1.0
  C  C60  1  0.28809000  0.09869000  0.67116000  1.0
  C  C61  1  0.71191000  0.90131000  0.32884000  1.0
  C  C62  1  0.95639000  0.27731000  0.10864000  1.0
  C  C63  1  0.04361000  0.72269000  0.89136000  1.0
  C  C64  1  0.13687000  0.29074000  0.02773000  1.0
  C  C65  1  0.86313000  0.70926000  0.97227000  1.0
  C  C66  1  0.21928000  0.39522000  0.98754000  1.0
  C  C67  1  0.78072000  0.60478000  0.01246000  1.0
  C  C68  1  0.38763000  0.35998000  0.91306000  1.0
  C  C69  1  0.61237000  0.64002000  0.08694000  1.0
  C  C70  1  0.53520000  0.42860000  0.84411000  1.0
  C  C71  1  0.46480000  0.57140000  0.15589000  1.0
  N  N72  1  0.12786000  0.69669000  0.46437000  1.0
  N  N73  1  0.87214000  0.30332000  0.53563000  1.0
  N  N74  1  0.53658000  0.30221000  0.43809000  1.0
  N  N75  1  0.46342000  0.69779000  0.56191000  1.0
  N  N76  1  0.24960000  0.19613000  0.98015000  1.0
  N  N77  1  0.75039000  0.80387000  0.01985000  1.0
  N  N78  1  0.39912000  0.24034000  0.91127000  1.0
  N  N79  1  0.60089000  0.75966000  0.08873000  1.0
  O  O80  1  0.42285000  0.87157000  0.86547000  1.0
  O  O81  1  0.57715000  0.12843000  0.13453000  1.0
  O  O82  1  0.59106000  0.01745000  0.86285000  1.0
  O  O83  1  0.40894000  0.98255000  0.13715000  1.0
  O  O84  1  0.14468000  0.58678000  0.45984000  1.0
  O  O85  1  0.85532000  0.41322000  0.54016000  1.0
  O  O86  1  0.22141000  0.76338000  0.39120000  1.0
  O  O87  1  0.77859000  0.23662000  0.60880000  1.0
  O  O88  1  0.03444000  0.02452000  0.87170000  1.0
  O  O89  1  0.96556000  0.97548000  0.12830000  1.0
  O  O90  1  0.85800000  0.19667000  0.87098000  1.0
  O  O91  1  0.14200000  0.80333000  0.12901000  1.0
  O  O92  1  0.64954000  0.22636000  0.38103000  1.0
  O  O93  1  0.35046000  0.77364000  0.61897000  1.0
  O  O94  1  0.52470000  0.40997000  0.40914000  1.0
  O  O95  1  0.47531000  0.59003000  0.59086000  1.0
