# generated using pymatgen
data_Zn6H36C61O26
_symmetry_space_group_name_H-M   'P 1'
_cell_length_a   18.63280000
_cell_length_b   18.66950000
_cell_length_c   18.70869003
_cell_angle_alpha   109.24372009
_cell_angle_beta   109.65174519
_cell_angle_gamma   109.19100000
_symmetry_Int_Tables_number   1
_chemical_formula_structural   Zn6H36C61O26
_chemical_formula_sum   'Zn6 H36 C61 O26'
_cell_volume   5029.99276590
_cell_formula_units_Z   1
loop_
 _symmetry_equiv_pos_site_id
 _symmetry_equiv_pos_as_xyz
  1  'x, y, z'
loop_
 _atom_site_type_symbol
 _atom_site_label
 _atom_site_symmetry_multiplicity
 _atom_site_fract_x
 _atom_site_fract_y
 _atom_site_fract_z
 _atom_site_occupancy
  Zn  Zn0  1  0.94295000  0.44111000  0.99824000  1.0
  Zn  Zn1  1  0.06063000  0.56552000  0.99080000  1.0
  Zn  Zn2  1  0.49329000  0.43905000  0.43754000  1.0
  Zn  Zn3  1  0.48860000  0.55999000  0.56068000  1.0
  Zn  Zn4  1  0.05368000  0.99012000  0.55315000  1.0
  Zn  Zn5  1  0.93352000  0.00061000  0.43309000  1.0
  H  H6  1  0.32688000  0.44241000  0.16879000  1.0
  H  H7  1  0.62636000  0.39892000  0.84670000  1.0
  H  H8  1  0.02591000  0.40718000  0.72546000  1.0
  H  H9  1  0.30282000  0.59075000  0.19910000  1.0
  H  H10  1  0.99676000  0.27947000  0.59857000  1.0
  H  H11  1  0.93471000  0.08193000  0.74569000  1.0
  H  H12  1  0.05078000  0.12772000  0.79535000  1.0
  H  H13  1  0.95360000  0.20780000  0.86969000  1.0
  H  H14  1  0.06971000  0.25299000  0.91991000  1.0
  H  H15  1  0.64211000  0.80529000  0.54919000  1.0
  H  H16  1  0.75722000  0.90449000  0.53618000  1.0
  H  H17  1  0.98588000  0.71212000  0.38295000  1.0
  H  H18  1  0.86276000  0.67279000  0.46225000  1.0
  H  H19  1  0.74971000  0.57043000  0.47603000  1.0
  H  H20  1  0.33109000  0.61695000  0.36775000  1.0
  H  H21  1  0.81753000  0.63227000  0.59302000  1.0
  H  H22  1  0.24280000  0.38716000  0.55490000  1.0
  H  H23  1  0.13912000  0.25897000  0.54932000  1.0
  H  H24  1  0.37513000  0.14747000  0.59572000  1.0
  H  H25  1  0.30796000  0.08798000  0.47957000  1.0
  H  H26  1  0.47268000  0.26934000  0.58554000  1.0
  H  H27  1  0.40374000  0.21108000  0.46986000  1.0
  H  H28  1  0.11196000  0.68248000  0.32021000  1.0
  H  H29  1  0.14714000  0.50825000  0.29235000  1.0
  H  H30  1  0.17450000  0.36240000  0.26443000  1.0
  H  H31  1  0.14351000  0.33554000  0.09606000  1.0
  H  H32  1  0.96923000  0.76796000  0.08423000  1.0
  H  H33  1  0.94312000  0.86533000  0.18676000  1.0
  H  H34  1  0.09706000  0.79077000  0.42848000  1.0
  H  H35  1  0.07441000  0.77088000  0.61843000  1.0
  H  H36  1  0.99928000  0.60441000  0.27144000  1.0
  H  H37  1  0.85090000  0.44598000  0.72297000  1.0
  H  H38  1  0.74319000  0.44471000  0.60000000  1.0
  H  H39  1  0.59673000  0.52995000  0.79140000  1.0
  H  H40  1  0.52544000  0.41479000  0.73115000  1.0
  H  H41  1  0.69537000  0.51467000  0.90854000  1.0
  C  C42  1  0.01375000  0.64289000  0.09912000  1.0
  C  C43  1  0.00912000  0.77038000  0.30097000  1.0
  C  C44  1  0.03582000  0.74072000  0.36698000  1.0
  C  C45  1  0.10349000  0.48495000  0.11126000  1.0
  C  C46  1  0.04545000  0.67338000  0.29835000  1.0
  C  C47  1  0.70638000  0.45057000  0.79229000  1.0
  C  C48  1  0.78107000  0.44871000  0.79444000  1.0
  C  C49  1  0.79272000  0.44677000  0.72316000  1.0
  C  C50  1  0.73291000  0.44736000  0.65464000  1.0
  C  C51  1  0.66113000  0.45607000  0.65647000  1.0
  C  C52  1  0.64985000  0.45738000  0.72672000  1.0
  C  C53  1  0.20163000  0.41316000  0.24914000  1.0
  C  C54  1  0.59445000  0.46658000  0.76914000  1.0
  C  C55  1  0.65766000  0.45754000  0.84273000  1.0
  C  C56  1  0.01165000  0.26758000  0.80430000  1.0
  C  C57  1  0.02840000  0.41521000  0.87664000  1.0
  C  C58  1  0.02137000  0.34457000  0.80361000  1.0
  C  C59  1  0.01790000  0.34782000  0.72834000  1.0
  C  C60  1  0.00207000  0.27605000  0.65708000  1.0
  C  C61  1  0.99403000  0.19919000  0.65941000  1.0
  C  C62  1  0.00100000  0.19812000  0.73551000  1.0
  C  C63  1  0.99720000  0.14279000  0.77949000  1.0
  C  C64  1  0.18659000  0.39817000  0.15682000  1.0
  C  C65  1  0.00903000  0.22167000  0.85761000  1.0
  C  C66  1  0.61265000  0.64445000  0.53433000  1.0
  C  C67  1  0.37364000  0.47447000  0.35765000  1.0
  C  C68  1  0.38373000  0.40566000  0.53164000  1.0
  C  C69  1  0.85204000  0.45871000  0.87054000  1.0
  C  C70  1  0.60318000  0.46750000  0.58953000  1.0
  C  C71  1  0.14427000  0.11342000  0.53276000  1.0
  C  C72  1  0.97042000  0.88614000  0.34977000  1.0
  C  C73  1  0.89371000  0.88931000  0.52184000  1.0
  C  C74  1  0.98197000  0.12326000  0.58742000  1.0
  C  C75  1  0.17418000  0.48090000  0.17381000  1.0
  C  C76  1  0.75645000  0.69875000  0.53757000  1.0
  C  C77  1  0.68851000  0.71272000  0.54150000  1.0
  C  C78  1  0.69289000  0.79056000  0.54454000  1.0
  C  C79  1  0.75835000  0.84704000  0.53791000  1.0
  C  C80  1  0.82599000  0.83152000  0.53260000  1.0
  C  C81  1  0.27463000  0.54004000  0.21398000  1.0
  C  C82  1  0.82356000  0.75712000  0.53501000  1.0
  C  C83  1  0.86696000  0.70058000  0.52610000  1.0
  C  C84  1  0.79228000  0.63627000  0.53312000  1.0
  C  C85  1  0.34494000  0.26795000  0.54086000  1.0
  C  C86  1  0.01884000  0.71200000  0.24105000  1.0
  C  C87  1  0.32953000  0.33661000  0.54314000  1.0
  C  C88  1  0.25626000  0.33384000  0.55114000  1.0
  C  C89  1  0.19858000  0.26223000  0.54921000  1.0
  C  C90  1  0.21380000  0.19210000  0.54533000  1.0
  C  C91  1  0.29036000  0.19906000  0.54503000  1.0
  C  C92  1  0.34300000  0.15254000  0.53791000  1.0
  C  C93  1  0.28723000  0.45794000  0.19637000  1.0
  C  C94  1  0.40418000  0.22999000  0.53221000  1.0
  C  C95  1  0.30373000  0.47437000  0.28968000  1.0
  C  C96  1  0.28909000  0.55489000  0.30640000  1.0
  C  C97  1  0.00558000  0.70907000  0.16209000  1.0
  C  C98  1  0.18861000  0.49455000  0.26647000  1.0
  C  C99  1  0.95959000  0.74087000  0.59850000  1.0
  C  C100  1  0.97978000  0.76740000  0.14499000  1.0
  C  C101  1  0.96537000  0.82277000  0.20314000  1.0
  C  C102  1  0.98045000  0.82616000  0.28363000  1.0
  O  O103  1  0.97255000  0.56521000  0.08331000  1.0
  O  O104  1  0.06649000  0.08747000  0.47730000  1.0
  O  O105  1  0.01138000  0.90065000  0.42730000  1.0
  O  O106  1  0.06182000  0.66760000  0.06676000  1.0
  O  O107  1  0.92205000  0.91952000  0.32698000  1.0
  O  O108  1  0.97257000  0.90537000  0.56619000  1.0
  O  O109  1  0.86917000  0.91737000  0.47017000  1.0
  O  O110  1  0.02225000  0.08455000  0.61047000  1.0
  O  O111  1  0.93198000  0.10106000  0.50779000  1.0
  O  O112  1  0.02401000  0.43178000  0.08720000  1.0
  O  O113  1  0.12546000  0.53993000  0.08595000  1.0
  O  O114  1  0.57864000  0.66726000  0.58137000  1.0
  O  O115  1  0.98572000  0.39032000  0.91242000  1.0
  O  O116  1  0.07567000  0.49546000  0.89916000  1.0
  O  O117  1  0.83195000  0.41291000  0.90667000  1.0
  O  O118  1  0.92938000  0.51382000  0.89566000  1.0
  O  O119  1  0.58641000  0.56636000  0.48035000  1.0
  O  O120  1  0.98268000  0.76784000  0.67568000  1.0
  O  O121  1  0.01640000  0.74302000  0.56721000  1.0
  O  O122  1  0.40434000  0.42387000  0.33360000  1.0
  O  O123  1  0.39859000  0.52509000  0.43656000  1.0
  O  O124  1  0.40756000  0.38100000  0.47620000  1.0
  O  O125  1  0.40288000  0.48487000  0.57794000  1.0
  O  O126  1  0.58257000  0.42247000  0.50944000  1.0
  O  O127  1  0.57740000  0.52072000  0.61609000  1.0
  O  O128  1  0.16545000  0.07657000  0.57767000  1.0
