# generated using pymatgen
data_MnH16C20(NO)4
_symmetry_space_group_name_H-M   'P 1'
_cell_length_a   11.82460000
_cell_length_b   11.82460000
_cell_length_c   16.19400000
_cell_angle_alpha   72.09000000
_cell_angle_beta   72.09020000
_cell_angle_gamma   79.09980000
_symmetry_Int_Tables_number   1
_chemical_formula_structural   MnH16C20(NO)4
_chemical_formula_sum   'Mn4 H64 C80 N16 O16'
_cell_volume   2038.93051542
_cell_formula_units_Z   4
loop_
 _symmetry_equiv_pos_site_id
 _symmetry_equiv_pos_as_xyz
  1  'x, y, z'
loop_
 _atom_site_type_symbol
 _atom_site_label
 _atom_site_symmetry_multiplicity
 _atom_site_fract_x
 _atom_site_fract_y
 _atom_site_fract_z
 _atom_site_occupancy
  Mn  Mn0  1  0.66813000  0.88725000  0.45056000  1.0
  Mn  Mn1  1  0.11275000  0.33187000  0.04944000  1.0
  Mn  Mn2  1  0.33187000  0.11275000  0.54944000  1.0
  Mn  Mn3  1  0.88725000  0.66813000  0.95056000  1.0
  H  H4  1  0.07292000  0.33333333  0.46623000  1.0
  H  H5  1  0.66671000  0.92708000  0.03377000  1.0
  H  H6  1  0.92708000  0.66671000  0.53377000  1.0
  H  H7  1  0.33333333  0.07292000  0.96623000  1.0
  H  H8  1  0.84164000  0.69922000  0.21592000  1.0
  H  H9  1  0.30078000  0.15836000  0.28408000  1.0
  H  H10  1  0.15836000  0.30078000  0.78408000  1.0
  H  H11  1  0.69922000  0.84164000  0.71592000  1.0
  H  H12  1  0.93029000  0.51634000  0.46565000  1.0
  H  H13  1  0.48366000  0.06971000  0.03435000  1.0
  H  H14  1  0.06970000  0.48366000  0.53435000  1.0
  H  H15  1  0.51634000  0.93029000  0.96565000  1.0
  H  H16  1  0.02030000  0.34354000  0.25047000  1.0
  H  H17  1  0.65646000  0.97969000  0.24953000  1.0
  H  H18  1  0.97970000  0.65646000  0.74953000  1.0
  H  H19  1  0.34354000  0.02031000  0.75047000  1.0
  H  H20  1  0.15317000  0.16404000  0.42788000  1.0
  H  H21  1  0.83596000  0.84684000  0.07212000  1.0
  H  H22  1  0.84683000  0.83597000  0.57212000  1.0
  H  H23  1  0.16404000  0.15317000  0.92788000  1.0
  H  H24  1  0.14060000  0.23238000  0.31730000  1.0
  H  H25  1  0.76762000  0.85940000  0.18270000  1.0
  H  H26  1  0.85940000  0.76762000  0.68270000  1.0
  H  H27  1  0.23238000  0.14060000  0.81730000  1.0
  H  H28  1  0.85600000  0.22177000  0.49641000  1.0
  H  H29  1  0.77823000  0.14400000  0.00358000  1.0
  H  H30  1  0.14400000  0.77823000  0.50359000  1.0
  H  H31  1  0.22177000  0.85600000  0.99641000  1.0
  H  H32  1  0.10493000  0.02939000  0.31599000  1.0
  H  H33  1  0.97061000  0.89507000  0.18401000  1.0
  H  H34  1  0.89507000  0.97061000  0.68401000  1.0
  H  H35  1  0.02939000  0.10493000  0.81599000  1.0
  H  H36  1  0.94152000  0.90589000  0.34110000  1.0
  H  H37  1  0.09411000  0.05848000  0.15890000  1.0
  H  H38  1  0.05848000  0.09411000  0.65890000  1.0
  H  H39  1  0.90589000  0.94152000  0.84110000  1.0
  H  H40  1  0.70386000  0.09082000  0.51429000  1.0
  H  H41  1  0.90918000  0.29615000  0.98571000  1.0
  H  H42  1  0.29615000  0.90919000  0.48571000  1.0
  H  H43  1  0.09082000  0.70386000  0.01429000  1.0
  H  H44  1  0.35448000  0.56881000  0.51227000  1.0
  H  H45  1  0.43119000  0.64549000  0.98775000  1.0
  H  H46  1  0.64552000  0.43119000  0.48774000  1.0
  H  H47  1  0.56881000  0.35450000  0.01226000  1.0
  H  H48  1  0.37273000  0.61596000  0.68550000  1.0
  H  H49  1  0.38404000  0.62727000  0.81451000  1.0
  H  H50  1  0.62727000  0.38404000  0.31450000  1.0
  H  H51  1  0.61597000  0.37274000  0.18550000  1.0
  H  H52  1  0.28044000  0.50853000  0.67903000  1.0
  H  H53  1  0.49147000  0.71954000  0.82099000  1.0
  H  H54  1  0.71955000  0.49147000  0.32097000  1.0
  H  H55  1  0.50854000  0.28046000  0.17902000  1.0
  H  H56  1  0.49460000  0.31685000  0.84743000  1.0
  H  H57  1  0.68316000  0.50540000  0.65257000  1.0
  H  H58  1  0.50540000  0.68315000  0.15257000  1.0
  H  H59  1  0.31684000  0.49459000  0.34743000  1.0
  H  H60  1  0.33430000  0.31923000  0.85201000  1.0
  H  H61  1  0.68077000  0.66570000  0.64799000  1.0
  H  H62  1  0.66570000  0.68077000  0.14799000  1.0
  H  H63  1  0.31923000  0.33429000  0.35201000  1.0
  H  H64  1  0.39661000  0.26575000  0.70654000  1.0
  H  H65  1  0.73425000  0.60339000  0.79345000  1.0
  H  H66  1  0.60340000  0.73425000  0.29345000  1.0
  H  H67  1  0.26575000  0.39660000  0.20655000  1.0
  C  C68  1  0.93191000  0.52166000  0.22460000  1.0
  C  C69  1  0.47834000  0.06809000  0.27540000  1.0
  C  C70  1  0.06809000  0.47834000  0.77540000  1.0
  C  C71  1  0.52165000  0.93191000  0.72460000  1.0
  C  C72  1  0.99051000  0.41920000  0.36344000  1.0
  C  C73  1  0.58080000  0.00949000  0.13656000  1.0
  C  C74  1  0.00949000  0.58080000  0.63656000  1.0
  C  C75  1  0.41920000  0.99051000  0.86344000  1.0
  C  C76  1  0.88253000  0.62171000  0.25713000  1.0
  C  C77  1  0.37829000  0.11747000  0.24287000  1.0
  C  C78  1  0.11747000  0.37829000  0.74287000  1.0
  C  C79  1  0.62171000  0.88253000  0.75713000  1.0
  C  C80  1  0.88181000  0.61864000  0.34449000  1.0
  C  C81  1  0.38136000  0.11819000  0.15551000  1.0
  C  C82  1  0.11819000  0.38137000  0.65551000  1.0
  C  C83  1  0.61864000  0.88181000  0.84449000  1.0
  C  C84  1  0.93532000  0.51889000  0.39680000  1.0
  C  C85  1  0.48112000  0.06468000  0.10320000  1.0
  C  C86  1  0.06468000  0.48112000  0.60320000  1.0
  C  C87  1  0.51888000  0.93532000  0.89680000  1.0
  C  C88  1  0.98417000  0.42052000  0.27736000  1.0
  C  C89  1  0.57948000  0.01583000  0.22264000  1.0
  C  C90  1  0.01582000  0.57948000  0.72264000  1.0
  C  C91  1  0.42052000  0.98417000  0.77736000  1.0
  C  C92  1  0.81523000  0.71862000  0.38394000  1.0
  C  C93  1  0.28138000  0.18476000  0.11606000  1.0
  C  C94  1  0.18477000  0.28138000  0.61606000  1.0
  C  C95  1  0.71862000  0.81523000  0.88394000  1.0
  C  C96  1  0.08992000  0.21447000  0.38881000  1.0
  C  C97  1  0.78554000  0.91008000  0.11119000  1.0
  C  C98  1  0.91008000  0.78554000  0.61119000  1.0
  C  C99  1  0.21446000  0.08992000  0.88881000  1.0
  C  C100  1  0.99333000  0.13742000  0.40332000  1.0
  C  C101  1  0.86258000  0.00667000  0.09668000  1.0
  C  C102  1  0.00667000  0.86259000  0.59668000  1.0
  C  C103  1  0.13741000  0.99333000  0.90332000  1.0
  C  C104  1  0.92372000  0.52163000  0.13398000  1.0
  C  C105  1  0.47837000  0.07628000  0.36602000  1.0
  C  C106  1  0.07629000  0.47837000  0.86602000  1.0
  C  C107  1  0.52163000  0.92372000  0.63398000  1.0
  C  C108  1  0.87893000  0.15360000  0.45989000  1.0
  C  C109  1  0.84639000  0.12108000  0.04011000  1.0
  C  C110  1  0.12107000  0.84640000  0.54011000  1.0
  C  C111  1  0.15360000  0.87893000  0.95989000  1.0
  C  C112  1  0.01678000  0.04614000  0.36027000  1.0
  C  C113  1  0.95385000  0.98322000  0.13973000  1.0
  C  C114  1  0.98321000  0.95386000  0.63973000  1.0
  C  C115  1  0.04614000  0.01678000  0.86027000  1.0
  C  C116  1  0.92642000  0.97710000  0.37408000  1.0
  C  C117  1  0.02290000  0.07359000  0.12591000  1.0
  C  C118  1  0.07359000  0.02290000  0.62591000  1.0
  C  C119  1  0.97710000  0.92642000  0.87408000  1.0
  C  C120  1  0.79358000  0.08064000  0.47018000  1.0
  C  C121  1  0.91935000  0.20643000  0.02982000  1.0
  C  C122  1  0.20642000  0.91936000  0.52982000  1.0
  C  C123  1  0.08065000  0.79358000  0.97018000  1.0
  C  C124  1  0.46415000  0.69527000  0.50955000  1.0
  C  C125  1  0.30472000  0.53584000  0.99046000  1.0
  C  C126  1  0.53584000  0.30472000  0.49046000  1.0
  C  C127  1  0.69528000  0.46416000  0.00954000  1.0
  C  C128  1  0.38401000  0.60678000  0.55464000  1.0
  C  C129  1  0.39321000  0.61596000  0.94538000  1.0
  C  C130  1  0.61598000  0.39321000  0.44537000  1.0
  C  C131  1  0.60679000  0.38403000  0.05463000  1.0
  C  C132  1  0.34378000  0.57493000  0.64478000  1.0
  C  C133  1  0.42506000  0.65620000  0.85523000  1.0
  C  C134  1  0.65621000  0.42506000  0.35522000  1.0
  C  C135  1  0.57494000  0.34380000  0.14478000  1.0
  C  C136  1  0.42846000  0.30703000  0.81639000  1.0
  C  C137  1  0.69297000  0.57154000  0.68361000  1.0
  C  C138  1  0.57154000  0.69297000  0.18361000  1.0
  C  C139  1  0.30703000  0.42846000  0.31639000  1.0
  C  C140  1  0.46190000  0.27895000  0.73731000  1.0
  C  C141  1  0.72105000  0.53810000  0.76269000  1.0
  C  C142  1  0.53810000  0.72105000  0.26268000  1.0
  C  C143  1  0.27895000  0.46190000  0.23732000  1.0
  C  C144  1  0.58361000  0.26398000  0.68803000  1.0
  C  C145  1  0.73602000  0.41639000  0.81197000  1.0
  C  C146  1  0.41640000  0.73603000  0.31197000  1.0
  C  C147  1  0.26397000  0.58360000  0.18803000  1.0
  N  N148  1  0.04521000  0.32355000  0.41518000  1.0
  N  N149  1  0.67645000  0.95479000  0.08482000  1.0
  N  N150  1  0.95479000  0.67645000  0.58482000  1.0
  N  N151  1  0.32355000  0.04521000  0.91518000  1.0
  N  N152  1  0.81580000  0.99388000  0.42773000  1.0
  N  N153  1  0.00612000  0.18421000  0.07227000  1.0
  N  N154  1  0.18421000  0.00612000  0.57227000  1.0
  N  N155  1  0.99388000  0.81579000  0.92773000  1.0
  N  N156  1  0.52886000  0.76946000  0.47270000  1.0
  N  N157  1  0.23052000  0.47113000  0.02731000  1.0
  N  N158  1  0.47114000  0.23053000  0.52730000  1.0
  N  N159  1  0.76948000  0.52886000  0.97269000  1.0
  N  N160  1  0.68235000  0.25493000  0.64408000  1.0
  N  N161  1  0.74507000  0.31765000  0.85593000  1.0
  N  N162  1  0.31766000  0.74508000  0.35592000  1.0
  N  N163  1  0.25491000  0.68234000  0.14408000  1.0
  O  O164  1  0.80702000  0.71302000  0.46560000  1.0
  O  O165  1  0.28698000  0.19298000  0.03440000  1.0
  O  O166  1  0.19298000  0.28698000  0.53440000  1.0
  O  O167  1  0.71302000  0.80702000  0.96560000  1.0
  O  O168  1  0.76314000  0.80773000  0.33556000  1.0
  O  O169  1  0.19227000  0.23685000  0.16444000  1.0
  O  O170  1  0.23685000  0.19227000  0.66444000  1.0
  O  O171  1  0.80774000  0.76315000  0.83556000  1.0
  O  O172  1  0.96012000  0.42698000  0.10765000  1.0
  O  O173  1  0.57302000  0.03988000  0.39235000  1.0
  O  O174  1  0.03989000  0.57302000  0.89235000  1.0
  O  O175  1  0.42698000  0.96011000  0.60765000  1.0
  O  O176  1  0.87711000  0.61785000  0.08829000  1.0
  O  O177  1  0.38216000  0.12290000  0.41171000  1.0
  O  O178  1  0.12290000  0.38215000  0.91171000  1.0
  O  O179  1  0.61785000  0.87710000  0.58829000  1.0
