# generated using pymatgen
data_ZnH15C22(NO)4
_symmetry_space_group_name_H-M   'P 1'
_cell_length_a   11.01800000
_cell_length_b   15.89980000
_cell_length_c   17.23390000
_cell_angle_alpha   87.38930000
_cell_angle_beta   89.90630000
_cell_angle_gamma   87.69450000
_symmetry_Int_Tables_number   1
_chemical_formula_structural   ZnH15C22(NO)4
_chemical_formula_sum   'Zn2 H30 C44 N8 O8'
_cell_volume   3013.52851887
_cell_formula_units_Z   2
loop_
 _symmetry_equiv_pos_site_id
 _symmetry_equiv_pos_as_xyz
  1  'x, y, z'
loop_
 _atom_site_type_symbol
 _atom_site_label
 _atom_site_symmetry_multiplicity
 _atom_site_fract_x
 _atom_site_fract_y
 _atom_site_fract_z
 _atom_site_occupancy
  Zn  Zn0  1  0.49566000  0.58818000  0.50254000  1.0
  Zn  Zn1  1  0.50433000  0.41183000  0.49745000  1.0
  H  H2  1  0.76807000  0.12596000  0.62410000  1.0
  H  H3  1  0.23195000  0.87404000  0.37592000  1.0
  H  H4  1  0.40344000  0.63571000  0.25470000  1.0
  H  H5  1  0.59657000  0.36427000  0.74530000  1.0
  H  H6  1  0.60028000  0.72916000  0.41392000  1.0
  H  H7  1  0.39968000  0.27085000  0.58607000  1.0
  H  H8  1  0.59847000  0.88819000  0.41540000  1.0
  H  H9  1  0.40150000  0.11182000  0.58460000  1.0
  H  H10  1  0.64603000  0.12807000  0.38930000  1.0
  H  H11  1  0.35395000  0.87193000  0.61071000  1.0
  H  H12  1  0.63145000  0.28662000  0.39754000  1.0
  H  H13  1  0.36854000  0.71338000  0.60247000  1.0
  H  H14  1  0.72674000  0.25407000  0.69939000  1.0
  H  H15  1  0.27327000  0.74594000  0.30062000  1.0
  H  H16  1  0.80533000  0.39140000  0.65335000  1.0
  H  H17  1  0.19467000  0.60860000  0.34665000  1.0
  H  H18  1  0.97297000  0.27389000  0.45804000  1.0
  H  H19  1  0.02702000  0.72611000  0.54197000  1.0
  H  H20  1  0.89245000  0.13617000  0.50316000  1.0
  H  H21  1  0.10757000  0.86383000  0.49685000  1.0
  H  H22  1  0.12814000  0.37212000  0.53124000  1.0
  H  H23  1  0.87186000  0.62788000  0.46875000  1.0
  H  H24  1  0.37725000  0.58057000  0.89732000  1.0
  H  H25  1  0.62278000  0.41943000  0.10267000  1.0
  H  H26  1  0.38669000  0.64064000  0.10809000  1.0
  H  H27  1  0.61331000  0.35935000  0.89191000  1.0
  H  H28  1  0.33050000  0.59609000  0.68748000  1.0
  H  H29  1  0.27019000  0.62242000  0.77605000  1.0
  H  H30  1  0.66951000  0.40390000  0.31252000  1.0
  H  H31  1  0.72984000  0.37758000  0.22395000  1.0
  C  C32  1  0.51406000  0.51946000  0.34712000  1.0
  C  C33  1  0.48595000  0.48055000  0.65288000  1.0
  C  C34  1  0.12698000  0.50199000  0.49326000  1.0
  C  C35  1  0.87302000  0.49801000  0.50674000  1.0
  C  C36  1  0.05573000  0.57633000  0.47546000  1.0
  C  C37  1  0.94427000  0.42367000  0.52455000  1.0
  C  C38  1  0.51819000  0.52409000  0.26058000  1.0
  C  C39  1  0.48183000  0.47591000  0.73942000  1.0
  C  C40  1  0.58546000  0.46289000  0.21808000  1.0
  C  C41  1  0.41456000  0.53711000  0.78192000  1.0
  C  C42  1  0.57551000  0.46656000  0.13689000  1.0
  C  C43  1  0.42452000  0.53344000  0.86311000  1.0
  C  C44  1  0.50166000  0.52856000  0.09831000  1.0
  C  C45  1  0.49837000  0.47144000  0.90169000  1.0
  C  C46  1  0.44115000  0.59183000  0.13988000  1.0
  C  C47  1  0.55886000  0.40816000  0.86012000  1.0
  C  C48  1  0.45032000  0.58857000  0.22029000  1.0
  C  C49  1  0.54970000  0.41142000  0.77971000  1.0
  C  C50  1  0.45153000  0.23598000  0.54327000  1.0
  C  C51  1  0.54843000  0.76403000  0.45673000  1.0
  C  C52  1  0.45320000  0.14887000  0.54258000  1.0
  C  C53  1  0.54675000  0.85114000  0.45741000  1.0
  C  C54  1  0.73663000  0.49975000  0.50605000  1.0
  C  C55  1  0.26337000  0.50027000  0.49394000  1.0
  C  C56  1  0.52373000  0.10911000  0.48590000  1.0
  C  C57  1  0.47625000  0.89090000  0.51410000  1.0
  C  C58  1  0.59021000  0.15820000  0.43309000  1.0
  C  C59  1  0.40977000  0.84180000  0.56692000  1.0
  C  C60  1  0.58257000  0.24535000  0.43765000  1.0
  C  C61  1  0.41741000  0.75466000  0.56235000  1.0
  C  C62  1  0.78039000  0.25819000  0.64621000  1.0
  C  C63  1  0.21962000  0.74181000  0.35380000  1.0
  C  C64  1  0.82503000  0.33538000  0.62059000  1.0
  C  C65  1  0.17497000  0.66462000  0.37942000  1.0
  C  C66  1  0.89419000  0.34216000  0.55225000  1.0
  C  C67  1  0.10581000  0.65784000  0.44775000  1.0
  C  C68  1  0.91910000  0.26927000  0.51113000  1.0
  C  C69  1  0.08091000  0.73073000  0.48888000  1.0
  C  C70  1  0.87342000  0.19200000  0.53641000  1.0
  C  C71  1  0.12660000  0.80800000  0.46360000  1.0
  C  C72  1  0.80363000  0.18622000  0.60403000  1.0
  C  C73  1  0.19639000  0.81378000  0.39598000  1.0
  C  C74  1  0.07031000  0.42784000  0.51675000  1.0
  C  C75  1  0.92970000  0.57215000  0.48325000  1.0
  N  N76  1  0.48103000  0.53237000  0.01724000  1.0
  N  N77  1  0.51899000  0.46762000  0.98275000  1.0
  N  N78  1  0.51434000  0.28325000  0.49140000  1.0
  N  N79  1  0.48563000  0.71675000  0.50860000  1.0
  N  N80  1  0.53463000  0.02082000  0.47782000  1.0
  N  N81  1  0.46534000  0.97919000  0.52218000  1.0
  N  N82  1  0.34206000  0.59985000  0.74557000  1.0
  N  N83  1  0.65797000  0.40014000  0.25442000  1.0
  O  O84  1  0.49997000  0.58792000  0.38243000  1.0
  O  O85  1  0.49996000  0.41208000  0.61756000  1.0
  O  O86  1  0.52245000  0.44570000  0.38002000  1.0
  O  O87  1  0.47766000  0.55430000  0.61999000  1.0
  O  O88  1  0.68099000  0.57135000  0.51027000  1.0
  O  O89  1  0.31902000  0.42868000  0.48965000  1.0
  O  O90  1  0.68718000  0.42973000  0.49914000  1.0
  O  O91  1  0.31281000  0.57027000  0.50092000  1.0
