# generated using pymatgen
data_Ag5PH6(C8O5)2
_symmetry_space_group_name_H-M   'P 1'
_cell_length_a   12.02220000
_cell_length_b   12.02370000
_cell_length_c   15.62390000
_cell_angle_alpha   112.56900000
_cell_angle_beta   104.33100000
_cell_angle_gamma   100.34200000
_symmetry_Int_Tables_number   1
_chemical_formula_structural   Ag5PH6(C8O5)2
_chemical_formula_sum   'Ag20 P4 H24 C64 O40'
_cell_volume   1923.13223092
_cell_formula_units_Z   4
loop_
 _symmetry_equiv_pos_site_id
 _symmetry_equiv_pos_as_xyz
  1  'x, y, z'
loop_
 _atom_site_type_symbol
 _atom_site_label
 _atom_site_symmetry_multiplicity
 _atom_site_fract_x
 _atom_site_fract_y
 _atom_site_fract_z
 _atom_site_occupancy
  Ag  Ag0  1  0.39155000  0.53342000  0.48623000  1.0
  Ag  Ag1  1  0.04738000  0.40535000  0.01374000  1.0
  Ag  Ag2  1  0.60845000  0.46657000  0.51377000  1.0
  Ag  Ag3  1  0.95262000  0.59465000  0.98626000  1.0
  Ag  Ag4  1  0.93608000  0.18615000  0.25003000  1.0
  Ag  Ag5  1  0.06393000  0.81386000  0.74997000  1.0
  Ag  Ag6  1  0.04854000  0.95072000  0.19720000  1.0
  Ag  Ag7  1  0.75340000  0.35103000  0.30268000  1.0
  Ag  Ag8  1  0.95147000  0.04928000  0.80280000  1.0
  Ag  Ag9  1  0.24660000  0.64897000  0.69732000  1.0
  Ag  Ag10  1  0.61944000  0.08084000  0.04316000  1.0
  Ag  Ag11  1  0.03774000  0.07625000  0.45683000  1.0
  Ag  Ag12  1  0.38056000  0.91916000  0.95684000  1.0
  Ag  Ag13  1  0.96225000  0.92375000  0.54317000  1.0
  Ag  Ag14  1  0.02382000  0.88846000  0.94075000  1.0
  Ag  Ag15  1  0.94778000  0.58308000  0.55921000  1.0
  Ag  Ag16  1  0.97618000  0.11154000  0.05925000  1.0
  Ag  Ag17  1  0.05221000  0.41692000  0.44079000  1.0
  Ag  Ag18  1  0.21189000  0.46185000  0.24996000  1.0
  Ag  Ag19  1  0.78811000  0.53815000  0.75004000  1.0
  P  P20  1  0.24368000  0.16432000  0.17067000  1.0
  P  P21  1  0.99380000  0.57302000  0.32940000  1.0
  P  P22  1  0.75632000  0.83568000  0.82933000  1.0
  P  P23  1  0.00620000  0.42698000  0.67060000  1.0
  H  H24  1  0.40415000  0.28156000  0.52839000  1.0
  H  H25  1  0.75323000  0.37589000  0.97169000  1.0
  H  H26  1  0.59585000  0.71844000  0.47161000  1.0
  H  H27  1  0.24677000  0.62411000  0.02831000  1.0
  H  H28  1  0.59311000  0.22174000  0.52276000  1.0
  H  H29  1  0.69930000  0.57062000  0.97736000  1.0
  H  H30  1  0.40689000  0.77826000  0.47724000  1.0
  H  H31  1  0.30070000  0.42938000  0.02264000  1.0
  H  H32  1  0.62223000  0.12704000  0.36014000  1.0
  H  H33  1  0.76720000  0.76227000  0.14002000  1.0
  H  H34  1  0.37777000  0.87296000  0.63986000  1.0
  H  H35  1  0.23280000  0.23773000  0.85998000  1.0
  H  H36  1  0.61333000  0.47208000  0.20258000  1.0
  H  H37  1  0.26917000  0.91078000  0.29729000  1.0
  H  H38  1  0.38667000  0.52792000  0.79742000  1.0
  H  H39  1  0.73083000  0.08922000  0.70271000  1.0
  H  H40  1  0.58352000  0.36183000  0.02381000  1.0
  H  H41  1  0.33796000  0.05972000  0.47606000  1.0
  H  H42  1  0.41648000  0.63817000  0.97619000  1.0
  H  H43  1  0.66204000  0.94027000  0.52394000  1.0
  H  H44  1  0.39842000  0.17995000  0.90914000  1.0
  H  H45  1  0.27085000  0.98942000  0.59085000  1.0
  H  H46  1  0.60158000  0.82005000  0.09087000  1.0
  H  H47  1  0.72915000  0.01058000  0.40915000  1.0
  C  C48  1  0.21453000  0.24219000  0.37857000  1.0
  C  C49  1  0.86376000  0.33606000  0.12139000  1.0
  C  C50  1  0.78547000  0.75781000  0.62142000  1.0
  C  C51  1  0.13624000  0.66394000  0.87861000  1.0
  C  C52  1  0.33024000  0.21644000  0.37079000  1.0
  C  C53  1  0.84578000  0.45956000  0.12927000  1.0
  C  C54  1  0.66976000  0.78356000  0.62921000  1.0
  C  C55  1  0.15422000  0.54044000  0.87074000  1.0
  C  C56  1  0.41963000  0.24051000  0.45847000  1.0
  C  C57  1  0.78214000  0.46128000  0.04160000  1.0
  C  C58  1  0.58037000  0.75949000  0.54153000  1.0
  C  C59  1  0.21786000  0.53872000  0.95840000  1.0
  C  C60  1  0.52539000  0.20798000  0.45535000  1.0
  C  C61  1  0.75291000  0.57026000  0.04475000  1.0
  C  C62  1  0.47461000  0.79202000  0.54465000  1.0
  C  C63  1  0.24709000  0.42974000  0.95525000  1.0
  C  C64  1  0.54107000  0.15287000  0.36448000  1.0
  C  C65  1  0.78863000  0.67674000  0.13565000  1.0
  C  C66  1  0.45893000  0.84713000  0.63552000  1.0
  C  C67  1  0.21137000  0.32326000  0.86435000  1.0
  C  C68  1  0.45534000  0.13411000  0.27737000  1.0
  C  C69  1  0.85688000  0.67804000  0.22274000  1.0
  C  C70  1  0.54467000  0.86589000  0.72263000  1.0
  C  C71  1  0.14312000  0.32196000  0.77725000  1.0
  C  C72  1  0.48288000  0.08070000  0.18346000  1.0
  C  C73  1  0.89732000  0.79941000  0.31666000  1.0
  C  C74  1  0.51712000  0.91930000  0.81654000  1.0
  C  C75  1  0.10267000  0.20059000  0.68333000  1.0
  C  C76  1  0.34882000  0.16757000  0.27965000  1.0
  C  C77  1  0.88811000  0.56927000  0.22043000  1.0
  C  C78  1  0.65118000  0.83243000  0.72035000  1.0
  C  C79  1  0.11189000  0.43073000  0.77957000  1.0
  C  C80  1  0.34490000  0.24354000  0.12554000  1.0
  C  C81  1  0.11816000  0.71938000  0.37453000  1.0
  C  C82  1  0.65510000  0.75646000  0.87447000  1.0
  C  C83  1  0.88184000  0.28062000  0.62547000  1.0
  C  C84  1  0.44980000  0.34755000  0.18952000  1.0
  C  C85  1  0.15795000  0.76031000  0.31046000  1.0
  C  C86  1  0.55020000  0.65245000  0.81049000  1.0
  C  C87  1  0.84205000  0.23969000  0.68954000  1.0
  C  C88  1  0.48069000  0.41668000  0.29952000  1.0
  C  C89  1  0.11722000  0.68121000  0.20048000  1.0
  C  C90  1  0.51931000  0.58331000  0.70048000  1.0
  C  C91  1  0.88278000  0.31879000  0.79952000  1.0
  C  C92  1  0.53340000  0.39123000  0.15198000  1.0
  C  C93  1  0.23899000  0.88151000  0.34793000  1.0
  C  C94  1  0.46660000  0.60877000  0.84803000  1.0
  C  C95  1  0.76101000  0.11849000  0.65207000  1.0
  C  C96  1  0.51648000  0.33004000  0.05186000  1.0
  C  C97  1  0.27813000  0.96469000  0.44807000  1.0
  C  C98  1  0.48352000  0.66996000  0.94815000  1.0
  C  C99  1  0.72187000  0.03531000  0.55193000  1.0
  C  C100  1  0.41301000  0.22890000  0.98776000  1.0
  C  C101  1  0.24121000  0.92537000  0.51223000  1.0
  C  C102  1  0.58699000  0.77110000  0.01224000  1.0
  C  C103  1  0.75879000  0.07463000  0.48777000  1.0
  C  C104  1  0.32518000  0.18994000  0.02337000  1.0
  C  C105  1  0.16669000  0.80195000  0.47667000  1.0
  C  C106  1  0.67482000  0.81006000  0.97663000  1.0
  C  C107  1  0.83332000  0.19805000  0.52333000  1.0
  C  C108  1  0.20723000  0.09733000  0.94672000  1.0
  C  C109  1  0.15072000  0.76066000  0.55333000  1.0
  C  C110  1  0.79277000  0.90267000  0.05328000  1.0
  C  C111  1  0.84927000  0.23934000  0.44666000  1.0
  O  O112  1  0.21960000  0.35569000  0.42875000  1.0
  O  O113  1  0.92719000  0.29101000  0.07128000  1.0
  O  O114  1  0.78039000  0.64431000  0.57125000  1.0
  O  O115  1  0.07281000  0.70899000  0.92872000  1.0
  O  O116  1  0.11941000  0.14743000  0.34023000  1.0
  O  O117  1  0.80719000  0.27916000  0.15958000  1.0
  O  O118  1  0.88059000  0.85257000  0.65977000  1.0
  O  O119  1  0.19281000  0.72084000  0.84042000  1.0
  O  O120  1  0.58259000  0.14007000  0.18405000  1.0
  O  O121  1  0.95600000  0.89858000  0.31608000  1.0
  O  O122  1  0.41741000  0.85993000  0.81595000  1.0
  O  O123  1  0.04400000  0.10142000  0.68392000  1.0
  O  O124  1  0.40497000  0.98069000  0.11296000  1.0
  O  O125  1  0.86796000  0.79186000  0.38719000  1.0
  O  O126  1  0.59503000  0.01931000  0.88704000  1.0
  O  O127  1  0.13204000  0.20814000  0.61281000  1.0
  O  O128  1  0.17506000  0.02695000  0.09679000  1.0
  O  O129  1  0.93023000  0.57817000  0.40322000  1.0
  O  O130  1  0.82494000  0.97305000  0.90321000  1.0
  O  O131  1  0.06977000  0.42183000  0.59678000  1.0
  O  O132  1  0.16218000  0.24460000  0.20185000  1.0
  O  O133  1  0.04282000  0.46028000  0.29817000  1.0
  O  O134  1  0.83782000  0.75540000  0.79814000  1.0
  O  O135  1  0.95718000  0.53971000  0.70183000  1.0
  O  O136  1  0.40536000  0.46817000  0.33156000  1.0
  O  O137  1  0.13656000  0.57379000  0.16847000  1.0
  O  O138  1  0.59464000  0.53182000  0.66844000  1.0
  O  O139  1  0.86344000  0.42621000  0.83153000  1.0
  O  O140  1  0.58208000  0.42395000  0.35411000  1.0
  O  O141  1  0.07013000  0.72807000  0.14585000  1.0
  O  O142  1  0.41792000  0.57605000  0.64589000  1.0
  O  O143  1  0.92988000  0.27193000  0.85415000  1.0
  O  O144  1  0.21098000  0.99527000  0.88250000  1.0
  O  O145  1  0.11292000  0.82865000  0.61758000  1.0
  O  O146  1  0.78902000  0.00473000  0.11750000  1.0
  O  O147  1  0.88708000  0.17135000  0.38242000  1.0
  O  O148  1  0.11455000  0.13469000  0.94907000  1.0
  O  O149  1  0.18565000  0.66557000  0.55095000  1.0
  O  O150  1  0.88545000  0.86531000  0.05093000  1.0
  O  O151  1  0.81435000  0.33442000  0.44905000  1.0
