# generated using pymatgen
data_Dy2Co3H30C42(NO5)6
_symmetry_space_group_name_H-M   'P 1'
_cell_length_a   15.26070000
_cell_length_b   15.26070000
_cell_length_c   15.44420000
_cell_angle_alpha   90.00000000
_cell_angle_beta   90.00000000
_cell_angle_gamma   120.00000000
_symmetry_Int_Tables_number   1
_chemical_formula_structural   Dy2Co3H30C42(NO5)6
_chemical_formula_sum   'Dy4 Co6 H60 C84 N12 O60'
_cell_volume   3114.90609541
_cell_formula_units_Z   2
loop_
 _symmetry_equiv_pos_site_id
 _symmetry_equiv_pos_as_xyz
  1  'x, y, z'
loop_
 _atom_site_type_symbol
 _atom_site_label
 _atom_site_symmetry_multiplicity
 _atom_site_fract_x
 _atom_site_fract_y
 _atom_site_fract_z
 _atom_site_occupancy
  Dy  Dy0  1  0.66666667  0.33333333  0.75000000  1.0
  Dy  Dy1  1  0.33333333  0.66666667  0.75000000  1.0
  Dy  Dy2  1  0.33333333  0.66666667  0.25000000  1.0
  Dy  Dy3  1  0.66666667  0.33333333  0.25000000  1.0
  Co  Co4  1  0.50000000  0.00000000  0.50000000  1.0
  Co  Co5  1  0.50000000  0.50000000  0.50000000  1.0
  Co  Co6  1  0.00000000  0.50000000  0.50000000  1.0
  Co  Co7  1  0.50000000  0.00000000  0.00000000  1.0
  Co  Co8  1  0.00000000  0.50000000  0.00000000  1.0
  Co  Co9  1  0.50000000  0.50000000  0.00000000  1.0
  H  H10  1  0.46963000  0.82994000  0.44813000  1.0
  H  H11  1  0.75931000  0.04454000  0.64770000  1.0
  H  H12  1  0.36031000  0.53037000  0.44813000  1.0
  H  H13  1  0.28523000  0.24070000  0.64771000  1.0
  H  H14  1  0.17006000  0.63969000  0.44813000  1.0
  H  H15  1  0.95547000  0.71478000  0.64770000  1.0
  H  H16  1  0.53037000  0.17006000  0.44813000  1.0
  H  H17  1  0.24069000  0.95546000  0.64770000  1.0
  H  H18  1  0.63969000  0.46963000  0.44813000  1.0
  H  H19  1  0.71477000  0.75930000  0.64770000  1.0
  H  H20  1  0.82994000  0.36031000  0.44813000  1.0
  H  H21  1  0.04453000  0.28522000  0.64770000  1.0
  H  H22  1  0.63969000  0.17006000  0.05187000  1.0
  H  H23  1  0.71477000  0.95546000  0.85230000  1.0
  H  H24  1  0.82994000  0.46963000  0.05187000  1.0
  H  H25  1  0.04453000  0.75930000  0.85230000  1.0
  H  H26  1  0.53037000  0.36031000  0.05187000  1.0
  H  H27  1  0.24070000  0.28523000  0.85230000  1.0
  H  H28  1  0.36031000  0.82994000  0.05187000  1.0
  H  H29  1  0.28523000  0.04454000  0.85230000  1.0
  H  H30  1  0.17006000  0.53037000  0.05187000  1.0
  H  H31  1  0.95547000  0.24070000  0.85230000  1.0
  H  H32  1  0.46963000  0.63969000  0.05187000  1.0
  H  H33  1  0.75930000  0.71477000  0.85229000  1.0
  H  H34  1  0.53037000  0.17006000  0.55187000  1.0
  H  H35  1  0.24069000  0.95546000  0.35230000  1.0
  H  H36  1  0.63969000  0.46963000  0.55187000  1.0
  H  H37  1  0.71477000  0.75930000  0.35230000  1.0
  H  H38  1  0.82994000  0.36031000  0.55187000  1.0
  H  H39  1  0.04453000  0.28522000  0.35230000  1.0
  H  H40  1  0.46963000  0.82994000  0.55187000  1.0
  H  H41  1  0.75931000  0.04454000  0.35230000  1.0
  H  H42  1  0.36031000  0.53037000  0.55187000  1.0
  H  H43  1  0.28523000  0.24070000  0.35230000  1.0
  H  H44  1  0.17006000  0.63969000  0.55187000  1.0
  H  H45  1  0.95547000  0.71478000  0.35230000  1.0
  H  H46  1  0.36031000  0.82994000  0.94813000  1.0
  H  H47  1  0.28523000  0.04454000  0.14770000  1.0
  H  H48  1  0.17006000  0.53037000  0.94813000  1.0
  H  H49  1  0.95547000  0.24070000  0.14770000  1.0
  H  H50  1  0.46963000  0.63969000  0.94813000  1.0
  H  H51  1  0.75930000  0.71477000  0.14770000  1.0
  H  H52  1  0.63969000  0.17006000  0.94813000  1.0
  H  H53  1  0.71477000  0.95546000  0.14770000  1.0
  H  H54  1  0.82994000  0.46963000  0.94813000  1.0
  H  H55  1  0.04453000  0.75930000  0.14771000  1.0
  H  H56  1  0.53037000  0.36031000  0.94813000  1.0
  H  H57  1  0.24069000  0.28522000  0.14770000  1.0
  H  H58  1  0.90662000  0.09338000  0.75000000  1.0
  H  H59  1  0.18676000  0.09338000  0.75000000  1.0
  H  H60  1  0.90662000  0.81324000  0.75000000  1.0
  H  H61  1  0.09338000  0.90662000  0.75000000  1.0
  H  H62  1  0.81324000  0.90662000  0.75000000  1.0
  H  H63  1  0.09338000  0.18676000  0.75000000  1.0
  H  H64  1  0.09338000  0.90662000  0.25000000  1.0
  H  H65  1  0.81324000  0.90662000  0.25000000  1.0
  H  H66  1  0.09338000  0.18676000  0.25000000  1.0
  H  H67  1  0.90662000  0.09338000  0.25000000  1.0
  H  H68  1  0.18676000  0.09338000  0.25000000  1.0
  H  H69  1  0.90662000  0.81324000  0.25000000  1.0
  C  C70  1  0.64463000  0.13767000  0.63912000  1.0
  C  C71  1  0.73367000  0.16152000  0.69588000  1.0
  C  C72  1  0.78471000  0.10702000  0.69320000  1.0
  C  C73  1  0.49304000  0.35538000  0.63912000  1.0
  C  C74  1  0.42785000  0.26633000  0.69588000  1.0
  C  C75  1  0.32231000  0.21529000  0.69320000  1.0
  C  C76  1  0.86234000  0.50697000  0.63912000  1.0
  C  C77  1  0.83848000  0.57215000  0.69588000  1.0
  C  C78  1  0.89298000  0.67769000  0.69320000  1.0
  C  C79  1  0.35537000  0.86233000  0.63912000  1.0
  C  C80  1  0.26633000  0.83848000  0.69588000  1.0
  C  C81  1  0.21529000  0.89298000  0.69320000  1.0
  C  C82  1  0.50696000  0.64462000  0.63912000  1.0
  C  C83  1  0.57215000  0.73367000  0.69588000  1.0
  C  C84  1  0.67769000  0.78471000  0.69320000  1.0
  C  C85  1  0.13766000  0.49303000  0.63912000  1.0
  C  C86  1  0.16152000  0.42785000  0.69588000  1.0
  C  C87  1  0.10702000  0.32231000  0.69320000  1.0
  C  C88  1  0.50696000  0.86233000  0.86088000  1.0
  C  C89  1  0.57215000  0.83848000  0.80412000  1.0
  C  C90  1  0.67769000  0.89298000  0.80680000  1.0
  C  C91  1  0.13766000  0.64462000  0.86088000  1.0
  C  C92  1  0.16152000  0.73367000  0.80412000  1.0
  C  C93  1  0.10702000  0.78471000  0.80680000  1.0
  C  C94  1  0.35537000  0.49303000  0.86088000  1.0
  C  C95  1  0.26633000  0.42785000  0.80412000  1.0
  C  C96  1  0.21529000  0.32231000  0.80680000  1.0
  C  C97  1  0.49304000  0.13767000  0.86088000  1.0
  C  C98  1  0.42785000  0.16152000  0.80412000  1.0
  C  C99  1  0.32231000  0.10702000  0.80680000  1.0
  C  C100  1  0.86234000  0.35538000  0.86088000  1.0
  C  C101  1  0.83848000  0.26633000  0.80412000  1.0
  C  C102  1  0.89298000  0.21529000  0.80680000  1.0
  C  C103  1  0.64463000  0.50697000  0.86088000  1.0
  C  C104  1  0.73367000  0.57215000  0.80412000  1.0
  C  C105  1  0.78471000  0.67769000  0.80680000  1.0
  C  C106  1  0.35537000  0.86233000  0.36088000  1.0
  C  C107  1  0.26633000  0.83848000  0.30412000  1.0
  C  C108  1  0.21529000  0.89298000  0.30680000  1.0
  C  C109  1  0.50696000  0.64462000  0.36088000  1.0
  C  C110  1  0.57215000  0.73367000  0.30412000  1.0
  C  C111  1  0.67769000  0.78471000  0.30680000  1.0
  C  C112  1  0.13766000  0.49303000  0.36088000  1.0
  C  C113  1  0.16152000  0.42785000  0.30412000  1.0
  C  C114  1  0.10702000  0.32231000  0.30680000  1.0
  C  C115  1  0.64463000  0.13767000  0.36088000  1.0
  C  C116  1  0.73367000  0.16152000  0.30412000  1.0
  C  C117  1  0.78471000  0.10702000  0.30680000  1.0
  C  C118  1  0.49304000  0.35538000  0.36088000  1.0
  C  C119  1  0.42785000  0.26633000  0.30412000  1.0
  C  C120  1  0.32231000  0.21529000  0.30680000  1.0
  C  C121  1  0.86234000  0.50697000  0.36088000  1.0
  C  C122  1  0.83848000  0.57215000  0.30412000  1.0
  C  C123  1  0.89298000  0.67769000  0.30680000  1.0
  C  C124  1  0.49304000  0.13767000  0.13912000  1.0
  C  C125  1  0.42785000  0.16152000  0.19588000  1.0
  C  C126  1  0.32231000  0.10702000  0.19320000  1.0
  C  C127  1  0.86234000  0.35538000  0.13912000  1.0
  C  C128  1  0.83848000  0.26633000  0.19588000  1.0
  C  C129  1  0.89298000  0.21529000  0.19320000  1.0
  C  C130  1  0.64463000  0.50697000  0.13912000  1.0
  C  C131  1  0.73367000  0.57215000  0.19588000  1.0
  C  C132  1  0.78471000  0.67769000  0.19320000  1.0
  C  C133  1  0.50696000  0.86233000  0.13912000  1.0
  C  C134  1  0.57215000  0.83848000  0.19588000  1.0
  C  C135  1  0.67769000  0.89298000  0.19320000  1.0
  C  C136  1  0.13766000  0.64462000  0.13912000  1.0
  C  C137  1  0.16152000  0.73367000  0.19588000  1.0
  C  C138  1  0.10702000  0.78471000  0.19320000  1.0
  C  C139  1  0.35537000  0.49303000  0.13912000  1.0
  C  C140  1  0.26633000  0.42785000  0.19588000  1.0
  C  C141  1  0.21529000  0.32231000  0.19320000  1.0
  C  C142  1  0.86534000  0.13466000  0.75000000  1.0
  C  C143  1  0.26931000  0.13465000  0.75000000  1.0
  C  C144  1  0.86534000  0.73068000  0.75000000  1.0
  C  C145  1  0.13466000  0.86535000  0.75000000  1.0
  C  C146  1  0.73069000  0.86535000  0.75000000  1.0
  C  C147  1  0.13466000  0.26932000  0.75000000  1.0
  C  C148  1  0.13466000  0.86534000  0.25000000  1.0
  C  C149  1  0.73068000  0.86534000  0.25000000  1.0
  C  C150  1  0.13466000  0.26932000  0.25000000  1.0
  C  C151  1  0.86534000  0.13466000  0.25000000  1.0
  C  C152  1  0.26931000  0.13465000  0.25000000  1.0
  C  C153  1  0.86534000  0.73068000  0.25000000  1.0
  N  N154  1  0.76067000  0.23934000  0.75000000  1.0
  N  N155  1  0.47867000  0.23934000  0.75000000  1.0
  N  N156  1  0.76067000  0.52133000  0.75000000  1.0
  N  N157  1  0.23933000  0.76066000  0.75000000  1.0
  N  N158  1  0.52133000  0.76066000  0.75000000  1.0
  N  N159  1  0.23933000  0.47867000  0.75000000  1.0
  N  N160  1  0.23934000  0.76067000  0.25000000  1.0
  N  N161  1  0.52133000  0.76067000  0.25000000  1.0
  N  N162  1  0.23934000  0.47868000  0.25000000  1.0
  N  N163  1  0.76067000  0.23934000  0.25000000  1.0
  N  N164  1  0.47867000  0.23934000  0.25000000  1.0
  N  N165  1  0.76067000  0.52133000  0.25000000  1.0
  O  O166  1  0.61130000  0.05955000  0.59279000  1.0
  O  O167  1  0.61040000  0.19924000  0.64317000  1.0
  O  O168  1  0.44825000  0.38870000  0.59279000  1.0
  O  O169  1  0.58884000  0.38960000  0.64317000  1.0
  O  O170  1  0.94045000  0.55175000  0.59279000  1.0
  O  O171  1  0.80076000  0.41116000  0.64317000  1.0
  O  O172  1  0.38870000  0.94045000  0.59279000  1.0
  O  O173  1  0.38960000  0.80076000  0.64317000  1.0
  O  O174  1  0.55175000  0.61130000  0.59278000  1.0
  O  O175  1  0.41116000  0.61040000  0.64317000  1.0
  O  O176  1  0.05955000  0.44825000  0.59278000  1.0
  O  O177  1  0.19924000  0.58884000  0.64317000  1.0
  O  O178  1  0.55175000  0.94045000  0.90721000  1.0
  O  O179  1  0.41116000  0.80076000  0.85683000  1.0
  O  O180  1  0.05955000  0.61130000  0.90721000  1.0
  O  O181  1  0.19924000  0.61040000  0.85683000  1.0
  O  O182  1  0.38870000  0.44825000  0.90722000  1.0
  O  O183  1  0.38960000  0.58884000  0.85683000  1.0
  O  O184  1  0.44825000  0.05955000  0.90721000  1.0
  O  O185  1  0.58884000  0.19924000  0.85683000  1.0
  O  O186  1  0.94045000  0.38870000  0.90721000  1.0
  O  O187  1  0.80076000  0.38960000  0.85683000  1.0
  O  O188  1  0.61130000  0.55175000  0.90722000  1.0
  O  O189  1  0.61040000  0.41116000  0.85683000  1.0
  O  O190  1  0.38870000  0.94045000  0.40721000  1.0
  O  O191  1  0.38960000  0.80076000  0.35683000  1.0
  O  O192  1  0.55175000  0.61130000  0.40721000  1.0
  O  O193  1  0.41116000  0.61040000  0.35683000  1.0
  O  O194  1  0.05955000  0.44825000  0.40722000  1.0
  O  O195  1  0.19924000  0.58884000  0.35683000  1.0
  O  O196  1  0.61130000  0.05955000  0.40721000  1.0
  O  O197  1  0.61040000  0.19924000  0.35683000  1.0
  O  O198  1  0.44825000  0.38870000  0.40722000  1.0
  O  O199  1  0.58884000  0.38960000  0.35683000  1.0
  O  O200  1  0.94045000  0.55175000  0.40722000  1.0
  O  O201  1  0.80076000  0.41116000  0.35683000  1.0
  O  O202  1  0.44825000  0.05955000  0.09279000  1.0
  O  O203  1  0.58884000  0.19924000  0.14317000  1.0
  O  O204  1  0.94045000  0.38870000  0.09279000  1.0
  O  O205  1  0.80076000  0.38960000  0.14317000  1.0
  O  O206  1  0.61130000  0.55175000  0.09279000  1.0
  O  O207  1  0.61040000  0.41116000  0.14317000  1.0
  O  O208  1  0.55175000  0.94045000  0.09279000  1.0
  O  O209  1  0.41116000  0.80076000  0.14317000  1.0
  O  O210  1  0.05955000  0.61130000  0.09279000  1.0
  O  O211  1  0.19924000  0.61040000  0.14317000  1.0
  O  O212  1  0.38870000  0.44825000  0.09279000  1.0
  O  O213  1  0.38960000  0.58884000  0.14317000  1.0
  O  O214  1  0.51035000  0.86617000  0.50000000  1.0
  O  O215  1  0.35582000  0.48965000  0.50000000  1.0
  O  O216  1  0.13383000  0.64418000  0.50000000  1.0
  O  O217  1  0.48965000  0.13383000  0.50000000  1.0
  O  O218  1  0.64418000  0.51035000  0.50000000  1.0
  O  O219  1  0.86617000  0.35582000  0.50000000  1.0
  O  O220  1  0.64418000  0.13383000  0.00000000  1.0
  O  O221  1  0.86617000  0.51035000  0.00000000  1.0
  O  O222  1  0.48965000  0.35582000  1.00000000  1.0
  O  O223  1  0.35582000  0.86617000  0.00000000  1.0
  O  O224  1  0.13383000  0.48965000  0.00000000  1.0
  O  O225  1  0.51035000  0.64418000  0.00000000  1.0
