# generated using pymatgen
data_ZnH5(C5O2)3
_symmetry_space_group_name_H-M   'P 1'
_cell_length_a   16.53522776
_cell_length_b   16.92330000
_cell_length_c   17.03680000
_cell_angle_alpha   113.00960000
_cell_angle_beta   118.29984190
_cell_angle_gamma   96.27104493
_symmetry_Int_Tables_number   1
_chemical_formula_structural   ZnH5(C5O2)3
_chemical_formula_sum   'Zn6 H30 C90 O36'
_cell_volume   3599.43375169
_cell_formula_units_Z   6
loop_
 _symmetry_equiv_pos_site_id
 _symmetry_equiv_pos_as_xyz
  1  'x, y, z'
loop_
 _atom_site_type_symbol
 _atom_site_label
 _atom_site_symmetry_multiplicity
 _atom_site_fract_x
 _atom_site_fract_y
 _atom_site_fract_z
 _atom_site_occupancy
  Zn  Zn0  1  0.97580000  0.98656000  0.55542000  1.0
  Zn  Zn1  1  0.02403000  0.01311000  0.44438000  1.0
  Zn  Zn2  1  0.58134000  0.99907000  0.56394000  1.0
  Zn  Zn3  1  0.41878000  0.00111000  0.43609000  1.0
  Zn  Zn4  1  0.98033000  0.42223000  0.99358000  1.0
  Zn  Zn5  1  0.01972000  0.57777000  0.00647000  1.0
  H  H6  1  0.94024000  0.63015000  0.66875000  1.0
  H  H7  1  0.61550000  0.65659000  0.76602000  1.0
  H  H8  1  0.70099000  0.06822000  0.98917000  1.0
  H  H9  1  0.29900000  0.93203000  0.01075000  1.0
  H  H10  1  0.98068000  0.25880000  0.72558000  1.0
  H  H11  1  0.01924000  0.74083000  0.27439000  1.0
  H  H12  1  0.69524000  0.93436000  0.40038000  1.0
  H  H13  1  0.30460000  0.06564000  0.59945000  1.0
  H  H14  1  0.72787000  0.28296000  0.74759000  1.0
  H  H15  1  0.27251000  0.71735000  0.25256000  1.0
  H  H16  1  0.86510000  0.58060000  0.73027000  1.0
  H  H17  1  0.05992000  0.36962000  0.33143000  1.0
  H  H18  1  0.13512000  0.41923000  0.26998000  1.0
  H  H19  1  0.79344000  0.88368000  0.09330000  1.0
  H  H20  1  0.20640000  0.11641000  0.90651000  1.0
  H  H21  1  0.50790000  0.16955000  0.31489000  1.0
  H  H22  1  0.49211000  0.83052000  0.68515000  1.0
  H  H23  1  0.12658000  0.85729000  0.70016000  1.0
  H  H24  1  0.87327000  0.14254000  0.29980000  1.0
  H  H25  1  0.30412000  0.36001000  0.09784000  1.0
  H  H26  1  0.69575000  0.64003000  0.90214000  1.0
  H  H27  1  0.72072000  0.15371000  0.92288000  1.0
  H  H28  1  0.70906000  0.95550000  0.01900000  1.0
  H  H29  1  0.27922000  0.84645000  0.07698000  1.0
  H  H30  1  0.29095000  0.04475000  0.98100000  1.0
  H  H31  1  0.45731000  0.28548000  0.30502000  1.0
  H  H32  1  0.54258000  0.71453000  0.69500000  1.0
  H  H33  1  0.05063000  0.72490000  0.67859000  1.0
  H  H34  1  0.94933000  0.27491000  0.32148000  1.0
  H  H35  1  0.38431000  0.34342000  0.23394000  1.0
  C  C36  1  0.95442000  0.56592000  0.64925000  1.0
  C  C37  1  0.61442000  0.58954000  0.71993000  1.0
  C  C38  1  0.62292000  0.05841000  0.94512000  1.0
  C  C39  1  0.37707000  0.94186000  0.05483000  1.0
  C  C40  1  0.18290000  0.05609000  0.64909000  1.0
  C  C41  1  0.81695000  0.94378000  0.35069000  1.0
  C  C42  1  0.42140000  0.83217000  0.44600000  1.0
  C  C43  1  0.57897000  0.16801000  0.55418000  1.0
  C  C44  1  0.01521000  0.57456000  0.17485000  1.0
  C  C45  1  0.98474000  0.42499000  0.82518000  1.0
  C  C46  1  0.81525000  0.45897000  0.87177000  1.0
  C  C47  1  0.04573000  0.43385000  0.35093000  1.0
  C  C48  1  0.18491000  0.54145000  0.12829000  1.0
  C  C49  1  0.52576000  0.94405000  0.35071000  1.0
  C  C50  1  0.47409000  0.05611000  0.64913000  1.0
  C  C51  1  0.98248000  0.16002000  0.56336000  1.0
  C  C52  1  0.01739000  0.83965000  0.43658000  1.0
  C  C53  1  0.93290000  0.51082000  0.68372000  1.0
  C  C54  1  0.06724000  0.48895000  0.31646000  1.0
  C  C55  1  0.70564000  0.92552000  0.12794000  1.0
  C  C56  1  0.29431000  0.07467000  0.87199000  1.0
  C  C57  1  0.54042000  0.27576000  0.43870000  1.0
  C  C58  1  0.67452000  0.95860000  0.06070000  1.0
  C  C59  1  0.45962000  0.72433000  0.56135000  1.0
  C  C60  1  0.06370000  0.74629000  0.56923000  1.0
  C  C61  1  0.93627000  0.25347000  0.43081000  1.0
  C  C62  1  0.33454000  0.45222000  0.22839000  1.0
  C  C63  1  0.66540000  0.54786000  0.77161000  1.0
  C  C64  1  0.59029000  0.09008000  0.87668000  1.0
  C  C65  1  0.40966000  0.91014000  0.12322000  1.0
  C  C66  1  0.97697000  0.44332000  0.53554000  1.0
  C  C67  1  0.02317000  0.55646000  0.46463000  1.0
  C  C68  1  0.53311000  0.96678000  0.07018000  1.0
  C  C69  1  0.32547000  0.04164000  0.93927000  1.0
  C  C70  1  0.46691000  0.03351000  0.92982000  1.0
  C  C71  1  0.55241000  0.45622000  0.55285000  1.0
  C  C72  1  0.44750000  0.54382000  0.44714000  1.0
  C  C73  1  0.98753000  0.40501000  0.45176000  1.0
  C  C74  1  0.01257000  0.59477000  0.54840000  1.0
  C  C75  1  0.43977000  0.97711000  0.03186000  1.0
  C  C76  1  0.56025000  0.02319000  0.96814000  1.0
  C  C77  1  0.55841000  0.54709000  0.61059000  1.0
  C  C78  1  0.44147000  0.45294000  0.38940000  1.0
  C  C79  1  0.01588000  0.46304000  0.41982000  1.0
  C  C80  1  0.49378000  0.32002000  0.38854000  1.0
  C  C81  1  0.98426000  0.53674000  0.58035000  1.0
  C  C82  1  0.50556000  0.59115000  0.55753000  1.0
  C  C83  1  0.49432000  0.40888000  0.44246000  1.0
  C  C84  1  0.40872000  0.01459000  0.96519000  1.0
  C  C85  1  0.59130000  0.98570000  0.03480000  1.0
  C  C86  1  0.95461000  0.42742000  0.66371000  1.0
  C  C87  1  0.04543000  0.57231000  0.33638000  1.0
  C  C88  1  0.66528000  0.93177000  0.18809000  1.0
  C  C89  1  0.33467000  0.06840000  0.81184000  1.0
  C  C90  1  0.58931000  0.31711000  0.54837000  1.0
  C  C91  1  0.50615000  0.68001000  0.61148000  1.0
  C  C92  1  0.41080000  0.68301000  0.45169000  1.0
  C  C93  1  0.04474000  0.70534000  0.46736000  1.0
  C  C94  1  0.95525000  0.29439000  0.53269000  1.0
  C  C95  1  0.33289000  0.54084000  0.28292000  1.0
  C  C96  1  0.66714000  0.45929000  0.71708000  1.0
  C  C97  1  0.48685000  0.07431000  0.81353000  1.0
  C  C98  1  0.51310000  0.92589000  0.18638000  1.0
  C  C99  1  0.96416000  0.38029000  0.71909000  1.0
  C  C100  1  0.03578000  0.61937000  0.28092000  1.0
  C  C101  1  0.71025000  0.92847000  0.28091000  1.0
  C  C102  1  0.03997000  0.69182000  0.60325000  1.0
  C  C103  1  0.28964000  0.07157000  0.71895000  1.0
  C  C104  1  0.62492000  0.26925000  0.60187000  1.0
  C  C105  1  0.37535000  0.73093000  0.39824000  1.0
  C  C106  1  0.03661000  0.75156000  0.41138000  1.0
  C  C107  1  0.96333000  0.24814000  0.58861000  1.0
  C  C108  1  0.27845000  0.58571000  0.23374000  1.0
  C  C109  1  0.72173000  0.41453000  0.76631000  1.0
  C  C110  1  0.43882000  0.07386000  0.71879000  1.0
  C  C111  1  0.56108000  0.92628000  0.28108000  1.0
  C  C112  1  0.96907000  0.29269000  0.68052000  1.0
  C  C113  1  0.96004000  0.30796000  0.39684000  1.0
  C  C114  1  0.03086000  0.70697000  0.31947000  1.0
  C  C115  1  0.65755000  0.92871000  0.32509000  1.0
  C  C116  1  0.34233000  0.07135000  0.67477000  1.0
  C  C117  1  0.69418000  0.31924000  0.70809000  1.0
  C  C118  1  0.30610000  0.68100000  0.29201000  1.0
  C  C119  1  0.96175000  0.38834000  0.57684000  1.0
  C  C120  1  0.03831000  0.61142000  0.42326000  1.0
  C  C121  1  0.57013000  0.94048000  0.14735000  1.0
  C  C122  1  0.42985000  0.05976000  0.85260000  1.0
  C  C123  1  0.60377000  0.41158000  0.60615000  1.0
  C  C124  1  0.38545000  0.41050000  0.28007000  1.0
  C  C125  1  0.39623000  0.58851000  0.39386000  1.0
  O  O126  1  0.11975000  0.02756000  0.66420000  1.0
  O  O127  1  0.55125000  0.03586000  0.67213000  1.0
  O  O128  1  0.02227000  0.14144000  0.51358000  1.0
  O  O129  1  0.97757000  0.85822000  0.48634000  1.0
  O  O130  1  0.96162000  0.11108000  0.59783000  1.0
  O  O131  1  0.03823000  0.88860000  0.40210000  1.0
  O  O132  1  0.58118000  0.94354000  0.43416000  1.0
  O  O133  1  0.41859000  0.05659000  0.56566000  1.0
  O  O134  1  0.83689000  0.40756000  0.91137000  1.0
  O  O135  1  0.16334000  0.59300000  0.08889000  1.0
  O  O136  1  0.03203000  0.62795000  0.14302000  1.0
  O  O137  1  0.88013000  0.97222000  0.33558000  1.0
  O  O138  1  0.96784000  0.37154000  0.85693000  1.0
  O  O139  1  0.36768000  0.87341000  0.40732000  1.0
  O  O140  1  0.63273000  0.12680000  0.59290000  1.0
  O  O141  1  0.16184000  0.06691000  0.57235000  1.0
  O  O142  1  0.83799000  0.93287000  0.42738000  1.0
  O  O143  1  0.88435000  0.52835000  0.73087000  1.0
  O  O144  1  0.11584000  0.47147000  0.26936000  1.0
  O  O145  1  0.76996000  0.88020000  0.13501000  1.0
  O  O146  1  0.22990000  0.11990000  0.86481000  1.0
  O  O147  1  0.54740000  0.19385000  0.38919000  1.0
  O  O148  1  0.51361000  0.86787000  0.51566000  1.0
  O  O149  1  0.45270000  0.80627000  0.61087000  1.0
  O  O150  1  0.11154000  0.83928000  0.63160000  1.0
  O  O151  1  0.88838000  0.16048000  0.36838000  1.0
  O  O152  1  0.28890000  0.41444000  0.12421000  1.0
  O  O153  1  0.71101000  0.58562000  0.87579000  1.0
  O  O154  1  0.65338000  0.14264000  0.87098000  1.0
  O  O155  1  0.34656000  0.85751000  0.12885000  1.0
  O  O156  1  0.48676000  0.13227000  0.48455000  1.0
  O  O157  1  0.97885000  0.48692000  0.12152000  1.0
  O  O158  1  0.02120000  0.51261000  0.87860000  1.0
  O  O159  1  0.87267000  0.54016000  0.90994000  1.0
  O  O160  1  0.12744000  0.46024000  0.09001000  1.0
  O  O161  1  0.44861000  0.96433000  0.32767000  1.0
