# generated using pymatgen
data_CuH6C9NClO3
_symmetry_space_group_name_H-M   'P 1'
_cell_length_a   6.96391000
_cell_length_b   15.70940000
_cell_length_c   15.71300000
_cell_angle_alpha   117.85700000
_cell_angle_beta   98.45940000
_cell_angle_gamma   98.51620000
_symmetry_Int_Tables_number   1
_chemical_formula_structural   CuH6C9NClO3
_chemical_formula_sum   'Cu6 H36 C54 N6 Cl6 O18'
_cell_volume   1456.30709860
_cell_formula_units_Z   6
loop_
 _symmetry_equiv_pos_site_id
 _symmetry_equiv_pos_as_xyz
  1  'x, y, z'
loop_
 _atom_site_type_symbol
 _atom_site_label
 _atom_site_symmetry_multiplicity
 _atom_site_fract_x
 _atom_site_fract_y
 _atom_site_fract_z
 _atom_site_occupancy
  Cu  Cu0  1  0.35505000  0.90097000  0.47322000  1.0
  Cu  Cu1  1  0.88193000  0.52683000  0.42780000  1.0
  Cu  Cu2  1  0.45448000  0.57216000  0.09914000  1.0
  Cu  Cu3  1  0.64494000  0.09903000  0.52679000  1.0
  Cu  Cu4  1  0.11800000  0.47316000  0.57220000  1.0
  Cu  Cu5  1  0.54555000  0.42784000  0.90086000  1.0
  H  H6  1  0.70496000  0.95073000  0.30129000  1.0
  H  H7  1  0.40283000  0.69851000  0.64926000  1.0
  H  H8  1  0.75374000  0.35076000  0.04948000  1.0
  H  H9  1  0.29504000  0.04926000  0.69870000  1.0
  H  H10  1  0.59719000  0.30149000  0.35074000  1.0
  H  H11  1  0.24624000  0.64924000  0.95052000  1.0
  H  H12  1  0.89887000  0.70821000  0.37119000  1.0
  H  H13  1  0.52810000  0.62897000  0.33717000  1.0
  H  H14  1  0.19105000  0.66311000  0.29180000  1.0
  H  H15  1  0.10114000  0.29179000  0.62881000  1.0
  H  H16  1  0.47190000  0.37104000  0.66284000  1.0
  H  H17  1  0.80897000  0.33688000  0.70820000  1.0
  H  H18  1  0.89568000  0.79464000  0.49427000  1.0
  H  H19  1  0.40147000  0.50593000  0.30062000  1.0
  H  H20  1  0.10150000  0.69968000  0.20531000  1.0
  H  H21  1  0.10432000  0.20535000  0.50573000  1.0
  H  H22  1  0.59853000  0.49408000  0.69939000  1.0
  H  H23  1  0.89849000  0.30032000  0.79469000  1.0
  H  H24  1  0.78747000  0.86111000  0.37007000  1.0
  H  H25  1  0.41724000  0.62989000  0.49107000  1.0
  H  H26  1  0.92628000  0.50909000  0.13893000  1.0
  H  H27  1  0.21252000  0.13889000  0.62992000  1.0
  H  H28  1  0.58276000  0.37010000  0.50893000  1.0
  H  H29  1  0.07371000  0.49091000  0.86107000  1.0
  H  H30  1  0.14081000  0.15921000  0.27827000  1.0
  H  H31  1  0.86078000  0.72166000  0.88091000  1.0
  H  H32  1  0.98037000  0.11900000  0.84098000  1.0
  H  H33  1  0.85921000  0.84079000  0.72174000  1.0
  H  H34  1  0.13923000  0.27835000  0.11910000  1.0
  H  H35  1  0.01962000  0.88100000  0.15901000  1.0
  H  H36  1  0.41265000  0.12871000  0.37250000  1.0
  H  H37  1  0.03906000  0.62750000  0.75634000  1.0
  H  H38  1  0.28310000  0.24362000  0.87128000  1.0
  H  H39  1  0.58735000  0.87128000  0.62751000  1.0
  H  H40  1  0.96095000  0.37251000  0.24368000  1.0
  H  H41  1  0.71688000  0.75638000  0.12872000  1.0
  C  C42  1  0.01363000  0.96973000  0.36847000  1.0
  C  C43  1  0.64465000  0.63146000  0.60126000  1.0
  C  C44  1  0.04345000  0.39876000  0.03030000  1.0
  C  C45  1  0.98636000  0.03027000  0.63153000  1.0
  C  C46  1  0.35536000  0.36854000  0.39875000  1.0
  C  C47  1  0.95653000  0.60124000  0.96970000  1.0
  C  C48  1  0.85955000  0.99110000  0.31765000  1.0
  C  C49  1  0.54098000  0.68218000  0.67334000  1.0
  C  C50  1  0.86781000  0.32665000  0.00903000  1.0
  C  C51  1  0.14045000  0.00890000  0.68235000  1.0
  C  C52  1  0.45903000  0.31782000  0.32666000  1.0
  C  C53  1  0.13218000  0.67335000  0.99097000  1.0
  C  C54  1  0.99113000  0.77280000  0.44135000  1.0
  C  C55  1  0.54993000  0.55873000  0.33157000  1.0
  C  C56  1  0.21869000  0.66860000  0.22715000  1.0
  C  C57  1  0.00887000  0.22720000  0.55865000  1.0
  C  C58  1  0.45007000  0.44126000  0.66842000  1.0
  C  C59  1  0.78129000  0.33138000  0.77284000  1.0
  C  C60  1  0.95053000  0.89131000  0.38922000  1.0
  C  C61  1  0.56115000  0.61077000  0.50214000  1.0
  C  C62  1  0.05912000  0.49797000  0.10872000  1.0
  C  C63  1  0.04947000  0.10869000  0.61078000  1.0
  C  C64  1  0.43888000  0.38923000  0.49788000  1.0
  C  C65  1  0.94086000  0.50204000  0.89129000  1.0
  C  C66  1  0.16356000  0.74175000  0.48248000  1.0
  C  C67  1  0.68099000  0.51735000  0.25929000  1.0
  C  C68  1  0.42222000  0.74080000  0.25807000  1.0
  C  C69  1  0.83643000  0.25825000  0.51752000  1.0
  C  C70  1  0.31893000  0.48267000  0.74071000  1.0
  C  C71  1  0.57782000  0.25919000  0.74191000  1.0
  C  C72  1  0.10520000  0.10774000  0.30526000  1.0
  C  C73  1  0.79856000  0.69467000  0.80245000  1.0
  C  C74  1  0.99651000  0.19749000  0.89240000  1.0
  C  C75  1  0.89481000  0.89226000  0.69474000  1.0
  C  C76  1  0.20145000  0.30534000  0.19756000  1.0
  C  C77  1  0.00348000  0.80251000  0.10759000  1.0
  C  C78  1  0.90462000  0.06048000  0.28795000  1.0
  C  C79  1  0.61533000  0.71190000  0.77240000  1.0
  C  C80  1  0.84327000  0.22754000  0.93971000  1.0
  C  C81  1  0.09539000  0.93953000  0.71205000  1.0
  C  C82  1  0.38468000  0.28810000  0.22760000  1.0
  C  C83  1  0.15671000  0.77246000  0.06029000  1.0
  C  C84  1  0.25797000  0.08998000  0.35731000  1.0
  C  C85  1  0.89967000  0.64269000  0.73274000  1.0
  C  C86  1  0.16720000  0.26724000  0.91004000  1.0
  C  C87  1  0.74204000  0.91002000  0.64270000  1.0
  C  C88  1  0.10035000  0.35731000  0.26727000  1.0
  C  C89  1  0.83277000  0.73277000  0.08995000  1.0
  C  C90  1  0.21734000  0.02429000  0.39407000  1.0
  C  C91  1  0.82283000  0.60600000  0.63028000  1.0
  C  C92  1  0.19263000  0.36971000  0.97574000  1.0
  C  C93  1  0.78266000  0.97571000  0.60593000  1.0
  C  C94  1  0.17717000  0.39401000  0.36971000  1.0
  C  C95  1  0.80736000  0.63028000  0.02424000  1.0
  N  N96  1  0.06984000  0.85393000  0.42534000  1.0
  N  N97  1  0.64460000  0.57473000  0.42866000  1.0
  N  N98  1  0.21604000  0.57139000  0.14610000  1.0
  N  N99  1  0.93019000  0.14608000  0.57466000  1.0
  N  N100  1  0.35548000  0.42526000  0.57133000  1.0
  N  N101  1  0.78390000  0.42860000  0.85389000  1.0
  Cl  Cl102  1  0.71732000  0.08965000  0.22866000  1.0
  Cl  Cl103  1  0.48698000  0.77128000  0.86073000  1.0
  Cl  Cl104  1  0.62671000  0.13914000  0.91077000  1.0
  Cl  Cl105  1  0.28269000  0.91036000  0.77134000  1.0
  Cl  Cl106  1  0.51301000  0.22872000  0.13927000  1.0
  Cl  Cl107  1  0.37328000  0.86085000  0.08924000  1.0
  O  O108  1  0.36538000  0.01534000  0.45163000  1.0
  O  O109  1  0.91391000  0.54863000  0.56386000  1.0
  O  O110  1  0.35004000  0.43617000  0.98475000  1.0
  O  O111  1  0.63461000  0.98465000  0.54837000  1.0
  O  O112  1  0.08609000  0.45138000  0.43611000  1.0
  O  O113  1  0.64992000  0.56381000  0.01521000  1.0
  O  O114  1  0.34334000  0.79272000  0.50066000  1.0
  O  O115  1  0.84247000  0.49904000  0.29200000  1.0
  O  O116  1  0.55122000  0.70793000  0.20731000  1.0
  O  O117  1  0.65669000  0.20730000  0.49933000  1.0
  O  O118  1  0.15760000  0.50097000  0.70804000  1.0
  O  O119  1  0.44875000  0.29210000  0.79271000  1.0
  O  O120  1  0.13081000  0.66985000  0.49692000  1.0
  O  O121  1  0.63377000  0.50280000  0.17294000  1.0
  O  O122  1  0.46089000  0.82724000  0.32971000  1.0
  O  O123  1  0.86923000  0.33015000  0.50308000  1.0
  O  O124  1  0.36621000  0.49719000  0.82706000  1.0
  O  O125  1  0.53910000  0.17275000  0.67029000  1.0
