# generated using pymatgen
data_Zn2H15C16O9
_symmetry_space_group_name_H-M   'P 1'
_cell_length_a   18.26500000
_cell_length_b   18.30100000
_cell_length_c   18.31280000
_cell_angle_alpha   60.25660000
_cell_angle_beta   60.08730000
_cell_angle_gamma   60.08680000
_symmetry_Int_Tables_number   1
_chemical_formula_structural   Zn2H15C16O9
_chemical_formula_sum   'Zn8 H60 C64 O36'
_cell_volume   4342.51956218
_cell_formula_units_Z   4
loop_
 _symmetry_equiv_pos_site_id
 _symmetry_equiv_pos_as_xyz
  1  'x, y, z'
loop_
 _atom_site_type_symbol
 _atom_site_label
 _atom_site_symmetry_multiplicity
 _atom_site_fract_x
 _atom_site_fract_y
 _atom_site_fract_z
 _atom_site_occupancy
  Zn  Zn0  1  0.70512000  0.38262000  0.20249000  1.0
  Zn  Zn1  1  0.29182000  0.79211000  0.79581000  1.0
  Zn  Zn2  1  0.87668000  0.21056000  0.20919000  1.0
  Zn  Zn3  1  0.70342000  0.20680000  0.20824000  1.0
  Zn  Zn4  1  0.11934000  0.79575000  0.79401000  1.0
  Zn  Zn5  1  0.70007000  0.21017000  0.38309000  1.0
  Zn  Zn6  1  0.29548000  0.61764000  0.78722000  1.0
  Zn  Zn7  1  0.29160000  0.79463000  0.61819000  1.0
  H  H8  1  0.47930000  0.36654000  0.54350000  1.0
  H  H9  1  0.49384000  0.57024000  0.34177000  1.0
  H  H10  1  0.77870000  0.92160000  0.51374000  1.0
  H  H11  1  0.74450000  0.95742000  0.42156000  1.0
  H  H12  1  0.74133000  0.85158000  0.50702000  1.0
  H  H13  1  0.11266000  0.59257000  0.04045000  1.0
  H  H14  1  0.20430000  0.50387000  0.07731000  1.0
  H  H15  1  0.09084000  0.50620000  0.14596000  1.0
  H  H16  1  0.21472000  0.07005000  0.48747000  1.0
  H  H17  1  0.12487000  0.03451000  0.58125000  1.0
  H  H18  1  0.10021000  0.13991000  0.49560000  1.0
  H  H19  1  0.74304000  0.08454000  0.07150000  1.0
  H  H20  1  0.40975000  0.66166000  0.43073000  1.0
  H  H21  1  0.70717000  0.99537000  0.16568000  1.0
  H  H22  1  0.77973000  0.97778000  0.05993000  1.0
  H  H23  1  0.94770000  0.78407000  0.14510000  1.0
  H  H24  1  0.04293000  0.76325000  0.04842000  1.0
  H  H25  1  0.94166000  0.75071000  0.07123000  1.0
  H  H26  1  0.34042000  0.54035000  0.55082000  1.0
  H  H27  1  0.42780000  0.44916000  0.46231000  1.0
  H  H28  1  0.62026000  0.36710000  0.53737000  1.0
  H  H29  1  0.66590000  0.45244000  0.45416000  1.0
  H  H30  1  0.57869000  0.53833000  0.54782000  1.0
  H  H31  1  0.59256000  0.57088000  0.33584000  1.0
  H  H32  1  0.52980000  0.45511000  0.63034000  1.0
  H  H33  1  0.49832000  0.44531000  0.90151000  1.0
  H  H34  1  0.38349000  0.01766000  0.45673000  1.0
  H  H35  1  0.86091000  0.54080000  0.97611000  1.0
  H  H36  1  0.85218000  0.98195000  0.54628000  1.0
  H  H37  1  0.50841000  0.65877000  0.42838000  1.0
  H  H38  1  0.15284000  0.00223000  0.90398000  1.0
  H  H39  1  0.05574000  0.10259000  0.99750000  1.0
  H  H40  1  0.55007000  0.28820000  0.96678000  1.0
  H  H41  1  0.56857000  0.23305000  0.07240000  1.0
  H  H42  1  0.66041000  0.21812000  0.97214000  1.0
  H  H43  1  0.38982000  0.45752000  0.63352000  1.0
  H  H44  1  0.41206000  0.23759000  0.38486000  1.0
  H  H45  1  0.33974000  0.19234000  0.39269000  1.0
  H  H46  1  0.40270000  0.25166000  0.28534000  1.0
  H  H47  1  0.95146000  0.58610000  0.79122000  1.0
  H  H48  1  0.05824000  0.59391000  0.75990000  1.0
  H  H49  1  0.96974000  0.69217000  0.72640000  1.0
  H  H50  1  0.81256000  0.92445000  0.71600000  1.0
  H  H51  1  0.89191000  0.91473000  0.75434000  1.0
  H  H52  1  0.86923000  0.81770000  0.78225000  1.0
  H  H53  1  0.37542000  0.72203000  0.99252000  1.0
  H  H54  1  0.28975000  0.68120000  0.02902000  1.0
  H  H55  1  0.33415000  0.66086000  0.10740000  1.0
  H  H56  1  0.53263000  0.78985000  0.67433000  1.0
  H  H57  1  0.60666000  0.83717000  0.65887000  1.0
  H  H58  1  0.49150000  0.87078000  0.72317000  1.0
  H  H59  1  0.98968000  0.34542000  0.21449000  1.0
  H  H60  1  0.07648000  0.28736000  0.14022000  1.0
  H  H61  1  0.09819000  0.35577000  0.16465000  1.0
  H  H62  1  0.99435000  0.20985000  0.33662000  1.0
  H  H63  1  0.10214000  0.15688000  0.34938000  1.0
  H  H64  1  0.07881000  0.13068000  0.28371000  1.0
  H  H65  1  0.57936000  0.58434000  0.08207000  1.0
  H  H66  1  0.49323000  0.61829000  0.17620000  1.0
  H  H67  1  0.47671000  0.67433000  0.06998000  1.0
  C  C68  1  0.88152000  0.11435000  0.39438000  1.0
  C  C69  1  0.44897000  0.94207000  0.55562000  1.0
  C  C70  1  0.91437000  0.99080000  0.52866000  1.0
  C  C71  1  0.59731000  0.26554000  0.00030000  1.0
  C  C72  1  0.40343000  0.20632000  0.35272000  1.0
  C  C73  1  0.98522000  0.62868000  0.77951000  1.0
  C  C74  1  0.87557000  0.88159000  0.73084000  1.0
  C  C75  1  0.35104000  0.66523000  0.03919000  1.0
  C  C76  1  0.94522000  0.45015000  0.05812000  1.0
  C  C77  1  0.53906000  0.85124000  0.66351000  1.0
  C  C78  1  0.04795000  0.35035000  0.15323000  1.0
  C  C79  1  0.05039000  0.14698000  0.34479000  1.0
  C  C80  1  0.50664000  0.60983000  0.11499000  1.0
  C  C81  1  0.73177000  0.92102000  0.49355000  1.0
  C  C82  1  0.13783000  0.52083000  0.07690000  1.0
  C  C83  1  0.94035000  0.05892000  0.45100000  1.0
  C  C84  1  0.14676000  0.07049000  0.50899000  1.0
  C  C85  1  0.76232000  0.01177000  0.10466000  1.0
  C  C86  1  0.96919000  0.78929000  0.07527000  1.0
  C  C87  1  0.43028000  0.54849000  0.96072000  1.0
  C  C88  1  0.42048000  0.57915000  0.02341000  1.0
  C  C89  1  0.51941000  0.92434000  0.58079000  1.0
  C  C90  1  0.02170000  0.42858000  0.07604000  1.0
  C  C91  1  0.88655000  0.39340000  0.11380000  1.0
  C  C92  1  0.02020000  0.07333000  0.42577000  1.0
  C  C93  1  0.47733000  0.52340000  0.07515000  1.0
  C  C94  1  0.57474000  0.97750000  0.52295000  1.0
  C  C95  1  0.07338000  0.48522000  0.01899000  1.0
  C  C96  1  0.07282000  0.01559000  0.48147000  1.0
  C  C97  1  0.38510000  0.89079000  0.61265000  1.0
  C  C98  1  0.54152000  0.44095000  0.06486000  1.0
  C  C99  1  0.56020000  0.04665000  0.44428000  1.0
  C  C100  1  0.05193000  0.55860000  0.94541000  1.0
  C  C101  1  0.04856000  0.94528000  0.55842000  1.0
  C  C102  1  0.37882000  0.60575000  0.89700000  1.0
  C  C103  1  0.91444000  0.99321000  0.06704000  1.0
  C  C104  1  0.96852000  0.93774000  0.01349000  1.0
  C  C105  1  0.05419000  0.94246000  0.95375000  1.0
  C  C106  1  0.94563000  0.05439000  0.05857000  1.0
  C  C107  1  0.08575000  0.00096000  0.94937000  1.0
  C  C108  1  0.03209000  0.05640000  0.00109000  1.0
  C  C109  1  0.60259000  0.38401000  0.11909000  1.0
  C  C110  1  0.61580000  0.10666000  0.38737000  1.0
  C  C111  1  0.11022000  0.61574000  0.88428000  1.0
  C  C112  1  0.10664000  0.88453000  0.61561000  1.0
  C  C113  1  0.88804000  0.11729000  0.11076000  1.0
  C  C114  1  0.11267000  0.88779000  0.89313000  1.0
  C  C115  1  0.60881000  0.39656000  0.38357000  1.0
  C  C116  1  0.39709000  0.61386000  0.60344000  1.0
  C  C117  1  0.46346000  0.43755000  0.50292000  1.0
  C  C118  1  0.52992000  0.55682000  0.38276000  1.0
  C  C119  1  0.47346000  0.61616000  0.44296000  1.0
  C  C120  1  0.40492000  0.49776000  0.56246000  1.0
  C  C121  1  0.60266000  0.43845000  0.49821000  1.0
  C  C122  1  0.54402000  0.49666000  0.55966000  1.0
  C  C123  1  0.55205000  0.45770000  0.44015000  1.0
  C  C124  1  0.45420000  0.55779000  0.54181000  1.0
  C  C125  1  0.54943000  0.41272000  0.00178000  1.0
  C  C126  1  0.49064000  0.06109000  0.42053000  1.0
  C  C127  1  0.97529000  0.57821000  0.92962000  1.0
  C  C128  1  0.96855000  0.93313000  0.58171000  1.0
  C  C129  1  0.49246000  0.46581000  0.95132000  1.0
  C  C130  1  0.43619000  0.00820000  0.47577000  1.0
  C  C131  1  0.92147000  0.52480000  0.98694000  1.0
  O  O132  1  0.74602000  0.25220000  0.25203000  1.0
  O  O133  1  0.80228000  0.43412000  0.13126000  1.0
  O  O134  1  0.35336000  0.87894000  0.57243000  1.0
  O  O135  1  0.35496000  0.56634000  0.87538000  1.0
  O  O136  1  0.64661000  0.42147000  0.11752000  1.0
  O  O137  1  0.61532000  0.14945000  0.42532000  1.0
  O  O138  1  0.19079000  0.57832000  0.84217000  1.0
  O  O139  1  0.18914000  0.84810000  0.57719000  1.0
  O  O140  1  0.25069000  0.74891000  0.74920000  1.0
  O  O141  1  0.92566000  0.30898000  0.13790000  1.0
  O  O142  1  0.92055000  0.14356000  0.31059000  1.0
  O  O143  1  0.36536000  0.68922000  0.86767000  1.0
  O  O144  1  0.36617000  0.86448000  0.69690000  1.0
  O  O145  1  0.65800000  0.11012000  0.30610000  1.0
  O  O146  1  0.60624000  0.30268000  0.16169000  1.0
  O  O147  1  0.06780000  0.87561000  0.69850000  1.0
  O  O148  1  0.07297000  0.69729000  0.88057000  1.0
  O  O149  1  0.92798000  0.13046000  0.14162000  1.0
  O  O150  1  0.19724000  0.86068000  0.87642000  1.0
  O  O151  1  0.63485000  0.31292000  0.42555000  1.0
  O  O152  1  0.62559000  0.43322000  0.29938000  1.0
  O  O153  1  0.37459000  0.69841000  0.56716000  1.0
  O  O154  1  0.37629000  0.57132000  0.68731000  1.0
  O  O155  1  0.80546000  0.15421000  0.11780000  1.0
  O  O156  1  0.79755000  0.12676000  0.43398000  1.0
  O  O157  1  0.07411000  0.87438000  0.86150000  1.0
  O  O158  1  0.61981000  0.33766000  0.98541000  1.0
  O  O159  1  0.47812000  0.12659000  0.34193000  1.0
  O  O160  1  0.95350000  0.65078000  0.85796000  1.0
  O  O161  1  0.94819000  0.86042000  0.65329000  1.0
  O  O162  1  0.46669000  0.54532000  0.14281000  1.0
  O  O163  1  0.64344000  0.96276000  0.54609000  1.0
  O  O164  1  0.14902000  0.46659000  0.03387000  1.0
  O  O165  1  0.15147000  0.02770000  0.45830000  1.0
  O  O166  1  0.83637000  0.98116000  0.13330000  1.0
  O  O167  1  0.93464000  0.88022000  0.02283000  1.0
