# generated using pymatgen
data_CdH8C12S2N2O3
_symmetry_space_group_name_H-M   'P 1'
_cell_length_a   6.51554000
_cell_length_b   10.08100000
_cell_length_c   18.88370000
_cell_angle_alpha   90.00030000
_cell_angle_beta   90.00000000
_cell_angle_gamma   90.00000000
_symmetry_Int_Tables_number   1
_chemical_formula_structural   CdH8C12S2N2O3
_chemical_formula_sum   'Cd4 H32 C48 S8 N8 O12'
_cell_volume   1240.34106468
_cell_formula_units_Z   4
loop_
 _symmetry_equiv_pos_site_id
 _symmetry_equiv_pos_as_xyz
  1  'x, y, z'
loop_
 _atom_site_type_symbol
 _atom_site_label
 _atom_site_symmetry_multiplicity
 _atom_site_fract_x
 _atom_site_fract_y
 _atom_site_fract_z
 _atom_site_occupancy
  Cd  Cd0  1  0.69139000  0.35005000  0.44836000  1.0
  Cd  Cd1  1  0.80861000  0.64995000  0.94836000  1.0
  Cd  Cd2  1  0.30862000  0.85005000  0.05164000  1.0
  Cd  Cd3  1  0.19139000  0.14995000  0.55164000  1.0
  H  H4  1  0.67579000  0.67864000  0.46883000  1.0
  H  H5  1  0.82420000  0.32136000  0.96883000  1.0
  H  H6  1  0.32421000  0.17864000  0.03117000  1.0
  H  H7  1  0.17579000  0.82136000  0.53117000  1.0
  H  H8  1  0.70372000  0.88216000  0.39606000  1.0
  H  H9  1  0.79628000  0.11784000  0.89606000  1.0
  H  H10  1  0.29629000  0.38216000  0.10395000  1.0
  H  H11  1  0.20371000  0.61784000  0.60394000  1.0
  H  H12  1  0.74867000  0.85939000  0.26339000  1.0
  H  H13  1  0.75133000  0.14061000  0.76339000  1.0
  H  H14  1  0.25133000  0.35939000  0.23661000  1.0
  H  H15  1  0.24867000  0.64060000  0.73661000  1.0
  H  H16  1  0.78806000  0.71282000  0.15864000  1.0
  H  H17  1  0.71195000  0.28718000  0.65864000  1.0
  H  H18  1  0.21194000  0.21281000  0.34137000  1.0
  H  H19  1  0.28806000  0.78719000  0.84136000  1.0
  H  H20  1  0.81278000  0.48521000  0.10884000  1.0
  H  H21  1  0.68722000  0.51479000  0.60884000  1.0
  H  H22  1  0.18721000  0.98520000  0.39116000  1.0
  H  H23  1  0.31278000  0.01479000  0.89116000  1.0
  H  H24  1  0.79418000  0.23879000  0.12612000  1.0
  H  H25  1  0.70582000  0.76121000  0.62612000  1.0
  H  H26  1  0.20582000  0.73879000  0.37387000  1.0
  H  H27  1  0.29418000  0.26121000  0.87388000  1.0
  H  H28  1  0.76105000  0.04909000  0.20779000  1.0
  H  H29  1  0.73895000  0.95091000  0.70780000  1.0
  H  H30  1  0.23895000  0.54909000  0.29220000  1.0
  H  H31  1  0.26105000  0.45092000  0.79221000  1.0
  H  H32  1  0.72243000  0.09389000  0.33971000  1.0
  H  H33  1  0.77757000  0.90611000  0.83971000  1.0
  H  H34  1  0.27757000  0.59389000  0.16028000  1.0
  H  H35  1  0.22243000  0.40611000  0.66029000  1.0
  C  C36  1  0.69700000  0.67084000  0.41179000  1.0
  C  C37  1  0.80299000  0.32916000  0.91180000  1.0
  C  C38  1  0.30300000  0.17084000  0.08821000  1.0
  C  C39  1  0.19700000  0.82916000  0.58821000  1.0
  C  C40  1  0.71204000  0.78597000  0.37010000  1.0
  C  C41  1  0.78796000  0.21403000  0.87010000  1.0
  C  C42  1  0.28796000  0.28597000  0.12991000  1.0
  C  C43  1  0.21204000  0.71403000  0.62990000  1.0
  C  C44  1  0.73683000  0.77300000  0.29785000  1.0
  C  C45  1  0.76316000  0.22700000  0.79785000  1.0
  C  C46  1  0.26316000  0.27300000  0.20216000  1.0
  C  C47  1  0.23684000  0.72699000  0.70215000  1.0
  C  C48  1  0.74782000  0.64560000  0.26711000  1.0
  C  C49  1  0.75218000  0.35440000  0.76712000  1.0
  C  C50  1  0.25216000  0.14560000  0.23289000  1.0
  C  C51  1  0.24783000  0.85440000  0.73289000  1.0
  C  C52  1  0.77666000  0.62569000  0.19276000  1.0
  C  C53  1  0.72334000  0.37431000  0.69276000  1.0
  C  C54  1  0.22333000  0.12569000  0.30724000  1.0
  C  C55  1  0.27667000  0.87431000  0.80724000  1.0
  C  C56  1  0.78867000  0.50054000  0.16531000  1.0
  C  C57  1  0.71132000  0.49946000  0.66531000  1.0
  C  C58  1  0.21131000  0.00053000  0.33469000  1.0
  C  C59  1  0.28868000  0.99947000  0.83468000  1.0
  C  C60  1  0.76998000  0.38662000  0.20986000  1.0
  C  C61  1  0.73001000  0.61338000  0.70986000  1.0
  C  C62  1  0.23000000  0.88662000  0.29014000  1.0
  C  C63  1  0.26999000  0.11338000  0.79014000  1.0
  C  C64  1  0.77525000  0.25606000  0.18278000  1.0
  C  C65  1  0.72475000  0.74394000  0.68278000  1.0
  C  C66  1  0.22474000  0.75606000  0.31722000  1.0
  C  C67  1  0.27526000  0.24394000  0.81722000  1.0
  C  C68  1  0.75722000  0.14989000  0.22854000  1.0
  C  C69  1  0.74278000  0.85011000  0.72854000  1.0
  C  C70  1  0.24277000  0.64989000  0.27146000  1.0
  C  C71  1  0.25723000  0.35011000  0.77146000  1.0
  C  C72  1  0.73585000  0.17442000  0.30139000  1.0
  C  C73  1  0.76415000  0.82558000  0.80139000  1.0
  C  C74  1  0.26414000  0.67442000  0.19861000  1.0
  C  C75  1  0.23586000  0.32558000  0.69861000  1.0
  C  C76  1  0.74413000  0.40250000  0.28408000  1.0
  C  C77  1  0.75586000  0.59750000  0.78408000  1.0
  C  C78  1  0.25585000  0.90250000  0.21592000  1.0
  C  C79  1  0.24415000  0.09750000  0.71592000  1.0
  C  C80  1  0.73267000  0.53475000  0.31339000  1.0
  C  C81  1  0.76733000  0.46525000  0.81339000  1.0
  C  C82  1  0.26731000  0.03475000  0.18661000  1.0
  C  C83  1  0.23269000  0.96525000  0.68661000  1.0
  S  S84  1  0.00465000  0.37237000  0.52839000  1.0
  S  S85  1  0.49535000  0.62764000  0.02840000  1.0
  S  S86  1  0.99536000  0.87237000  0.97161000  1.0
  S  S87  1  0.50465000  0.12763000  0.47160000  1.0
  S  S88  1  0.22528000  0.47525000  0.46684000  1.0
  S  S89  1  0.27473000  0.52475000  0.96685000  1.0
  S  S90  1  0.77474000  0.97526000  0.03316000  1.0
  S  S91  1  0.72528000  0.02475000  0.53315000  1.0
  N  N92  1  0.70661000  0.54957000  0.38420000  1.0
  N  N93  1  0.79338000  0.45043000  0.88420000  1.0
  N  N94  1  0.29338000  0.04957000  0.11581000  1.0
  N  N95  1  0.20662000  0.95043000  0.61580000  1.0
  N  N96  1  0.72938000  0.29652000  0.32810000  1.0
  N  N97  1  0.77061000  0.70348000  0.82810000  1.0
  N  N98  1  0.27060000  0.79652000  0.17190000  1.0
  N  N99  1  0.22939000  0.20348000  0.67190000  1.0
  O  O100  1  0.24427000  0.40827000  0.39810000  1.0
  O  O101  1  0.25573000  0.59172000  0.89811000  1.0
  O  O102  1  0.75574000  0.90829000  0.10190000  1.0
  O  O103  1  0.74427000  0.09172000  0.60190000  1.0
  O  O104  1  0.15034000  0.61140000  0.46356000  1.0
  O  O105  1  0.34966000  0.38860000  0.96357000  1.0
  O  O106  1  0.84968000  0.11140000  0.03643000  1.0
  O  O107  1  0.65034000  0.88860000  0.53643000  1.0
  O  O108  1  0.41486000  0.46152000  0.51055000  1.0
  O  O109  1  0.08515000  0.53848000  0.01057000  1.0
  O  O110  1  0.58515000  0.96153000  0.98944000  1.0
  O  O111  1  0.91486000  0.03847000  0.48944000  1.0
