# generated using pymatgen
data_H6Pb2C9O8
_symmetry_space_group_name_H-M   'P 1'
_cell_length_a   7.64548000
_cell_length_b   7.74244000
_cell_length_c   10.85892921
_cell_angle_alpha   108.98819929
_cell_angle_beta   110.20902988
_cell_angle_gamma   91.91960000
_symmetry_Int_Tables_number   1
_chemical_formula_structural   H6Pb2C9O8
_chemical_formula_sum   'H12 Pb4 C18 O16'
_cell_volume   562.63359725
_cell_formula_units_Z   2
loop_
 _symmetry_equiv_pos_site_id
 _symmetry_equiv_pos_as_xyz
  1  'x, y, z'
loop_
 _atom_site_type_symbol
 _atom_site_label
 _atom_site_symmetry_multiplicity
 _atom_site_fract_x
 _atom_site_fract_y
 _atom_site_fract_z
 _atom_site_occupancy
  H  H0  1  0.36990000  0.72871000  0.43243000  1.0
  H  H1  1  0.63013000  0.27136000  0.56757000  1.0
  H  H2  1  0.94626000  0.64165000  0.59378000  1.0
  H  H3  1  0.05372000  0.35832000  0.40622000  1.0
  H  H4  1  0.74372000  0.07222000  0.85063000  1.0
  H  H5  1  0.25630000  0.92779000  0.14938000  1.0
  H  H6  1  0.22718000  0.49138000  0.01862000  1.0
  H  H7  1  0.77278000  0.50858000  0.98137000  1.0
  H  H8  1  0.74361000  0.47731000  0.78160000  1.0
  H  H9  1  0.25638000  0.52272000  0.21840000  1.0
  H  H10  1  0.95100000  0.58727000  0.87208000  1.0
  H  H11  1  0.04899000  0.41273000  0.12793000  1.0
  Pb  Pb12  1  0.54040000  0.28048000  0.04853000  1.0
  Pb  Pb13  1  0.45957000  0.71950000  0.95148000  1.0
  Pb  Pb14  1  0.07456000  0.23414000  0.72501000  1.0
  Pb  Pb15  1  0.92543000  0.76585000  0.27498000  1.0
  C  C16  1  0.53800000  0.90949000  0.64309000  1.0
  C  C17  1  0.46202000  0.09053000  0.35691000  1.0
  C  C18  1  0.50850000  0.76543000  0.51677000  1.0
  C  C19  1  0.49152000  0.23461000  0.48323000  1.0
  C  C20  1  0.65637000  0.67348000  0.49715000  1.0
  C  C21  1  0.34363000  0.32653000  0.50285000  1.0
  C  C22  1  0.83206000  0.71635000  0.60808000  1.0
  C  C23  1  0.16793000  0.28364000  0.39191000  1.0
  C  C24  1  0.86083000  0.85692000  0.73624000  1.0
  C  C25  1  0.13917000  0.14307000  0.26376000  1.0
  C  C26  1  0.71655000  0.95824000  0.75202000  1.0
  C  C27  1  0.28347000  0.04176000  0.24799000  1.0
  C  C28  1  0.37801000  0.00949000  0.65978000  1.0
  C  C29  1  0.62200000  0.99053000  0.34022000  1.0
  C  C30  1  0.63057000  0.53431000  0.35693000  1.0
  C  C31  1  0.36943000  0.46569000  0.64307000  1.0
  C  C32  1  0.04973000  0.89990000  0.85524000  1.0
  C  C33  1  0.95028000  0.10008000  0.14476000  1.0
  O  O34  1  0.29782000  0.45322000  0.95484000  1.0
  O  O35  1  0.70217000  0.54675000  0.04517000  1.0
  O  O36  1  0.41667000  0.16192000  0.76601000  1.0
  O  O37  1  0.58334000  0.83809000  0.23399000  1.0
  O  O38  1  0.86999000  0.46529000  0.84424000  1.0
  O  O39  1  0.12998000  0.53471000  0.15575000  1.0
  O  O40  1  0.21180000  0.94370000  0.57009000  1.0
  O  O41  1  0.78822000  0.05632000  0.42990000  1.0
  O  O42  1  0.46433000  0.45695000  0.26910000  1.0
  O  O43  1  0.53565000  0.54307000  0.73090000  1.0
  O  O44  1  0.77694000  0.49847000  0.32754000  1.0
  O  O45  1  0.22305000  0.50150000  0.67247000  1.0
  O  O46  1  0.09575000  0.78035000  0.91262000  1.0
  O  O47  1  0.90425000  0.21963000  0.08738000  1.0
  O  O48  1  0.15593000  0.05260000  0.89104000  1.0
  O  O49  1  0.84408000  0.94737000  0.10896000  1.0
