# generated using pymatgen
data_Zn4H56C81N20O13
_symmetry_space_group_name_H-M   'P 1'
_cell_length_a   19.48190000
_cell_length_b   20.21790000
_cell_length_c   20.86580150
_cell_angle_alpha   102.73278764
_cell_angle_beta   108.42235837
_cell_angle_gamma   113.66300000
_symmetry_Int_Tables_number   1
_chemical_formula_structural   Zn4H56C81N20O13
_chemical_formula_sum   'Zn4 H56 C81 N20 O13'
_cell_volume   6546.92640905
_cell_formula_units_Z   1
loop_
 _symmetry_equiv_pos_site_id
 _symmetry_equiv_pos_as_xyz
  1  'x, y, z'
loop_
 _atom_site_type_symbol
 _atom_site_label
 _atom_site_symmetry_multiplicity
 _atom_site_fract_x
 _atom_site_fract_y
 _atom_site_fract_z
 _atom_site_occupancy
  Zn  Zn0  1  0.90213000  0.90191000  0.50480000  1.0
  Zn  Zn1  1  0.11373000  0.10954000  0.49606000  1.0
  Zn  Zn2  1  0.10961000  0.00894000  0.59846000  1.0
  Zn  Zn3  1  0.90745000  0.99896000  0.40011000  1.0
  H  H4  1  0.85591000  0.00061000  0.60826000  1.0
  H  H5  1  0.14045000  0.00841000  0.37217000  1.0
  H  H6  1  0.15416000  0.88297000  0.64392000  1.0
  H  H7  1  0.89155000  0.00626000  0.23613000  1.0
  H  H8  1  0.16055000  0.16088000  0.36553000  1.0
  H  H9  1  0.88943000  0.73457000  0.49260000  1.0
  H  H10  1  0.82368000  0.86334000  0.24665000  1.0
  H  H11  1  0.11876000  0.86508000  0.50001000  1.0
  H  H12  1  0.38063000  0.98365000  0.44597000  1.0
  H  H13  1  0.49930000  0.96968000  0.46504000  1.0
  H  H14  1  0.13089000  0.27448000  0.56585000  1.0
  H  H15  1  0.46320000  0.84348000  0.47259000  1.0
  H  H16  1  0.37321000  0.88189000  0.48627000  1.0
  H  H17  1  0.38215000  0.86688000  0.26874000  1.0
  H  H18  1  0.25188000  0.83237000  0.25887000  1.0
  H  H19  1  0.48750000  0.98020000  0.38128000  1.0
  H  H20  1  0.35224000  0.96383000  0.35185000  1.0
  H  H21  1  0.26639000  0.13802000  0.75298000  1.0
  H  H22  1  0.88581000  0.41061000  0.46400000  1.0
  H  H23  1  0.94172000  0.42583000  0.55613000  1.0
  H  H24  1  0.00633000  0.56444000  0.59911000  1.0
  H  H25  1  0.91755000  0.54156000  0.52046000  1.0
  H  H26  1  0.05219000  0.45468000  0.40694000  1.0
  H  H27  1  0.94230000  0.39604000  0.37320000  1.0
  H  H28  1  0.14624000  0.48953000  0.53001000  1.0
  H  H29  1  0.14270000  0.58745000  0.50196000  1.0
  H  H30  1  0.71090000  0.97054000  0.34398000  1.0
  H  H31  1  0.92365000  0.50530000  0.39939000  1.0
  H  H32  1  0.33955000  0.24589000  0.86024000  1.0
  H  H33  1  0.41066000  0.36087000  0.97841000  1.0
  H  H34  1  0.56214000  0.50519000  0.17357000  1.0
  H  H35  1  0.69600000  0.61736000  0.27812000  1.0
  H  H36  1  0.29605000  0.38703000  0.74190000  1.0
  H  H37  1  0.54974000  0.65442000  0.05772000  1.0
  H  H38  1  0.36918000  0.50168000  0.86099000  1.0
  H  H39  1  0.68208000  0.76782000  0.16240000  1.0
  H  H40  1  0.92096000  0.10113000  0.17186000  1.0
  H  H41  1  0.25301000  0.28315000  0.63071000  1.0
  H  H42  1  0.92316000  0.12270000  0.05953000  1.0
  H  H43  1  0.86395000  0.10896000  0.85528000  1.0
  H  H44  1  0.12578000  0.18306000  0.94804000  1.0
  H  H45  1  0.15111000  0.11656000  0.11067000  1.0
  H  H46  1  0.12103000  0.16513000  0.82631000  1.0
  H  H47  1  0.70046000  0.84104000  0.48383000  1.0
  H  H48  1  0.86097000  0.12991000  0.43524000  1.0
  H  H49  1  0.12741000  0.14809000  0.72633000  1.0
  H  H50  1  0.80245000  0.73094000  0.38331000  1.0
  H  H51  1  0.41550000  0.71538000  0.35852000  1.0
  H  H52  1  0.25962000  0.73710000  0.52308000  1.0
  H  H53  1  0.30727000  0.73368000  0.17806000  1.0
  H  H54  1  0.15439000  0.71282000  0.26627000  1.0
  H  H55  1  0.22210000  0.71718000  0.70824000  1.0
  H  H56  1  0.10770000  0.49764000  0.70422000  1.0
  H  H57  1  0.13535000  0.62591000  0.38264000  1.0
  H  H58  1  0.78965000  0.08940000  0.74529000  1.0
  H  H59  1  0.20670000  0.08542000  0.19733000  1.0
  C  C60  1  0.92332000  0.02913000  0.62811000  1.0
  C  C61  1  0.99461000  0.23190000  0.49874000  1.0
  C  C62  1  0.27730000  0.24097000  0.72239000  1.0
  C  C63  1  0.66887000  0.89780000  0.40625000  1.0
  C  C64  1  0.81975000  0.77452000  0.36005000  1.0
  C  C65  1  0.13076000  0.98104000  0.41034000  1.0
  C  C66  1  0.08751000  0.85803000  0.60972000  1.0
  C  C67  1  0.95618000  0.04389000  0.27882000  1.0
  C  C68  1  0.09360000  0.12213000  0.34465000  1.0
  C  C69  1  0.95226000  0.78268000  0.53215000  1.0
  C  C70  1  0.82947000  0.84211000  0.29048000  1.0
  C  C71  1  0.06596000  0.22698000  0.53383000  1.0
  C  C72  1  0.11961000  0.90760000  0.47594000  1.0
  C  C73  1  0.77955000  0.76732000  0.28773000  1.0
  C  C74  1  0.14299000  0.91906000  0.42020000  1.0
  C  C75  1  0.02597000  0.77934000  0.56182000  1.0
  C  C76  1  0.02928000  0.08660000  0.27212000  1.0
  C  C77  1  0.45498000  0.94447000  0.40635000  1.0
  C  C78  1  0.40698000  0.81556000  0.41892000  1.0
  C  C79  1  0.33994000  0.83150000  0.43310000  1.0
  C  C80  1  0.18519000  0.88662000  0.39294000  1.0
  C  C81  1  0.43629000  0.85899000  0.37129000  1.0
  C  C82  1  0.25604000  0.16293000  0.71221000  1.0
  C  C83  1  0.37290000  0.94406000  0.39545000  1.0
  C  C84  1  0.30149000  0.85939000  0.37420000  1.0
  C  C85  1  0.28147000  0.80910000  0.29496000  1.0
  C  C86  1  0.36438000  0.82187000  0.29180000  1.0
  C  C87  1  0.23076000  0.86544000  0.37821000  1.0
  C  C88  1  0.51437000  0.86423000  0.37556000  1.0
  C  C89  1  0.58629000  0.88054000  0.39006000  1.0
  C  C90  1  0.10526000  0.50341000  0.54911000  1.0
  C  C91  1  0.94701000  0.44755000  0.51334000  1.0
  C  C92  1  0.97256000  0.53443000  0.53880000  1.0
  C  C93  1  0.72300000  0.94227000  0.38135000  1.0
  C  C94  1  0.03438000  0.71274000  0.54261000  1.0
  C  C95  1  0.01271000  0.43749000  0.49218000  1.0
  C  C96  1  0.11851000  0.58271000  0.54250000  1.0
  C  C97  1  0.03082000  0.57688000  0.50699000  1.0
  C  C98  1  0.99017000  0.52233000  0.42314000  1.0
  C  C99  1  0.99926000  0.44870000  0.41855000  1.0
  C  C100  1  0.03741000  0.65337000  0.52095000  1.0
  C  C101  1  0.00285000  0.36122000  0.48756000  1.0
  C  C102  1  0.99520000  0.30036000  0.49346000  1.0
  C  C103  1  0.70077000  0.70075000  0.22727000  1.0
  C  C104  1  0.24795000  0.23629000  0.64967000  1.0
  C  C105  1  0.65673000  0.71001000  0.16479000  1.0
  C  C106  1  0.58234000  0.64745000  0.10652000  1.0
  C  C107  1  0.54876000  0.57241000  0.10885000  1.0
  C  C108  1  0.58946000  0.56344000  0.17237000  1.0
  C  C109  1  0.66427000  0.62640000  0.23040000  1.0
  C  C110  1  0.38478000  0.36538000  0.92612000  1.0
  C  C111  1  0.34520000  0.30168000  0.85971000  1.0
  C  C112  1  0.39622000  0.43902000  0.92694000  1.0
  C  C113  1  0.31496000  0.30810000  0.79156000  1.0
  C  C114  1  0.32145000  0.38048000  0.79323000  1.0
  C  C115  1  0.71751000  0.87580000  0.45264000  1.0
  C  C116  1  0.36155000  0.44487000  0.85976000  1.0
  C  C117  1  0.98748000  0.11958000  0.76662000  1.0
  C  C118  1  0.06351000  0.15205000  0.83140000  1.0
  C  C119  1  0.06706000  0.16202000  0.90022000  1.0
  C  C120  1  0.99294000  0.14082000  0.90837000  1.0
  C  C121  1  0.92004000  0.12013000  0.84781000  1.0
  C  C122  1  0.91554000  0.10951000  0.77741000  1.0
  C  C123  1  0.97231000  0.11638000  0.09569000  1.0
  C  C124  1  0.97107000  0.10337000  0.15787000  1.0
  C  C125  1  0.03889000  0.12286000  0.07910000  1.0
  C  C126  1  0.92784000  0.15342000  0.46671000  1.0
  C  C127  1  0.03445000  0.09595000  0.20632000  1.0
  C  C128  1  0.10009000  0.09967000  0.18790000  1.0
  C  C129  1  0.10126000  0.11398000  0.12536000  1.0
  C  C130  1  0.06206000  0.10455000  0.68876000  1.0
  C  C131  1  0.98850000  0.09093000  0.69643000  1.0
  C  C132  1  0.38627000  0.73034000  0.39306000  1.0
  C  C133  1  0.27525000  0.76533000  0.44203000  1.0
  C  C134  1  0.35445000  0.75171000  0.23523000  1.0
  C  C135  1  0.21446000  0.72341000  0.26545000  1.0
  C  C136  1  0.18342000  0.65942000  0.60763000  1.0
  C  C137  1  0.13540000  0.50495000  0.62648000  1.0
  C  C138  1  0.02693000  0.56854000  0.38201000  1.0
  C  C139  1  0.83398000  0.09049000  0.72138000  1.0
  C  C140  1  0.16514000  0.08223000  0.22480000  1.0
  N  N141  1  0.95664000  0.00707000  0.58617000  1.0
  N  N142  1  0.10441000  0.00514000  0.45839000  1.0
  N  N143  1  0.05348000  0.90440000  0.60740000  1.0
  N  N144  1  0.97578000  0.05259000  0.34907000  1.0
  N  N145  1  0.06148000  0.10264000  0.39014000  1.0
  N  N146  1  0.96890000  0.85708000  0.55891000  1.0
  N  N147  1  0.89230000  0.89025000  0.35947000  1.0
  N  N148  1  0.09768000  0.96024000  0.49866000  1.0
  N  N149  1  0.48222000  0.50234000  0.04894000  1.0
  N  N150  1  0.44896000  0.51022000  0.99008000  1.0
  N  N151  1  0.98557000  0.13481000  0.97196000  1.0
  N  N152  1  0.04343000  0.15139000  0.52168000  1.0
  N  N153  1  0.04688000  0.13431000  0.01720000  1.0
  N  N154  1  0.21534000  0.11561000  0.63991000  1.0
  N  N155  1  0.79728000  0.94599000  0.41045000  1.0
  N  N156  1  0.21050000  0.16171000  0.60069000  1.0
  N  N157  1  0.79375000  0.90469000  0.45465000  1.0
  N  N158  1  0.95833000  0.10600000  0.48029000  1.0
  N  N159  1  0.04203000  0.05373000  0.62334000  1.0
  N  N160  1  0.88599000  0.84807000  0.40257000  1.0
  O  O161  1  0.34449000  0.68282000  0.41214000  1.0
  O  O162  1  0.20701000  0.71233000  0.39053000  1.0
  O  O163  1  0.29975000  0.77739000  0.51313000  1.0
  O  O164  1  0.40007000  0.72393000  0.24657000  1.0
  O  O165  1  0.22343000  0.66912000  0.23843000  1.0
  O  O166  1  0.23656000  0.71497000  0.60344000  1.0
  O  O167  1  0.17748000  0.66430000  0.67117000  1.0
  O  O168  1  0.20417000  0.51337000  0.66055000  1.0
  O  O169  1  0.07990000  0.49537000  0.65492000  1.0
  O  O170  1  0.99126000  0.59416000  0.34446000  1.0
  O  O171  1  0.10446000  0.58088000  0.39479000  1.0
  O  O172  1  0.81237000  0.07846000  0.65606000  1.0
  O  O173  1  0.17588000  0.06359000  0.27771000  1.0
