# generated using pymatgen
data_Zn2H24RuC36(NO2)6
_symmetry_space_group_name_H-M   'P 1'
_cell_length_a   15.34830000
_cell_length_b   15.34830000
_cell_length_c   15.34830000
_cell_angle_alpha   90.00000000
_cell_angle_beta   89.99990000
_cell_angle_gamma   89.99990000
_symmetry_Int_Tables_number   1
_chemical_formula_structural   Zn2H24RuC36(NO2)6
_chemical_formula_sum   'Zn8 H96 Ru4 C144 N24 O48'
_cell_volume   3615.60383332
_cell_formula_units_Z   4
loop_
 _symmetry_equiv_pos_site_id
 _symmetry_equiv_pos_as_xyz
  1  'x, y, z'
loop_
 _atom_site_type_symbol
 _atom_site_label
 _atom_site_symmetry_multiplicity
 _atom_site_fract_x
 _atom_site_fract_y
 _atom_site_fract_z
 _atom_site_occupancy
  Zn  Zn0  1  0.60034000  0.89966000  0.10033000  1.0
  Zn  Zn1  1  0.35035000  0.85034000  0.35034000  1.0
  Zn  Zn2  1  0.39967000  0.60034000  0.60034000  1.0
  Zn  Zn3  1  0.64966000  0.64967000  0.85034000  1.0
  Zn  Zn4  1  0.85033000  0.14966000  0.14966000  1.0
  Zn  Zn5  1  0.89966000  0.39966000  0.89966000  1.0
  Zn  Zn6  1  0.10034000  0.10034000  0.39966000  1.0
  Zn  Zn7  1  0.14966000  0.35034000  0.64966000  1.0
  H  H8  1  0.96029000  0.50537000  0.11774000  1.0
  H  H9  1  0.74463000  0.21029000  0.36774000  1.0
  H  H10  1  0.03971000  0.99463000  0.61774000  1.0
  H  H11  1  0.25537000  0.28970000  0.86774000  1.0
  H  H12  1  0.86774000  0.75537000  0.78971000  1.0
  H  H13  1  0.53971000  0.00537000  0.88226000  1.0
  H  H14  1  0.63226000  0.25537000  0.21030000  1.0
  H  H15  1  0.71029000  0.86774000  0.74463000  1.0
  H  H16  1  0.46029000  0.49463000  0.38226000  1.0
  H  H17  1  0.21030000  0.13226000  0.75537000  1.0
  H  H18  1  0.49463000  0.11774000  0.03971000  1.0
  H  H19  1  0.88226000  0.03971000  0.50537000  1.0
  H  H20  1  0.11774000  0.46029000  0.00537000  1.0
  H  H21  1  0.00537000  0.61774000  0.96029000  1.0
  H  H22  1  0.38227000  0.96029000  0.99463000  1.0
  H  H23  1  0.50537000  0.38226000  0.53971000  1.0
  H  H24  1  0.99463000  0.88226000  0.46029000  1.0
  H  H25  1  0.61774000  0.53971000  0.49463000  1.0
  H  H26  1  0.24463000  0.78971000  0.13226000  1.0
  H  H27  1  0.75537000  0.71030000  0.63226000  1.0
  H  H28  1  0.13226000  0.74463000  0.28970000  1.0
  H  H29  1  0.36774000  0.24463000  0.71030000  1.0
  H  H30  1  0.78970000  0.36774000  0.25537000  1.0
  H  H31  1  0.28971000  0.63226000  0.24463000  1.0
  H  H32  1  0.80213000  0.52824000  0.11297000  1.0
  H  H33  1  0.72176000  0.05213000  0.36297000  1.0
  H  H34  1  0.19786000  0.97176000  0.61297000  1.0
  H  H35  1  0.27824000  0.44786000  0.86297000  1.0
  H  H36  1  0.86297000  0.77824000  0.94787000  1.0
  H  H37  1  0.69787000  0.02824000  0.88703000  1.0
  H  H38  1  0.63703000  0.27824000  0.05214000  1.0
  H  H39  1  0.55213000  0.86297000  0.72176000  1.0
  H  H40  1  0.30214000  0.47176000  0.38703000  1.0
  H  H41  1  0.05214000  0.13703000  0.77824000  1.0
  H  H42  1  0.47176000  0.11297000  0.19786000  1.0
  H  H43  1  0.88703000  0.19787000  0.52824000  1.0
  H  H44  1  0.11297000  0.30213000  0.02824000  1.0
  H  H45  1  0.02824000  0.61297000  0.80213000  1.0
  H  H46  1  0.38703000  0.80213000  0.97176000  1.0
  H  H47  1  0.52824000  0.38703000  0.69787000  1.0
  H  H48  1  0.97176000  0.88703000  0.30214000  1.0
  H  H49  1  0.61297000  0.69786000  0.47176000  1.0
  H  H50  1  0.22176000  0.94787000  0.13703000  1.0
  H  H51  1  0.77824000  0.55214000  0.63703000  1.0
  H  H52  1  0.13703000  0.72176000  0.44786000  1.0
  H  H53  1  0.36297000  0.22176000  0.55214000  1.0
  H  H54  1  0.94786000  0.36297000  0.27824000  1.0
  H  H55  1  0.44787000  0.63703000  0.22176000  1.0
  H  H56  1  0.84730000  0.80542000  0.12170000  1.0
  H  H57  1  0.44458000  0.09730000  0.37170000  1.0
  H  H58  1  0.15270000  0.69458000  0.62170000  1.0
  H  H59  1  0.55542000  0.40270000  0.87170000  1.0
  H  H60  1  0.87170000  0.05542000  0.90270000  1.0
  H  H61  1  0.65270000  0.30542000  0.87830000  1.0
  H  H62  1  0.62830000  0.55542000  0.09730000  1.0
  H  H63  1  0.59730000  0.87170000  0.44458000  1.0
  H  H64  1  0.34730000  0.19458000  0.37830000  1.0
  H  H65  1  0.09730000  0.12830000  0.05542000  1.0
  H  H66  1  0.19458000  0.12170000  0.15270000  1.0
  H  H67  1  0.87830000  0.15270000  0.80542000  1.0
  H  H68  1  0.12170000  0.34730000  0.30542000  1.0
  H  H69  1  0.30542000  0.62170000  0.84730000  1.0
  H  H70  1  0.37830000  0.84730000  0.69458000  1.0
  H  H71  1  0.80542000  0.37830000  0.65270000  1.0
  H  H72  1  0.69458000  0.87830000  0.34730000  1.0
  H  H73  1  0.62170000  0.65270000  0.19458000  1.0
  H  H74  1  0.94458000  0.90270000  0.12830000  1.0
  H  H75  1  0.05542000  0.59730000  0.62830000  1.0
  H  H76  1  0.12830000  0.44458000  0.40270000  1.0
  H  H77  1  0.37170000  0.94458000  0.59730000  1.0
  H  H78  1  0.90270000  0.37170000  0.55542000  1.0
  H  H79  1  0.40270000  0.62830000  0.94458000  1.0
  H  H80  1  0.74338000  0.68358000  0.11659000  1.0
  H  H81  1  0.56642000  0.99338000  0.36659000  1.0
  H  H82  1  0.25662000  0.81642000  0.61659000  1.0
  H  H83  1  0.43358000  0.50662000  0.86659000  1.0
  H  H84  1  0.86659000  0.93358000  0.00662000  1.0
  H  H85  1  0.75663000  0.18358000  0.88341000  1.0
  H  H86  1  0.63341000  0.43358000  0.99338000  1.0
  H  H87  1  0.49338000  0.86659000  0.56642000  1.0
  H  H88  1  0.24338000  0.31642000  0.38341000  1.0
  H  H89  1  0.99338000  0.13341000  0.93358000  1.0
  H  H90  1  0.31642000  0.11659000  0.25662000  1.0
  H  H91  1  0.88341000  0.25662000  0.68358000  1.0
  H  H92  1  0.11659000  0.24338000  0.18358000  1.0
  H  H93  1  0.18358000  0.61659000  0.74338000  1.0
  H  H94  1  0.38341000  0.74337000  0.81642000  1.0
  H  H95  1  0.68358000  0.38341000  0.75662000  1.0
  H  H96  1  0.81642000  0.88341000  0.24338000  1.0
  H  H97  1  0.61659000  0.75662000  0.31642000  1.0
  H  H98  1  0.06642000  0.00662000  0.13341000  1.0
  H  H99  1  0.93358000  0.49338000  0.63341000  1.0
  H  H100  1  0.13341000  0.56642000  0.50662000  1.0
  H  H101  1  0.36659000  0.06642000  0.49338000  1.0
  H  H102  1  0.00662000  0.36659000  0.43358000  1.0
  H  H103  1  0.50662000  0.63341000  0.06642000  1.0
  Ru  Ru104  1  0.12500000  0.62500000  0.12500000  1.0
  Ru  Ru105  1  0.62500000  0.37500000  0.37500000  1.0
  Ru  Ru106  1  0.87500000  0.87500000  0.62500000  1.0
  Ru  Ru107  1  0.37500000  0.12500000  0.87500000  1.0
  C  C108  1  0.93409000  0.57116000  0.12081000  1.0
  C  C109  1  0.67884000  0.18409000  0.37081000  1.0
  C  C110  1  0.06591000  0.92884000  0.62081000  1.0
  C  C111  1  0.32116000  0.31591000  0.87081000  1.0
  C  C112  1  0.87081000  0.82116000  0.81591000  1.0
  C  C113  1  0.56591000  0.07116000  0.87919000  1.0
  C  C114  1  0.62919000  0.32116000  0.18410000  1.0
  C  C115  1  0.68409000  0.87081000  0.67884000  1.0
  C  C116  1  0.43409000  0.42884000  0.37919000  1.0
  C  C117  1  0.18410000  0.12919000  0.82116000  1.0
  C  C118  1  0.42884000  0.12081000  0.06591000  1.0
  C  C119  1  0.87919000  0.06591000  0.57116000  1.0
  C  C120  1  0.12081000  0.43409000  0.07116000  1.0
  C  C121  1  0.07116000  0.62081000  0.93409000  1.0
  C  C122  1  0.37919000  0.93409000  0.92884000  1.0
  C  C123  1  0.57116000  0.37919000  0.56591000  1.0
  C  C124  1  0.92884000  0.87919000  0.43409000  1.0
  C  C125  1  0.62081000  0.56591000  0.42884000  1.0
  C  C126  1  0.17884000  0.81590000  0.12919000  1.0
  C  C127  1  0.82116000  0.68410000  0.62919000  1.0
  C  C128  1  0.12919000  0.67884000  0.31590000  1.0
  C  C129  1  0.37081000  0.17884000  0.68410000  1.0
  C  C130  1  0.81590000  0.37081000  0.32116000  1.0
  C  C131  1  0.31591000  0.62919000  0.17884000  1.0
  C  C132  1  0.84471000  0.58475000  0.11790000  1.0
  C  C133  1  0.66525000  0.09471000  0.36790000  1.0
  C  C134  1  0.15529000  0.91525000  0.61790000  1.0
  C  C135  1  0.33475000  0.40529000  0.86790000  1.0
  C  C136  1  0.86790000  0.83475000  0.90529000  1.0
  C  C137  1  0.65529000  0.08475000  0.88210000  1.0
  C  C138  1  0.63210000  0.33475000  0.09471000  1.0
  C  C139  1  0.59471000  0.86790000  0.66525000  1.0
  C  C140  1  0.34471000  0.41525000  0.38210000  1.0
  C  C141  1  0.09471000  0.13210000  0.83476000  1.0
  C  C142  1  0.41525000  0.11790000  0.15529000  1.0
  C  C143  1  0.88210000  0.15529000  0.58476000  1.0
  C  C144  1  0.11790000  0.34471000  0.08475000  1.0
  C  C145  1  0.08475000  0.61790000  0.84471000  1.0
  C  C146  1  0.38210000  0.84471000  0.91525000  1.0
  C  C147  1  0.58475000  0.38210000  0.65529000  1.0
  C  C148  1  0.91525000  0.88210000  0.34471000  1.0
  C  C149  1  0.61790000  0.65529000  0.41525000  1.0
  C  C150  1  0.16525000  0.90529000  0.13210000  1.0
  C  C151  1  0.83475000  0.59471000  0.63210000  1.0
  C  C152  1  0.13210000  0.66525000  0.40529000  1.0
  C  C153  1  0.36790000  0.16524000  0.59471000  1.0
  C  C154  1  0.90529000  0.36790000  0.33475000  1.0
  C  C155  1  0.40529000  0.63210000  0.16525000  1.0
  C  C156  1  0.87175000  0.73869000  0.12231000  1.0
  C  C157  1  0.51131000  0.12175000  0.37230000  1.0
  C  C158  1  0.12824000  0.76131000  0.62231000  1.0
  C  C159  1  0.48869000  0.37824000  0.87231000  1.0
  C  C160  1  0.87230000  0.98869000  0.87824000  1.0
  C  C161  1  0.62825000  0.23869000  0.87770000  1.0
  C  C162  1  0.62769000  0.48869000  0.12176000  1.0
  C  C163  1  0.62175000  0.87231000  0.51131000  1.0
  C  C164  1  0.37175000  0.26131000  0.37770000  1.0
  C  C165  1  0.12176000  0.12769000  0.98869000  1.0
  C  C166  1  0.26131000  0.12230000  0.12824000  1.0
  C  C167  1  0.87769000  0.12825000  0.73869000  1.0
  C  C168  1  0.12230000  0.37176000  0.23869000  1.0
  C  C169  1  0.23869000  0.62231000  0.87175000  1.0
  C  C170  1  0.37770000  0.87175000  0.76131000  1.0
  C  C171  1  0.73869000  0.37769000  0.62824000  1.0
  C  C172  1  0.76131000  0.87770000  0.37175000  1.0
  C  C173  1  0.62231000  0.62824000  0.26131000  1.0
  C  C174  1  0.01131000  0.87825000  0.12769000  1.0
  C  C175  1  0.98869000  0.62175000  0.62769000  1.0
  C  C176  1  0.12769000  0.51131000  0.37824000  1.0
  C  C177  1  0.37231000  0.01131000  0.62176000  1.0
  C  C178  1  0.87824000  0.37231000  0.48869000  1.0
  C  C179  1  0.37825000  0.62769000  0.01131000  1.0
  C  C180  1  0.96114000  0.72146000  0.12443000  1.0
  C  C181  1  0.52854000  0.21114000  0.37443000  1.0
  C  C182  1  0.03886000  0.77854000  0.62443000  1.0
  C  C183  1  0.47146000  0.28886000  0.87443000  1.0
  C  C184  1  0.87443000  0.97146000  0.78886000  1.0
  C  C185  1  0.53887000  0.22145000  0.87557000  1.0
  C  C186  1  0.62557000  0.47146000  0.21114000  1.0
  C  C187  1  0.71114000  0.87443000  0.52854000  1.0
  C  C188  1  0.46114000  0.27854000  0.37557000  1.0
  C  C189  1  0.21114000  0.12556000  0.97146000  1.0
  C  C190  1  0.27855000  0.12443000  0.03886000  1.0
  C  C191  1  0.87557000  0.03886000  0.72146000  1.0
  C  C192  1  0.12443000  0.46114000  0.22146000  1.0
  C  C193  1  0.22146000  0.62443000  0.96114000  1.0
  C  C194  1  0.37557000  0.96113000  0.77855000  1.0
  C  C195  1  0.72146000  0.37557000  0.53886000  1.0
  C  C196  1  0.77854000  0.87557000  0.46114000  1.0
  C  C197  1  0.62443000  0.53886000  0.27854000  1.0
  C  C198  1  0.02854000  0.78886000  0.12557000  1.0
  C  C199  1  0.97146000  0.71114000  0.62557000  1.0
  C  C200  1  0.12557000  0.52854000  0.28886000  1.0
  C  C201  1  0.37444000  0.02854000  0.71114000  1.0
  C  C202  1  0.78886000  0.37443000  0.47146000  1.0
  C  C203  1  0.28886000  0.62557000  0.02854000  1.0
  C  C204  1  0.81282000  0.66984000  0.11927000  1.0
  C  C205  1  0.58016000  0.06282000  0.36927000  1.0
  C  C206  1  0.18718000  0.83016000  0.61927000  1.0
  C  C207  1  0.41985000  0.43718000  0.86927000  1.0
  C  C208  1  0.86927000  0.91984000  0.93718000  1.0
  C  C209  1  0.68718000  0.16984000  0.88073000  1.0
  C  C210  1  0.63073000  0.41984000  0.06282000  1.0
  C  C211  1  0.56282000  0.86927000  0.58016000  1.0
  C  C212  1  0.31282000  0.33016000  0.38073000  1.0
  C  C213  1  0.06282000  0.13073000  0.91985000  1.0
  C  C214  1  0.33016000  0.11927000  0.18718000  1.0
  C  C215  1  0.88073000  0.18718000  0.66985000  1.0
  C  C216  1  0.11927000  0.31282000  0.16984000  1.0
  C  C217  1  0.16984000  0.61927000  0.81282000  1.0
  C  C218  1  0.38073000  0.81282000  0.83016000  1.0
  C  C219  1  0.66984000  0.38073000  0.68718000  1.0
  C  C220  1  0.83015000  0.88073000  0.31282000  1.0
  C  C221  1  0.61927000  0.68718000  0.33016000  1.0
  C  C222  1  0.08016000  0.93718000  0.13073000  1.0
  C  C223  1  0.91984000  0.56282000  0.63073000  1.0
  C  C224  1  0.13073000  0.58016000  0.43718000  1.0
  C  C225  1  0.36927000  0.08016000  0.56282000  1.0
  C  C226  1  0.93718000  0.36927000  0.41984000  1.0
  C  C227  1  0.43718000  0.63073000  0.08015000  1.0
  C  C228  1  0.76167000  0.98833000  0.12500000  1.0
  C  C229  1  0.26168000  0.01166000  0.37500000  1.0
  C  C230  1  0.23833000  0.51167000  0.62500000  1.0
  C  C231  1  0.73832000  0.48833000  0.87500000  1.0
  C  C232  1  0.87500000  0.23833000  0.98833000  1.0
  C  C233  1  0.62500000  0.73833000  0.01167000  1.0
  C  C234  1  0.51168000  0.87500000  0.26167000  1.0
  C  C235  1  0.01166000  0.12500000  0.23832000  1.0
  C  C236  1  0.12500000  0.26167000  0.48833000  1.0
  C  C237  1  0.48834000  0.62500000  0.76168000  1.0
  C  C238  1  0.37500000  0.76168000  0.51167000  1.0
  C  C239  1  0.98833000  0.37500000  0.73833000  1.0
  C  C240  1  0.68971000  0.06028000  0.12500000  1.0
  C  C241  1  0.18972000  0.93970000  0.37500000  1.0
  C  C242  1  0.31029000  0.43971000  0.62500000  1.0
  C  C243  1  0.81028000  0.56029000  0.87500000  1.0
  C  C244  1  0.87500000  0.31028000  0.06029000  1.0
  C  C245  1  0.62500000  0.81029000  0.93971000  1.0
  C  C246  1  0.43972000  0.87500000  0.18971000  1.0
  C  C247  1  0.93971000  0.12500000  0.31028000  1.0
  C  C248  1  0.12500000  0.18972000  0.56028000  1.0
  C  C249  1  0.56030000  0.62500000  0.68972000  1.0
  C  C250  1  0.37500000  0.68972000  0.43971000  1.0
  C  C251  1  0.06028000  0.37500000  0.81029000  1.0
  N  N252  1  0.99186000  0.63758000  0.12431000  1.0
  N  N253  1  0.61242000  0.24186000  0.37431000  1.0
  N  N254  1  0.00814000  0.86242000  0.62431000  1.0
  N  N255  1  0.38758000  0.25814000  0.87431000  1.0
  N  N256  1  0.87431000  0.88758000  0.75814000  1.0
  N  N257  1  0.50814000  0.13758000  0.87569000  1.0
  N  N258  1  0.62569000  0.38758000  0.24186000  1.0
  N  N259  1  0.74186000  0.87431000  0.61242000  1.0
  N  N260  1  0.49186000  0.36242000  0.37569000  1.0
  N  N261  1  0.24186000  0.12569000  0.88758000  1.0
  N  N262  1  0.36243000  0.12431000  0.00814000  1.0
  N  N263  1  0.87569000  0.00814000  0.63758000  1.0
  N  N264  1  0.12431000  0.49186000  0.13758000  1.0
  N  N265  1  0.13758000  0.62431000  0.99186000  1.0
  N  N266  1  0.37570000  0.99186000  0.86242000  1.0
  N  N267  1  0.63758000  0.37569000  0.50814000  1.0
  N  N268  1  0.86242000  0.87569000  0.49186000  1.0
  N  N269  1  0.62431000  0.50814000  0.36242000  1.0
  N  N270  1  0.11242000  0.75814000  0.12569000  1.0
  N  N271  1  0.88757000  0.74186000  0.62569000  1.0
  N  N272  1  0.12569000  0.61242000  0.25814000  1.0
  N  N273  1  0.37431000  0.11242000  0.74186000  1.0
  N  N274  1  0.75814000  0.37431000  0.38758000  1.0
  N  N275  1  0.25814000  0.62569000  0.11242000  1.0
  O  O276  1  0.61241000  0.03643000  0.10840000  1.0
  O  O277  1  0.21357000  0.86241000  0.35840000  1.0
  O  O278  1  0.38759000  0.46357000  0.60840000  1.0
  O  O279  1  0.78643000  0.63759000  0.85841000  1.0
  O  O280  1  0.85840000  0.28643000  0.13759000  1.0
  O  O281  1  0.88758000  0.53644000  0.89160000  1.0
  O  O282  1  0.64159000  0.78644000  0.86241000  1.0
  O  O283  1  0.36242000  0.85841000  0.21356000  1.0
  O  O284  1  0.11242000  0.96356000  0.39159000  1.0
  O  O285  1  0.86241000  0.14160000  0.28643000  1.0
  O  O286  1  0.96356000  0.10841000  0.38758000  1.0
  O  O287  1  0.89159000  0.38758000  0.03644000  1.0
  O  O288  1  0.10840000  0.11242000  0.53643000  1.0
  O  O289  1  0.53644000  0.60841000  0.61242000  1.0
  O  O290  1  0.39160000  0.61242000  0.46356000  1.0
  O  O291  1  0.03643000  0.39160000  0.88759000  1.0
  O  O292  1  0.46357000  0.89160000  0.11241000  1.0
  O  O293  1  0.60841000  0.88759000  0.96356000  1.0
  O  O294  1  0.71356000  0.13758000  0.14159000  1.0
  O  O295  1  0.28644000  0.36242000  0.64159000  1.0
  O  O296  1  0.14160000  0.21357000  0.63758000  1.0
  O  O297  1  0.35841000  0.71357000  0.36241000  1.0
  O  O298  1  0.13758000  0.35841000  0.78643000  1.0
  O  O299  1  0.63759000  0.64160000  0.71357000  1.0
  O  O300  1  0.73784000  0.91004000  0.11404000  1.0
  O  O301  1  0.33996000  0.98784000  0.36405000  1.0
  O  O302  1  0.26216000  0.58996000  0.61404000  1.0
  O  O303  1  0.66004000  0.51216000  0.86405000  1.0
  O  O304  1  0.86405000  0.16004000  0.01216000  1.0
  O  O305  1  0.76215000  0.41005000  0.88596000  1.0
  O  O306  1  0.63595000  0.66004000  0.98784000  1.0
  O  O307  1  0.48785000  0.86405000  0.33996000  1.0
  O  O308  1  0.23784000  0.08995000  0.38595000  1.0
  O  O309  1  0.98784000  0.13595000  0.16004000  1.0
  O  O310  1  0.08995000  0.11404000  0.26215000  1.0
  O  O311  1  0.88595000  0.26216000  0.91005000  1.0
  O  O312  1  0.11404000  0.23784000  0.41004000  1.0
  O  O313  1  0.41005000  0.61404000  0.73785000  1.0
  O  O314  1  0.38596000  0.73785000  0.58995000  1.0
  O  O315  1  0.91004000  0.38595000  0.76216000  1.0
  O  O316  1  0.58996000  0.88596000  0.23784000  1.0
  O  O317  1  0.61404000  0.76216000  0.08996000  1.0
  O  O318  1  0.83996000  0.01216000  0.13595000  1.0
  O  O319  1  0.16005000  0.48785000  0.63595000  1.0
  O  O320  1  0.13595000  0.33996000  0.51215000  1.0
  O  O321  1  0.36405000  0.83996000  0.48784000  1.0
  O  O322  1  0.01216000  0.36405000  0.66004000  1.0
  O  O323  1  0.51216000  0.63595000  0.83996000  1.0
