# generated using pymatgen
data_CdH12C15N3O7
_symmetry_space_group_name_H-M   'P 1'
_cell_length_a   7.43723000
_cell_length_b   9.91850000
_cell_length_c   11.58310000
_cell_angle_alpha   90.55560000
_cell_angle_beta   93.27270000
_cell_angle_gamma   106.88700000
_symmetry_Int_Tables_number   1
_chemical_formula_structural   CdH12C15N3O7
_chemical_formula_sum   'Cd2 H24 C30 N6 O14'
_cell_volume   815.95466032
_cell_formula_units_Z   2
loop_
 _symmetry_equiv_pos_site_id
 _symmetry_equiv_pos_as_xyz
  1  'x, y, z'
loop_
 _atom_site_type_symbol
 _atom_site_label
 _atom_site_symmetry_multiplicity
 _atom_site_fract_x
 _atom_site_fract_y
 _atom_site_fract_z
 _atom_site_occupancy
  Cd  Cd0  1  0.98285000  0.28480000  0.45463000  1.0
  Cd  Cd1  1  0.01715000  0.71520000  0.54537000  1.0
  H  H2  1  0.23507000  0.09872000  0.44608000  1.0
  H  H3  1  0.76494000  0.90127000  0.55392000  1.0
  H  H4  1  0.30440000  0.22867000  0.36085000  1.0
  H  H5  1  0.69561000  0.77133000  0.63915000  1.0
  H  H6  1  0.47357000  0.80896000  0.46883000  1.0
  H  H7  1  0.52642000  0.19104000  0.53117000  1.0
  H  H8  1  0.62790000  0.99037000  0.13897000  1.0
  H  H9  1  0.37210000  0.00963000  0.86103000  1.0
  H  H10  1  0.25394000  0.56797000  0.15585000  1.0
  H  H11  1  0.74606000  0.43202000  0.84415000  1.0
  H  H12  1  0.89717000  0.06700000  0.68496000  1.0
  H  H13  1  0.10285000  0.93300000  0.31504000  1.0
  H  H14  1  0.25927000  0.48263000  0.68036000  1.0
  H  H15  1  0.74073000  0.51738000  0.31965000  1.0
  H  H16  1  0.26350000  0.38819000  0.90413000  1.0
  H  H17  1  0.73649000  0.61182000  0.09588000  1.0
  H  H18  1  0.19357000  0.35023000  0.09176000  1.0
  H  H19  1  0.80642000  0.64977000  0.90824000  1.0
  H  H20  1  0.96874000  0.29494000  0.14796000  1.0
  H  H21  1  0.03125000  0.70506000  0.85204000  1.0
  H  H22  1  0.99196000  0.35366000  0.00350000  1.0
  H  H23  1  0.00803000  0.64634000  0.99650000  1.0
  H  H24  1  0.01908000  0.92893000  0.79790000  1.0
  H  H25  1  0.98093000  0.07107000  0.20210000  1.0
  C  C26  1  0.69966000  0.04160000  0.37172000  1.0
  C  C27  1  0.30034000  0.95840000  0.62828000  1.0
  C  C28  1  0.23746000  0.55968000  0.39000000  1.0
  C  C29  1  0.76254000  0.44032000  0.61001000  1.0
  C  C30  1  0.34872000  0.67814000  0.31979000  1.0
  C  C31  1  0.65128000  0.32186000  0.68021000  1.0
  C  C32  1  0.46476000  0.80126000  0.37488000  1.0
  C  C33  1  0.53524000  0.19874000  0.62512000  1.0
  C  C34  1  0.56665000  0.91391000  0.31099000  1.0
  C  C35  1  0.43335000  0.08609000  0.68901000  1.0
  C  C36  1  0.55164000  0.90359000  0.19015000  1.0
  C  C37  1  0.44836000  0.09641000  0.80985000  1.0
  C  C38  1  0.44182000  0.77754000  0.13685000  1.0
  C  C39  1  0.55817000  0.22246000  0.86315000  1.0
  C  C40  1  0.33867000  0.66504000  0.19931000  1.0
  C  C41  1  0.66133000  0.33496000  0.80068000  1.0
  C  C42  1  0.99603000  0.16746000  0.71217000  1.0
  C  C43  1  0.00398000  0.83254000  0.28784000  1.0
  C  C44  1  0.18555000  0.38198000  0.71497000  1.0
  C  C45  1  0.81445000  0.61803000  0.28503000  1.0
  C  C46  1  0.18698000  0.33632000  0.82617000  1.0
  C  C47  1  0.81303000  0.66368000  0.17383000  1.0
  C  C48  1  0.03139000  0.10157000  0.91563000  1.0
  C  C49  1  0.96861000  0.89842000  0.08436000  1.0
  C  C50  1  0.02295000  0.14487000  0.03066000  1.0
  C  C51  1  0.97705000  0.85513000  0.96934000  1.0
  C  C52  1  0.04444000  0.29388000  0.06973000  1.0
  C  C53  1  0.95555000  0.70612000  0.93027000  1.0
  C  C54  1  0.00845000  0.96011000  0.88703000  1.0
  C  C55  1  0.99155000  0.03989000  0.11296000  1.0
  N  N56  1  0.06597000  0.27576000  0.64497000  1.0
  N  N57  1  0.93403000  0.72424000  0.35504000  1.0
  N  N58  1  0.06579000  0.19952000  0.82383000  1.0
  N  N59  1  0.93421000  0.80048000  0.17617000  1.0
  N  N60  1  0.44749000  0.75802000  0.01104000  1.0
  N  N61  1  0.55250000  0.24198000  0.98896000  1.0
  O  O62  1  0.16214000  0.44188000  0.33671000  1.0
  O  O63  1  0.83787000  0.55811000  0.66330000  1.0
  O  O64  1  0.19350000  0.16119000  0.38860000  1.0
  O  O65  1  0.80651000  0.83881000  0.61139000  1.0
  O  O66  1  0.22338000  0.58231000  0.49705000  1.0
  O  O67  1  0.77661000  0.41770000  0.50296000  1.0
  O  O68  1  0.76152000  0.15303000  0.31495000  1.0
  O  O69  1  0.23848000  0.84698000  0.68505000  1.0
  O  O70  1  0.36265000  0.64001000  0.96704000  1.0
  O  O71  1  0.63733000  0.35999000  0.03295000  1.0
  O  O72  1  0.54183000  0.85796000  0.95629000  1.0
  O  O73  1  0.45817000  0.14203000  0.04370000  1.0
  O  O74  1  0.75035000  0.03323000  0.47814000  1.0
  O  O75  1  0.24966000  0.96677000  0.52186000  1.0
