# generated using pymatgen
data_CdH15C12N4ClO5
_symmetry_space_group_name_H-M   'P 1'
_cell_length_a   8.96846000
_cell_length_b   9.61854000
_cell_length_c   10.03510000
_cell_angle_alpha   76.70200000
_cell_angle_beta   66.53700000
_cell_angle_gamma   89.36500000
_symmetry_Int_Tables_number   1
_chemical_formula_structural   CdH15C12N4ClO5
_chemical_formula_sum   'Cd2 H30 C24 N8 Cl2 O10'
_cell_volume   769.64724619
_cell_formula_units_Z   2
loop_
 _symmetry_equiv_pos_site_id
 _symmetry_equiv_pos_as_xyz
  1  'x, y, z'
loop_
 _atom_site_type_symbol
 _atom_site_label
 _atom_site_symmetry_multiplicity
 _atom_site_fract_x
 _atom_site_fract_y
 _atom_site_fract_z
 _atom_site_occupancy
  Cd  Cd0  1  0.50102000  0.35982000  0.28502000  1.0
  Cd  Cd1  1  0.49898000  0.64019000  0.71497000  1.0
  H  H2  1  0.81542000  0.05784000  0.30618000  1.0
  H  H3  1  0.18458000  0.94215000  0.69382000  1.0
  H  H4  1  0.19213000  0.39511000  0.85256000  1.0
  H  H5  1  0.80787000  0.60489000  0.14743000  1.0
  H  H6  1  0.98933000  0.27119000  0.14664000  1.0
  H  H7  1  0.01067000  0.72881000  0.85335000  1.0
  H  H8  1  0.52522000  0.70436000  0.32568000  1.0
  H  H9  1  0.47478000  0.29565000  0.67432000  1.0
  H  H10  1  0.12739000  0.39852000  0.39586000  1.0
  H  H11  1  0.87261000  0.60147000  0.60414000  1.0
  H  H12  1  0.97773000  0.51237000  0.37101000  1.0
  H  H13  1  0.02227000  0.48762000  0.62899000  1.0
  H  H14  1  0.17104000  0.78622000  0.00286000  1.0
  H  H15  1  0.82896000  0.21377000  0.99714000  1.0
  H  H16  1  0.35280000  0.90068000  0.90186000  1.0
  H  H17  1  0.64720000  0.09933000  0.09814000  1.0
  H  H18  1  0.24324000  0.04820000  0.10485000  1.0
  H  H19  1  0.75676000  0.95179000  0.89516000  1.0
  H  H20  1  0.14843000  0.05888000  0.98206000  1.0
  H  H21  1  0.85156000  0.94111000  0.01796000  1.0
  H  H22  1  0.42714000  0.94002000  0.17378000  1.0
  H  H23  1  0.57286000  0.05998000  0.82621000  1.0
  H  H24  1  0.86268000  0.27294000  0.54737000  1.0
  H  H25  1  0.13732000  0.72706000  0.45262000  1.0
  H  H26  1  0.96530000  0.18572000  0.40497000  1.0
  H  H27  1  0.03470000  0.81428000  0.59502000  1.0
  H  H28  1  0.30121000  0.43029000  0.56907000  1.0
  H  H29  1  0.69879000  0.56971000  0.43093000  1.0
  H  H30  1  0.22367000  0.27249000  0.58902000  1.0
  H  H31  1  0.77633000  0.72751000  0.41098000  1.0
  C  C32  1  0.18450000  0.42201000  0.95389000  1.0
  C  C33  1  0.81550000  0.57800000  0.04611000  1.0
  C  C34  1  0.08145000  0.36065000  0.09978000  1.0
  C  C35  1  0.91855000  0.63936000  0.90021000  1.0
  C  C36  1  0.24322000  0.53659000  0.09271000  1.0
  C  C37  1  0.75679000  0.46341000  0.90729000  1.0
  C  C38  1  0.45765000  0.70850000  0.25602000  1.0
  C  C39  1  0.54235000  0.29151000  0.74398000  1.0
  C  C40  1  0.32244000  0.62942000  0.14559000  1.0
  C  C41  1  0.67757000  0.37058000  0.85441000  1.0
  C  C42  1  0.03433000  0.41322000  0.34993000  1.0
  C  C43  1  0.96568000  0.58678000  0.65007000  1.0
  C  C44  1  0.25491000  0.86017000  0.01405000  1.0
  C  C45  1  0.74508000  0.13983000  0.98596000  1.0
  C  C46  1  0.16775000  0.98373000  0.07274000  1.0
  C  C47  1  0.83224000  0.01627000  0.92727000  1.0
  C  C48  1  0.00607000  0.94186000  0.20653000  1.0
  C  C49  1  0.99391000  0.05813000  0.79350000  1.0
  C  C50  1  0.41284000  0.82684000  0.17843000  1.0
  C  C51  1  0.58716000  0.17316000  0.82157000  1.0
  C  C52  1  0.75924000  0.29534000  0.38780000  1.0
  C  C53  1  0.24075000  0.70466000  0.61221000  1.0
  C  C54  1  0.90792000  0.28429000  0.42576000  1.0
  C  C55  1  0.09208000  0.71571000  0.57423000  1.0
  N  N56  1  0.28398000  0.53203000  0.94976000  1.0
  N  N57  1  0.71602000  0.46798000  0.05024000  1.0
  N  N58  1  0.11789000  0.43409000  0.18661000  1.0
  N  N59  1  0.88211000  0.56592000  0.81339000  1.0
  N  N60  1  0.40059000  0.58616000  0.23548000  1.0
  N  N61  1  0.59941000  0.41384000  0.76452000  1.0
  N  N62  1  0.32675000  0.77549000  0.11015000  1.0
  N  N63  1  0.67325000  0.22451000  0.88986000  1.0
  Cl  Cl64  1  0.34387000  0.16667000  0.25905000  1.0
  Cl  Cl65  1  0.65614000  0.83333000  0.74094000  1.0
  O  O66  1  0.96751000  0.82335000  0.29651000  1.0
  O  O67  1  0.03250000  0.17664000  0.70351000  1.0
  O  O68  1  0.91306000  0.05105000  0.21188000  1.0
  O  O69  1  0.08693000  0.94894000  0.78813000  1.0
  O  O70  1  0.32535000  0.33746000  0.54006000  1.0
  O  O71  1  0.67465000  0.66255000  0.45993000  1.0
  O  O72  1  0.69722000  0.18590000  0.37139000  1.0
  O  O73  1  0.30278000  0.81410000  0.62860000  1.0
  O  O74  1  0.69899000  0.41676000  0.37378000  1.0
  O  O75  1  0.30102000  0.58324000  0.62622000  1.0
