# generated using pymatgen
data_Zn2H36C41(N2O3)4
_symmetry_space_group_name_H-M   'P 1'
_cell_length_a   9.11906000
_cell_length_b   13.68550000
_cell_length_c   20.53040000
_cell_angle_alpha   86.09750000
_cell_angle_beta   78.21060000
_cell_angle_gamma   70.55600000
_symmetry_Int_Tables_number   1
_chemical_formula_structural   Zn2H36C41(N2O3)4
_chemical_formula_sum   'Zn4 H72 C82 N16 O24'
_cell_volume   2365.07774877
_cell_formula_units_Z   2
loop_
 _symmetry_equiv_pos_site_id
 _symmetry_equiv_pos_as_xyz
  1  'x, y, z'
loop_
 _atom_site_type_symbol
 _atom_site_label
 _atom_site_symmetry_multiplicity
 _atom_site_fract_x
 _atom_site_fract_y
 _atom_site_fract_z
 _atom_site_occupancy
  Zn  Zn0  1  0.35263000  0.75767000  0.51361000  1.0
  Zn  Zn1  1  0.88961000  0.75764000  0.98640000  1.0
  Zn  Zn2  1  0.64738000  0.24233000  0.48639000  1.0
  Zn  Zn3  1  0.11039000  0.24236000  0.01361000  1.0
  H  H4  1  0.97092000  0.30546000  0.82841000  1.0
  H  H5  1  0.99768000  0.38565000  0.75723000  1.0
  H  H6  1  0.21781000  0.50321000  0.55279000  1.0
  H  H7  1  0.61734000  0.66522000  0.31127000  1.0
  H  H8  1  0.03148000  0.41172000  0.87792000  1.0
  H  H9  1  0.61070000  0.74994000  0.91726000  1.0
  H  H10  1  0.57109000  0.61852000  0.85018000  1.0
  H  H11  1  0.84335000  0.01227000  0.63307000  1.0
  H  H12  1  0.01790000  0.85730000  0.56434000  1.0
  H  H13  1  0.26242000  0.09788000  0.62842000  1.0
  H  H14  1  0.41618000  0.94253000  0.55960000  1.0
  H  H15  1  0.04457000  0.26471000  0.66135000  1.0
  H  H16  1  0.09580000  0.17438000  0.72763000  1.0
  H  H17  1  0.05061000  0.55164000  0.94249000  1.0
  H  H18  1  0.84035000  0.74508000  0.45061000  1.0
  H  H19  1  0.71493000  0.68194000  0.43359000  1.0
  H  H20  1  0.42641000  0.01373000  0.36760000  1.0
  H  H21  1  0.48453000  0.07808000  0.29695000  1.0
  H  H22  1  0.72342000  0.30546000  0.67148000  1.0
  H  H23  1  0.61677000  0.38581000  0.74261000  1.0
  H  H24  1  0.27912000  0.50297000  0.94718000  1.0
  H  H25  1  0.71680000  0.66523000  0.18872000  1.0
  H  H26  1  0.55690000  0.41172000  0.62184000  1.0
  H  H27  1  0.63938000  0.75009000  0.58270000  1.0
  H  H28  1  0.81044000  0.61860000  0.64971000  1.0
  H  H29  1  0.14359000  0.01261000  0.86689000  1.0
  H  H30  1  0.12421000  0.85760000  0.93565000  1.0
  H  H31  1  0.63903000  0.09789000  0.87162000  1.0
  H  H32  1  0.64075000  0.94257000  0.94050000  1.0
  H  H33  1  0.69022000  0.26501000  0.83849000  1.0
  H  H34  1  0.72936000  0.17452000  0.77230000  1.0
  H  H35  1  0.39791000  0.55168000  0.55731000  1.0
  H  H36  1  0.41456000  0.74514000  0.04927000  1.0
  H  H37  1  0.60297000  0.68204000  0.06639000  1.0
  H  H38  1  0.55993000  0.01378000  0.13244000  1.0
  H  H39  1  0.43738000  0.07809000  0.20307000  1.0
  H  H40  1  0.02909000  0.69453000  0.17159000  1.0
  H  H41  1  0.00232000  0.61435000  0.24277000  1.0
  H  H42  1  0.78219000  0.49679000  0.44721000  1.0
  H  H43  1  0.38267000  0.33478000  0.68873000  1.0
  H  H44  1  0.96852000  0.58828000  0.12208000  1.0
  H  H45  1  0.38930000  0.25006000  0.08274000  1.0
  H  H46  1  0.42891000  0.38148000  0.14982000  1.0
  H  H47  1  0.15665000  0.98773000  0.36693000  1.0
  H  H48  1  0.98210000  0.14270000  0.43566000  1.0
  H  H49  1  0.73758000  0.90212000  0.37158000  1.0
  H  H50  1  0.58382000  0.05747000  0.44039000  1.0
  H  H51  1  0.95543000  0.73529000  0.33865000  1.0
  H  H52  1  0.90420000  0.82562000  0.27237000  1.0
  H  H53  1  0.94939000  0.44836000  0.05751000  1.0
  H  H54  1  0.15965000  0.25492000  0.54939000  1.0
  H  H55  1  0.28507000  0.31806000  0.56641000  1.0
  H  H56  1  0.57359000  0.98628000  0.63240000  1.0
  H  H57  1  0.51547000  0.92192000  0.70305000  1.0
  H  H58  1  0.27658000  0.69454000  0.32852000  1.0
  H  H59  1  0.38323000  0.61419000  0.25739000  1.0
  H  H60  1  0.72088000  0.49703000  0.05281000  1.0
  H  H61  1  0.28321000  0.33477000  0.81128000  1.0
  H  H62  1  0.44310000  0.58828000  0.37816000  1.0
  H  H63  1  0.36062000  0.24991000  0.41730000  1.0
  H  H64  1  0.18955000  0.38140000  0.35029000  1.0
  H  H65  1  0.85640000  0.98739000  0.13311000  1.0
  H  H66  1  0.87579000  0.14240000  0.06435000  1.0
  H  H67  1  0.36096000  0.90211000  0.12838000  1.0
  H  H68  1  0.35925000  0.05743000  0.05950000  1.0
  H  H69  1  0.30977000  0.73499000  0.16151000  1.0
  H  H70  1  0.27064000  0.82548000  0.22770000  1.0
  H  H71  1  0.60209000  0.44832000  0.44269000  1.0
  H  H72  1  0.58544000  0.25486000  0.95073000  1.0
  H  H73  1  0.39703000  0.31796000  0.93361000  1.0
  H  H74  1  0.44008000  0.98623000  0.86756000  1.0
  H  H75  1  0.56262000  0.92191000  0.79693000  1.0
  C  C76  1  0.80025000  0.50572000  0.85625000  1.0
  C  C77  1  0.91336000  0.35308000  0.78958000  1.0
  C  C78  1  0.12190000  0.50100000  0.52952000  1.0
  C  C79  1  0.08744000  0.68565000  0.49918000  1.0
  C  C80  1  0.60284000  0.73769000  0.28388000  1.0
  C  C81  1  0.93679000  0.48612000  0.88308000  1.0
  C  C82  1  0.70224000  0.67471000  0.90632000  1.0
  C  C83  1  0.47549000  0.82993000  0.39334000  1.0
  C  C84  1  0.03928000  0.06660000  0.63735000  1.0
  C  C85  1  0.03904000  0.59157000  0.49921000  1.0
  C  C86  1  0.91192000  0.59170000  0.46888000  1.0
  C  C87  1  0.52936000  0.83164000  0.31971000  1.0
  C  C88  1  0.68008000  0.60214000  0.86901000  1.0
  C  C89  1  0.97045000  0.99785000  0.61851000  1.0
  C  C90  1  0.06647000  0.91150000  0.58150000  1.0
  C  C91  1  0.20300000  0.04633000  0.61666000  1.0
  C  C92  1  0.28997000  0.95840000  0.57879000  1.0
  C  C93  1  0.00002000  0.21814000  0.70149000  1.0
  C  C94  1  0.94730000  0.56314000  0.92042000  1.0
  C  C95  1  0.51127000  0.92660000  0.28534000  1.0
  C  C96  1  0.69419000  0.50572000  0.64354000  1.0
  C  C97  1  0.73355000  0.35313000  0.71023000  1.0
  C  C98  1  0.37716000  0.50093000  0.97046000  1.0
  C  C99  1  0.22703000  0.68565000  0.00070000  1.0
  C  C100  1  0.65897000  0.73770000  0.21612000  1.0
  C  C101  1  0.57722000  0.48614000  0.61671000  1.0
  C  C102  1  0.62313000  0.67481000  0.59358000  1.0
  C  C103  1  0.69440000  0.82995000  0.10667000  1.0
  C  C104  1  0.89341000  0.06677000  0.86265000  1.0
  C  C105  1  0.36940000  0.59153000  0.00075000  1.0
  C  C106  1  0.49635000  0.59173000  0.03108000  1.0
  C  C107  1  0.63871000  0.83166000  0.18029000  1.0
  C  C108  1  0.71786000  0.60220000  0.63086000  1.0
  C  C109  1  0.03101000  0.99808000  0.88146000  1.0
  C  C110  1  0.02140000  0.91173000  0.91850000  1.0
  C  C111  1  0.75003000  0.04640000  0.88336000  1.0
  C  C112  1  0.75106000  0.95846000  0.92126000  1.0
  C  C113  1  0.78138000  0.21831000  0.79843000  1.0
  C  C114  1  0.48968000  0.56319000  0.57942000  1.0
  C  C115  1  0.56197000  0.92662000  0.21467000  1.0
  C  C116  1  0.19975000  0.49428000  0.14375000  1.0
  C  C117  1  0.08664000  0.64691000  0.21042000  1.0
  C  C118  1  0.87810000  0.49900000  0.47048000  1.0
  C  C119  1  0.91256000  0.31435000  0.50082000  1.0
  C  C120  1  0.39716000  0.26231000  0.71612000  1.0
  C  C121  1  0.06321000  0.51387000  0.11692000  1.0
  C  C122  1  0.29775000  0.32529000  0.09368000  1.0
  C  C123  1  0.52452000  0.17007000  0.60665000  1.0
  C  C124  1  0.96072000  0.93340000  0.36265000  1.0
  C  C125  1  0.96096000  0.40844000  0.50079000  1.0
  C  C126  1  0.08808000  0.40830000  0.53112000  1.0
  C  C127  1  0.47064000  0.16836000  0.68028000  1.0
  C  C128  1  0.31993000  0.39785000  0.13099000  1.0
  C  C129  1  0.02955000  0.00215000  0.38149000  1.0
  C  C130  1  0.93353000  0.08850000  0.41850000  1.0
  C  C131  1  0.79700000  0.95367000  0.38334000  1.0
  C  C132  1  0.71003000  0.04160000  0.42121000  1.0
  C  C133  1  0.99998000  0.78185000  0.29851000  1.0
  C  C134  1  0.05270000  0.43686000  0.07959000  1.0
  C  C135  1  0.48873000  0.07340000  0.71466000  1.0
  C  C136  1  0.30581000  0.49428000  0.35646000  1.0
  C  C137  1  0.26645000  0.64687000  0.28977000  1.0
  C  C138  1  0.62285000  0.49907000  0.02954000  1.0
  C  C139  1  0.77296000  0.31435000  0.99930000  1.0
  C  C140  1  0.34103000  0.26230000  0.78388000  1.0
  C  C141  1  0.42278000  0.51386000  0.38329000  1.0
  C  C142  1  0.37686000  0.32520000  0.40642000  1.0
  C  C143  1  0.30560000  0.17005000  0.89333000  1.0
  C  C144  1  0.10659000  0.93323000  0.13735000  1.0
  C  C145  1  0.63061000  0.40846000  0.99925000  1.0
  C  C146  1  0.50365000  0.40826000  0.96892000  1.0
  C  C147  1  0.36129000  0.16834000  0.81970000  1.0
  C  C148  1  0.28214000  0.39780000  0.36914000  1.0
  C  C149  1  0.96899000  0.00192000  0.11854000  1.0
  C  C150  1  0.97859000  0.08827000  0.08150000  1.0
  C  C151  1  0.24996000  0.95360000  0.11665000  1.0
  C  C152  1  0.24894000  0.04154000  0.07874000  1.0
  C  C153  1  0.21862000  0.78169000  0.20157000  1.0
  C  C154  1  0.51031000  0.43681000  0.42058000  1.0
  C  C155  1  0.43803000  0.07338000  0.78533000  1.0
  C  C156  1  0.85658000  0.28671000  0.74992000  1.0
  C  C157  1  0.14343000  0.71329000  0.25008000  1.0
  N  N158  1  0.83450000  0.65701000  0.93172000  1.0
  N  N159  1  0.22509000  0.89072000  0.56200000  1.0
  N  N160  1  0.82593000  0.67846000  0.43762000  1.0
  N  N161  1  0.43876000  0.02180000  0.31680000  1.0
  N  N162  1  0.50859000  0.65710000  0.56817000  1.0
  N  N163  1  0.88364000  0.89085000  0.93804000  1.0
  N  N164  1  0.49550000  0.67853000  0.06234000  1.0
  N  N165  1  0.53943000  0.02183000  0.18323000  1.0
  N  N166  1  0.16550000  0.34299000  0.06828000  1.0
  N  N167  1  0.77492000  0.10928000  0.43800000  1.0
  N  N168  1  0.17407000  0.32155000  0.56238000  1.0
  N  N169  1  0.56124000  0.97820000  0.68320000  1.0
  N  N170  1  0.49141000  0.34290000  0.43183000  1.0
  N  N171  1  0.11635000  0.10915000  0.06196000  1.0
  N  N172  1  0.50450000  0.32147000  0.93766000  1.0
  N  N173  1  0.46057000  0.97817000  0.81676000  1.0
  O  O174  1  0.21660000  0.67075000  0.52154000  1.0
  O  O175  1  0.00646000  0.77185000  0.47912000  1.0
  O  O176  1  0.77587000  0.43746000  0.81893000  1.0
  O  O177  1  0.46740000  0.74173000  0.41948000  1.0
  O  O178  1  0.94006000  0.14777000  0.67450000  1.0
  O  O179  1  0.44133000  0.90970000  0.42817000  1.0
  O  O180  1  0.11254000  0.67074000  0.97850000  1.0
  O  O181  1  0.22212000  0.77192000  0.02053000  1.0
  O  O182  1  0.78690000  0.43741000  0.68080000  1.0
  O  O183  1  0.79071000  0.74178000  0.08054000  1.0
  O  O184  1  0.91149000  0.14797000  0.82552000  1.0
  O  O185  1  0.64887000  0.90973000  0.07185000  1.0
  O  O186  1  0.78339000  0.32926000  0.47846000  1.0
  O  O187  1  0.99354000  0.22815000  0.52088000  1.0
  O  O188  1  0.22413000  0.56254000  0.18107000  1.0
  O  O189  1  0.53261000  0.25827000  0.58052000  1.0
  O  O190  1  0.05994000  0.85223000  0.32550000  1.0
  O  O191  1  0.55867000  0.09030000  0.57183000  1.0
  O  O192  1  0.88746000  0.32926000  0.02150000  1.0
  O  O193  1  0.77787000  0.22807000  0.97948000  1.0
  O  O194  1  0.21309000  0.56260000  0.31920000  1.0
  O  O195  1  0.20929000  0.25822000  0.91946000  1.0
  O  O196  1  0.08851000  0.85203000  0.17448000  1.0
  O  O197  1  0.35114000  0.09027000  0.92815000  1.0
