# generated using pymatgen
data_ZnH20C20S2(NO2)2
_symmetry_space_group_name_H-M   'P 1'
_cell_length_a   9.23495000
_cell_length_b   9.23491000
_cell_length_c   15.41560000
_cell_angle_alpha   97.54100000
_cell_angle_beta   97.54140000
_cell_angle_gamma   106.29900000
_symmetry_Int_Tables_number   1
_chemical_formula_structural   ZnH20C20S2(NO2)2
_chemical_formula_sum   'Zn2 H40 C40 S4 N4 O8'
_cell_volume   1231.28132162
_cell_formula_units_Z   2
loop_
 _symmetry_equiv_pos_site_id
 _symmetry_equiv_pos_as_xyz
  1  'x, y, z'
loop_
 _atom_site_type_symbol
 _atom_site_label
 _atom_site_symmetry_multiplicity
 _atom_site_fract_x
 _atom_site_fract_y
 _atom_site_fract_z
 _atom_site_occupancy
  Zn  Zn0  1  0.67288000  0.32712000  0.25000000  1.0
  Zn  Zn1  1  0.32712000  0.67288000  0.75000000  1.0
  H  H2  1  0.42659000  0.67028000  0.18015000  1.0
  H  H3  1  0.32973000  0.57341000  0.31985000  1.0
  H  H4  1  0.57340000  0.32972000  0.81985000  1.0
  H  H5  1  0.67028000  0.42659000  0.68015000  1.0
  H  H6  1  0.37231000  0.61780000  0.06268000  1.0
  H  H7  1  0.38222000  0.62768000  0.43733000  1.0
  H  H8  1  0.62767000  0.38221000  0.93733000  1.0
  H  H9  1  0.61779000  0.37232000  0.56267000  1.0
  H  H10  1  0.56841000  0.71457000  0.11276000  1.0
  H  H11  1  0.28544000  0.43158000  0.38724000  1.0
  H  H12  1  0.43158000  0.28543000  0.88724000  1.0
  H  H13  1  0.71457000  0.56842000  0.61276000  1.0
  H  H14  1  0.32161000  0.94593000  0.06380000  1.0
  H  H15  1  0.05407000  0.67839000  0.43620000  1.0
  H  H16  1  0.67839000  0.05407000  0.93620000  1.0
  H  H17  1  0.94592000  0.32160000  0.56381000  1.0
  H  H18  1  0.27086000  0.03815000  0.97432000  1.0
  H  H19  1  0.96185000  0.72914000  0.52568000  1.0
  H  H20  1  0.72913000  0.96184000  0.02568000  1.0
  H  H21  1  0.03815000  0.27085000  0.47433000  1.0
  H  H22  1  0.17274000  0.03497000  0.06514000  1.0
  H  H23  1  0.96503000  0.82726000  0.43485000  1.0
  H  H24  1  0.82726000  0.96502000  0.93486000  1.0
  H  H25  1  0.03498000  0.17273000  0.56515000  1.0
  H  H26  1  0.22328000  0.32210000  0.20401000  1.0
  H  H27  1  0.67790000  0.77672000  0.29599000  1.0
  H  H28  1  0.77672000  0.67791000  0.79599000  1.0
  H  H29  1  0.32210000  0.22328000  0.70401000  1.0
  H  H30  1  0.00830000  0.31732000  0.28775000  1.0
  H  H31  1  0.68268000  0.99169000  0.21225000  1.0
  H  H32  1  0.99169000  0.68269000  0.71225000  1.0
  H  H33  1  0.31732000  0.00831000  0.78775000  1.0
  H  H34  1  0.71613000  0.32800000  0.06300000  1.0
  H  H35  1  0.67201000  0.28387000  0.43700000  1.0
  H  H36  1  0.28387000  0.67199000  0.93700000  1.0
  H  H37  1  0.32799000  0.71613000  0.56300000  1.0
  H  H38  1  0.91672000  0.33421000  0.96867000  1.0
  H  H39  1  0.66579000  0.08328000  0.53133000  1.0
  H  H40  1  0.08328000  0.66579000  0.03132000  1.0
  H  H41  1  0.33420000  0.91672000  0.46867000  1.0
  C  C42  1  0.46255000  0.62866000  0.11879000  1.0
  C  C43  1  0.37135000  0.53744000  0.38122000  1.0
  C  C44  1  0.53744000  0.37134000  0.88121000  1.0
  C  C45  1  0.62866000  0.46256000  0.61878000  1.0
  C  C46  1  0.49707000  0.47997000  0.12833000  1.0
  C  C47  1  0.52004000  0.50293000  0.37167000  1.0
  C  C48  1  0.50292000  0.52003000  0.87167000  1.0
  C  C49  1  0.47997000  0.49707000  0.62834000  1.0
  C  C50  1  0.39014000  0.33540000  0.08461000  1.0
  C  C51  1  0.66462000  0.60987000  0.41539000  1.0
  C  C52  1  0.60986000  0.66460000  0.91538000  1.0
  C  C53  1  0.33539000  0.39014000  0.58461000  1.0
  C  C54  1  0.40572000  0.18863000  0.09633000  1.0
  C  C55  1  0.81138000  0.59428000  0.40367000  1.0
  C  C56  1  0.59427000  0.81138000  0.90367000  1.0
  C  C57  1  0.18862000  0.40571000  0.59633000  1.0
  C  C58  1  0.28552000  0.04337000  0.04666000  1.0
  C  C59  1  0.95664000  0.71448000  0.45334000  1.0
  C  C60  1  0.71447000  0.95663000  0.95334000  1.0
  C  C61  1  0.04337000  0.28551000  0.54666000  1.0
  C  C62  1  0.08750000  0.32846000  0.07868000  1.0
  C  C63  1  0.67155000  0.91250000  0.42132000  1.0
  C  C64  1  0.91250000  0.67154000  0.92132000  1.0
  C  C65  1  0.32845000  0.08749000  0.57868000  1.0
  C  C66  1  0.11235000  0.32302000  0.16997000  1.0
  C  C67  1  0.67698000  0.88764000  0.33003000  1.0
  C  C68  1  0.88765000  0.67698000  0.83002000  1.0
  C  C69  1  0.32302000  0.11235000  0.66997000  1.0
  C  C70  1  0.99296000  0.31973000  0.21662000  1.0
  C  C71  1  0.68027000  0.00705000  0.28338000  1.0
  C  C72  1  0.00705000  0.68027000  0.78338000  1.0
  C  C73  1  0.31974000  0.99296000  0.71662000  1.0
  C  C74  1  0.82998000  0.32623000  0.09123000  1.0
  C  C75  1  0.67378000  0.17003000  0.40877000  1.0
  C  C76  1  0.17003000  0.67377000  0.90877000  1.0
  C  C77  1  0.32622000  0.82997000  0.59123000  1.0
  C  C78  1  0.94180000  0.32993000  0.03922000  1.0
  C  C79  1  0.67008000  0.05820000  0.46077000  1.0
  C  C80  1  0.05819000  0.67007000  0.96077000  1.0
  C  C81  1  0.32992000  0.94180000  0.53923000  1.0
  S  S82  1  0.22654000  0.33461000  0.01135000  1.0
  S  S83  1  0.66539000  0.77347000  0.48865000  1.0
  S  S84  1  0.77346000  0.66538000  0.98865000  1.0
  S  S85  1  0.33461000  0.22654000  0.51135000  1.0
  N  N86  1  0.85352000  0.32094000  0.17873000  1.0
  N  N87  1  0.67907000  0.14649000  0.32127000  1.0
  N  N88  1  0.14648000  0.67906000  0.82127000  1.0
  N  N89  1  0.32094000  0.85351000  0.67873000  1.0
  O  O90  1  0.62304000  0.49467000  0.17807000  1.0
  O  O91  1  0.50534000  0.37696000  0.32193000  1.0
  O  O92  1  0.37696000  0.50533000  0.82193000  1.0
  O  O93  1  0.49467000  0.62304000  0.67807000  1.0
  O  O94  1  0.51515000  0.16893000  0.14760000  1.0
  O  O95  1  0.83107000  0.48485000  0.35240000  1.0
  O  O96  1  0.48484000  0.83108000  0.85240000  1.0
  O  O97  1  0.16893000  0.51515000  0.64760000  1.0
