# generated using pymatgen
data_HgH10C12N2(ClO2)2
_symmetry_space_group_name_H-M   'P 1'
_cell_length_a   3.86196000
_cell_length_b   6.29973000
_cell_length_c   14.64680000
_cell_angle_alpha   98.25110000
_cell_angle_beta   96.09470000
_cell_angle_gamma   95.60310000
_symmetry_Int_Tables_number   1
_chemical_formula_structural   HgH10C12N2(ClO2)2
_chemical_formula_sum   'Hg1 H10 C12 N2 Cl2 O4'
_cell_volume   348.35006188
_cell_formula_units_Z   1
loop_
 _symmetry_equiv_pos_site_id
 _symmetry_equiv_pos_as_xyz
  1  'x, y, z'
loop_
 _atom_site_type_symbol
 _atom_site_label
 _atom_site_symmetry_multiplicity
 _atom_site_fract_x
 _atom_site_fract_y
 _atom_site_fract_z
 _atom_site_occupancy
  Hg  Hg0  1  0.50005000  0.00002000  0.50000000  1.0
  H  H1  1  0.68966000  0.52232000  0.38759000  1.0
  H  H2  1  0.31036000  0.47771000  0.61241000  1.0
  H  H3  1  0.71253000  0.31980000  0.22839000  1.0
  H  H4  1  0.28744000  0.68022000  0.77162000  1.0
  H  H5  1  0.48324000  0.48030000  0.08937000  1.0
  H  H6  1  0.51670000  0.51967000  0.91063000  1.0
  H  H7  1  0.23577000  0.01749000  0.28129000  1.0
  H  H8  1  0.76422000  0.98251000  0.71871000  1.0
  H  H9  1  0.10889000  0.85323000  0.96396000  1.0
  H  H10  1  0.89109000  0.14675000  0.03604000  1.0
  C  C11  1  0.59079000  0.58498000  0.32543000  1.0
  C  C12  1  0.40923000  0.41502000  0.67457000  1.0
  C  C13  1  0.60288000  0.47326000  0.23648000  1.0
  C  C14  1  0.39711000  0.52673000  0.76352000  1.0
  C  C15  1  0.47705000  0.56262000  0.15975000  1.0
  C  C16  1  0.52294000  0.43736000  0.84026000  1.0
  C  C17  1  0.34182000  0.76188000  0.17469000  1.0
  C  C18  1  0.65817000  0.23811000  0.82531000  1.0
  C  C19  1  0.19644000  0.86838000  0.09802000  1.0
  C  C20  1  0.80352000  0.13163000  0.90198000  1.0
  C  C21  1  0.33989000  0.86291000  0.26622000  1.0
  C  C22  1  0.66011000  0.13710000  0.73377000  1.0
  N  N23  1  0.46162000  0.77598000  0.33943000  1.0
  N  N24  1  0.53840000  0.22404000  0.66057000  1.0
  Cl  Cl25  1  0.91507000  0.76305000  0.56491000  1.0
  Cl  Cl26  1  0.08499000  0.23698000  0.43509000  1.0
  O  O27  1  0.05426000  0.03789000  0.11353000  1.0
  O  O28  1  0.94576000  0.96207000  0.88646000  1.0
  O  O29  1  0.22603000  0.77126000  0.01344000  1.0
  O  O30  1  0.77394000  0.22871000  0.98656000  1.0
