# generated using pymatgen
data_SmH19C32N4O5
_symmetry_space_group_name_H-M   'P 1'
_cell_length_a   8.72125000
_cell_length_b   8.72125000
_cell_length_c   17.31750000
_cell_angle_alpha   92.26510000
_cell_angle_beta   92.26520000
_cell_angle_gamma   105.94700000
_symmetry_Int_Tables_number   1
_chemical_formula_structural   SmH19C32N4O5
_chemical_formula_sum   'Sm2 H38 C64 N8 O10'
_cell_volume   1263.75193813
_cell_formula_units_Z   2
loop_
 _symmetry_equiv_pos_site_id
 _symmetry_equiv_pos_as_xyz
  1  'x, y, z'
loop_
 _atom_site_type_symbol
 _atom_site_label
 _atom_site_symmetry_multiplicity
 _atom_site_fract_x
 _atom_site_fract_y
 _atom_site_fract_z
 _atom_site_occupancy
  Sm  Sm0  1  0.70790000  0.29210000  0.25000000  1.0
  Sm  Sm1  1  0.29210000  0.70790000  0.75000000  1.0
  H  H2  1  0.24417000  0.75583000  0.25000000  1.0
  H  H3  1  0.75583000  0.24417000  0.75000000  1.0
  H  H4  1  0.77535000  0.82531000  0.21556000  1.0
  H  H5  1  0.17469000  0.22465000  0.28444000  1.0
  H  H6  1  0.22465000  0.17469000  0.78444000  1.0
  H  H7  1  0.82531000  0.77535000  0.71556000  1.0
  H  H8  1  0.58299000  0.64132000  0.25564000  1.0
  H  H9  1  0.35868000  0.41701000  0.24436000  1.0
  H  H10  1  0.41701000  0.35868000  0.74436000  1.0
  H  H11  1  0.64132000  0.58300000  0.75564000  1.0
  H  H12  1  0.52872000  0.85483000  0.34025000  1.0
  H  H13  1  0.14517000  0.47129000  0.15975000  1.0
  H  H14  1  0.47128000  0.14517000  0.65975000  1.0
  H  H15  1  0.85483000  0.52871000  0.84025000  1.0
  H  H16  1  0.58655000  0.85470000  0.48497000  1.0
  H  H17  1  0.14529000  0.41346000  0.01504000  1.0
  H  H18  1  0.41346000  0.14529000  0.51504000  1.0
  H  H19  1  0.85470000  0.58654000  0.98496000  1.0
  H  H20  1  0.68914000  0.73140000  0.59479000  1.0
  H  H21  1  0.26859000  0.31087000  0.90521000  1.0
  H  H22  1  0.31087000  0.26860000  0.40521000  1.0
  H  H23  1  0.73140000  0.68914000  0.09479000  1.0
  H  H24  1  0.81746000  0.52700000  0.64251000  1.0
  H  H25  1  0.47299000  0.18254000  0.85749000  1.0
  H  H26  1  0.18254000  0.47299000  0.35749000  1.0
  H  H27  1  0.52701000  0.81746000  0.14251000  1.0
  H  H28  1  0.89706000  0.28145000  0.61832000  1.0
  H  H29  1  0.71854000  0.10294000  0.88168000  1.0
  H  H30  1  0.10294000  0.71854000  0.38168000  1.0
  H  H31  1  0.28146000  0.89706000  0.11832000  1.0
  H  H32  1  0.92180000  0.06424000  0.52398000  1.0
  H  H33  1  0.93575000  0.07820000  0.97601000  1.0
  H  H34  1  0.07820000  0.93575000  0.47602000  1.0
  H  H35  1  0.06425000  0.92180000  0.02399000  1.0
  H  H36  1  0.85269000  0.08298000  0.38299000  1.0
  H  H37  1  0.91702000  0.14731000  0.11700000  1.0
  H  H38  1  0.14731000  0.91702000  0.61700000  1.0
  H  H39  1  0.08298000  0.85269000  0.88300000  1.0
  C  C40  1  0.00110000  0.77195000  0.23391000  1.0
  C  C41  1  0.22805000  0.99890000  0.26609000  1.0
  C  C42  1  0.99890000  0.22805000  0.76609000  1.0
  C  C43  1  0.77195000  0.00110000  0.73391000  1.0
  C  C44  1  0.16592000  0.83408000  0.25000000  1.0
  C  C45  1  0.83407000  0.16592000  0.75000000  1.0
  C  C46  1  0.90205000  0.87353000  0.23063000  1.0
  C  C47  1  0.12647000  0.09795000  0.26937000  1.0
  C  C48  1  0.09795000  0.12647000  0.76937000  1.0
  C  C49  1  0.87353000  0.90205000  0.73063000  1.0
  C  C50  1  0.96113000  0.03887000  0.25000000  1.0
  C  C51  1  0.03887000  0.96113000  0.75000000  1.0
  C  C52  1  0.92400000  0.59619000  0.22525000  1.0
  C  C53  1  0.40381000  0.07600000  0.27475000  1.0
  C  C54  1  0.07599000  0.40381000  0.77475000  1.0
  C  C55  1  0.59619000  0.92401000  0.72525000  1.0
  C  C56  1  0.60612000  0.64361000  0.31803000  1.0
  C  C57  1  0.35640000  0.39388000  0.18197000  1.0
  C  C58  1  0.39388000  0.35639000  0.68197000  1.0
  C  C59  1  0.64360000  0.60612000  0.81803000  1.0
  C  C60  1  0.57502000  0.76384000  0.36634000  1.0
  C  C61  1  0.23616000  0.42499000  0.13367000  1.0
  C  C62  1  0.42498000  0.23615000  0.63366000  1.0
  C  C63  1  0.76384000  0.57501000  0.86634000  1.0
  C  C64  1  0.60855000  0.76414000  0.44491000  1.0
  C  C65  1  0.23585000  0.39146000  0.05509000  1.0
  C  C66  1  0.39146000  0.23585000  0.55509000  1.0
  C  C67  1  0.76415000  0.60855000  0.94491000  1.0
  C  C68  1  0.67362000  0.64547000  0.47435000  1.0
  C  C69  1  0.35453000  0.32639000  0.02565000  1.0
  C  C70  1  0.32639000  0.35454000  0.52565000  1.0
  C  C71  1  0.64547000  0.67362000  0.97435000  1.0
  C  C72  1  0.71458000  0.64245000  0.55495000  1.0
  C  C73  1  0.35754000  0.28542000  0.94505000  1.0
  C  C74  1  0.28543000  0.35755000  0.44505000  1.0
  C  C75  1  0.64246000  0.71458000  0.05495000  1.0
  C  C76  1  0.78057000  0.52844000  0.58163000  1.0
  C  C77  1  0.47155000  0.21942000  0.91837000  1.0
  C  C78  1  0.21943000  0.47155000  0.41837000  1.0
  C  C79  1  0.52845000  0.78058000  0.08163000  1.0
  C  C80  1  0.80459000  0.40600000  0.52999000  1.0
  C  C81  1  0.59399000  0.19541000  0.97000000  1.0
  C  C82  1  0.19541000  0.59400000  0.47000000  1.0
  C  C83  1  0.40601000  0.80460000  0.03000000  1.0
  C  C84  1  0.86481000  0.28204000  0.55687000  1.0
  C  C85  1  0.71794000  0.13518000  0.94312000  1.0
  C  C86  1  0.13519000  0.71794000  0.44312000  1.0
  C  C87  1  0.28205000  0.86482000  0.05688000  1.0
  C  C88  1  0.87942000  0.16355000  0.50480000  1.0
  C  C89  1  0.83644000  0.12058000  0.99520000  1.0
  C  C90  1  0.12058000  0.83644000  0.49520000  1.0
  C  C91  1  0.16356000  0.87942000  0.00480000  1.0
  C  C92  1  0.83896000  0.17232000  0.42596000  1.0
  C  C93  1  0.82768000  0.16104000  0.07403000  1.0
  C  C94  1  0.16104000  0.82768000  0.57403000  1.0
  C  C95  1  0.17232000  0.83896000  0.92597000  1.0
  C  C96  1  0.76398000  0.40394000  0.44944000  1.0
  C  C97  1  0.59606000  0.23603000  0.05055000  1.0
  C  C98  1  0.23603000  0.59606000  0.55056000  1.0
  C  C99  1  0.40393000  0.76397000  0.94945000  1.0
  C  C100  1  0.69982000  0.52805000  0.42077000  1.0
  C  C101  1  0.47194000  0.30019000  0.07924000  1.0
  C  C102  1  0.30019000  0.47195000  0.57923000  1.0
  C  C103  1  0.52806000  0.69981000  0.92077000  1.0
  N  N104  1  0.66610000  0.52884000  0.34348000  1.0
  N  N105  1  0.47116000  0.33391000  0.15652000  1.0
  N  N106  1  0.33391000  0.47116000  0.65652000  1.0
  N  N107  1  0.52884000  0.66610000  0.84348000  1.0
  N  N108  1  0.78362000  0.28861000  0.39857000  1.0
  N  N109  1  0.71139000  0.21639000  0.10142000  1.0
  N  N110  1  0.21639000  0.71139000  0.60143000  1.0
  N  N111  1  0.28860000  0.78361000  0.89858000  1.0
  O  O112  1  0.79249000  0.54481000  0.18440000  1.0
  O  O113  1  0.45519000  0.20751000  0.31560000  1.0
  O  O114  1  0.20751000  0.45519000  0.81560000  1.0
  O  O115  1  0.54480000  0.79249000  0.68440000  1.0
  O  O116  1  0.98343000  0.50066000  0.26250000  1.0
  O  O117  1  0.49934000  0.01657000  0.23750000  1.0
  O  O118  1  0.01657000  0.49934000  0.73750000  1.0
  O  O119  1  0.50067000  0.98343000  0.76250000  1.0
  O  O120  1  0.86694000  0.13306000  0.25000000  1.0
  O  O121  1  0.13306000  0.86694000  0.75000000  1.0
