# generated using pymatgen
data_CdH24C33(N4O3)2
_symmetry_space_group_name_H-M   'P 1'
_cell_length_a   10.77070000
_cell_length_b   13.16793512
_cell_length_c   15.91240000
_cell_angle_alpha   90.65482106
_cell_angle_beta   90.93710000
_cell_angle_gamma   112.46605258
_symmetry_Int_Tables_number   1
_chemical_formula_structural   CdH24C33(N4O3)2
_chemical_formula_sum   'Cd2 H48 C66 N16 O12'
_cell_volume   2084.88230078
_cell_formula_units_Z   2
loop_
 _symmetry_equiv_pos_site_id
 _symmetry_equiv_pos_as_xyz
  1  'x, y, z'
loop_
 _atom_site_type_symbol
 _atom_site_label
 _atom_site_symmetry_multiplicity
 _atom_site_fract_x
 _atom_site_fract_y
 _atom_site_fract_z
 _atom_site_occupancy
  Cd  Cd0  1  0.39669000  0.01991000  0.74190000  1.0
  Cd  Cd1  1  0.60331000  0.98009000  0.25810000  1.0
  H  H2  1  0.26476000  0.77417000  0.66948000  1.0
  H  H3  1  0.73523000  0.22583000  0.33052000  1.0
  H  H4  1  0.18342000  0.66884000  0.53391000  1.0
  H  H5  1  0.81657000  0.33116000  0.46609000  1.0
  H  H6  1  0.32521000  0.97890000  0.40649000  1.0
  H  H7  1  0.67479000  0.02109000  0.59351000  1.0
  H  H8  1  0.39979000  0.07247000  0.54788000  1.0
  H  H9  1  0.60021000  0.92753000  0.45212000  1.0
  H  H10  1  0.22955000  0.81254000  0.32222000  1.0
  H  H11  1  0.77045000  0.18747000  0.67778000  1.0
  H  H12  1  0.88715000  0.56133000  0.40731000  1.0
  H  H13  1  0.11285000  0.43867000  0.59269000  1.0
  H  H14  1  0.64829000  0.43501000  0.38479000  1.0
  H  H15  1  0.35170000  0.56499000  0.61520000  1.0
  H  H16  1  0.57312000  0.33447000  0.24896000  1.0
  H  H17  1  0.42687000  0.66552000  0.75104000  1.0
  H  H18  1  0.96341000  0.45930000  0.07690000  1.0
  H  H19  1  0.03659000  0.54070000  0.92310000  1.0
  H  H20  1  0.20407000  0.57573000  0.10326000  1.0
  H  H21  1  0.79593000  0.42427000  0.89674000  1.0
  H  H22  1  0.28130000  0.67157000  0.24254000  1.0
  H  H23  1  0.71870000  0.32844000  0.75746000  1.0
  H  H24  1  0.52397000  0.32728000  0.12353000  1.0
  H  H25  1  0.47604000  0.67272000  0.87647000  1.0
  H  H26  1  0.75689000  0.25360000  0.97763000  1.0
  H  H27  1  0.24312000  0.74640000  0.02237000  1.0
  H  H28  1  0.66760000  0.13235000  0.84947000  1.0
  H  H29  1  0.33240000  0.86765000  0.15053000  1.0
  H  H30  1  0.27557000  0.08989000  0.90167000  1.0
  H  H31  1  0.72443000  0.91011000  0.09833000  1.0
  H  H32  1  0.34779000  0.20651000  0.03285000  1.0
  H  H33  1  0.65222000  0.79349000  0.96714000  1.0
  H  H34  1  0.24725000  0.83930000  0.88327000  1.0
  H  H35  1  0.75275000  0.16070000  0.11673000  1.0
  H  H36  1  0.01723000  0.70680000  0.92001000  1.0
  H  H37  1  0.98277000  0.29320000  0.07999000  1.0
  H  H38  1  0.85701000  0.84868000  0.72390000  1.0
  H  H39  1  0.14300000  0.15133000  0.27610000  1.0
  H  H40  1  0.09337000  0.97833000  0.69694000  1.0
  H  H41  1  0.90663000  0.02167000  0.30306000  1.0
  H  H42  1  0.70335000  0.69233000  0.79564000  1.0
  H  H43  1  0.29665000  0.30767000  0.20436000  1.0
  H  H44  1  0.58663000  0.49771000  0.78200000  1.0
  H  H45  1  0.41337000  0.50229000  0.21800000  1.0
  H  H46  1  0.75078000  0.64738000  0.05672000  1.0
  H  H47  1  0.24922000  0.35262000  0.94328000  1.0
  H  H48  1  0.35029000  0.37312000  0.80126000  1.0
  H  H49  1  0.64971000  0.62688000  0.19874000  1.0
  C  C50  1  0.27493000  0.81640000  0.60985000  1.0
  C  C51  1  0.72506000  0.18360000  0.39015000  1.0
  C  C52  1  0.23035000  0.75824000  0.53482000  1.0
  C  C53  1  0.76964000  0.24176000  0.46518000  1.0
  C  C54  1  0.24693000  0.81629000  0.45958000  1.0
  C  C55  1  0.75306000  0.18371000  0.54042000  1.0
  C  C56  1  0.30906000  0.93127000  0.46379000  1.0
  C  C57  1  0.69094000  0.06873000  0.53621000  1.0
  C  C58  1  0.35041000  0.98329000  0.54165000  1.0
  C  C59  1  0.64959000  0.01671000  0.45835000  1.0
  C  C60  1  0.19986000  0.76083000  0.37811000  1.0
  C  C61  1  0.80014000  0.23917000  0.62189000  1.0
  C  C62  1  0.08438000  0.60764000  0.29452000  1.0
  C  C63  1  0.91561000  0.39236000  0.70548000  1.0
  C  C64  1  0.94622000  0.53564000  0.28234000  1.0
  C  C65  1  0.05379000  0.46436000  0.71766000  1.0
  C  C66  1  0.85225333  0.51892000  0.34712000  1.0
  C  C67  1  0.14769000  0.48108000  0.65288000  1.0
  C  C68  1  0.71976000  0.44870000  0.33426000  1.0
  C  C69  1  0.28024000  0.55130000  0.66574000  1.0
  C  C70  1  0.67627000  0.39342000  0.25674000  1.0
  C  C71  1  0.32373000  0.60658000  0.74326000  1.0
  C  C72  1  0.76475000  0.40947000  0.19044000  1.0
  C  C73  1  0.23525000  0.59053000  0.80956000  1.0
  C  C74  1  0.90313000  0.48163000  0.20228000  1.0
  C  C75  1  0.09687000  0.51837000  0.79772000  1.0
  C  C76  1  0.99784000  0.50003000  0.13768000  1.0
  C  C77  1  0.00216000  0.49997000  0.86232000  1.0
  C  C78  1  0.13131000  0.56640000  0.15233000  1.0
  C  C79  1  0.86869000  0.43360000  0.84767000  1.0
  C  C80  1  0.17538000  0.62105000  0.23036000  1.0
  C  C81  1  0.82461000  0.37895000  0.76964000  1.0
  C  C82  1  0.60333000  0.31180000  0.08968000  1.0
  C  C83  1  0.39667000  0.68820000  0.91032000  1.0
  C  C84  1  0.55921000  0.24064000  0.01518000  1.0
  C  C85  1  0.44078000  0.75936000  0.98481000  1.0
  C  C86  1  0.64955000  0.21749000  0.96306000  1.0
  C  C87  1  0.35045000  0.78251000  0.03694000  1.0
  C  C88  1  0.60076000  0.15106000  0.89223000  1.0
  C  C89  1  0.39923000  0.84893000  0.10777000  1.0
  C  C90  1  0.38115000  0.12686000  0.92146000  1.0
  C  C91  1  0.61885000  0.87314000  0.07854000  1.0
  C  C92  1  0.42182000  0.19222000  0.99372000  1.0
  C  C93  1  0.57818000  0.80777000  0.00628000  1.0
  C  C94  1  0.15785000  0.83984000  0.85052000  1.0
  C  C95  1  0.84215000  0.16016000  0.14948000  1.0
  C  C96  1  0.03071000  0.76594000  0.87038000  1.0
  C  C97  1  0.96929000  0.23406000  0.12962000  1.0
  C  C98  1  0.91906000  0.76642000  0.82388000  1.0
  C  C99  1  0.08094000  0.23358000  0.17612000  1.0
  C  C100  1  0.94132000  0.84374000  0.75998000  1.0
  C  C101  1  0.05868000  0.15626000  0.24002000  1.0
  C  C102  1  0.07180000  0.91598000  0.74515000  1.0
  C  C103  1  0.92820000  0.08402000  0.25485000  1.0
  C  C104  1  0.78200000  0.68962000  0.83963000  1.0
  C  C105  1  0.21800000  0.31038000  0.16037000  1.0
  C  C106  1  0.62208000  0.55066000  0.91191000  1.0
  C  C107  1  0.37792000  0.44934000  0.08809000  1.0
  C  C108  1  0.54351000  0.49023000  0.84426000  1.0
  C  C109  1  0.45648000  0.50976000  0.15574000  1.0
  C  C110  1  0.56863000  0.53604000  0.99498000  1.0
  C  C111  1  0.43137000  0.46396000  0.00502000  1.0
  C  C112  1  0.64632000  0.59366000  0.06576000  1.0
  C  C113  1  0.35368000  0.40633000  0.93424000  1.0
  C  C114  1  0.40949000  0.41829000  0.85561000  1.0
  C  C115  1  0.59051000  0.58171000  0.14439000  1.0
  N  N116  1  0.33392000  0.92728000  0.61355000  1.0
  N  N117  1  0.66608000  0.07272000  0.38645000  1.0
  N  N118  1  0.12382000  0.65834000  0.37333000  1.0
  N  N119  1  0.87618000  0.34166000  0.62667000  1.0
  N  N120  1  0.72766000  0.35249000  0.11376000  1.0
  N  N121  1  0.27234000  0.64751000  0.88624000  1.0
  N  N122  1  0.46869000  0.10691000  0.87111000  1.0
  N  N123  1  0.53130000  0.89308000  0.12889000  1.0
  N  N124  1  0.17867000  0.91384000  0.78906000  1.0
  N  N125  1  0.82133000  0.08616000  0.21094000  1.0
  N  N126  1  0.75422000  0.62515000  0.90282000  1.0
  N  N127  1  0.24578000  0.37485000  0.09718000  1.0
  N  N128  1  0.57910000  0.90549000  0.76624000  1.0
  N  N129  1  0.42090000  0.09451000  0.23377000  1.0
  N  N130  1  0.41488000  0.22995000  0.68194000  1.0
  N  N131  1  0.58513000  0.77005000  0.31807000  1.0
  O  O132  1  0.45778000  0.86608000  0.79130000  1.0
  O  O133  1  0.54222000  0.13392000  0.20870000  1.0
  O  O134  1  0.62231000  0.00097000  0.73343000  1.0
  O  O135  1  0.37769000  0.99903000  0.26657000  1.0
  O  O136  1  0.65257000  0.85211000  0.77344000  1.0
  O  O137  1  0.34743000  0.14789000  0.22657000  1.0
  O  O138  1  0.30236000  0.16423000  0.71020000  1.0
  O  O139  1  0.69765000  0.83577000  0.28980000  1.0
  O  O140  1  0.51016000  0.19269000  0.67572000  1.0
  O  O141  1  0.48987000  0.80733000  0.32429000  1.0
  O  O142  1  0.43368000  0.32507000  0.66155000  1.0
  O  O143  1  0.56632000  0.67493000  0.33846000  1.0
