# generated using pymatgen
data_Cu4H8C21N8
_symmetry_space_group_name_H-M   'P 1'
_cell_length_a   28.12350000
_cell_length_b   28.13630000
_cell_length_c   28.13526751
_cell_angle_alpha   109.31836299
_cell_angle_beta   109.51664982
_cell_angle_gamma   109.57600000
_symmetry_Int_Tables_number   1
_chemical_formula_structural   Cu4H8C21N8
_chemical_formula_sum   'Cu24 H48 C126 N48'
_cell_volume   17138.70109740
_cell_formula_units_Z   6
loop_
 _symmetry_equiv_pos_site_id
 _symmetry_equiv_pos_as_xyz
  1  'x, y, z'
loop_
 _atom_site_type_symbol
 _atom_site_label
 _atom_site_symmetry_multiplicity
 _atom_site_fract_x
 _atom_site_fract_y
 _atom_site_fract_z
 _atom_site_occupancy
  Cu  Cu0  1  0.62122000  0.54462000  0.56969000  1.0
  Cu  Cu1  1  0.57007000  0.62359000  0.54311000  1.0
  Cu  Cu2  1  0.54330000  0.57124000  0.62224000  1.0
  Cu  Cu3  1  0.87871000  0.94873000  0.42333000  1.0
  Cu  Cu4  1  0.93021000  0.97306000  0.55330000  1.0
  Cu  Cu5  1  0.95693000  0.07902000  0.52808000  1.0
  Cu  Cu6  1  0.52507000  0.95492000  0.07685000  1.0
  Cu  Cu7  1  0.41938000  0.87675000  0.94668000  1.0
  Cu  Cu8  1  0.55083000  0.92914000  0.97237000  1.0
  Cu  Cu9  1  0.97465000  0.55119000  0.93035000  1.0
  Cu  Cu10  1  0.08028000  0.52669000  0.95703000  1.0
  Cu  Cu11  1  0.94898000  0.42093000  0.87794000  1.0
  Cu  Cu12  1  0.12237000  0.07112000  0.04597000  1.0
  Cu  Cu13  1  0.07008000  0.04297000  0.12379000  1.0
  Cu  Cu14  1  0.04354000  0.12246000  0.07192000  1.0
  Cu  Cu15  1  0.37771000  0.92335000  0.44888000  1.0
  Cu  Cu16  1  0.43017000  0.05346000  0.47295000  1.0
  Cu  Cu17  1  0.45673000  0.02810000  0.57893000  1.0
  Cu  Cu18  1  0.02550000  0.57649000  0.45374000  1.0
  Cu  Cu19  1  0.91955000  0.44639000  0.37627000  1.0
  Cu  Cu20  1  0.05107000  0.47185000  0.42849000  1.0
  Cu  Cu21  1  0.47456000  0.42984000  0.05080000  1.0
  Cu  Cu22  1  0.58047000  0.45713000  0.02660000  1.0
  Cu  Cu23  1  0.44900000  0.37738000  0.92058000  1.0
  H  H24  1  0.69067000  0.54436000  0.50092000  1.0
  H  H25  1  0.62149000  0.65241000  0.46432000  1.0
  H  H26  1  0.54480000  0.50213000  0.69245000  1.0
  H  H27  1  0.65101000  0.46642000  0.62020000  1.0
  H  H28  1  0.50140000  0.69327000  0.54415000  1.0
  H  H29  1  0.46505000  0.62213000  0.65112000  1.0
  H  H30  1  0.80916000  0.81066000  0.35336000  1.0
  H  H31  1  0.87891000  0.84283000  0.53045000  1.0
  H  H32  1  0.95558000  0.14795000  0.45776000  1.0
  H  H33  1  0.84891000  0.96964000  0.31560000  1.0
  H  H34  1  0.99898000  0.04237000  0.69165000  1.0
  H  H35  1  0.03528000  0.18597000  0.65729000  1.0
  H  H36  1  0.45662000  0.95467000  0.14646000  1.0
  H  H37  1  0.31187000  0.84814000  0.96927000  1.0
  H  H38  1  0.69027000  0.99850000  0.04295000  1.0
  H  H39  1  0.65378000  0.03275000  0.18488000  1.0
  H  H40  1  0.35061000  0.80750000  0.80841000  1.0
  H  H41  1  0.52881000  0.87864000  0.84322000  1.0
  H  H42  1  0.04294000  0.68922000  0.99892000  1.0
  H  H43  1  0.18777000  0.65684000  0.03540000  1.0
  H  H44  1  0.80971000  0.35211000  0.80731000  1.0
  H  H45  1  0.84597000  0.53044000  0.87985000  1.0
  H  H46  1  0.14914000  0.45717000  0.95647000  1.0
  H  H47  1  0.97097000  0.31381000  0.84929000  1.0
  H  H48  1  0.19199000  0.00260000  0.04561000  1.0
  H  H49  1  0.12069000  0.96341000  0.15144000  1.0
  H  H50  1  0.04420000  0.19223000  0.00228000  1.0
  H  H51  1  0.15227000  0.12205000  0.96801000  1.0
  H  H52  1  0.00092000  0.04314000  0.19303000  1.0
  H  H53  1  0.96488000  0.15063000  0.12259000  1.0
  H  H54  1  0.30788000  0.85334000  0.31082000  1.0
  H  H55  1  0.37932000  0.03037000  0.34270000  1.0
  H  H56  1  0.45610000  0.95797000  0.64814000  1.0
  H  H57  1  0.34781000  0.81553000  0.47003000  1.0
  H  H58  1  0.49972000  0.19189000  0.54234000  1.0
  H  H59  1  0.53564000  0.15731000  0.68575000  1.0
  H  H60  1  0.95731000  0.64642000  0.45350000  1.0
  H  H61  1  0.81221000  0.46934000  0.34824000  1.0
  H  H62  1  0.19050000  0.54224000  0.49843000  1.0
  H  H63  1  0.15442000  0.68441000  0.53187000  1.0
  H  H64  1  0.85064000  0.30796000  0.30759000  1.0
  H  H65  1  0.02874000  0.34267000  0.37835000  1.0
  H  H66  1  0.54287000  0.49879000  0.18897000  1.0
  H  H67  1  0.68784000  0.53635000  0.15671000  1.0
  H  H68  1  0.30956000  0.30698000  0.85161000  1.0
  H  H69  1  0.34562000  0.37912000  0.02984000  1.0
  H  H70  1  0.64948000  0.45661000  0.95724000  1.0
  H  H71  1  0.47148000  0.34878000  0.81375000  1.0
  C  C72  1  0.66903000  0.56956000  0.49764000  1.0
  C  C73  1  0.66817000  0.60126000  0.46805000  1.0
  C  C74  1  0.63355000  0.62490000  0.47894000  1.0
  C  C75  1  0.56939000  0.49912000  0.67008000  1.0
  C  C76  1  0.60116000  0.46972000  0.66838000  1.0
  C  C77  1  0.62381000  0.48079000  0.63309000  1.0
  C  C78  1  0.49820000  0.67118000  0.56903000  1.0
  C  C79  1  0.46859000  0.66970000  0.60063000  1.0
  C  C80  1  0.47959000  0.63473000  0.62381000  1.0
  C  C81  1  0.83092000  0.82889000  0.40018000  1.0
  C  C82  1  0.83197000  0.80009000  0.43266000  1.0
  C  C83  1  0.86670000  0.84548000  0.49093000  1.0
  C  C84  1  0.93087000  0.10102000  0.43007000  1.0
  C  C85  1  0.89903000  0.06763000  0.36891000  1.0
  C  C86  1  0.87623000  0.00970000  0.35721000  1.0
  C  C87  1  0.00216000  0.07054000  0.67287000  1.0
  C  C88  1  0.03174000  0.13175000  0.70111000  1.0
  C  C89  1  0.02074000  0.14408000  0.65525000  1.0
  C  C90  1  0.42812000  0.92984000  0.09963000  1.0
  C  C91  1  0.36684000  0.89854000  0.06707000  1.0
  C  C92  1  0.35403000  0.87528000  0.00883000  1.0
  C  C93  1  0.67092000  0.00114000  0.07055000  1.0
  C  C94  1  0.69865000  0.03017000  0.13170000  1.0
  C  C95  1  0.65231000  0.01876000  0.14332000  1.0
  C  C96  1  0.39759000  0.82955000  0.82728000  1.0
  C  C97  1  0.43072000  0.83110000  0.79919000  1.0
  C  C98  1  0.48889000  0.86602000  0.84516000  1.0
  C  C99  1  0.07147000  0.67091000  0.00219000  1.0
  C  C100  1  0.13276000  0.69965000  0.03169000  1.0
  C  C101  1  0.14561000  0.65423000  0.02083000  1.0
  C  C102  1  0.82898000  0.39903000  0.82977000  1.0
  C  C103  1  0.80122000  0.43245000  0.83147000  1.0
  C  C104  1  0.84750000  0.49038000  0.86689000  1.0
  C  C105  1  0.10216000  0.42907000  0.93151000  1.0
  C  C106  1  0.06907000  0.36787000  0.89992000  1.0
  C  C107  1  0.01089000  0.35565000  0.87662000  1.0
  C  C108  1  0.16990000  0.99876000  0.07036000  1.0
  C  C109  1  0.16832000  0.96837000  0.10126000  1.0
  C  C110  1  0.13330000  0.97872000  0.12455000  1.0
  C  C111  1  0.06931000  0.17040000  0.99964000  1.0
  C  C112  1  0.10131000  0.16908000  0.97042000  1.0
  C  C113  1  0.12465000  0.13446000  0.98205000  1.0
  C  C114  1  0.99783000  0.06820000  0.17114000  1.0
  C  C115  1  0.96820000  0.09976000  0.16973000  1.0
  C  C116  1  0.97941000  0.12325000  0.13503000  1.0
  C  C117  1  0.33002000  0.90017000  0.32902000  1.0
  C  C118  1  0.33156000  0.93258000  0.30015000  1.0
  C  C119  1  0.36667000  0.99090000  0.34546000  1.0
  C  C120  1  0.43093000  0.93018000  0.60123000  1.0
  C  C121  1  0.39887000  0.86899000  0.56798000  1.0
  C  C122  1  0.37546000  0.85720000  0.51001000  1.0
  C  C123  1  0.50273000  0.17303000  0.57044000  1.0
  C  C124  1  0.53239000  0.20121000  0.63162000  1.0
  C  C125  1  0.52112000  0.15529000  0.64388000  1.0
  C  C126  1  0.92868000  0.59959000  0.42891000  1.0
  C  C127  1  0.86736000  0.56714000  0.39808000  1.0
  C  C128  1  0.85443000  0.50884000  0.37501000  1.0
  C  C129  1  0.17127000  0.56993000  0.50084000  1.0
  C  C130  1  0.19912000  0.63113000  0.52991000  1.0
  C  C131  1  0.15282000  0.64278000  0.51799000  1.0
  C  C132  1  0.89763000  0.32686000  0.32952000  1.0
  C  C133  1  0.93067000  0.29871000  0.33109000  1.0
  C  C134  1  0.98886000  0.34466000  0.36578000  1.0
  C  C135  1  0.57145000  0.50227000  0.17070000  1.0
  C  C136  1  0.63275000  0.53214000  0.19948000  1.0
  C  C137  1  0.64566000  0.52147000  0.15408000  1.0
  C  C138  1  0.32879000  0.32933000  0.89853000  1.0
  C  C139  1  0.30094000  0.33102000  0.93189000  1.0
  C  C140  1  0.34723000  0.36626000  0.98981000  1.0
  C  C141  1  0.60251000  0.43149000  0.92911000  1.0
  C  C142  1  0.56952000  0.39978000  0.86793000  1.0
  C  C143  1  0.51131000  0.37627000  0.85565000  1.0
  C  C144  1  0.62620000  0.37606000  0.74972000  1.0
  C  C145  1  0.87380000  0.12382000  0.25018000  1.0
  C  C146  1  0.37421000  0.75027000  0.62438000  1.0
  C  C147  1  0.12585000  0.24975000  0.87601000  1.0
  C  C148  1  0.74998000  0.62492000  0.37457000  1.0
  C  C149  1  0.24974000  0.87479000  0.12513000  1.0
  C  C150  1  0.69590000  0.60831000  0.43545000  1.0
  C  C151  1  0.71986000  0.61489000  0.40747000  1.0
  C  C152  1  0.80422000  0.73979000  0.41196000  1.0
  C  C153  1  0.78021000  0.68790000  0.39469000  1.0
  C  C154  1  0.32720000  0.89147000  0.08772000  1.0
  C  C155  1  0.29263000  0.88483000  0.10506000  1.0
  C  C156  1  0.17233000  0.75992000  0.06424000  1.0
  C  C157  1  0.20685000  0.81184000  0.09225000  1.0
  C  C158  1  0.60903000  0.43714000  0.69597000  1.0
  C  C159  1  0.61616000  0.40922000  0.71989000  1.0
  C  C160  1  0.74104000  0.41268000  0.80374000  1.0
  C  C161  1  0.68922000  0.39597000  0.77969000  1.0
  C  C162  1  0.89117000  0.08740000  0.32852000  1.0
  C  C163  1  0.88388000  0.10403000  0.29336000  1.0
  C  C164  1  0.75886000  0.06277000  0.17210000  1.0
  C  C165  1  0.81075000  0.09068000  0.20707000  1.0
  C  C166  1  0.43579000  0.69710000  0.60793000  1.0
  C  C167  1  0.40761000  0.72072000  0.61469000  1.0
  C  C168  1  0.41063000  0.80369000  0.73902000  1.0
  C  C169  1  0.39386000  0.78000000  0.68726000  1.0
  C  C170  1  0.08919000  0.32780000  0.89266000  1.0
  C  C171  1  0.10604000  0.29287000  0.88587000  1.0
  C  C172  1  0.06447000  0.17173000  0.76131000  1.0
  C  C173  1  0.09255000  0.20660000  0.81310000  1.0
  C  C174  1  0.19586000  0.93565000  0.10820000  1.0
  C  C175  1  0.21969000  0.90766000  0.11506000  1.0
  C  C176  1  0.30386000  0.91189000  0.23989000  1.0
  C  C177  1  0.27985000  0.89476000  0.18804000  1.0
  C  C178  1  0.82770000  0.58778000  0.39117000  1.0
  C  C179  1  0.79290000  0.60484000  0.38452000  1.0
  C  C180  1  0.67238000  0.56457000  0.25976000  1.0
  C  C181  1  0.70704000  0.59222000  0.31163000  1.0
  C  C182  1  0.10885000  0.19640000  0.93752000  1.0
  C  C183  1  0.11588000  0.22003000  0.90932000  1.0
  C  C184  1  0.24070000  0.30345000  0.91217000  1.0
  C  C185  1  0.18888000  0.27961000  0.89565000  1.0
  C  C186  1  0.39130000  0.82862000  0.58785000  1.0
  C  C187  1  0.38423000  0.79347000  0.60455000  1.0
  C  C188  1  0.25936000  0.67162000  0.56287000  1.0
  C  C189  1  0.31119000  0.70688000  0.59107000  1.0
  C  C190  1  0.93528000  0.10695000  0.19700000  1.0
  C  C191  1  0.90701000  0.11386000  0.22048000  1.0
  C  C192  1  0.91051000  0.23852000  0.30375000  1.0
  C  C193  1  0.89366000  0.18674000  0.27995000  1.0
  C  C194  1  0.58965000  0.39260000  0.82787000  1.0
  C  C195  1  0.60633000  0.38581000  0.79278000  1.0
  C  C196  1  0.56520000  0.26139000  0.67164000  1.0
  C  C197  1  0.59316000  0.31316000  0.70660000  1.0
  N  N198  1  0.61540000  0.60846000  0.51241000  1.0
  N  N199  1  0.63740000  0.57419000  0.52398000  1.0
  N  N200  1  0.60674000  0.51414000  0.61538000  1.0
  N  N201  1  0.57303000  0.52553000  0.63828000  1.0
  N  N202  1  0.51311000  0.61697000  0.60720000  1.0
  N  N203  1  0.52465000  0.63956000  0.57324000  1.0
  N  N204  1  0.88476000  0.89713000  0.49274000  1.0
  N  N205  1  0.86259000  0.88682000  0.43653000  1.0
  N  N206  1  0.89327000  0.00895000  0.40758000  1.0
  N  N207  1  0.92711000  0.06549000  0.45273000  1.0
  N  N208  1  0.98725000  0.09405000  0.60393000  1.0
  N  N209  1  0.97572000  0.04846000  0.61484000  1.0
  N  N210  1  0.40394000  0.89158000  0.00713000  1.0
  N  N211  1  0.44981000  0.92537000  0.06337000  1.0
  N  N212  1  0.60122000  0.98553000  0.09291000  1.0
  N  N213  1  0.61269000  0.97458000  0.04780000  1.0
  N  N214  1  0.49003000  0.88369000  0.89642000  1.0
  N  N215  1  0.43346000  0.86108000  0.88533000  1.0
  N  N216  1  0.09571000  0.60261000  0.98747000  1.0
  N  N217  1  0.04984000  0.61299000  0.97595000  1.0
  N  N218  1  0.89860000  0.49107000  0.88469000  1.0
  N  N219  1  0.88718000  0.43453000  0.86172000  1.0
  N  N220  1  0.00972000  0.40575000  0.89315000  1.0
  N  N221  1  0.06628000  0.45125000  0.92716000  1.0
  N  N222  1  0.11561000  0.01267000  0.10868000  1.0
  N  N223  1  0.13827000  0.02506000  0.07511000  1.0
  N  N224  1  0.10777000  0.11679000  0.01554000  1.0
  N  N225  1  0.07348000  0.13903000  0.02646000  1.0
  N  N226  1  0.01306000  0.10686000  0.11732000  1.0
  N  N227  1  0.02448000  0.07274000  0.13971000  1.0
  N  N228  1  0.38446000  0.99278000  0.39713000  1.0
  N  N229  1  0.36175000  0.93657000  0.38692000  1.0
  N  N230  1  0.39235000  0.90752000  0.50913000  1.0
  N  N231  1  0.42672000  0.95276000  0.56563000  1.0
  N  N232  1  0.48738000  0.10397000  0.59383000  1.0
  N  N233  1  0.47598000  0.11497000  0.54831000  1.0
  N  N234  1  0.90427000  0.50700000  0.39096000  1.0
  N  N235  1  0.95024000  0.56323000  0.42434000  1.0
  N  N236  1  0.10166000  0.59240000  0.48448000  1.0
  N  N237  1  0.11305000  0.54724000  0.47383000  1.0
  N  N238  1  0.99009000  0.39597000  0.38328000  1.0
  N  N239  1  0.93354000  0.38493000  0.36080000  1.0
  N  N240  1  0.59579000  0.48781000  0.10246000  1.0
  N  N241  1  0.54983000  0.47593000  0.11277000  1.0
  N  N242  1  0.39840000  0.38395000  0.99057000  1.0
  N  N243  1  0.38701000  0.36108000  0.93402000  1.0
  N  N244  1  0.50999000  0.39277000  0.90567000  1.0
  N  N245  1  0.56653000  0.42701000  0.95121000  1.0
