# generated using pymatgen
data_ZnH14C23NO6
_symmetry_space_group_name_H-M   'P 1'
_cell_length_a   11.83510000
_cell_length_b   14.97920000
_cell_length_c   15.67720000
_cell_angle_alpha   80.85420000
_cell_angle_beta   89.97610000
_cell_angle_gamma   75.36150000
_symmetry_Int_Tables_number   1
_chemical_formula_structural   ZnH14C23NO6
_chemical_formula_sum   'Zn2 H28 C46 N2 O12'
_cell_volume   2652.55780933
_cell_formula_units_Z   2
loop_
 _symmetry_equiv_pos_site_id
 _symmetry_equiv_pos_as_xyz
  1  'x, y, z'
loop_
 _atom_site_type_symbol
 _atom_site_label
 _atom_site_symmetry_multiplicity
 _atom_site_fract_x
 _atom_site_fract_y
 _atom_site_fract_z
 _atom_site_occupancy
  Zn  Zn0  1  0.47544000  0.59537000  0.51793000  1.0
  Zn  Zn1  1  0.51926000  0.40576000  0.48315000  1.0
  H  H2  1  0.26194000  0.71906000  0.94887000  1.0
  H  H3  1  0.15924000  0.78464000  0.35082000  1.0
  H  H4  1  0.21573000  0.66100000  0.36009000  1.0
  H  H5  1  0.10815000  0.72319000  0.27549000  1.0
  H  H6  1  0.23820000  0.76318000  0.09632000  1.0
  H  H7  1  0.66147000  0.20561000  0.91256000  1.0
  H  H8  1  0.35044000  0.60716000  0.85458000  1.0
  H  H9  1  0.54267000  0.36003000  0.15311000  1.0
  H  H10  1  0.77100000  0.97461000  0.37931000  1.0
  H  H11  1  0.33289000  0.99635000  0.69657000  1.0
  H  H12  1  0.41495000  0.79082000  0.34836000  1.0
  H  H13  1  0.62196000  0.24530000  0.05926000  1.0
  H  H14  1  0.46628000  0.89323000  0.35868000  1.0
  H  H15  1  0.55563000  0.79919000  0.31168000  1.0
  H  H16  1  0.29158000  0.19403000  0.45499000  1.0
  H  H17  1  0.30557000  0.31028000  0.41193000  1.0
  H  H18  1  0.23155000  0.29180000  0.50971000  1.0
  H  H19  1  0.35943000  0.67785000  0.66254000  1.0
  H  H20  1  0.70146000  0.30528000  0.37989000  1.0
  H  H21  1  0.78007000  0.14061000  0.35092000  1.0
  H  H22  1  0.31329000  0.83293000  0.71545000  1.0
  H  H23  1  0.67117000  0.85519000  0.44040000  1.0
  H  H24  1  0.40461000  0.12374000  0.61516000  1.0
  H  H25  1  0.45186000  0.52738000  0.77967000  1.0
  H  H26  1  0.50531000  0.46024000  0.22376000  1.0
  H  H27  1  0.72087000  0.30631000  0.64279000  1.0
  H  H28  1  0.77544000  0.18223000  0.66413000  1.0
  H  H29  1  0.82227000  0.25197000  0.73319000  1.0
  C  C30  1  0.44782000  0.56264000  0.34018000  1.0
  C  C31  1  0.57451000  0.31635000  0.03106000  1.0
  C  C32  1  0.70440000  0.15854000  0.39032000  1.0
  C  C33  1  0.36609000  0.82170000  0.65930000  1.0
  C  C34  1  0.66136000  0.24885000  0.40437000  1.0
  C  C35  1  0.38992000  0.73711000  0.63083000  1.0
  C  C36  1  0.50922000  0.20982000  0.48453000  1.0
  C  C37  1  0.49332000  0.79025000  0.51489000  1.0
  C  C38  1  0.55269000  0.11264000  0.48101000  1.0
  C  C39  1  0.48334000  0.87769000  0.54361000  1.0
  C  C40  1  0.65095000  0.08831000  0.42851000  1.0
  C  C41  1  0.52934000  0.42937000  0.66229000  1.0
  C  C42  1  0.41084000  0.89456000  0.61522000  1.0
  C  C43  1  0.50336000  0.03995000  0.52584000  1.0
  C  C44  1  0.54000000  0.94835000  0.50457000  1.0
  C  C45  1  0.72108000  0.48727000  0.49760000  1.0
  C  C46  1  0.27411000  0.51545000  0.51671000  1.0
  C  C47  1  0.63789000  0.92702000  0.45096000  1.0
  C  C48  1  0.42655000  0.05520000  0.59561000  1.0
  C  C49  1  0.69335000  0.99352000  0.41676000  1.0
  C  C50  1  0.38616000  0.98434000  0.64066000  1.0
  C  C51  1  0.84328000  0.48607000  0.50589000  1.0
  C  C52  1  0.34468000  0.63119000  0.06758000  1.0
  C  C53  1  0.15356000  0.51099000  0.52271000  1.0
  C  C54  1  0.94353000  0.49287000  0.51407000  1.0
  C  C55  1  0.05379000  0.50165000  0.51997000  1.0
  C  C56  1  0.40284000  0.58999000  0.24766000  1.0
  C  C57  1  0.54591000  0.39393000  0.75750000  1.0
  C  C58  1  0.29733000  0.69582000  0.12296000  1.0
  C  C59  1  0.61295000  0.27640000  0.88457000  1.0
  C  C60  1  0.32373000  0.67678000  0.21115000  1.0
  C  C61  1  0.60548000  0.30068000  0.79526000  1.0
  C  C62  1  0.44560000  0.52531000  0.19327000  1.0
  C  C63  1  0.56187000  0.34058000  0.93925000  1.0
  C  C64  1  0.49501000  0.45687000  0.81141000  1.0
  C  C65  1  0.41856000  0.54200000  0.10391000  1.0
  C  C66  1  0.49874000  0.43325000  0.90207000  1.0
  C  C67  1  0.74836000  0.24531000  0.69405000  1.0
  C  C68  1  0.18419000  0.72640000  0.31439000  1.0
  C  C69  1  0.49102000  0.81712000  0.36028000  1.0
  C  C70  1  0.30288000  0.26037000  0.47082000  1.0
  C  C71  1  0.46520000  0.47381000  0.04859000  1.0
  C  C72  1  0.44504000  0.49909000  0.95779000  1.0
  C  C73  1  0.37046000  0.58891000  0.92398000  1.0
  C  C74  1  0.53002000  0.38087000  0.08327000  1.0
  C  C75  1  0.32061000  0.65181000  0.97647000  1.0
  N  N76  1  0.56376000  0.27366000  0.44992000  1.0
  N  N77  1  0.44986000  0.72318000  0.55802000  1.0
  O  O78  1  0.42088000  0.62256000  0.39100000  1.0
  O  O79  1  0.27452000  0.74606000  0.25855000  1.0
  O  O80  1  0.54874000  0.76853000  0.44252000  1.0
  O  O81  1  0.40888000  0.24391000  0.52384000  1.0
  O  O82  1  0.51764000  0.37206000  0.61311000  1.0
  O  O83  1  0.51181000  0.47947000  0.36173000  1.0
  O  O84  1  0.52574000  0.51540000  0.63809000  1.0
  O  O85  1  0.65076000  0.56775000  0.49139000  1.0
  O  O86  1  0.33754000  0.45336000  0.47801000  1.0
  O  O87  1  0.69625000  0.40931000  0.49784000  1.0
  O  O88  1  0.30470000  0.57956000  0.54766000  1.0
  O  O89  1  0.65486000  0.23107000  0.74892000  1.0
