# generated using pymatgen
data_ZnH20C29(NO2)2
_symmetry_space_group_name_H-M   'P 1'
_cell_length_a   9.61059000
_cell_length_b   10.40060000
_cell_length_c   13.33110593
_cell_angle_alpha   96.91495329
_cell_angle_beta   111.13407564
_cell_angle_gamma   89.98950000
_symmetry_Int_Tables_number   1
_chemical_formula_structural   ZnH20C29(NO2)2
_chemical_formula_sum   'Zn2 H40 C58 N4 O8'
_cell_volume   1232.51021991
_cell_formula_units_Z   2
loop_
 _symmetry_equiv_pos_site_id
 _symmetry_equiv_pos_as_xyz
  1  'x, y, z'
loop_
 _atom_site_type_symbol
 _atom_site_label
 _atom_site_symmetry_multiplicity
 _atom_site_fract_x
 _atom_site_fract_y
 _atom_site_fract_z
 _atom_site_occupancy
  Zn  Zn0  1  0.82692000  0.77694000  0.33493000  1.0
  Zn  Zn1  1  0.50797000  0.27698000  0.33477000  1.0
  H  H2  1  0.81817000  0.61222000  0.66652000  1.0
  H  H3  1  0.84820000  0.11193000  0.66644000  1.0
  H  H4  1  0.93631000  0.22943000  0.57562000  1.0
  H  H5  1  0.63907000  0.72925000  0.57577000  1.0
  H  H6  1  0.18184000  0.25837000  0.73024000  1.0
  H  H7  1  0.54859000  0.75832000  0.73062000  1.0
  H  H8  1  0.41722000  0.33673000  0.90009000  1.0
  H  H9  1  0.48287000  0.83686000  0.90005000  1.0
  H  H10  1  0.61259000  0.45515000  0.06557000  1.0
  H  H11  1  0.45270000  0.95537000  0.06547000  1.0
  H  H12  1  0.34206000  0.78487000  0.05063000  1.0
  H  H13  1  0.70899000  0.28480000  0.05094000  1.0
  H  H14  1  0.01505000  0.81932000  0.74443000  1.0
  H  H15  1  0.72926000  0.31926000  0.74443000  1.0
  H  H16  1  0.17639000  0.87164000  0.86093000  1.0
  H  H17  1  0.68451000  0.37162000  0.86095000  1.0
  H  H18  1  0.19381000  0.76457000  0.75171000  1.0
  H  H19  1  0.55785000  0.26454000  0.75178000  1.0
  H  H20  1  0.88940000  0.74413000  0.86284000  1.0
  H  H21  1  0.97339000  0.24417000  0.86282000  1.0
  H  H22  1  0.96681000  0.62461000  0.94941000  1.0
  H  H23  1  0.98280000  0.12473000  0.94947000  1.0
  H  H24  1  0.04748000  0.78602000  0.98356000  1.0
  H  H25  1  0.93609000  0.28612000  0.98353000  1.0
  H  H26  1  0.79545000  0.98606000  0.17595000  1.0
  H  H27  1  0.37980000  0.48609000  0.17586000  1.0
  H  H28  1  0.96955000  0.08617000  0.10259000  1.0
  H  H29  1  0.13224000  0.58628000  0.10291000  1.0
  H  H30  1  0.23782000  0.01979000  0.16134000  1.0
  H  H31  1  0.92319000  0.51974000  0.16203000  1.0
  H  H32  1  0.43431000  0.87504000  0.26875000  1.0
  H  H33  1  0.83466000  0.37488000  0.26957000  1.0
  H  H34  1  0.50732000  0.71660000  0.39885000  1.0
  H  H35  1  0.89219000  0.21634000  0.39953000  1.0
  H  H36  1  0.43588000  0.57161000  0.51668000  1.0
  H  H37  1  0.08175000  0.07144000  0.51726000  1.0
  H  H38  1  0.23905000  0.49998000  0.58487000  1.0
  H  H39  1  0.34673000  0.99935000  0.58480000  1.0
  H  H40  1  0.98330000  0.58663000  0.51265000  1.0
  H  H41  1  0.52970000  0.08578000  0.51203000  1.0
  C  C42  1  0.89935000  0.53692000  0.68215000  1.0
  C  C43  1  0.78270000  0.03670000  0.68215000  1.0
  C  C44  1  0.86503000  0.41953000  0.61208000  1.0
  C  C45  1  0.74692000  0.91923000  0.61217000  1.0
  C  C46  1  0.96714000  0.32018000  0.63004000  1.0
  C  C47  1  0.66272000  0.82002000  0.63018000  1.0
  C  C48  1  0.10362000  0.33633000  0.71670000  1.0
  C  C49  1  0.61315000  0.83625000  0.71694000  1.0
  C  C50  1  0.40065000  0.43517000  0.93107000  1.0
  C  C51  1  0.53041000  0.93528000  0.93109000  1.0
  C  C52  1  0.51064000  0.50098000  0.02223000  1.0
  C  C53  1  0.51151000  0.00107000  0.02222000  1.0
  C  C54  1  0.49053000  0.62682000  0.06454000  1.0
  C  C55  1  0.57420000  0.12679000  0.06464000  1.0
  C  C56  1  0.35680000  0.68823000  0.01524000  1.0
  C  C57  1  0.65869000  0.18823000  0.01543000  1.0
  C  C58  1  0.09774000  0.67209000  0.85289000  1.0
  C  C59  1  0.75522000  0.17207000  0.85295000  1.0
  C  C60  1  0.03520000  0.55386000  0.76825000  1.0
  C  C61  1  0.73308000  0.05379000  0.76829000  1.0
  C  C62  1  0.13754000  0.45372000  0.78581000  1.0
  C  C63  1  0.64838000  0.95371000  0.78594000  1.0
  C  C64  1  0.26919000  0.49753000  0.88137000  1.0
  C  C65  1  0.61229000  0.99758000  0.88148000  1.0
  C  C66  1  0.24723000  0.62423000  0.92338000  1.0
  C  C67  1  0.67625000  0.12428000  0.92348000  1.0
  C  C68  1  0.12236000  0.78905000  0.79905000  1.0
  C  C69  1  0.67665000  0.28901000  0.79909000  1.0
  C  C70  1  0.99442000  0.70863000  0.91627000  1.0
  C  C71  1  0.92189000  0.20867000  0.91629000  1.0
  C  C72  1  0.71938000  0.40168000  0.51773000  1.0
  C  C73  1  0.79827000  0.90122000  0.51784000  1.0
  C  C74  1  0.61154000  0.69328000  0.16268000  1.0
  C  C75  1  0.55123000  0.19315000  0.16274000  1.0
  C  C76  1  0.91188000  0.96032000  0.19976000  1.0
  C  C77  1  0.28737000  0.46030000  0.19983000  1.0
  C  C78  1  0.01048000  0.01442000  0.15813000  1.0
  C  C79  1  0.14711000  0.51448000  0.15845000  1.0
  C  C80  1  0.15694000  0.97746000  0.18983000  1.0
  C  C81  1  0.03263000  0.47744000  0.19037000  1.0
  C  C82  1  0.35337000  0.83907000  0.30011000  1.0
  C  C83  1  0.94701000  0.33893000  0.30079000  1.0
  C  C84  1  0.39368000  0.75002000  0.37218000  1.0
  C  C85  1  0.97902000  0.24978000  0.37277000  1.0
  C  C86  1  0.32477000  0.61070000  0.49054000  1.0
  C  C87  1  0.16654000  0.11034000  0.49086000  1.0
  C  C88  1  0.21625000  0.57020000  0.52712000  1.0
  C  C89  1  0.31158000  0.06959000  0.52708000  1.0
  C  C90  1  0.07211000  0.61761000  0.48683000  1.0
  C  C91  1  0.41510000  0.11688000  0.48646000  1.0
  C  C92  1  0.20490000  0.88471000  0.26334000  1.0
  C  C93  1  0.05846000  0.38460000  0.26383000  1.0
  C  C94  1  0.09859000  0.83670000  0.30245000  1.0
  C  C95  1  0.20390000  0.33653000  0.30270000  1.0
  C  C96  1  0.14192000  0.74461000  0.37955000  1.0
  C  C97  1  0.23793000  0.24427000  0.37968000  1.0
  C  C98  1  0.28971000  0.70167000  0.41495000  1.0
  C  C99  1  0.12577000  0.20135000  0.41532000  1.0
  N  N100  1  0.95553000  0.87483000  0.27047000  1.0
  N  N101  1  0.31474000  0.37474000  0.27052000  1.0
  N  N102  1  0.03644000  0.70141000  0.41457000  1.0
  N  N103  1  0.37838000  0.20090000  0.41437000  1.0
  O  O104  1  0.62314000  0.48552000  0.50585000  1.0
  O  O105  1  0.88280000  0.98492000  0.50599000  1.0
  O  O106  1  0.70326000  0.29524000  0.45169000  1.0
  O  O107  1  0.74828000  0.79483000  0.45175000  1.0
  O  O108  1  0.72534000  0.62824000  0.21165000  1.0
  O  O109  1  0.48619000  0.12811000  0.21154000  1.0
  O  O110  1  0.60201000  0.81088000  0.19696000  1.0
  O  O111  1  0.59523000  0.31070000  0.19721000  1.0
