# generated using pymatgen
data_ZnH16C16(N3O2)2
_symmetry_space_group_name_H-M   'P 1'
_cell_length_a   9.47214000
_cell_length_b   10.28480000
_cell_length_c   20.87710000
_cell_angle_alpha   90.00010000
_cell_angle_beta   90.00000000
_cell_angle_gamma   111.09300000
_symmetry_Int_Tables_number   1
_chemical_formula_structural   ZnH16C16(N3O2)2
_chemical_formula_sum   'Zn4 H64 C64 N24 O16'
_cell_volume   1897.55605976
_cell_formula_units_Z   4
loop_
 _symmetry_equiv_pos_site_id
 _symmetry_equiv_pos_as_xyz
  1  'x, y, z'
loop_
 _atom_site_type_symbol
 _atom_site_label
 _atom_site_symmetry_multiplicity
 _atom_site_fract_x
 _atom_site_fract_y
 _atom_site_fract_z
 _atom_site_occupancy
  Zn  Zn0  1  0.09776000  0.09263000  0.59224000  1.0
  Zn  Zn1  1  0.90223000  0.40737000  0.09224000  1.0
  Zn  Zn2  1  0.90223000  0.90737000  0.40776000  1.0
  Zn  Zn3  1  0.09777000  0.59263000  0.90776000  1.0
  H  H4  1  0.06201000  0.57807000  0.60909000  1.0
  H  H5  1  0.93799000  0.92193000  0.10909000  1.0
  H  H6  1  0.93798000  0.42192000  0.39091000  1.0
  H  H7  1  0.06201000  0.07808000  0.89091000  1.0
  H  H8  1  0.30246000  0.45240000  0.46177000  1.0
  H  H9  1  0.69755000  0.04760000  0.96177000  1.0
  H  H10  1  0.69755000  0.54760000  0.53823000  1.0
  H  H11  1  0.30246000  0.95240000  0.03823000  1.0
  H  H12  1  0.30675000  0.87311000  0.46628000  1.0
  H  H13  1  0.69326000  0.62690000  0.96628000  1.0
  H  H14  1  0.69325000  0.12689000  0.53372000  1.0
  H  H15  1  0.30675000  0.37310000  0.03373000  1.0
  H  H16  1  0.43991000  0.81065000  0.38332000  1.0
  H  H17  1  0.56010000  0.68935000  0.88332000  1.0
  H  H18  1  0.56010000  0.18935000  0.61668000  1.0
  H  H19  1  0.43991000  0.31065000  0.11668000  1.0
  H  H20  1  0.36270000  0.63435000  0.35726000  1.0
  H  H21  1  0.63730000  0.86565000  0.85726000  1.0
  H  H22  1  0.63730000  0.36565000  0.64275000  1.0
  H  H23  1  0.36271000  0.13435000  0.14274000  1.0
  H  H24  1  0.52492000  0.69008000  0.40752000  1.0
  H  H25  1  0.47508000  0.80992000  0.90752000  1.0
  H  H26  1  0.47508000  0.30992000  0.59249000  1.0
  H  H27  1  0.52492000  0.19008000  0.09248000  1.0
  H  H28  1  0.79778000  0.82059000  0.55470000  1.0
  H  H29  1  0.20222000  0.67941000  0.05470000  1.0
  H  H30  1  0.20221000  0.17941000  0.44530000  1.0
  H  H31  1  0.79778000  0.32059000  0.94531000  1.0
  H  H32  1  0.84413000  0.16164000  0.67514000  1.0
  H  H33  1  0.15587000  0.33836000  0.17513000  1.0
  H  H34  1  0.15586000  0.83836000  0.32486000  1.0
  H  H35  1  0.84414000  0.66164000  0.82486000  1.0
  H  H36  1  0.48632000  0.71678000  0.56241000  1.0
  H  H37  1  0.51368000  0.78322000  0.06241000  1.0
  H  H38  1  0.51368000  0.28322000  0.43759000  1.0
  H  H39  1  0.48632000  0.21678000  0.93759000  1.0
  H  H40  1  0.41193000  0.77938000  0.62873000  1.0
  H  H41  1  0.58807000  0.72062000  0.12872000  1.0
  H  H42  1  0.58807000  0.22062000  0.37127000  1.0
  H  H43  1  0.41193000  0.27938000  0.87127000  1.0
  H  H44  1  0.40218000  0.53426000  0.64422000  1.0
  H  H45  1  0.59782000  0.96574000  0.14421000  1.0
  H  H46  1  0.59781000  0.46574000  0.35579000  1.0
  H  H47  1  0.40218000  0.03426000  0.85578000  1.0
  H  H48  1  0.60084000  0.59111000  0.63620000  1.0
  H  H49  1  0.39916000  0.90888000  0.13620000  1.0
  H  H50  1  0.39915000  0.40888000  0.36380000  1.0
  H  H51  1  0.60084000  0.09111000  0.86380000  1.0
  H  H52  1  0.54843000  0.56274000  0.74900000  1.0
  H  H53  1  0.45157000  0.93725000  0.24900000  1.0
  H  H54  1  0.45157000  0.43725000  0.25100000  1.0
  H  H55  1  0.54843000  0.06275000  0.75100000  1.0
  H  H56  1  0.62822000  0.74527000  0.73432000  1.0
  H  H57  1  0.37178000  0.75473000  0.23432000  1.0
  H  H58  1  0.37178000  0.25473000  0.26568000  1.0
  H  H59  1  0.62822000  0.24527000  0.76568000  1.0
  H  H60  1  0.17590000  0.82194000  0.78950000  1.0
  H  H61  1  0.82410000  0.67805000  0.28950000  1.0
  H  H62  1  0.82410000  0.17806000  0.21050000  1.0
  H  H63  1  0.17590000  0.32195000  0.71050000  1.0
  H  H64  1  0.33031000  0.49163000  0.82140000  1.0
  H  H65  1  0.66968000  0.00837000  0.32140000  1.0
  H  H66  1  0.66969000  0.50838000  0.17860000  1.0
  H  H67  1  0.33031000  0.99163000  0.67860000  1.0
  C  C68  1  0.17859000  0.73633000  0.54016000  1.0
  C  C69  1  0.82141000  0.76368000  0.04017000  1.0
  C  C70  1  0.82141000  0.26367000  0.45984000  1.0
  C  C71  1  0.17859000  0.23632000  0.95984000  1.0
  C  C72  1  0.13212000  0.60250000  0.56623000  1.0
  C  C73  1  0.86788000  0.89751000  0.06623000  1.0
  C  C74  1  0.86788000  0.39750000  0.43377000  1.0
  C  C75  1  0.13212000  0.10249000  0.93377000  1.0
  C  C76  1  0.17676000  0.50041000  0.53775000  1.0
  C  C77  1  0.82324000  0.99960000  0.03775000  1.0
  C  C78  1  0.82323000  0.49959000  0.46225000  1.0
  C  C79  1  0.17677000  0.00041000  0.96225000  1.0
  C  C80  1  0.26792000  0.53321000  0.48291000  1.0
  C  C81  1  0.73209000  0.96679000  0.98291000  1.0
  C  C82  1  0.73209000  0.46679000  0.51709000  1.0
  C  C83  1  0.26792000  0.03321000  0.01709000  1.0
  C  C84  1  0.31569000  0.66689000  0.45600000  1.0
  C  C85  1  0.68431000  0.83312000  0.95600000  1.0
  C  C86  1  0.68430000  0.33311000  0.54400000  1.0
  C  C87  1  0.31570000  0.16689000  0.04400000  1.0
  C  C88  1  0.26995000  0.76755000  0.48534000  1.0
  C  C89  1  0.73005000  0.73245000  0.98534000  1.0
  C  C90  1  0.73005000  0.23245000  0.51466000  1.0
  C  C91  1  0.26995000  0.26755000  0.01466000  1.0
  C  C92  1  0.13414000  0.84567000  0.57302000  1.0
  C  C93  1  0.86586000  0.65434000  0.07302000  1.0
  C  C94  1  0.86585000  0.15433000  0.42698000  1.0
  C  C95  1  0.13414000  0.34567000  0.92698000  1.0
  C  C96  1  0.12876000  0.35879000  0.56779000  1.0
  C  C97  1  0.87125000  0.14122000  0.06779000  1.0
  C  C98  1  0.87125000  0.64122000  0.43221000  1.0
  C  C99  1  0.12875000  0.85878000  0.93221000  1.0
  C  C100  1  0.41620000  0.70246000  0.39789000  1.0
  C  C101  1  0.58380000  0.79755000  0.89789000  1.0
  C  C102  1  0.58380000  0.29755000  0.60211000  1.0
  C  C103  1  0.41621000  0.20245000  0.10211000  1.0
  C  C104  1  0.77656000  0.88980000  0.58975000  1.0
  C  C105  1  0.22344000  0.61020000  0.08975000  1.0
  C  C106  1  0.22344000  0.11019000  0.41025000  1.0
  C  C107  1  0.77656000  0.38980000  0.91025000  1.0
  C  C108  1  0.79556000  0.06121000  0.65170000  1.0
  C  C109  1  0.20444000  0.43878000  0.15169000  1.0
  C  C110  1  0.20444000  0.93878000  0.34831000  1.0
  C  C111  1  0.79556000  0.56121000  0.84831000  1.0
  C  C112  1  0.50379000  0.74608000  0.61311000  1.0
  C  C113  1  0.49621000  0.75391000  0.11311000  1.0
  C  C114  1  0.49621000  0.25391000  0.38689000  1.0
  C  C115  1  0.50379000  0.24608000  0.88689000  1.0
  C  C116  1  0.50793000  0.62279000  0.65299000  1.0
  C  C117  1  0.49207000  0.87721000  0.15299000  1.0
  C  C118  1  0.49206000  0.37721000  0.34701000  1.0
  C  C119  1  0.50793000  0.12279000  0.84701000  1.0
  C  C120  1  0.52989000  0.65002000  0.72478000  1.0
  C  C121  1  0.47011000  0.84997000  0.22478000  1.0
  C  C122  1  0.47010000  0.34998000  0.27522000  1.0
  C  C123  1  0.52989000  0.15002000  0.77521000  1.0
  C  C124  1  0.24086000  0.75439000  0.78529000  1.0
  C  C125  1  0.75914000  0.74561000  0.28529000  1.0
  C  C126  1  0.75913000  0.24562000  0.21471000  1.0
  C  C127  1  0.24087000  0.25439000  0.71471000  1.0
  C  C128  1  0.31574000  0.58503000  0.80352000  1.0
  C  C129  1  0.68426000  0.91496000  0.30352000  1.0
  C  C130  1  0.68426000  0.41497000  0.19648000  1.0
  C  C131  1  0.31574000  0.08503000  0.69648000  1.0
  N  N132  1  0.87533000  0.01184000  0.61010000  1.0
  N  N133  1  0.12467000  0.48817000  0.11010000  1.0
  N  N134  1  0.12467000  0.98816000  0.38990000  1.0
  N  N135  1  0.87533000  0.51184000  0.88990000  1.0
  N  N136  1  0.65292000  0.97626000  0.65838000  1.0
  N  N137  1  0.34708000  0.52373000  0.15838000  1.0
  N  N138  1  0.34708000  0.02373000  0.34162000  1.0
  N  N139  1  0.65292000  0.47627000  0.84162000  1.0
  N  N140  1  0.64308000  0.86775000  0.61840000  1.0
  N  N141  1  0.35692000  0.63225000  0.11840000  1.0
  N  N142  1  0.35692000  0.13225000  0.38160000  1.0
  N  N143  1  0.64308000  0.36775000  0.88160000  1.0
  N  N144  1  0.39942000  0.66515000  0.75647000  1.0
  N  N145  1  0.60058000  0.83485000  0.25647000  1.0
  N  N146  1  0.60058000  0.33485000  0.24353000  1.0
  N  N147  1  0.39942000  0.16515000  0.74353000  1.0
  N  N148  1  0.35318000  0.77412000  0.74413000  1.0
  N  N149  1  0.64682000  0.72588000  0.24413000  1.0
  N  N150  1  0.64682000  0.22588000  0.25587000  1.0
  N  N151  1  0.35318000  0.27412000  0.75587000  1.0
  N  N152  1  0.21472000  0.63965000  0.82327000  1.0
  N  N153  1  0.78528000  0.86034000  0.32327000  1.0
  N  N154  1  0.78528000  0.36035000  0.17673000  1.0
  N  N155  1  0.21472000  0.13966000  0.67673000  1.0
  O  O156  1  0.17248000  0.96560000  0.54363000  1.0
  O  O157  1  0.82752000  0.53440000  0.04363000  1.0
  O  O158  1  0.82752000  0.03440000  0.45637000  1.0
  O  O159  1  0.17248000  0.46560000  0.95637000  1.0
  O  O160  1  0.06697000  0.82012000  0.62576000  1.0
  O  O161  1  0.93302000  0.67988000  0.12576000  1.0
  O  O162  1  0.93302000  0.17988000  0.37424000  1.0
  O  O163  1  0.06698000  0.32012000  0.87424000  1.0
  O  O164  1  0.05565000  0.33537000  0.61928000  1.0
  O  O165  1  0.94435000  0.16464000  0.11928000  1.0
  O  O166  1  0.94435000  0.66462000  0.38072000  1.0
  O  O167  1  0.05565000  0.83537000  0.88072000  1.0
  O  O168  1  0.17022000  0.26587000  0.53882000  1.0
  O  O169  1  0.82977000  0.23413000  0.03882000  1.0
  O  O170  1  0.82977000  0.73412000  0.46118000  1.0
  O  O171  1  0.17023000  0.76588000  0.96118000  1.0
