# generated using pymatgen
data_AgH5C5N3ClO3
_symmetry_space_group_name_H-M   'P 1'
_cell_length_a   7.77901000
_cell_length_b   8.30263000
_cell_length_c   13.19680000
_cell_angle_alpha   89.99970000
_cell_angle_beta   89.99980000
_cell_angle_gamma   89.99980000
_symmetry_Int_Tables_number   1
_chemical_formula_structural   AgH5C5N3ClO3
_chemical_formula_sum   'Ag4 H20 C20 N12 Cl4 O12'
_cell_volume   852.33171572
_cell_formula_units_Z   4
loop_
 _symmetry_equiv_pos_site_id
 _symmetry_equiv_pos_as_xyz
  1  'x, y, z'
loop_
 _atom_site_type_symbol
 _atom_site_label
 _atom_site_symmetry_multiplicity
 _atom_site_fract_x
 _atom_site_fract_y
 _atom_site_fract_z
 _atom_site_occupancy
  Ag  Ag0  1  0.89806000  0.20651000  0.76827000  1.0
  Ag  Ag1  1  0.10194000  0.20651000  0.23173000  1.0
  Ag  Ag2  1  0.39806000  0.79349000  0.73173000  1.0
  Ag  Ag3  1  0.60194000  0.79349000  0.26827000  1.0
  H  H4  1  0.09456000  0.80758000  0.61939000  1.0
  H  H5  1  0.90544000  0.80758000  0.38060000  1.0
  H  H6  1  0.59456000  0.19242000  0.88061000  1.0
  H  H7  1  0.40544000  0.19242000  0.11939000  1.0
  H  H8  1  0.25658000  0.79709000  0.53373000  1.0
  H  H9  1  0.74341000  0.79709000  0.46627000  1.0
  H  H10  1  0.75658000  0.20291000  0.96627000  1.0
  H  H11  1  0.24341000  0.20291000  0.03373000  1.0
  H  H12  1  0.13707000  0.11863000  0.58617000  1.0
  H  H13  1  0.86293000  0.11863000  0.41383000  1.0
  H  H14  1  0.63707000  0.88137000  0.91383000  1.0
  H  H15  1  0.36293000  0.88137000  0.08617000  1.0
  H  H16  1  0.32394000  0.25455000  0.45585000  1.0
  H  H17  1  0.67606000  0.25454000  0.54414000  1.0
  H  H18  1  0.82393000  0.74546000  0.04415000  1.0
  H  H19  1  0.17606000  0.74546000  0.95586000  1.0
  H  H20  1  0.34864000  0.55572000  0.45865000  1.0
  H  H21  1  0.65136000  0.55572000  0.54135000  1.0
  H  H22  1  0.84864000  0.44428000  0.04136000  1.0
  H  H23  1  0.15136000  0.44428000  0.95865000  1.0
  C  C24  1  0.15463000  0.24835000  0.58494000  1.0
  C  C25  1  0.84537000  0.24835000  0.41506000  1.0
  C  C26  1  0.65463000  0.75165000  0.91506000  1.0
  C  C27  1  0.34537000  0.75165000  0.08494000  1.0
  C  C28  1  0.25722000  0.32510000  0.51327000  1.0
  C  C29  1  0.74278000  0.32510000  0.48673000  1.0
  C  C30  1  0.75722000  0.67490000  0.98672000  1.0
  C  C31  1  0.24278000  0.67491000  0.01328000  1.0
  C  C32  1  0.27085000  0.49206000  0.51438000  1.0
  C  C33  1  0.72916000  0.49206000  0.48562000  1.0
  C  C34  1  0.77085000  0.50794000  0.98562000  1.0
  C  C35  1  0.22915000  0.50794000  0.01438000  1.0
  C  C36  1  0.18326000  0.58111000  0.58856000  1.0
  C  C37  1  0.81674000  0.58111000  0.41144000  1.0
  C  C38  1  0.68326000  0.41889000  0.91144000  1.0
  C  C39  1  0.31674000  0.41890000  0.08856000  1.0
  C  C40  1  0.08183000  0.49221000  0.65698000  1.0
  C  C41  1  0.91816000  0.49221000  0.34303000  1.0
  C  C42  1  0.58183000  0.50779000  0.84302000  1.0
  C  C43  1  0.41817000  0.50779000  0.15698000  1.0
  N  N44  1  0.06706000  0.33236000  0.65558000  1.0
  N  N45  1  0.93294000  0.33236000  0.34442000  1.0
  N  N46  1  0.56706000  0.66764000  0.84442000  1.0
  N  N47  1  0.43294000  0.66764000  0.15558000  1.0
  N  N48  1  0.20427000  0.74750000  0.59855000  1.0
  N  N49  1  0.79573000  0.74750000  0.40145000  1.0
  N  N50  1  0.70427000  0.25250000  0.90145000  1.0
  N  N51  1  0.29573000  0.25250000  0.09855000  1.0
  N  N52  1  0.73127000  0.93396000  0.63681000  1.0
  N  N53  1  0.26873000  0.93396000  0.36319000  1.0
  N  N54  1  0.23127000  0.06604000  0.86319000  1.0
  N  N55  1  0.76873000  0.06604000  0.13681000  1.0
  Cl  Cl56  1  0.97336000  0.59567000  0.75082000  1.0
  Cl  Cl57  1  0.02664000  0.59568000  0.24918000  1.0
  Cl  Cl58  1  0.47336000  0.40432000  0.74919000  1.0
  Cl  Cl59  1  0.52664000  0.40432000  0.25082000  1.0
  O  O60  1  0.87934000  0.96229000  0.60218000  1.0
  O  O61  1  0.12066000  0.96229000  0.39782000  1.0
  O  O62  1  0.37934000  0.03771000  0.89782000  1.0
  O  O63  1  0.62066000  0.03771000  0.10218000  1.0
  O  O64  1  0.67811000  0.00288000  0.71708000  1.0
  O  O65  1  0.32189000  0.00288000  0.28292000  1.0
  O  O66  1  0.17811000  0.99712000  0.78292000  1.0
  O  O67  1  0.82189000  0.99712000  0.21708000  1.0
  O  O68  1  0.63140000  0.83635000  0.59092000  1.0
  O  O69  1  0.36860000  0.83635000  0.40908000  1.0
  O  O70  1  0.13140000  0.16365000  0.90908000  1.0
  O  O71  1  0.86860000  0.16365000  0.09092000  1.0
