# generated using pymatgen
data_KH10AuC14S2N2O7
_symmetry_space_group_name_H-M   'P 1'
_cell_length_a   8.66781000
_cell_length_b   13.55090000
_cell_length_c   15.99858989
_cell_angle_alpha   85.03383278
_cell_angle_beta   74.29570829
_cell_angle_gamma   71.34770000
_symmetry_Int_Tables_number   1
_chemical_formula_structural   KH10AuC14S2N2O7
_chemical_formula_sum   'K4 H40 Au4 C56 S8 N8 O28'
_cell_volume   1713.98077947
_cell_formula_units_Z   4
loop_
 _symmetry_equiv_pos_site_id
 _symmetry_equiv_pos_as_xyz
  1  'x, y, z'
loop_
 _atom_site_type_symbol
 _atom_site_label
 _atom_site_symmetry_multiplicity
 _atom_site_fract_x
 _atom_site_fract_y
 _atom_site_fract_z
 _atom_site_occupancy
  K  K0  1  0.77147000  0.98101000  0.82436000  1.0
  K  K1  1  0.57689000  0.01889000  0.17569000  1.0
  K  K2  1  0.34586000  0.48108000  0.67567000  1.0
  K  K3  1  0.50239000  0.51894000  0.32435000  1.0
  H  H4  1  0.65566000  0.12125000  0.98790000  1.0
  H  H5  1  0.76484000  0.87875000  0.01211000  1.0
  H  H6  1  0.39353000  0.62126000  0.51211000  1.0
  H  H7  1  0.52692000  0.37877000  0.48788000  1.0
  H  H8  1  0.48215000  0.10945000  0.98818000  1.0
  H  H9  1  0.57983000  0.89051000  0.01184000  1.0
  H  H10  1  0.22031000  0.60947000  0.51183000  1.0
  H  H11  1  0.34161000  0.39054000  0.48818000  1.0
  H  H12  1  0.56663000  0.18717000  0.53135000  1.0
  H  H13  1  0.28518000  0.81288000  0.46865000  1.0
  H  H14  1  0.84803000  0.68712000  0.96864000  1.0
  H  H15  1  0.50378000  0.31288000  0.03135000  1.0
  H  H16  1  0.49088000  0.13974000  0.40272000  1.0
  H  H17  1  0.03335000  0.86028000  0.59727000  1.0
  H  H18  1  0.64359000  0.63975000  0.09730000  1.0
  H  H19  1  0.38063000  0.36028000  0.90271000  1.0
  H  H20  1  0.26452000  0.05880000  0.42384000  1.0
  H  H21  1  0.74719000  0.94123000  0.57617000  1.0
  H  H22  1  0.43840000  0.55876000  0.07616000  1.0
  H  H23  1  0.07332000  0.44122000  0.92382000  1.0
  H  H24  1  0.09460000  0.03411000  0.57345000  1.0
  H  H25  1  0.70210000  0.96588000  0.42656000  1.0
  H  H26  1  0.41806000  0.53411000  0.92655000  1.0
  H  H27  1  0.87869000  0.46588000  0.07343000  1.0
  H  H28  1  0.22218000  0.09360000  0.26913000  1.0
  H  H29  1  0.58491000  0.90640000  0.73088000  1.0
  H  H30  1  0.24137000  0.59359000  0.23088000  1.0
  H  H31  1  0.06581000  0.40638000  0.76915000  1.0
  H  H32  1  0.99612000  0.14090000  0.40830000  1.0
  H  H33  1  0.54533000  0.85910000  0.59170000  1.0
  H  H34  1  0.15451000  0.64086000  0.09168000  1.0
  H  H35  1  0.88700000  0.35912000  0.90834000  1.0
  H  H36  1  0.69983000  0.22577000  0.40524000  1.0
  H  H37  1  0.33084000  0.77424000  0.59475000  1.0
  H  H38  1  0.85517000  0.72574000  0.09471000  1.0
  H  H39  1  0.67557000  0.27424000  0.90527000  1.0
  H  H40  1  0.61733000  0.25548000  0.26611000  1.0
  H  H41  1  0.13890000  0.74453000  0.73388000  1.0
  H  H42  1  0.63354000  0.75547000  0.23384000  1.0
  H  H43  1  0.62277000  0.24454000  0.76613000  1.0
  Au  Au44  1  0.15266000  0.13806000  0.90996000  1.0
  Au  Au45  1  0.20073000  0.86189000  0.09005000  1.0
  Au  Au46  1  0.81256000  0.63812000  0.59003000  1.0
  Au  Au47  1  0.04068000  0.36200000  0.40996000  1.0
  C  C48  1  0.15506000  0.08670000  0.72849000  1.0
  C  C49  1  0.97029000  0.91325000  0.27151000  1.0
  C  C50  1  0.63350000  0.58678000  0.77150000  1.0
  C  C51  1  0.99176000  0.41327000  0.22848000  1.0
  C  C52  1  0.23625000  0.09661000  0.63452000  1.0
  C  C53  1  0.96737000  0.90338000  0.36549000  1.0
  C  C54  1  0.62074000  0.59665000  0.86548000  1.0
  C  C55  1  0.08284000  0.40335000  0.13451000  1.0
  C  C56  1  0.36783000  0.13928000  0.62113000  1.0
  C  C57  1  0.12827000  0.86079000  0.37887000  1.0
  C  C58  1  0.73902000  0.63923000  0.87887000  1.0
  C  C59  1  0.25709000  0.36075000  0.12112000  1.0
  C  C60  1  0.46370000  0.15476000  0.53940000  1.0
  C  C61  1  0.15789000  0.84534000  0.46061000  1.0
  C  C62  1  0.75320000  0.65465000  0.96062000  1.0
  C  C63  1  0.36844000  0.34531000  0.03939000  1.0
  C  C64  1  0.42169000  0.12649000  0.46828000  1.0
  C  C65  1  0.01648000  0.87360000  0.53170000  1.0
  C  C66  1  0.64009000  0.62639000  0.03173000  1.0
  C  C67  1  0.29816000  0.37358000  0.96827000  1.0
  C  C68  1  0.29186000  0.08216000  0.48037000  1.0
  C  C69  1  0.85439000  0.91794000  0.51964000  1.0
  C  C70  1  0.52236000  0.58205000  0.01964000  1.0
  C  C71  1  0.12403000  0.41789000  0.98035000  1.0
  C  C72  1  0.19748000  0.06690000  0.56361000  1.0
  C  C73  1  0.82796000  0.93311000  0.43639000  1.0
  C  C74  1  0.51115000  0.56687000  0.93638000  1.0
  C  C75  1  0.01436000  0.43307000  0.06359000  1.0
  C  C76  1  0.15878000  0.12788000  0.10087000  1.0
  C  C77  1  0.38753000  0.87207000  0.89914000  1.0
  C  C78  1  0.00961000  0.62790000  0.39914000  1.0
  C  C79  1  0.03667000  0.37214000  0.60088000  1.0
  C  C80  1  0.04553000  0.14688000  0.19041000  1.0
  C  C81  1  0.38285000  0.85308000  0.80958000  1.0
  C  C82  1  0.98598000  0.64689000  0.30958000  1.0
  C  C83  1  0.94243000  0.35311000  0.69043000  1.0
  C  C84  1  0.09096000  0.12792000  0.26867000  1.0
  C  C85  1  0.48757000  0.87205000  0.73134000  1.0
  C  C86  1  0.10969000  0.62791000  0.23132000  1.0
  C  C87  1  0.96889000  0.37206000  0.76871000  1.0
  C  C88  1  0.96470000  0.15474000  0.34599000  1.0
  C  C89  1  0.46544000  0.84523000  0.65400000  1.0
  C  C90  1  0.06076000  0.65473000  0.15398000  1.0
  C  C91  1  0.86943000  0.34524000  0.84603000  1.0
  C  C92  1  0.79622000  0.20134000  0.34487000  1.0
  C  C93  1  0.34244000  0.79865000  0.65513000  1.0
  C  C94  1  0.89118000  0.70132000  0.15510000  1.0
  C  C95  1  0.74754000  0.29867000  0.84490000  1.0
  C  C96  1  0.74836000  0.21934000  0.26681000  1.0
  C  C97  1  0.23447000  0.78068000  0.73318000  1.0
  C  C98  1  0.76526000  0.71932000  0.23314000  1.0
  C  C99  1  0.71764000  0.28069000  0.76683000  1.0
  C  C100  1  0.87575000  0.19008000  0.19105000  1.0
  C  C101  1  0.25686000  0.80993000  0.80895000  1.0
  C  C102  1  0.81684000  0.69007000  0.30892000  1.0
  C  C103  1  0.81579000  0.30995000  0.69108000  1.0
  S  S104  1  0.39002000  0.16357000  0.72292000  1.0
  S  S105  1  0.27654000  0.83643000  0.27708000  1.0
  S  S106  1  0.86293000  0.66357000  0.77708000  1.0
  S  S107  1  0.30356000  0.33644000  0.22293000  1.0
  S  S108  1  0.85961000  0.19726000  0.08310000  1.0
  S  S109  1  0.13996000  0.80271000  0.91689000  1.0
  S  S110  1  0.69269000  0.69728000  0.41686000  1.0
  S  S111  1  0.80689000  0.30275000  0.58311000  1.0
  N  N112  1  0.23087000  0.12308000  0.77978000  1.0
  N  N113  1  0.13374000  0.87687000  0.22023000  1.0
  N  N114  1  0.76061000  0.62311000  0.72022000  1.0
  N  N115  1  0.10394000  0.37693000  0.27977000  1.0
  N  N116  1  0.06723000  0.15367000  0.03970000  1.0
  N  N117  1  0.26062000  0.84628000  0.96030000  1.0
  N  N118  1  0.85689000  0.65369000  0.46029000  1.0
  N  N119  1  0.97091000  0.34634000  0.53971000  1.0
  O  O120  1  0.55010000  0.09571000  0.73552000  1.0
  O  O121  1  0.38137000  0.90428000  0.26444000  1.0
  O  O122  1  0.03561000  0.59572000  0.76447000  1.0
  O  O123  1  0.39580000  0.40428000  0.23553000  1.0
  O  O124  1  0.35738000  0.27358000  0.73785000  1.0
  O  O125  1  0.36881000  0.72642000  0.26218000  1.0
  O  O126  1  0.84517000  0.77358000  0.76215000  1.0
  O  O127  1  0.38087000  0.22643000  0.23788000  1.0
  O  O128  1  0.78071000  0.12203000  0.06852000  1.0
  O  O129  1  0.97126000  0.87792000  0.93148000  1.0
  O  O130  1  0.59912000  0.62211000  0.43146000  1.0
  O  O131  1  0.65279000  0.37797000  0.56851000  1.0
  O  O132  1  0.78670000  0.30259000  0.05545000  1.0
  O  O133  1  0.14475000  0.69736000  0.94450000  1.0
  O  O134  1  0.59219000  0.80263000  0.44449000  1.0
  O  O135  1  0.83936000  0.19740000  0.55548000  1.0
  O  O136  1  0.03640000  0.05094000  0.75714000  1.0
  O  O137  1  0.84453000  0.94902000  0.24285000  1.0
  O  O138  1  0.54348000  0.55101000  0.74286000  1.0
  O  O139  1  0.83735000  0.44905000  0.25715000  1.0
  O  O140  1  0.31518000  0.09525000  0.08404000  1.0
  O  O141  1  0.49447000  0.90470000  0.91599000  1.0
  O  O142  1  0.14918000  0.59525000  0.41599000  1.0
  O  O143  1  0.16043000  0.40477000  0.58405000  1.0
  O  O144  1  0.58609000  0.11929000  0.94931000  1.0
  O  O145  1  0.65479000  0.88065000  0.05070000  1.0
  O  O146  1  0.28539000  0.61935000  0.55070000  1.0
  O  O147  1  0.45539000  0.38069000  0.44931000  1.0
