# generated using pymatgen
data_Zn4H12C24S3O22
_symmetry_space_group_name_H-M   'P 1'
_cell_length_a   15.66760000
_cell_length_b   15.87910000
_cell_length_c   16.08630000
_cell_angle_alpha   66.95650000
_cell_angle_beta   67.24750000
_cell_angle_gamma   66.58250000
_symmetry_Int_Tables_number   1
_chemical_formula_structural   Zn4H12C24S3O22
_chemical_formula_sum   'Zn8 H24 C48 S6 O44'
_cell_volume   3250.27869160
_cell_formula_units_Z   2
loop_
 _symmetry_equiv_pos_site_id
 _symmetry_equiv_pos_as_xyz
  1  'x, y, z'
loop_
 _atom_site_type_symbol
 _atom_site_label
 _atom_site_symmetry_multiplicity
 _atom_site_fract_x
 _atom_site_fract_y
 _atom_site_fract_z
 _atom_site_occupancy
  Zn  Zn0  1  0.00911000  0.02638000  0.01712000  1.0
  Zn  Zn1  1  0.81036000  0.03517000  0.01044000  1.0
  Zn  Zn2  1  0.99645000  0.84065000  0.99987000  1.0
  Zn  Zn3  1  0.99266000  0.03098000  0.82474000  1.0
  Zn  Zn4  1  0.39763000  0.41244000  0.42105000  1.0
  Zn  Zn5  1  0.58828000  0.46260000  0.39056000  1.0
  Zn  Zn6  1  0.44074000  0.41819000  0.59550000  1.0
  Zn  Zn7  1  0.37738000  0.61284000  0.44425000  1.0
  H  H8  1  0.68778000  0.22701000  0.19696000  1.0
  H  H9  1  0.65898000  0.15683000  0.49299000  1.0
  H  H10  1  0.87899000  0.96933000  0.33002000  1.0
  H  H11  1  0.73157000  0.87693000  0.55930000  1.0
  H  H12  1  0.16614000  0.71267000  0.22922000  1.0
  H  H13  1  0.47879000  0.62541000  0.15226000  1.0
  H  H14  1  0.32676000  0.84974000  0.95637000  1.0
  H  H15  1  0.59119000  0.60812000  0.93193000  1.0
  H  H16  1  0.20352000  0.20964000  0.69939000  1.0
  H  H17  1  0.13280000  0.50875000  0.67734000  1.0
  H  H18  1  0.94257000  0.34337000  0.88365000  1.0
  H  H19  1  0.84774000  0.58691000  0.73215000  1.0
  H  H20  1  0.65052000  0.76158000  0.17414000  1.0
  H  H21  1  0.62328000  0.66872000  0.47150000  1.0
  H  H22  1  0.84707000  0.79919000  0.27589000  1.0
  H  H23  1  0.76210000  0.61101000  0.60712000  1.0
  H  H24  1  0.74161000  0.20647000  0.66630000  1.0
  H  H25  1  0.63541000  0.51226000  0.62233000  1.0
  H  H26  1  0.74703000  0.32855000  0.86080000  1.0
  H  H27  1  0.56700000  0.66809000  0.73858000  1.0
  H  H28  1  0.17953000  0.68547000  0.74287000  1.0
  H  H29  1  0.47919000  0.68077000  0.61627000  1.0
  H  H30  1  0.27835000  0.89939000  0.75144000  1.0
  H  H31  1  0.59899000  0.83267000  0.53841000  1.0
  C  C32  1  0.83553000  0.07260000  0.16231000  1.0
  C  C33  1  0.78631000  0.09499000  0.25457000  1.0
  C  C34  1  0.71001000  0.17906000  0.26004000  1.0
  C  C35  1  0.66555000  0.20206000  0.34528000  1.0
  C  C36  1  0.69365000  0.13958000  0.42605000  1.0
  C  C37  1  0.76943000  0.05575000  0.41951000  1.0
  C  C38  1  0.81780000  0.03341000  0.33428000  1.0
  C  C39  1  0.59345000  0.29716000  0.35261000  1.0
  C  C40  1  0.14501000  0.84500000  0.06332000  1.0
  C  C41  1  0.23713000  0.78482000  0.08942000  1.0
  C  C42  1  0.23521000  0.71870000  0.17816000  1.0
  C  C43  1  0.32206000  0.66273000  0.20121000  1.0
  C  C44  1  0.41065000  0.66943000  0.13506000  1.0
  C  C45  1  0.41076000  0.73628000  0.04740000  1.0
  C  C46  1  0.32500000  0.79590000  0.02419000  1.0
  C  C47  1  0.32569000  0.59971000  0.29829000  1.0
  C  C48  1  0.04972000  0.17348000  0.84511000  1.0
  C  C49  1  0.07079000  0.26738000  0.79544000  1.0
  C  C50  1  0.15491000  0.27332000  0.72150000  1.0
  C  C51  1  0.17814000  0.35967000  0.68075000  1.0
  C  C52  1  0.11481000  0.44127000  0.70872000  1.0
  C  C53  1  0.02869000  0.43501000  0.77907000  1.0
  C  C54  1  0.00731000  0.34814000  0.82518000  1.0
  C  C55  1  0.27511000  0.36592000  0.61361000  1.0
  C  C56  1  0.80095000  0.84086000  0.11945000  1.0
  C  C57  1  0.74959000  0.79054000  0.21550000  1.0
  C  C58  1  0.67352000  0.75597000  0.23249000  1.0
  C  C59  1  0.62862000  0.71162000  0.32493000  1.0
  C  C60  1  0.65822000  0.70339000  0.39994000  1.0
  C  C61  1  0.73715000  0.73486000  0.38056000  1.0
  C  C62  1  0.78400000  0.77755000  0.28932000  1.0
  C  C63  1  0.55651000  0.66106000  0.34594000  1.0
  C  C64  1  0.80154000  0.16232000  0.82211000  1.0
  C  C65  1  0.75280000  0.25829000  0.76628000  1.0
  C  C66  1  0.72818000  0.26921000  0.68720000  1.0
  C  C67  1  0.68408000  0.36087000  0.63672000  1.0
  C  C68  1  0.66906000  0.44128000  0.66218000  1.0
  C  C69  1  0.69254000  0.42811000  0.74262000  1.0
  C  C70  1  0.73229000  0.33754000  0.79651000  1.0
  C  C71  1  0.63885000  0.37549000  0.56349000  1.0
  C  C72  1  0.12171000  0.84171000  0.81049000  1.0
  C  C73  1  0.21964000  0.79414000  0.75599000  1.0
  C  C74  1  0.23797000  0.71497000  0.72708000  1.0
  C  C75  1  0.33156000  0.67533000  0.67557000  1.0
  C  C76  1  0.40670000  0.71237000  0.65587000  1.0
  C  C77  1  0.38610000  0.79261000  0.68417000  1.0
  C  C78  1  0.29321000  0.83512000  0.73258000  1.0
  C  C79  1  0.35208000  0.59934000  0.63167000  1.0
  S  S80  1  0.80680000  0.97947000  0.52294000  1.0
  S  S81  1  0.52343000  0.74553000  0.96369000  1.0
  S  S82  1  0.94782000  0.53962000  0.81389000  1.0
  S  S83  1  0.78079000  0.72336000  0.47158000  1.0
  S  S84  1  0.67417000  0.52791000  0.77715000  1.0
  S  S85  1  0.47899000  0.84163000  0.66169000  1.0
  O  O86  1  0.94939000  0.98045000  0.96110000  1.0
  O  O87  1  0.78322000  0.09750000  0.10759000  1.0
  O  O88  1  0.92644000  0.03037000  0.14511000  1.0
  O  O89  1  0.89564000  0.90822000  0.49607000  1.0
  O  O90  1  0.79806000  0.03924000  0.57536000  1.0
  O  O91  1  0.72177000  0.93054000  0.58260000  1.0
  O  O92  1  0.63079000  0.36476000  0.32751000  1.0
  O  O93  1  0.50420000  0.30199000  0.38527000  1.0
  O  O94  1  0.08270000  0.80310000  0.08138000  1.0
  O  O95  1  0.13668000  0.93413000  0.02388000  1.0
  O  O96  1  0.50711000  0.83725000  0.89591000  1.0
  O  O97  1  0.59599000  0.71103000  0.01275000  1.0
  O  O98  1  0.54322000  0.66895000  0.91126000  1.0
  O  O99  1  0.30160000  0.64367000  0.35940000  1.0
  O  O100  1  0.35611000  0.50979000  0.31054000  1.0
  O  O101  1  0.06804000  0.11957000  0.79513000  1.0
  O  O102  1  0.01490000  0.15490000  0.93437000  1.0
  O  O103  1  0.87085000  0.51229000  0.89378000  1.0
  O  O104  1  0.00476000  0.59063000  0.81549000  1.0
  O  O105  1  0.90612000  0.60261000  0.72516000  1.0
  O  O106  1  0.33352000  0.36437000  0.65215000  1.0
  O  O107  1  0.29024000  0.37363000  0.52780000  1.0
  O  O108  1  0.88713000  0.79350000  0.08689000  1.0
  O  O109  1  0.75563000  0.92621000  0.08308000  1.0
  O  O110  1  0.87991000  0.72284000  0.43679000  1.0
  O  O111  1  0.71328000  0.79780000  0.51911000  1.0
  O  O112  1  0.76608000  0.62459000  0.53774000  1.0
  O  O113  1  0.47374000  0.68468000  0.40305000  1.0
  O  O114  1  0.58669000  0.59401000  0.30736000  1.0
  O  O115  1  0.76128000  0.14108000  0.91023000  1.0
  O  O116  1  0.87925000  0.11338000  0.77699000  1.0
  O  O117  1  0.66937000  0.49869000  0.87518000  1.0
  O  O118  1  0.75087000  0.57463000  0.71332000  1.0
  O  O119  1  0.57797000  0.59321000  0.75444000  1.0
  O  O120  1  0.66135000  0.43287000  0.48241000  1.0
  O  O121  1  0.57483000  0.33213000  0.59140000  1.0
  O  O122  1  0.08755000  0.92959000  0.77027000  1.0
  O  O123  1  0.08468000  0.79241000  0.89132000  1.0
  O  O124  1  0.43766000  0.93107000  0.68342000  1.0
  O  O125  1  0.55237000  0.76819000  0.70850000  1.0
  O  O126  1  0.52544000  0.85510000  0.55303000  1.0
  O  O127  1  0.41822000  0.52129000  0.65065000  1.0
  O  O128  1  0.30345000  0.62093000  0.57441000  1.0
  O  O129  1  0.45209000  0.47777000  0.46129000  1.0
