# generated using pymatgen
data_CdH4C5(NO)4
_symmetry_space_group_name_H-M   'P 1'
_cell_length_a   7.86293000
_cell_length_b   7.95254000
_cell_length_c   13.56500000
_cell_angle_alpha   90.01230000
_cell_angle_beta   90.01790000
_cell_angle_gamma   66.73600000
_symmetry_Int_Tables_number   1
_chemical_formula_structural   CdH4C5(NO)4
_chemical_formula_sum   'Cd4 H16 C20 N16 O16'
_cell_volume   779.25800226
_cell_formula_units_Z   4
loop_
 _symmetry_equiv_pos_site_id
 _symmetry_equiv_pos_as_xyz
  1  'x, y, z'
loop_
 _atom_site_type_symbol
 _atom_site_label
 _atom_site_symmetry_multiplicity
 _atom_site_fract_x
 _atom_site_fract_y
 _atom_site_fract_z
 _atom_site_occupancy
  Cd  Cd0  1  0.69646000  0.52901000  0.72652000  1.0
  Cd  Cd1  1  0.30354000  0.47099000  0.27348000  1.0
  Cd  Cd2  1  0.69632000  0.02900000  0.77332000  1.0
  Cd  Cd3  1  0.30368000  0.97100000  0.22669000  1.0
  H  H4  1  0.73141000  0.08230000  0.35220000  1.0
  H  H5  1  0.26859000  0.91770000  0.64779000  1.0
  H  H6  1  0.71291000  0.88103000  0.30499000  1.0
  H  H7  1  0.28709000  0.11897000  0.69501000  1.0
  H  H8  1  0.26816000  0.41772000  0.85241000  1.0
  H  H9  1  0.73184000  0.58228000  0.14759000  1.0
  H  H10  1  0.28718000  0.61874000  0.80525000  1.0
  H  H11  1  0.71282000  0.38126000  0.19475000  1.0
  H  H12  1  0.22412000  0.04523000  0.99130000  1.0
  H  H13  1  0.77587000  0.95477000  0.00870000  1.0
  H  H14  1  0.12050000  0.97781000  0.88910000  1.0
  H  H15  1  0.87950000  0.02219000  0.11090000  1.0
  H  H16  1  0.77643000  0.45458000  0.49113000  1.0
  H  H17  1  0.22357000  0.54542000  0.50887000  1.0
  H  H18  1  0.87968000  0.52221000  0.38889000  1.0
  H  H19  1  0.12033000  0.47778000  0.61111000  1.0
  C  C20  1  0.78650000  0.93269000  0.35807000  1.0
  C  C21  1  0.21350000  0.06731000  0.64193000  1.0
  C  C22  1  0.75351000  0.88371000  0.45904000  1.0
  C  C23  1  0.24648000  0.11629000  0.54096000  1.0
  C  C24  1  0.00868000  0.64996000  0.82815000  1.0
  C  C25  1  0.99132000  0.35004000  0.17185000  1.0
  C  C26  1  0.21328000  0.56734000  0.85823000  1.0
  C  C27  1  0.78673000  0.43266000  0.14177000  1.0
  C  C28  1  0.24607000  0.61641000  0.95924000  1.0
  C  C29  1  0.75393000  0.38359000  0.04076000  1.0
  C  C30  1  0.24377000  0.93792000  0.93671000  1.0
  C  C31  1  0.75623000  0.06208000  0.06329000  1.0
  C  C32  1  0.75651000  0.56192000  0.43653000  1.0
  C  C33  1  0.24349000  0.43808000  0.56347000  1.0
  C  C34  1  0.59196000  0.58626000  0.36854000  1.0
  C  C35  1  0.40804000  0.41374000  0.63146000  1.0
  C  C36  1  0.40824000  0.91335000  0.86866000  1.0
  C  C37  1  0.59176000  0.08666000  0.13134000  1.0
  C  C38  1  0.99118000  0.85035000  0.32820000  1.0
  C  C39  1  0.00882000  0.14965000  0.67180000  1.0
  N  N40  1  0.73661000  0.99001000  0.53758000  1.0
  N  N41  1  0.26339000  0.00998000  0.46242000  1.0
  N  N42  1  0.71425000  0.89550000  0.61487000  1.0
  N  N43  1  0.28575000  0.10450000  0.38513000  1.0
  N  N44  1  0.71536000  0.73758000  0.58849000  1.0
  N  N45  1  0.28463000  0.26242000  0.41151000  1.0
  N  N46  1  0.74039000  0.72679000  0.49011000  1.0
  N  N47  1  0.25961000  0.27321000  0.50989000  1.0
  N  N48  1  0.26239000  0.51038000  0.03781000  1.0
  N  N49  1  0.73762000  0.48963000  0.96219000  1.0
  N  N50  1  0.25959000  0.77317000  0.99030000  1.0
  N  N51  1  0.74040000  0.22683000  0.00970000  1.0
  N  N52  1  0.28486000  0.60487000  0.11511000  1.0
  N  N53  1  0.71514000  0.39513000  0.88489000  1.0
  N  N54  1  0.28435000  0.76253000  0.08871000  1.0
  N  N55  1  0.71565000  0.23747000  0.91129000  1.0
  O  O56  1  0.96460000  0.56256000  0.76169000  1.0
  O  O57  1  0.03540000  0.43744000  0.23831000  1.0
  O  O58  1  0.90496000  0.79979000  0.86780000  1.0
  O  O59  1  0.09504000  0.20021000  0.13220000  1.0
  O  O60  1  0.52083000  0.73214000  0.32006000  1.0
  O  O61  1  0.47917000  0.26786000  0.67993000  1.0
  O  O62  1  0.55211000  0.44614000  0.36323000  1.0
  O  O63  1  0.44790000  0.55386000  0.63677000  1.0
  O  O64  1  0.03530000  0.93797000  0.26194000  1.0
  O  O65  1  0.96470000  0.06203000  0.73806000  1.0
  O  O66  1  0.44797000  0.05353000  0.86313000  1.0
  O  O67  1  0.55202000  0.94649000  0.13687000  1.0
  O  O68  1  0.47938000  0.76723000  0.82037000  1.0
  O  O69  1  0.52065000  0.23277000  0.17965000  1.0
  O  O70  1  0.09491000  0.70044000  0.36781000  1.0
  O  O71  1  0.90509000  0.29956000  0.63218000  1.0
