# generated using pymatgen
data_AlH18(C9O2)3
_symmetry_space_group_name_H-M   'P 1'
_cell_length_a   4.02033000
_cell_length_b   28.91766120
_cell_length_c   28.91650000
_cell_angle_alpha   59.99798524
_cell_angle_beta   89.99860000
_cell_angle_gamma   89.99999999
_symmetry_Int_Tables_number   1
_chemical_formula_structural   AlH18(C9O2)3
_chemical_formula_sum   'Al2 H36 C54 O12'
_cell_volume   2911.33651580
_cell_formula_units_Z   2
loop_
 _symmetry_equiv_pos_site_id
 _symmetry_equiv_pos_as_xyz
  1  'x, y, z'
loop_
 _atom_site_type_symbol
 _atom_site_label
 _atom_site_symmetry_multiplicity
 _atom_site_fract_x
 _atom_site_fract_y
 _atom_site_fract_z
 _atom_site_occupancy
  Al  Al0  1  0.01554000  0.50000000  0.00000000  1.0
  Al  Al1  1  0.01550000  0.16666000  0.66668000  1.0
  H  H2  1  0.84782000  0.30414000  0.52216000  1.0
  H  H3  1  0.87752000  0.35364000  0.42229000  1.0
  H  H4  1  0.25501000  0.18270000  0.51810000  1.0
  H  H5  1  0.25511000  0.48396000  0.14858000  1.0
  H  H6  1  0.84779000  0.36251000  0.14451000  1.0
  H  H7  1  0.87749000  0.31301000  0.24438000  1.0
  H  H8  1  0.84783000  0.17370000  0.80415000  1.0
  H  H9  1  0.87754000  0.22407000  0.85365000  1.0
  H  H10  1  0.25499000  0.29920000  0.68271000  1.0
  H  H11  1  0.25512000  0.36746000  0.98397000  1.0
  H  H12  1  0.84787000  0.49297000  0.86251000  1.0
  H  H13  1  0.87754000  0.44260000  0.81301000  1.0
  H  H14  1  0.84777000  0.02216000  0.67370000  1.0
  H  H15  1  0.87751000  0.92229000  0.72407000  1.0
  H  H16  1  0.25495000  0.01807000  0.79922000  1.0
  H  H17  1  0.25510000  0.64858000  0.86745000  1.0
  H  H18  1  0.84781000  0.64451000  0.99297000  1.0
  H  H19  1  0.87750000  0.74438000  0.94260000  1.0
  H  H20  1  0.45759000  0.21083000  0.39020000  1.0
  H  H21  1  0.10291000  0.25116000  0.37821000  1.0
  H  H22  1  0.11863000  0.18632000  0.43624000  1.0
  H  H23  1  0.45774000  0.45583000  0.27647000  1.0
  H  H24  1  0.10300000  0.41552000  0.28845000  1.0
  H  H25  1  0.11880000  0.48036000  0.23042000  1.0
  H  H26  1  0.45759000  0.39897000  0.71083000  1.0
  H  H27  1  0.10290000  0.37063000  0.75116000  1.0
  H  H28  1  0.11863000  0.37744000  0.68632000  1.0
  H  H29  1  0.45773000  0.26769000  0.95585000  1.0
  H  H30  1  0.10301000  0.29603000  0.91553000  1.0
  H  H31  1  0.11879000  0.28922000  0.98036000  1.0
  H  H32  1  0.45757000  0.89017000  0.89899000  1.0
  H  H33  1  0.10287000  0.87820000  0.87064000  1.0
  H  H34  1  0.11861000  0.93621000  0.87746000  1.0
  H  H35  1  0.45772000  0.77647000  0.76769000  1.0
  H  H36  1  0.10299000  0.78845000  0.79602000  1.0
  H  H37  1  0.11878000  0.73043000  0.78921000  1.0
  C  C38  1  0.52101000  0.58177000  0.96331000  1.0
  C  C39  1  0.52099000  0.45492000  0.08176000  1.0
  C  C40  1  0.52101000  0.46331000  0.95492000  1.0
  C  C41  1  0.52097000  0.21174000  0.58490000  1.0
  C  C42  1  0.52096000  0.20336000  0.71175000  1.0
  C  C43  1  0.52095000  0.08489000  0.70337000  1.0
  C  C44  1  0.54657000  0.24079000  0.52570000  1.0
  C  C45  1  0.72442000  0.28883000  0.49901000  1.0
  C  C46  1  0.74146000  0.31610000  0.44363000  1.0
  C  C47  1  0.59163000  0.29485000  0.41417000  1.0
  C  C48  1  0.41955000  0.24533000  0.44106000  1.0
  C  C49  1  0.39502000  0.21984000  0.49648000  1.0
  C  C50  1  0.60946000  0.32246000  0.35768000  1.0
  C  C51  1  0.60948000  0.34421000  0.30898000  1.0
  C  C52  1  0.59167000  0.37181000  0.25250000  1.0
  C  C53  1  0.41963000  0.42134000  0.22561000  1.0
  C  C54  1  0.39509000  0.44683000  0.17018000  1.0
  C  C55  1  0.54659000  0.42587000  0.14097000  1.0
  C  C56  1  0.72441000  0.37782000  0.16767000  1.0
  C  C57  1  0.74146000  0.35055000  0.22305000  1.0
  C  C58  1  0.54655000  0.23351000  0.74080000  1.0
  C  C59  1  0.72442000  0.21217000  0.78884000  1.0
  C  C60  1  0.74147000  0.24028000  0.81611000  1.0
  C  C61  1  0.59163000  0.29099000  0.79485000  1.0
  C  C62  1  0.41954000  0.31362000  0.74533000  1.0
  C  C63  1  0.39500000  0.28368000  0.71984000  1.0
  C  C64  1  0.60945000  0.31986000  0.82246000  1.0
  C  C65  1  0.60948000  0.34681000  0.84420000  1.0
  C  C66  1  0.59168000  0.37568000  0.87182000  1.0
  C  C67  1  0.41964000  0.35305000  0.92134000  1.0
  C  C68  1  0.39510000  0.38299000  0.94683000  1.0
  C  C69  1  0.54663000  0.43316000  0.92586000  1.0
  C  C70  1  0.72446000  0.45450000  0.87783000  1.0
  C  C71  1  0.74150000  0.42639000  0.85056000  1.0
  C  C72  1  0.54652000  0.02569000  0.73352000  1.0
  C  C73  1  0.72436000  0.99900000  0.71217000  1.0
  C  C74  1  0.74144000  0.94362000  0.74028000  1.0
  C  C75  1  0.59161000  0.91416000  0.79099000  1.0
  C  C76  1  0.41951000  0.94105000  0.81362000  1.0
  C  C77  1  0.39496000  0.99647000  0.78369000  1.0
  C  C78  1  0.60945000  0.85767000  0.81987000  1.0
  C  C79  1  0.60946000  0.80898000  0.84681000  1.0
  C  C80  1  0.59167000  0.75250000  0.87569000  1.0
  C  C81  1  0.41962000  0.72561000  0.85305000  1.0
  C  C82  1  0.39509000  0.67019000  0.88298000  1.0
  C  C83  1  0.54660000  0.64097000  0.93316000  1.0
  C  C84  1  0.72443000  0.66767000  0.95450000  1.0
  C  C85  1  0.74147000  0.72305000  0.92639000  1.0
  C  C86  1  0.26542000  0.22196000  0.41002000  1.0
  C  C87  1  0.26555000  0.44471000  0.25664000  1.0
  C  C88  1  0.26541000  0.36802000  0.72195000  1.0
  C  C89  1  0.26554000  0.29864000  0.94473000  1.0
  C  C90  1  0.26539000  0.91001000  0.86803000  1.0
  C  C91  1  0.26553000  0.75664000  0.79864000  1.0
  O  O92  1  0.27660000  0.45232000  0.98694000  1.0
  O  O93  1  0.27659000  0.56073000  0.95231000  1.0
  O  O94  1  0.27658000  0.48695000  0.06073000  1.0
  O  O95  1  0.74597000  0.49805000  0.94617000  1.0
  O  O96  1  0.74594000  0.44618000  0.05577000  1.0
  O  O97  1  0.74596000  0.55577000  0.99805000  1.0
  O  O98  1  0.27655000  0.10593000  0.71437000  1.0
  O  O99  1  0.27657000  0.17970000  0.60595000  1.0
  O  O100  1  0.27656000  0.21435000  0.67972000  1.0
  O  O101  1  0.74589000  0.11089000  0.66863000  1.0
  O  O102  1  0.74591000  0.16862000  0.72049000  1.0
  O  O103  1  0.74593000  0.22048000  0.61090000  1.0
