# generated using pymatgen
data_MnH12(C8O3)2
_symmetry_space_group_name_H-M   'P 1'
_cell_length_a   7.20004000
_cell_length_b   8.37309000
_cell_length_c   12.75820000
_cell_angle_alpha   109.11400000
_cell_angle_beta   95.29200000
_cell_angle_gamma   90.00300000
_symmetry_Int_Tables_number   1
_chemical_formula_structural   MnH12(C8O3)2
_chemical_formula_sum   'Mn2 H24 C32 O12'
_cell_volume   723.27240942
_cell_formula_units_Z   2
loop_
 _symmetry_equiv_pos_site_id
 _symmetry_equiv_pos_as_xyz
  1  'x, y, z'
loop_
 _atom_site_type_symbol
 _atom_site_label
 _atom_site_symmetry_multiplicity
 _atom_site_fract_x
 _atom_site_fract_y
 _atom_site_fract_z
 _atom_site_occupancy
  Mn  Mn0  1  0.25014000  0.93430000  0.00004000  1.0
  Mn  Mn1  1  0.74986000  0.06569000  0.99996000  1.0
  H  H2  1  0.16176000  0.96122000  0.65990000  1.0
  H  H3  1  0.33839000  0.30126000  0.34024000  1.0
  H  H4  1  0.83824000  0.03877000  0.34010000  1.0
  H  H5  1  0.66161000  0.69876000  0.65976000  1.0
  H  H6  1  0.55628000  0.23512000  0.64521000  1.0
  H  H7  1  0.94311000  0.59064000  0.35439000  1.0
  H  H8  1  0.44374000  0.76488000  0.35479000  1.0
  H  H9  1  0.05690000  0.40936000  0.64560000  1.0
  H  H10  1  0.71054000  0.12830000  0.47683000  1.0
  H  H11  1  0.78862000  0.65260000  0.52273000  1.0
  H  H12  1  0.28946000  0.87169000  0.52317000  1.0
  H  H13  1  0.21139000  0.34741000  0.47727000  1.0
  H  H14  1  0.47544000  0.34445000  0.93029000  1.0
  H  H15  1  0.02544000  0.41296000  0.06979000  1.0
  H  H16  1  0.52455000  0.65555000  0.06971000  1.0
  H  H17  1  0.97455000  0.58704000  0.93021000  1.0
  H  H18  1  0.53127000  0.41693000  0.81820000  1.0
  H  H19  1  0.96943000  0.59771000  0.18148000  1.0
  H  H20  1  0.46872000  0.58307000  0.18180000  1.0
  H  H21  1  0.03056000  0.40229000  0.81852000  1.0
  H  H22  1  0.40486000  0.21881000  0.78911000  1.0
  H  H23  1  0.09559000  0.42894000  0.21115000  1.0
  H  H24  1  0.59513000  0.78119000  0.21088000  1.0
  H  H25  1  0.90441000  0.57106000  0.78884000  1.0
  C  C26  1  0.95184000  0.03328000  0.55135000  1.0
  C  C27  1  0.54806000  0.48216000  0.44862000  1.0
  C  C28  1  0.04816000  0.96672000  0.44867000  1.0
  C  C29  1  0.45196000  0.51785000  0.55138000  1.0
  C  C30  1  0.02903000  0.02110000  0.65321000  1.0
  C  C31  1  0.47102000  0.36793000  0.34686000  1.0
  C  C32  1  0.97097000  0.97890000  0.34680000  1.0
  C  C33  1  0.52897000  0.63209000  0.65314000  1.0
  C  C34  1  0.94451000  0.08448000  0.75251000  1.0
  C  C35  1  0.55574000  0.33163000  0.24753000  1.0
  C  C36  1  0.05548000  0.91551000  0.24748000  1.0
  C  C37  1  0.44427000  0.66838000  0.75247000  1.0
  C  C38  1  0.76958000  0.16214000  0.75064000  1.0
  C  C39  1  0.73056000  0.41132000  0.24929000  1.0
  C  C40  1  0.23041000  0.83785000  0.24936000  1.0
  C  C41  1  0.26944000  0.58868000  0.75070000  1.0
  C  C42  1  0.68931000  0.17481000  0.64927000  1.0
  C  C43  1  0.81029000  0.52603000  0.35044000  1.0
  C  C44  1  0.31068000  0.82518000  0.35073000  1.0
  C  C45  1  0.18972000  0.47397000  0.64956000  1.0
  C  C46  1  0.77901000  0.11265000  0.55253000  1.0
  C  C47  1  0.72050000  0.56081000  0.44719000  1.0
  C  C48  1  0.22099000  0.88734000  0.44748000  1.0
  C  C49  1  0.27952000  0.43920000  0.55280000  1.0
  C  C50  1  0.04588000  0.06528000  0.85442000  1.0
  C  C51  1  0.45439000  0.21057000  0.14570000  1.0
  C  C52  1  0.95411000  0.93471000  0.14558000  1.0
  C  C53  1  0.54561000  0.78944000  0.85430000  1.0
  C  C54  1  0.51334000  0.30638000  0.84480000  1.0
  C  C55  1  0.98734000  0.46065000  0.15522000  1.0
  C  C56  1  0.48665000  0.69361000  0.15520000  1.0
  C  C57  1  0.01266000  0.53935000  0.84478000  1.0
  O  O58  1  0.19094000  0.97640000  0.84456000  1.0
  O  O59  1  0.30970000  0.13110000  0.15564000  1.0
  O  O60  1  0.80905000  0.02359000  0.15545000  1.0
  O  O61  1  0.69032000  0.86890000  0.84436000  1.0
  O  O62  1  0.98987000  0.13743000  0.95126000  1.0
  O  O63  1  0.51008000  0.18631000  0.04880000  1.0
  O  O64  1  0.01013000  0.86257000  0.04874000  1.0
  O  O65  1  0.48992000  0.81369000  0.95121000  1.0
  O  O66  1  0.68773000  0.22311000  0.84741000  1.0
  O  O67  1  0.81289000  0.37490000  0.15263000  1.0
  O  O68  1  0.31227000  0.77688000  0.15259000  1.0
  O  O69  1  0.18712000  0.62510000  0.84737000  1.0
