# generated using pymatgen
data_CoH11C10(NO2)2
_symmetry_space_group_name_H-M   'P 1'
_cell_length_a   6.61857000
_cell_length_b   7.77222000
_cell_length_c   24.79110000
_cell_angle_alpha   89.98470000
_cell_angle_beta   89.88360000
_cell_angle_gamma   87.41320000
_symmetry_Int_Tables_number   1
_chemical_formula_structural   CoH11C10(NO2)2
_chemical_formula_sum   'Co4 H44 C40 N8 O16'
_cell_volume   1273.97636706
_cell_formula_units_Z   4
loop_
 _symmetry_equiv_pos_site_id
 _symmetry_equiv_pos_as_xyz
  1  'x, y, z'
loop_
 _atom_site_type_symbol
 _atom_site_label
 _atom_site_symmetry_multiplicity
 _atom_site_fract_x
 _atom_site_fract_y
 _atom_site_fract_z
 _atom_site_occupancy
  Co  Co0  1  0.10772000  0.05570000  0.21183000  1.0
  Co  Co1  1  0.37561000  0.43878000  0.71183000  1.0
  Co  Co2  1  0.87601000  0.93987000  0.78933000  1.0
  Co  Co3  1  0.60782000  0.55588000  0.28797000  1.0
  H  H4  1  0.13372000  0.23312000  0.35102000  1.0
  H  H5  1  0.30936000  0.98229000  0.29408000  1.0
  H  H6  1  0.33223000  0.19104000  0.27398000  1.0
  H  H7  1  0.83523000  0.05916000  0.36916000  1.0
  H  H8  1  0.06593000  0.93848000  0.37377000  1.0
  H  H9  1  0.70071000  0.14258000  0.18409000  1.0
  H  H10  1  0.47035000  0.09758000  0.10898000  1.0
  H  H11  1  0.96865000  0.83131000  0.02581000  1.0
  H  H12  1  0.18277000  0.89374000  0.10575000  1.0
  H  H13  1  0.64287000  0.84588000  0.98222000  1.0
  H  H14  1  0.43997000  0.83512000  0.02828000  1.0
  H  H15  1  0.36749000  0.27138000  0.85799000  1.0
  H  H16  1  0.17533000  0.51693000  0.80087000  1.0
  H  H17  1  0.14946000  0.30810000  0.78303000  1.0
  H  H18  1  0.66456000  0.44701000  0.86852000  1.0
  H  H19  1  0.43654000  0.57089000  0.87486000  1.0
  H  H20  1  0.79943000  0.35255000  0.68039000  1.0
  H  H21  1  0.03837000  0.40248000  0.60645000  1.0
  H  H22  1  0.54674000  0.67275000  0.52217000  1.0
  H  H23  1  0.32672000  0.60810000  0.60150000  1.0
  H  H24  1  0.87114000  0.65545000  0.47968000  1.0
  H  H25  1  0.07274000  0.66588000  0.52602000  1.0
  H  H26  1  0.86733000  0.77048000  0.64305000  1.0
  H  H27  1  0.67693000  0.01760000  0.70013000  1.0
  H  H28  1  0.65089000  0.80887000  0.71792000  1.0
  H  H29  1  0.16484000  0.94628000  0.63123000  1.0
  H  H30  1  0.93636000  0.06941000  0.62497000  1.0
  H  H31  1  0.30233000  0.85353000  0.81929000  1.0
  H  H32  1  0.54021000  0.90164000  0.89366000  1.0
  H  H33  1  0.04755000  0.17222000  0.97789000  1.0
  H  H34  1  0.82917000  0.10854000  0.89855000  1.0
  H  H35  1  0.37100000  0.15487000  0.02035000  1.0
  H  H36  1  0.57317000  0.16568000  0.97402000  1.0
  H  H37  1  0.63456000  0.73333000  0.14874000  1.0
  H  H38  1  0.80990000  0.48245000  0.20560000  1.0
  H  H39  1  0.83256000  0.69119000  0.22568000  1.0
  H  H40  1  0.33608000  0.55967000  0.13079000  1.0
  H  H41  1  0.56669000  0.43881000  0.12595000  1.0
  H  H42  1  0.20072000  0.64222000  0.31587000  1.0
  H  H43  1  0.96990000  0.59708000  0.39115000  1.0
  H  H44  1  0.46811000  0.33177000  0.47415000  1.0
  H  H45  1  0.68270000  0.39434000  0.39406000  1.0
  H  H46  1  0.14195000  0.34624000  0.51791000  1.0
  H  H47  1  0.93924000  0.33531000  0.47202000  1.0
  C  C48  1  0.92333000  0.27022000  0.28628000  1.0
  C  C49  1  0.07128000  0.15441000  0.31868000  1.0
  C  C50  1  0.96310000  0.00607000  0.34510000  1.0
  C  C51  1  0.88124000  0.86941000  0.30745000  1.0
  C  C52  1  0.75504000  0.07667000  0.14787000  1.0
  C  C53  1  0.62690000  0.04920000  0.10491000  1.0
  C  C54  1  0.69807000  0.95771000  0.05950000  1.0
  C  C55  1  0.90261000  0.90243000  0.05994000  1.0
  C  C56  1  0.02421000  0.93697000  0.10397000  1.0
  C  C57  1  0.55887000  0.91885000  0.01365000  1.0
  C  C58  1  0.56348000  0.22773000  0.79078000  1.0
  C  C59  1  0.41747000  0.34720000  0.82326000  1.0
  C  C60  1  0.53263000  0.49797000  0.84569000  1.0
  C  C61  1  0.60954000  0.62809000  0.80501000  1.0
  C  C62  1  0.74881000  0.42020000  0.64404000  1.0
  C  C63  1  0.88178000  0.44979000  0.60197000  1.0
  C  C64  1  0.81340000  0.54293000  0.55668000  1.0
  C  C65  1  0.60938000  0.59967000  0.55632000  1.0
  C  C66  1  0.48510000  0.56344000  0.59982000  1.0
  C  C67  1  0.95449000  0.58231000  0.51114000  1.0
  C  C68  1  0.06638000  0.72882000  0.70952000  1.0
  C  C69  1  0.91866000  0.84720000  0.67734000  1.0
  C  C70  1  0.03294000  0.99750000  0.65417000  1.0
  C  C71  1  0.10962000  0.12871000  0.69442000  1.0
  C  C72  1  0.25170000  0.92051000  0.85578000  1.0
  C  C73  1  0.38364000  0.94929000  0.89801000  1.0
  C  C74  1  0.31472000  0.04219000  0.94338000  1.0
  C  C75  1  0.11079000  0.09915000  0.94375000  1.0
  C  C76  1  0.98741000  0.06353000  0.90017000  1.0
  C  C77  1  0.45505000  0.08180000  0.98893000  1.0
  C  C78  1  0.42363000  0.77029000  0.21354000  1.0
  C  C79  1  0.57197000  0.65454000  0.18110000  1.0
  C  C80  1  0.46384000  0.50636000  0.15473000  1.0
  C  C81  1  0.38163000  0.36960000  0.19239000  1.0
  C  C82  1  0.25484000  0.57639000  0.35207000  1.0
  C  C83  1  0.12647000  0.54881000  0.39511000  1.0
  C  C84  1  0.19752000  0.45756000  0.44051000  1.0
  C  C85  1  0.40216000  0.40259000  0.44000000  1.0
  C  C86  1  0.52401000  0.43724000  0.39590000  1.0
  C  C87  1  0.05816000  0.41904000  0.48649000  1.0
  N  N88  1  0.23335000  0.09294000  0.28128000  1.0
  N  N89  1  0.95264000  0.02181000  0.14828000  1.0
  N  N90  1  0.24876000  0.40489000  0.78877000  1.0
  N  N91  1  0.55258000  0.47521000  0.64355000  1.0
  N  N92  1  0.75035000  0.90556000  0.71220000  1.0
  N  N93  1  0.05562000  0.97588000  0.85631000  1.0
  N  N94  1  0.73377000  0.59308000  0.21842000  1.0
  N  N95  1  0.45251000  0.52183000  0.35160000  1.0
  O  O96  1  0.92749000  0.25095000  0.23491000  1.0
  O  O97  1  0.30728000  0.87517000  0.18791000  1.0
  O  O98  1  0.91687000  0.87732000  0.25677000  1.0
  O  O99  1  0.78441000  0.75314000  0.33044000  1.0
  O  O100  1  0.55958000  0.23589000  0.73962000  1.0
  O  O101  1  0.18103000  0.62749000  0.68182000  1.0
  O  O102  1  0.56965000  0.61525000  0.75498000  1.0
  O  O103  1  0.71127000  0.74626000  0.82594000  1.0
  O  O104  1  0.06831000  0.74102000  0.76060000  1.0
  O  O105  1  0.68323000  0.12970000  0.81785000  1.0
  O  O106  1  0.07110000  0.11486000  0.74458000  1.0
  O  O107  1  0.20818000  0.24821000  0.67297000  1.0
  O  O108  1  0.42757000  0.75124000  0.26492000  1.0
  O  O109  1  0.80711000  0.37545000  0.31190000  1.0
  O  O110  1  0.41688000  0.37741000  0.24304000  1.0
  O  O111  1  0.28492000  0.25344000  0.16941000  1.0
