# generated using pymatgen
data_BaH9C8N3O5
_symmetry_space_group_name_H-M   'P 1'
_cell_length_a   7.03615000
_cell_length_b   9.73913000
_cell_length_c   9.73908000
_cell_angle_alpha   113.81800000
_cell_angle_beta   103.42400000
_cell_angle_gamma   103.42500000
_symmetry_Int_Tables_number   1
_chemical_formula_structural   BaH9C8N3O5
_chemical_formula_sum   'Ba2 H18 C16 N6 O10'
_cell_volume   552.59137178
_cell_formula_units_Z   2
loop_
 _symmetry_equiv_pos_site_id
 _symmetry_equiv_pos_as_xyz
  1  'x, y, z'
loop_
 _atom_site_type_symbol
 _atom_site_label
 _atom_site_symmetry_multiplicity
 _atom_site_fract_x
 _atom_site_fract_y
 _atom_site_fract_z
 _atom_site_occupancy
  Ba  Ba0  1  0.39222000  0.52603000  0.37123000  1.0
  Ba  Ba1  1  0.89222000  0.37123000  0.52603000  1.0
  H  H2  1  0.82270000  0.48156000  0.89159000  1.0
  H  H3  1  0.32269000  0.89159000  0.48156000  1.0
  H  H4  1  0.85599000  0.50978000  0.16576000  1.0
  H  H5  1  0.35598000  0.16576000  0.50978000  1.0
  H  H6  1  0.89775000  0.23314000  0.01638000  1.0
  H  H7  1  0.39775000  0.01638000  0.23314000  1.0
  H  H8  1  0.85852000  0.99364000  0.21767000  1.0
  H  H9  1  0.35852000  0.21767000  0.99364000  1.0
  H  H10  1  0.85278000  0.82729000  0.04471000  1.0
  H  H11  1  0.35278000  0.04471000  0.82728000  1.0
  H  H12  1  0.61331000  0.84722000  0.06010000  1.0
  H  H13  1  0.11331000  0.06010000  0.84723000  1.0
  H  H14  1  0.68949000  0.02340000  0.79312000  1.0
  H  H15  1  0.18949000  0.79312000  0.02339000  1.0
  H  H16  1  0.52168000  0.85688000  0.79601000  1.0
  H  H17  1  0.02168000  0.79601000  0.85688000  1.0
  H  H18  1  0.76293000  0.85489000  0.77128000  1.0
  H  H19  1  0.26293000  0.77129000  0.85488000  1.0
  C  C20  1  0.18576000  0.48379000  0.96573000  1.0
  C  C21  1  0.68576000  0.96572000  0.48379000  1.0
  C  C22  1  0.40533000  0.49720000  0.97347000  1.0
  C  C23  1  0.90532000  0.97346000  0.49719000  1.0
  C  C24  1  0.71573000  0.50321000  0.08396000  1.0
  C  C25  1  0.21572000  0.08396000  0.50319000  1.0
  C  C26  1  0.50928000  0.48852000  0.86491000  1.0
  C  C27  1  0.00927000  0.86490000  0.48852000  1.0
  C  C28  1  0.46404000  0.48389000  0.70591000  1.0
  C  C29  1  0.96404000  0.70591000  0.48389000  1.0
  C  C30  1  0.89889000  0.17257000  0.09111000  1.0
  C  C31  1  0.39889000  0.09111000  0.17257000  1.0
  C  C32  1  0.77775000  0.91504000  0.08747000  1.0
  C  C33  1  0.27776000  0.08747000  0.91503000  1.0
  C  C34  1  0.68573000  0.93296000  0.83314000  1.0
  C  C35  1  0.18573000  0.83315000  0.93296000  1.0
  N  N36  1  0.53880000  0.50695000  0.10914000  1.0
  N  N37  1  0.03878000  0.10913000  0.50694000  1.0
  N  N38  1  0.70353000  0.49057000  0.93853000  1.0
  N  N39  1  0.20353000  0.93853000  0.49056000  1.0
  N  N40  1  0.78882000  0.01332000  0.00780000  1.0
  N  N41  1  0.28882000  0.00780000  0.01332000  1.0
  O  O42  1  0.14451000  0.48500000  0.08637000  1.0
  O  O43  1  0.64450000  0.08636000  0.48499000  1.0
  O  O44  1  0.05084000  0.47020000  0.84312000  1.0
  O  O45  1  0.55084000  0.84311000  0.47021000  1.0
  O  O46  1  0.31393000  0.52316000  0.65288000  1.0
  O  O47  1  0.81393000  0.65287000  0.52317000  1.0
  O  O48  1  0.58512000  0.44380000  0.63126000  1.0
  O  O49  1  0.08512000  0.63126000  0.44380000  1.0
  O  O50  1  0.99931000  0.25099000  0.24042000  1.0
  O  O51  1  0.49931000  0.24042000  0.25099000  1.0
