# generated using pymatgen
data_La2H17C21N3O16
_symmetry_space_group_name_H-M   'P 1'
_cell_length_a   11.25900000
_cell_length_b   11.36090000
_cell_length_c   12.69000000
_cell_angle_alpha   103.05700000
_cell_angle_beta   106.94700000
_cell_angle_gamma   114.45100000
_symmetry_Int_Tables_number   1
_chemical_formula_structural   La2H17C21N3O16
_chemical_formula_sum   'La4 H34 C42 N6 O32'
_cell_volume   1296.69321353
_cell_formula_units_Z   2
loop_
 _symmetry_equiv_pos_site_id
 _symmetry_equiv_pos_as_xyz
  1  'x, y, z'
loop_
 _atom_site_type_symbol
 _atom_site_label
 _atom_site_symmetry_multiplicity
 _atom_site_fract_x
 _atom_site_fract_y
 _atom_site_fract_z
 _atom_site_occupancy
  La  La0  1  0.18566000  0.13472000  0.18073000  1.0
  La  La1  1  0.81433000  0.86528000  0.81927000  1.0
  La  La2  1  0.16026000  0.43207000  0.52019000  1.0
  La  La3  1  0.83973000  0.56793000  0.47981000  1.0
  H  H4  1  0.71793000  0.25241000  0.14793000  1.0
  H  H5  1  0.28206000  0.74759000  0.85207000  1.0
  H  H6  1  0.63322000  0.19854000  0.92771000  1.0
  H  H7  1  0.36678000  0.80146000  0.07229000  1.0
  H  H8  1  0.36745000  0.10200000  0.80282000  1.0
  H  H9  1  0.63255000  0.89800000  0.19718000  1.0
  H  H10  1  0.00393000  0.47867000  0.91015000  1.0
  H  H11  1  0.99607000  0.52133000  0.08985000  1.0
  H  H12  1  0.18015000  0.43244000  0.04147000  1.0
  H  H13  1  0.81985000  0.56755000  0.95853000  1.0
  H  H14  1  0.35792000  0.39984000  0.97263000  1.0
  H  H15  1  0.64209000  0.60017000  0.02737000  1.0
  H  H16  1  0.21129000  0.03143000  0.60009000  1.0
  H  H17  1  0.78872000  0.96857000  0.39991000  1.0
  H  H18  1  0.28334000  0.84661000  0.55880000  1.0
  H  H19  1  0.71666000  0.15339000  0.44120000  1.0
  H  H20  1  0.28363000  0.75881000  0.35919000  1.0
  H  H21  1  0.71637000  0.24119000  0.64081000  1.0
  H  H22  1  0.88932000  0.14952000  0.29878000  1.0
  H  H23  1  0.11069000  0.85048000  0.70122000  1.0
  H  H24  1  0.95376000  0.19676000  0.03365000  1.0
  H  H25  1  0.04623000  0.80324000  0.96634000  1.0
  H  H26  1  0.32100000  0.45890000  0.21819000  1.0
  H  H27  1  0.67899000  0.54110000  0.78182000  1.0
  H  H28  1  0.45450000  0.64900000  0.53684000  1.0
  H  H29  1  0.54550000  0.35100000  0.46316000  1.0
  H  H30  1  0.45939000  0.45961000  0.29402000  1.0
  H  H31  1  0.54062000  0.54039000  0.70598000  1.0
  H  H32  1  0.04586000  0.32707000  0.16630000  1.0
  H  H33  1  0.95414000  0.67293000  0.83370000  1.0
  H  H34  1  0.82219000  0.24677000  0.33534000  1.0
  H  H35  1  0.17782000  0.75323000  0.66466000  1.0
  H  H36  1  0.37496000  0.51544000  0.40480000  1.0
  H  H37  1  0.62504000  0.48456000  0.59520000  1.0
  C  C38  1  0.50851000  0.20177000  0.14155000  1.0
  C  C39  1  0.49148000  0.79823000  0.85845000  1.0
  C  C40  1  0.60561000  0.21448000  0.09082000  1.0
  C  C41  1  0.39438000  0.78552000  0.90918000  1.0
  C  C42  1  0.55724000  0.18153000  0.96796000  1.0
  C  C43  1  0.44275000  0.81847000  0.03204000  1.0
  C  C44  1  0.41129000  0.12993000  0.89920000  1.0
  C  C45  1  0.58871000  0.87007000  0.10081000  1.0
  C  C46  1  0.32035000  0.11700000  0.95633000  1.0
  C  C47  1  0.67964000  0.88299000  0.04367000  1.0
  C  C48  1  0.55407000  0.24160000  0.27412000  1.0
  C  C49  1  0.44592000  0.75840000  0.72588000  1.0
  C  C50  1  0.16009000  0.05293000  0.88737000  1.0
  C  C51  1  0.83991000  0.94707000  0.11263000  1.0
  C  C52  1  0.07844000  0.45822000  0.77316000  1.0
  C  C53  1  0.92156000  0.54178000  0.22684000  1.0
  C  C54  1  0.08036000  0.46040000  0.88391000  1.0
  C  C55  1  0.91965000  0.53960000  0.11609000  1.0
  C  C56  1  0.17881000  0.43498000  0.95599000  1.0
  C  C57  1  0.82119000  0.56501000  0.04401000  1.0
  C  C58  1  0.27542000  0.41454000  0.91761000  1.0
  C  C59  1  0.72459000  0.58546000  0.08239000  1.0
  C  C60  1  0.27066000  0.42111000  0.80798000  1.0
  C  C61  1  0.72935000  0.57889000  0.19203000  1.0
  C  C62  1  0.97634000  0.48256000  0.68806000  1.0
  C  C63  1  0.02366000  0.51743000  0.31194000  1.0
  C  C64  1  0.38505000  0.42334000  0.76843000  1.0
  C  C65  1  0.61496000  0.57667000  0.23157000  1.0
  C  C66  1  0.19435000  0.04878000  0.43184000  1.0
  C  C67  1  0.80565000  0.95122000  0.56816000  1.0
  C  C68  1  0.22042000  0.99337000  0.51769000  1.0
  C  C69  1  0.77958000  0.00663000  0.48231000  1.0
  C  C70  1  0.25768000  0.89070000  0.49371000  1.0
  C  C71  1  0.74232000  0.10930000  0.50629000  1.0
  C  C72  1  0.25838000  0.84102000  0.38297000  1.0
  C  C73  1  0.74162000  0.15898000  0.61703000  1.0
  C  C74  1  0.22237000  0.89653000  0.29939000  1.0
  C  C75  1  0.77763000  0.10348000  0.70061000  1.0
  C  C76  1  0.16712000  0.16831000  0.45229000  1.0
  C  C77  1  0.83288000  0.83169000  0.54771000  1.0
  C  C78  1  0.20689000  0.84041000  0.17320000  1.0
  C  C79  1  0.79311000  0.15959000  0.82680000  1.0
  N  N80  1  0.36899000  0.15638000  0.07570000  1.0
  N  N81  1  0.63100000  0.84361000  0.92430000  1.0
  N  N82  1  0.17168000  0.43913000  0.73611000  1.0
  N  N83  1  0.82832000  0.56087000  0.26389000  1.0
  N  N84  1  0.19597000  0.00165000  0.32568000  1.0
  N  N85  1  0.80403000  0.99835000  0.67432000  1.0
  O  O86  1  0.68859000  0.29843000  0.34219000  1.0
  O  O87  1  0.31141000  0.70157000  0.65781000  1.0
  O  O88  1  0.45568000  0.21862000  0.31041000  1.0
  O  O89  1  0.54431000  0.78137000  0.68959000  1.0
  O  O90  1  0.10118000  0.98911000  0.77519000  1.0
  O  O91  1  0.89881000  0.01088000  0.22481000  1.0
  O  O92  1  0.08981000  0.06284000  0.94961000  1.0
  O  O93  1  0.91018000  0.93716000  0.05039000  1.0
  O  O94  1  0.96909000  0.45313000  0.58112000  1.0
  O  O95  1  0.03091000  0.54687000  0.41888000  1.0
  O  O96  1  0.90542000  0.53142000  0.72068000  1.0
  O  O97  1  0.09458000  0.46858000  0.27932000  1.0
  O  O98  1  0.47612000  0.39771000  0.82314000  1.0
  O  O99  1  0.52390000  0.60231000  0.17687000  1.0
  O  O100  1  0.38407000  0.46420000  0.67976000  1.0
  O  O101  1  0.61593000  0.53581000  0.32024000  1.0
  O  O102  1  0.12274000  0.19568000  0.52957000  1.0
  O  O103  1  0.87727000  0.80432000  0.47044000  1.0
  O  O104  1  0.19487000  0.24241000  0.38924000  1.0
  O  O105  1  0.80513000  0.75759000  0.61076000  1.0
  O  O106  1  0.17706000  0.90632000  0.10769000  1.0
  O  O107  1  0.82293000  0.09368000  0.89231000  1.0
  O  O108  1  0.21991000  0.73656000  0.13957000  1.0
  O  O109  1  0.78008000  0.26344000  0.86043000  1.0
  O  O110  1  0.36680000  0.55914000  0.47733000  1.0
  O  O111  1  0.63320000  0.44086000  0.52267000  1.0
  O  O112  1  0.34853000  0.41125000  0.26714000  1.0
  O  O113  1  0.65147000  0.58875000  0.73286000  1.0
  O  O114  1  0.04140000  0.24513000  0.11239000  1.0
  O  O115  1  0.95860000  0.75488000  0.88760000  1.0
  O  O116  1  0.91099000  0.24262000  0.35061000  1.0
  O  O117  1  0.08901000  0.75739000  0.64938000  1.0
