# generated using pymatgen
data_CdH19C17N2O7
_symmetry_space_group_name_H-M   'P 1'
_cell_length_a   10.09510000
_cell_length_b   10.13780000
_cell_length_c   10.17250000
_cell_angle_alpha   62.80280000
_cell_angle_beta   73.91930000
_cell_angle_gamma   81.71200000
_symmetry_Int_Tables_number   1
_chemical_formula_structural   CdH19C17N2O7
_chemical_formula_sum   'Cd2 H38 C34 N4 O14'
_cell_volume   889.55388940
_cell_formula_units_Z   2
loop_
 _symmetry_equiv_pos_site_id
 _symmetry_equiv_pos_as_xyz
  1  'x, y, z'
loop_
 _atom_site_type_symbol
 _atom_site_label
 _atom_site_symmetry_multiplicity
 _atom_site_fract_x
 _atom_site_fract_y
 _atom_site_fract_z
 _atom_site_occupancy
  Cd  Cd0  1  0.51233000  0.68278000  0.65132000  1.0
  Cd  Cd1  1  0.48766000  0.31722000  0.34868000  1.0
  H  H2  1  0.25733000  0.83914000  0.62091000  1.0
  H  H3  1  0.74266000  0.16086000  0.37908000  1.0
  H  H4  1  0.35561000  0.96856000  0.50056000  1.0
  H  H5  1  0.64439000  0.03144000  0.49945000  1.0
  H  H6  1  0.74811000  0.43888000  0.72346000  1.0
  H  H7  1  0.25189000  0.56113000  0.27654000  1.0
  H  H8  1  0.63037000  0.39670000  0.67027000  1.0
  H  H9  1  0.36963000  0.60330000  0.32973000  1.0
  H  H10  1  0.20250000  0.30432000  0.61347000  1.0
  H  H11  1  0.79749000  0.69569000  0.38653000  1.0
  H  H12  1  0.27227000  0.53234000  0.59955000  1.0
  H  H13  1  0.72773000  0.46766000  0.40045000  1.0
  H  H14  1  0.99589000  0.29311000  0.03616000  1.0
  H  H15  1  0.00411000  0.70688000  0.96384000  1.0
  H  H16  1  0.13898000  0.37747000  0.15160000  1.0
  H  H17  1  0.86102000  0.62252000  0.84840000  1.0
  H  H18  1  0.33853000  0.54096000  0.97982000  1.0
  H  H19  1  0.66147000  0.45903000  0.02019000  1.0
  H  H20  1  0.07294000  0.35286000  0.42244000  1.0
  H  H21  1  0.92706000  0.64716000  0.57756000  1.0
  H  H22  1  0.91944000  0.31571000  0.57027000  1.0
  H  H23  1  0.08055000  0.68430000  0.42972000  1.0
  H  H24  1  0.99877000  0.05465000  0.70231000  1.0
  H  H25  1  0.00124000  0.94536000  0.29767000  1.0
  H  H26  1  0.16107000  0.09374000  0.56999000  1.0
  H  H27  1  0.83894000  0.90628000  0.42998000  1.0
  H  H28  1  0.05487000  0.14336000  0.35995000  1.0
  H  H29  1  0.94513000  0.85667000  0.64002000  1.0
  H  H30  1  0.88773000  0.12162000  0.48279000  1.0
  H  H31  1  0.11227000  0.87842000  0.51718000  1.0
  H  H32  1  0.49482000  0.71829000  0.10437000  1.0
  H  H33  1  0.50517000  0.28171000  0.89563000  1.0
  H  H34  1  0.75922000  0.04370000  0.71854000  1.0
  H  H35  1  0.24080000  0.95628000  0.28148000  1.0
  H  H36  1  0.82490000  0.12707000  0.88853000  1.0
  H  H37  1  0.17513000  0.87289000  0.11149000  1.0
  H  H38  1  0.73109000  0.99568000  0.16989000  1.0
  H  H39  1  0.26892000  0.00429000  0.83013000  1.0
  C  C40  1  0.23817000  0.49496000  0.72252000  1.0
  C  C41  1  0.76182000  0.50504000  0.27749000  1.0
  C  C42  1  0.12269000  0.40620000  0.80976000  1.0
  C  C43  1  0.87731000  0.59379000  0.19025000  1.0
  C  C44  1  0.08594000  0.36192000  0.96693000  1.0
  C  C45  1  0.91406000  0.63807000  0.03308000  1.0
  C  C46  1  0.16404000  0.40851000  0.03022000  1.0
  C  C47  1  0.83597000  0.59149000  0.96978000  1.0
  C  C48  1  0.27566000  0.49991000  0.93551000  1.0
  C  C49  1  0.72434000  0.50009000  0.06450000  1.0
  C  C50  1  0.03224000  0.36667000  0.73892000  1.0
  C  C51  1  0.96775000  0.63334000  0.26108000  1.0
  C  C52  1  0.02931000  0.28567000  0.54466000  1.0
  C  C53  1  0.97068000  0.71434000  0.45533000  1.0
  C  C54  1  0.05043000  0.12126000  0.58238000  1.0
  C  C55  1  0.94957000  0.87877000  0.41759000  1.0
  C  C56  1  0.99617000  0.08280000  0.47859000  1.0
  C  C57  1  0.00382000  0.91723000  0.52137000  1.0
  C  C58  1  0.55103000  0.77170000  0.32419000  1.0
  C  C59  1  0.44897000  0.22830000  0.67582000  1.0
  C  C60  1  0.60777000  0.84820000  0.15552000  1.0
  C  C61  1  0.39224000  0.15179000  0.84449000  1.0
  C  C62  1  0.56845000  0.80610000  0.05908000  1.0
  C  C63  1  0.43155000  0.19389000  0.94092000  1.0
  C  C64  1  0.62641000  0.87343000  0.90223000  1.0
  C  C65  1  0.37358000  0.12657000  0.09778000  1.0
  C  C66  1  0.71884000  0.98900000  0.84130000  1.0
  C  C67  1  0.28117000  0.01098000  0.15871000  1.0
  C  C68  1  0.75622000  0.03399000  0.93663000  1.0
  C  C69  1  0.24380000  0.96598000  0.06338000  1.0
  C  C70  1  0.70305000  0.96210000  0.09364000  1.0
  C  C71  1  0.29696000  0.03787000  0.90638000  1.0
  C  C72  1  0.59335000  0.81607000  0.80343000  1.0
  C  C73  1  0.40665000  0.18393000  0.19657000  1.0
  N  N74  1  0.31251000  0.54140000  0.78445000  1.0
  N  N75  1  0.68749000  0.45859000  0.21556000  1.0
  N  N76  1  0.09763000  0.32620000  0.62890000  1.0
  N  N77  1  0.90237000  0.67381000  0.37110000  1.0
  O  O78  1  0.62427000  0.77984000  0.40588000  1.0
  O  O79  1  0.37573000  0.22016000  0.59412000  1.0
  O  O80  1  0.43850000  0.70337000  0.38224000  1.0
  O  O81  1  0.56149000  0.29663000  0.61777000  1.0
  O  O82  1  0.64669000  0.87541000  0.66015000  1.0
  O  O83  1  0.35331000  0.12459000  0.33985000  1.0
  O  O84  1  0.51654000  0.70301000  0.86756000  1.0
  O  O85  1  0.48345000  0.29699000  0.13244000  1.0
  O  O86  1  0.34365000  0.88290000  0.60403000  1.0
  O  O87  1  0.65634000  0.11710000  0.39597000  1.0
  O  O88  1  0.66567000  0.47737000  0.68163000  1.0
  O  O89  1  0.33433000  0.52263000  0.31836000  1.0
  O  O90  1  0.90353000  0.37572000  0.78424000  1.0
  O  O91  1  0.09647000  0.62428000  0.21576000  1.0
