# generated using pymatgen
data_CuH7C7SN4Cl
_symmetry_space_group_name_H-M   'P 1'
_cell_length_a   7.11936000
_cell_length_b   7.92013000
_cell_length_c   22.28950000
_cell_angle_alpha   89.99860000
_cell_angle_beta   90.00000000
_cell_angle_gamma   96.28320000
_symmetry_Int_Tables_number   1
_chemical_formula_structural   CuH7C7SN4Cl
_chemical_formula_sum   'Cu4 H28 C28 S4 N16 Cl4'
_cell_volume   1249.27185338
_cell_formula_units_Z   4
loop_
 _symmetry_equiv_pos_site_id
 _symmetry_equiv_pos_as_xyz
  1  'x, y, z'
loop_
 _atom_site_type_symbol
 _atom_site_label
 _atom_site_symmetry_multiplicity
 _atom_site_fract_x
 _atom_site_fract_y
 _atom_site_fract_z
 _atom_site_occupancy
  Cu  Cu0  1  0.59749000  0.42111000  0.70640000  1.0
  Cu  Cu1  1  0.90251000  0.57889000  0.20640000  1.0
  Cu  Cu2  1  0.40251000  0.57889000  0.29360000  1.0
  Cu  Cu3  1  0.09749000  0.42111000  0.79360000  1.0
  H  H4  1  0.54841000  0.36290000  0.48184000  1.0
  H  H5  1  0.95157000  0.63708000  0.98185000  1.0
  H  H6  1  0.45160000  0.63710000  0.51815000  1.0
  H  H7  1  0.04841000  0.36290000  0.01815000  1.0
  H  H8  1  0.63934000  0.18006000  0.51241000  1.0
  H  H9  1  0.86065000  0.81993000  0.01241000  1.0
  H  H10  1  0.36068000  0.81994000  0.48758000  1.0
  H  H11  1  0.13934000  0.18006000  0.98759000  1.0
  H  H12  1  0.58028000  0.54684000  0.83846000  1.0
  H  H13  1  0.91970000  0.45317000  0.33846000  1.0
  H  H14  1  0.41969000  0.45315000  0.16154000  1.0
  H  H15  1  0.08031000  0.54686000  0.66154000  1.0
  H  H16  1  0.49823000  0.81862000  0.88623000  1.0
  H  H17  1  0.00175000  0.18140000  0.38624000  1.0
  H  H18  1  0.50177000  0.18137000  0.11377000  1.0
  H  H19  1  0.99826000  0.81863000  0.61378000  1.0
  H  H20  1  0.42279000  0.05755000  0.81852000  1.0
  H  H21  1  0.07720000  0.94246000  0.31854000  1.0
  H  H22  1  0.57722000  0.94244000  0.18147000  1.0
  H  H23  1  0.92279000  0.05756000  0.68147000  1.0
  H  H24  1  0.42421000  0.01480000  0.70817000  1.0
  H  H25  1  0.07579000  0.98520000  0.20819000  1.0
  H  H26  1  0.57579000  0.98521000  0.29182000  1.0
  H  H27  1  0.92420000  0.01480000  0.79182000  1.0
  H  H28  1  0.47311000  0.81461000  0.61862000  1.0
  H  H29  1  0.02689000  0.18538000  0.11863000  1.0
  H  H30  1  0.52689000  0.18539000  0.38138000  1.0
  H  H31  1  0.97311000  0.81460000  0.88137000  1.0
  C  C32  1  0.54498000  0.65457000  0.81181000  1.0
  C  C33  1  0.95501000  0.34544000  0.31182000  1.0
  C  C34  1  0.45501000  0.34541000  0.18818000  1.0
  C  C35  1  0.04500000  0.65459000  0.68819000  1.0
  C  C36  1  0.49978000  0.80569000  0.83757000  1.0
  C  C37  1  0.00021000  0.19432000  0.33758000  1.0
  C  C38  1  0.50022000  0.19430000  0.16243000  1.0
  C  C39  1  0.99980000  0.80571000  0.66243000  1.0
  C  C40  1  0.45722000  0.93740000  0.80014000  1.0
  C  C41  1  0.04278000  0.06261000  0.30016000  1.0
  C  C42  1  0.54279000  0.06260000  0.19985000  1.0
  C  C43  1  0.95722000  0.93741000  0.69985000  1.0
  C  C44  1  0.45870000  0.91423000  0.73824000  1.0
  C  C45  1  0.04130000  0.08577000  0.23826000  1.0
  C  C46  1  0.54129000  0.08576000  0.26175000  1.0
  C  C47  1  0.95870000  0.91423000  0.76175000  1.0
  C  C48  1  0.50429000  0.75968000  0.71538000  1.0
  C  C49  1  0.99571000  0.24033000  0.21539000  1.0
  C  C50  1  0.49572000  0.24032000  0.28462000  1.0
  C  C51  1  0.00428000  0.75967000  0.78462000  1.0
  C  C52  1  0.50519000  0.72083000  0.65200000  1.0
  C  C53  1  0.99481000  0.27917000  0.15201000  1.0
  C  C54  1  0.49482000  0.27916000  0.34799000  1.0
  C  C55  1  0.00518000  0.72082000  0.84800000  1.0
  C  C56  1  0.59855000  0.36049000  0.57409000  1.0
  C  C57  1  0.90145000  0.63949000  0.07410000  1.0
  C  C58  1  0.40146000  0.63951000  0.42590000  1.0
  C  C59  1  0.09855000  0.36050000  0.92590000  1.0
  S  S60  1  0.67154000  0.24039000  0.63278000  1.0
  S  S61  1  0.82848000  0.75960000  0.13278000  1.0
  S  S62  1  0.32847000  0.75962000  0.36722000  1.0
  S  S63  1  0.17153000  0.24040000  0.86721000  1.0
  N  N64  1  0.54836000  0.63282000  0.75238000  1.0
  N  N65  1  0.95164000  0.36719000  0.25239000  1.0
  N  N66  1  0.45164000  0.36717000  0.24761000  1.0
  N  N67  1  0.04837000  0.63283000  0.74761000  1.0
  N  N68  1  0.54470000  0.56931000  0.63722000  1.0
  N  N69  1  0.95529000  0.43070000  0.13723000  1.0
  N  N70  1  0.45531000  0.43069000  0.36277000  1.0
  N  N71  1  0.04470000  0.56929000  0.86277000  1.0
  N  N72  1  0.54418000  0.51741000  0.58014000  1.0
  N  N73  1  0.95582000  0.48257000  0.08015000  1.0
  N  N74  1  0.45583000  0.48259000  0.41986000  1.0
  N  N75  1  0.04417000  0.51741000  0.91985000  1.0
  N  N76  1  0.59678000  0.29668000  0.51820000  1.0
  N  N77  1  0.90320000  0.70329000  0.01820000  1.0
  N  N78  1  0.40324000  0.70331000  0.48180000  1.0
  N  N79  1  0.09678000  0.29669000  0.98180000  1.0
  Cl  Cl80  1  0.74252000  0.29589000  0.78225000  1.0
  Cl  Cl81  1  0.75748000  0.70411000  0.28225000  1.0
  Cl  Cl82  1  0.25748000  0.70411000  0.21775000  1.0
  Cl  Cl83  1  0.24251000  0.29589000  0.71775000  1.0
