# generated using pymatgen
data_TbCoH20C24N4ClO12
_symmetry_space_group_name_H-M   'P 1'
_cell_length_a   13.08760000
_cell_length_b   15.67586863
_cell_length_c   22.33260000
_cell_angle_alpha   79.51081170
_cell_angle_beta   89.96840000
_cell_angle_gamma   65.32922779
_symmetry_Int_Tables_number   1
_chemical_formula_structural   TbCoH20C24N4ClO12
_chemical_formula_sum   'Tb4 Co4 H80 C96 N16 Cl4 O48'
_cell_volume   4079.33725894
_cell_formula_units_Z   4
loop_
 _symmetry_equiv_pos_site_id
 _symmetry_equiv_pos_as_xyz
  1  'x, y, z'
loop_
 _atom_site_type_symbol
 _atom_site_label
 _atom_site_symmetry_multiplicity
 _atom_site_fract_x
 _atom_site_fract_y
 _atom_site_fract_z
 _atom_site_occupancy
  Tb  Tb0  1  0.33939000  0.05894000  0.95710000  1.0
  Tb  Tb1  1  0.39819000  0.94106000  0.54282000  1.0
  Tb  Tb2  1  0.66061000  0.94106000  0.04290000  1.0
  Tb  Tb3  1  0.60181000  0.05893000  0.45718000  1.0
  Co  Co4  1  0.35909000  0.51027000  0.14035000  1.0
  Co  Co5  1  0.86955000  0.48970000  0.35975000  1.0
  Co  Co6  1  0.64091000  0.48973000  0.85965000  1.0
  Co  Co7  1  0.13045000  0.51030000  0.64025000  1.0
  H  H8  1  0.35776000  0.94205000  0.86082000  1.0
  H  H9  1  0.30014000  0.05803000  0.63915000  1.0
  H  H10  1  0.64223000  0.05795000  0.13918000  1.0
  H  H11  1  0.69990000  0.94197000  0.36085000  1.0
  H  H12  1  0.28071000  0.05357000  0.83386000  1.0
  H  H13  1  0.33443000  0.94654000  0.66615000  1.0
  H  H14  1  0.71929000  0.94644000  0.16615000  1.0
  H  H15  1  0.66560000  0.05346000  0.33386000  1.0
  H  H16  1  0.23722000  0.67707000  0.23227000  1.0
  H  H17  1  0.91468000  0.32306000  0.26778000  1.0
  H  H18  1  0.76277000  0.32294000  0.76774000  1.0
  H  H19  1  0.08531000  0.67696000  0.73222000  1.0
  H  H20  1  0.32289000  0.71267000  0.25187000  1.0
  H  H21  1  0.03605000  0.28727000  0.24823000  1.0
  H  H22  1  0.67708000  0.28735000  0.74814000  1.0
  H  H23  1  0.96395000  0.71273000  0.75177000  1.0
  H  H24  1  0.23450000  0.99947000  0.06889000  1.0
  H  H25  1  0.23411000  0.00051000  0.43102000  1.0
  H  H26  1  0.76551000  0.00053000  0.93111000  1.0
  H  H27  1  0.76589000  0.99949000  0.56898000  1.0
  H  H28  1  0.13707000  0.09735000  0.02593000  1.0
  H  H29  1  0.23432000  0.90269000  0.47395000  1.0
  H  H30  1  0.86293000  0.90266000  0.97407000  1.0
  H  H31  1  0.76568000  0.09731000  0.52604000  1.0
  H  H32  1  0.36618000  0.31308000  0.12560000  1.0
  H  H33  1  0.67975000  0.68699000  0.37438000  1.0
  H  H34  1  0.63380000  0.68693000  0.87440000  1.0
  H  H35  1  0.32025000  0.31301000  0.62562000  1.0
  H  H36  1  0.34128000  0.33863000  0.93102000  1.0
  H  H37  1  0.67973000  0.66170000  0.56895000  1.0
  H  H38  1  0.65872000  0.66137000  0.06898000  1.0
  H  H39  1  0.32025000  0.33831000  0.43105000  1.0
  H  H40  1  0.36632000  0.78464000  0.93232000  1.0
  H  H41  1  0.15053000  0.21526000  0.56777000  1.0
  H  H42  1  0.63368000  0.21536000  0.06768000  1.0
  H  H43  1  0.84946000  0.78473000  0.43223000  1.0
  H  H44  1  0.16535000  0.69419000  0.06913000  1.0
  H  H45  1  0.85955000  0.30579000  0.43104000  1.0
  H  H46  1  0.83464000  0.30582000  0.93087000  1.0
  H  H47  1  0.14044000  0.69421000  0.56896000  1.0
  H  H48  1  0.35818000  0.63133000  0.92025000  1.0
  H  H49  1  0.98911000  0.36853000  0.57985000  1.0
  H  H50  1  0.64179000  0.36868000  0.07974000  1.0
  H  H51  1  0.01090000  0.63146000  0.42016000  1.0
  H  H52  1  0.51006000  0.32201000  0.22275000  1.0
  H  H53  1  0.83245000  0.67791000  0.27739000  1.0
  H  H54  1  0.48994000  0.67800000  0.77724000  1.0
  H  H55  1  0.16755000  0.32209000  0.72261000  1.0
  H  H56  1  0.37346000  0.69674000  0.12705000  1.0
  H  H57  1  0.07043000  0.30338000  0.37304000  1.0
  H  H58  1  0.62653000  0.30326000  0.87295000  1.0
  H  H59  1  0.92958000  0.69662000  0.62697000  1.0
  H  H60  1  0.34529000  0.49993000  0.91953000  1.0
  H  H61  1  0.84493000  0.50028000  0.58054000  1.0
  H  H62  1  0.65471000  0.50007000  0.08047000  1.0
  H  H63  1  0.15507000  0.49973000  0.41946000  1.0
  H  H64  1  0.87192000  0.67770000  0.14441000  1.0
  H  H65  1  0.55018000  0.32187000  0.35551000  1.0
  H  H66  1  0.12808000  0.32230000  0.85559000  1.0
  H  H67  1  0.44982000  0.67814000  0.64447000  1.0
  H  H68  1  0.99908000  0.52233000  0.21430000  1.0
  H  H69  1  0.52198000  0.47731000  0.28567000  1.0
  H  H70  1  0.00093000  0.47766000  0.78569000  1.0
  H  H71  1  0.47802000  0.52270000  0.71432000  1.0
  H  H72  1  0.27618000  0.25039000  0.33322000  1.0
  H  H73  1  0.52720000  0.74950000  0.16690000  1.0
  H  H74  1  0.72383000  0.74961000  0.66678000  1.0
  H  H75  1  0.47280000  0.25050000  0.83310000  1.0
  H  H76  1  0.11905000  0.40111000  0.27369000  1.0
  H  H77  1  0.52064000  0.59879000  0.22641000  1.0
  H  H78  1  0.88095000  0.59889000  0.72631000  1.0
  H  H79  1  0.47936000  0.40121000  0.77359000  1.0
  H  H80  1  0.56283000  0.05054000  0.91878000  1.0
  H  H81  1  0.61329000  0.94938000  0.58121000  1.0
  H  H82  1  0.43717000  0.94946000  0.08122000  1.0
  H  H83  1  0.38670000  0.05061000  0.41879000  1.0
  H  H84  1  0.57088000  0.94074000  0.92170000  1.0
  H  H85  1  0.51165000  0.05914000  0.57837000  1.0
  H  H86  1  0.42912000  0.05926000  0.07830000  1.0
  H  H87  1  0.48834000  0.94085000  0.42162000  1.0
  C  C88  1  0.35946000  0.35400000  0.07962000  1.0
  C  C89  1  0.71379000  0.64613000  0.42039000  1.0
  C  C90  1  0.64054000  0.64600000  0.92038000  1.0
  C  C91  1  0.28621000  0.35387000  0.57961000  1.0
  C  C92  1  0.35425000  0.31458000  0.02917000  1.0
  C  C93  1  0.66904000  0.68562000  0.47080000  1.0
  C  C94  1  0.64575000  0.68542000  0.97083000  1.0
  C  C95  1  0.33095000  0.31438000  0.52920000  1.0
  C  C96  1  0.35955000  0.58389000  0.01755000  1.0
  C  C97  1  0.94332000  0.41609000  0.48256000  1.0
  C  C98  1  0.64044000  0.41611000  0.98245000  1.0
  C  C99  1  0.05670000  0.58390000  0.51744000  1.0
  C  C100  1  0.35381000  0.49277000  0.01720000  1.0
  C  C101  1  0.84655000  0.50729000  0.48288000  1.0
  C  C102  1  0.64618000  0.50723000  0.98280000  1.0
  C  C103  1  0.15346000  0.49271000  0.51712000  1.0
  C  C104  1  0.34568000  0.36887000  0.97068000  1.0
  C  C105  1  0.71452000  0.63137000  0.52932000  1.0
  C  C106  1  0.65432000  0.63112000  0.02932000  1.0
  C  C107  1  0.28547000  0.36864000  0.47068000  1.0
  C  C108  1  0.36592000  0.73258000  0.97181000  1.0
  C  C109  1  0.09821000  0.26733000  0.52828000  1.0
  C  C110  1  0.63407000  0.26742000  0.02819000  1.0
  C  C111  1  0.90179000  0.73266000  0.47173000  1.0
  C  C112  1  0.37922000  0.84281000  0.03815000  1.0
  C  C113  1  0.22186000  0.15718000  0.46188000  1.0
  C  C114  1  0.62079000  0.15718000  0.96185000  1.0
  C  C115  1  0.77813000  0.84282000  0.53813000  1.0
  C  C116  1  0.12805000  0.65751000  0.10176000  1.0
  C  C117  1  0.78566000  0.34247000  0.39840000  1.0
  C  C118  1  0.87195000  0.34249000  0.89824000  1.0
  C  C119  1  0.21433000  0.65753000  0.60160000  1.0
  C  C120  1  0.35999000  0.64832000  0.96534000  1.0
  C  C121  1  0.00802000  0.35160000  0.53476000  1.0
  C  C122  1  0.64000000  0.35168000  0.03466000  1.0
  C  C123  1  0.99198000  0.64840000  0.46525000  1.0
  C  C124  1  0.36353000  0.21400000  0.03779000  1.0
  C  C125  1  0.57764000  0.78613000  0.46212000  1.0
  C  C126  1  0.63647000  0.78600000  0.96222000  1.0
  C  C127  1  0.42234000  0.21386000  0.53787000  1.0
  C  C128  1  0.37194000  0.75166000  0.03027000  1.0
  C  C129  1  0.12347000  0.24832000  0.46982000  1.0
  C  C130  1  0.62807000  0.24833000  0.96974000  1.0
  C  C131  1  0.87653000  0.75168000  0.53019000  1.0
  C  C132  1  0.42465000  0.33768000  0.23535000  1.0
  C  C133  1  0.76275000  0.66223000  0.26477000  1.0
  C  C134  1  0.57536000  0.66232000  0.76465000  1.0
  C  C135  1  0.23726000  0.33777000  0.73523000  1.0
  C  C136  1  0.37123000  0.68461000  0.08063000  1.0
  C  C137  1  0.05588000  0.31543000  0.41947000  1.0
  C  C138  1  0.62878000  0.31538000  0.91938000  1.0
  C  C139  1  0.94413000  0.68457000  0.58054000  1.0
  C  C140  1  0.49989000  0.18495000  0.31436000  1.0
  C  C141  1  0.68507000  0.81511000  0.18580000  1.0
  C  C142  1  0.50012000  0.81504000  0.68563000  1.0
  C  C143  1  0.31493000  0.18489000  0.81420000  1.0
  C  C144  1  0.34638000  0.45849000  0.96454000  1.0
  C  C145  1  0.80472000  0.54169000  0.53551000  1.0
  C  C146  1  0.65362000  0.54151000  0.03546000  1.0
  C  C147  1  0.19528000  0.45832000  0.46449000  1.0
  C  C148  1  0.93801000  0.78964000  0.06072000  1.0
  C  C149  1  0.72793000  0.21023000  0.43943000  1.0
  C  C150  1  0.06199000  0.21037000  0.93929000  1.0
  C  C151  1  0.27206000  0.78977000  0.56056000  1.0
  C  C152  1  0.96330000  0.64767000  0.14377000  1.0
  C  C153  1  0.61134000  0.35207000  0.35626000  1.0
  C  C154  1  0.03671000  0.35233000  0.85623000  1.0
  C  C155  1  0.38865000  0.64794000  0.64373000  1.0
  C  C156  1  0.15035000  0.52852000  0.18023000  1.0
  C  C157  1  0.67921000  0.47133000  0.31986000  1.0
  C  C158  1  0.84966000  0.47148000  0.81977000  1.0
  C  C159  1  0.32081000  0.52866000  0.68013000  1.0
  C  C160  1  0.03349000  0.56232000  0.18212000  1.0
  C  C161  1  0.59624000  0.43743000  0.31791000  1.0
  C  C162  1  0.96651000  0.43768000  0.81788000  1.0
  C  C163  1  0.40376000  0.56258000  0.68208000  1.0
  C  C164  1  0.01133000  0.69644000  0.10294000  1.0
  C  C165  1  0.70796000  0.30347000  0.39720000  1.0
  C  C166  1  0.98868000  0.30356000  0.89707000  1.0
  C  C167  1  0.29204000  0.69653000  0.60280000  1.0
  C  C168  1  0.40349000  0.27516000  0.28109000  1.0
  C  C169  1  0.67915000  0.72474000  0.21903000  1.0
  C  C170  1  0.59652000  0.72484000  0.71891000  1.0
  C  C171  1  0.32085000  0.27526000  0.78097000  1.0
  C  C172  1  0.23280000  0.44125000  0.21835000  1.0
  C  C173  1  0.67444000  0.55863000  0.28175000  1.0
  C  C174  1  0.76721000  0.55875000  0.78165000  1.0
  C  C175  1  0.32557000  0.44137000  0.71825000  1.0
  C  C176  1  0.29264000  0.29833000  0.29652000  1.0
  C  C177  1  0.59152000  0.70154000  0.20359000  1.0
  C  C178  1  0.70736000  0.70167000  0.70348000  1.0
  C  C179  1  0.40848000  0.29846000  0.79641000  1.0
  C  C180  1  0.20648000  0.38125000  0.26375000  1.0
  C  C181  1  0.58822000  0.61861000  0.23634000  1.0
  C  C182  1  0.79354000  0.61874000  0.73625000  1.0
  C  C183  1  0.41179000  0.38139000  0.76366000  1.0
  N  N184  1  0.35795000  0.44111000  0.07396000  1.0
  N  N185  1  0.79925000  0.55894000  0.42611000  1.0
  N  N186  1  0.64204000  0.55889000  0.92604000  1.0
  N  N187  1  0.20076000  0.44106000  0.57389000  1.0
  N  N188  1  0.34191000  0.42071000  0.20549000  1.0
  N  N189  1  0.76300000  0.57917000  0.29460000  1.0
  N  N190  1  0.65809000  0.57930000  0.79451000  1.0
  N  N191  1  0.23701000  0.42082000  0.70540000  1.0
  N  N192  1  0.36517000  0.60298000  0.07440000  1.0
  N  N193  1  0.96820000  0.39705000  0.42570000  1.0
  N  N194  1  0.63484000  0.39701000  0.92559000  1.0
  N  N195  1  0.03181000  0.60295000  0.57430000  1.0
  N  N196  1  0.19744000  0.57590000  0.13993000  1.0
  N  N197  1  0.77354000  0.42405000  0.36020000  1.0
  N  N198  1  0.80257000  0.42410000  0.86007000  1.0
  N  N199  1  0.22646000  0.57595000  0.63980000  1.0
  Cl  Cl200  1  0.54307000  0.45932000  0.16515000  1.0
  Cl  Cl201  1  0.00255000  0.54075000  0.33489000  1.0
  Cl  Cl202  1  0.45694000  0.54068000  0.83485000  1.0
  Cl  Cl203  1  0.99746000  0.45924000  0.66511000  1.0
  O  O204  1  0.54074000  0.00063000  0.94141000  1.0
  O  O205  1  0.54137000  0.99932000  0.55860000  1.0
  O  O206  1  0.45926000  0.99937000  0.05859000  1.0
  O  O207  1  0.45862000  0.00067000  0.44140000  1.0
  O  O208  1  0.39546000  0.16119000  0.09051000  1.0
  O  O209  1  0.55666000  0.83890000  0.40938000  1.0
  O  O210  1  0.60455000  0.83880000  0.90949000  1.0
  O  O211  1  0.44330000  0.16109000  0.59062000  1.0
  O  O212  1  0.48229000  0.15368000  0.36834000  1.0
  O  O213  1  0.63586000  0.84657000  0.13192000  1.0
  O  O214  1  0.51771000  0.84631000  0.63165000  1.0
  O  O215  1  0.36415000  0.15343000  0.86808000  1.0
  O  O216  1  0.58773000  0.14923000  0.28696000  1.0
  O  O217  1  0.73726000  0.85078000  0.21315000  1.0
  O  O218  1  0.41229000  0.85078000  0.71304000  1.0
  O  O219  1  0.26273000  0.14922000  0.78686000  1.0
  O  O220  1  0.29981000  0.99938000  0.87133000  1.0
  O  O221  1  0.29931000  0.00074000  0.62871000  1.0
  O  O222  1  0.70020000  0.00062000  0.12867000  1.0
  O  O223  1  0.70072000  0.99926000  0.37129000  1.0
  O  O224  1  0.34062000  0.19032000  0.98964000  1.0
  O  O225  1  0.53097000  0.80981000  0.51027000  1.0
  O  O226  1  0.65938000  0.80968000  0.01036000  1.0
  O  O227  1  0.46901000  0.19018000  0.48973000  1.0
  O  O228  1  0.31711000  0.66288000  0.23353000  1.0
  O  O229  1  0.98059000  0.33697000  0.26669000  1.0
  O  O230  1  0.68287000  0.33713000  0.76648000  1.0
  O  O231  1  0.01941000  0.66304000  0.73331000  1.0
  O  O232  1  0.38506000  0.89552000  0.98864000  1.0
  O  O233  1  0.28035000  0.10440000  0.51134000  1.0
  O  O234  1  0.61496000  0.10447000  0.01136000  1.0
  O  O235  1  0.71965000  0.89559000  0.48866000  1.0
  O  O236  1  0.22032000  0.05695000  0.03831000  1.0
  O  O237  1  0.27732000  0.94299000  0.46157000  1.0
  O  O238  1  0.77969000  0.94305000  0.96169000  1.0
  O  O239  1  0.72269000  0.05700000  0.53842000  1.0
  O  O240  1  0.97695000  0.81663000  0.01301000  1.0
  O  O241  1  0.79377000  0.18333000  0.48713000  1.0
  O  O242  1  0.02306000  0.18338000  0.98699000  1.0
  O  O243  1  0.20622000  0.81667000  0.51287000  1.0
  O  O244  1  0.83994000  0.83282000  0.07821000  1.0
  O  O245  1  0.67329000  0.16689000  0.42193000  1.0
  O  O246  1  0.16006000  0.16719000  0.92179000  1.0
  O  O247  1  0.32670000  0.83312000  0.57807000  1.0
  O  O248  1  0.37824000  0.86070000  0.09122000  1.0
  O  O249  1  0.23885000  0.13934000  0.40878000  1.0
  O  O250  1  0.62176000  0.13930000  0.90878000  1.0
  O  O251  1  0.76114000  0.86065000  0.59122000  1.0
