# generated using pymatgen
data_Zn4H4C25S4Cl4O15
_symmetry_space_group_name_H-M   'P 1'
_cell_length_a   19.62290000
_cell_length_b   19.72660000
_cell_length_c   33.22740000
_cell_angle_alpha   79.07580000
_cell_angle_beta   79.38520000
_cell_angle_gamma   64.11400000
_symmetry_Int_Tables_number   1
_chemical_formula_structural   Zn4H4C25S4Cl4O15
_chemical_formula_sum   'Zn16 H16 C100 S16 Cl16 O60'
_cell_volume   11286.67597249
_cell_formula_units_Z   4
loop_
 _symmetry_equiv_pos_site_id
 _symmetry_equiv_pos_as_xyz
  1  'x, y, z'
loop_
 _atom_site_type_symbol
 _atom_site_label
 _atom_site_symmetry_multiplicity
 _atom_site_fract_x
 _atom_site_fract_y
 _atom_site_fract_z
 _atom_site_occupancy
  Zn  Zn0  1  0.05592000  0.40078000  0.47904000  1.0
  Zn  Zn1  1  0.98473000  0.48343000  0.56008000  1.0
  Zn  Zn2  1  0.05671000  0.56434000  0.48239000  1.0
  Zn  Zn3  1  0.90005000  0.55519000  0.47872000  1.0
  Zn  Zn4  1  0.69142000  0.35068000  0.27169000  1.0
  Zn  Zn5  1  0.68871000  0.19095000  0.26707000  1.0
  Zn  Zn6  1  0.76931000  0.26500000  0.18945000  1.0
  Zn  Zn7  1  0.84642000  0.19834000  0.27280000  1.0
  Zn  Zn8  1  0.26561000  0.76710000  0.68944000  1.0
  Zn  Zn9  1  0.35106000  0.69675000  0.76972000  1.0
  Zn  Zn10  1  0.19268000  0.84868000  0.77185000  1.0
  Zn  Zn11  1  0.19266000  0.68712000  0.76675000  1.0
  Zn  Zn12  1  0.55940000  0.06151000  0.98297000  1.0
  Zn  Zn13  1  0.40252000  0.05353000  0.97714000  1.0
  Zn  Zn14  1  0.55666000  0.90038000  0.97855000  1.0
  Zn  Zn15  1  0.48257000  0.98398000  0.06041000  1.0
  H  H16  1  0.95323000  0.25553000  0.34763000  1.0
  H  H17  1  0.73978000  0.45185000  0.35694000  1.0
  H  H18  1  0.00275000  0.30299000  0.39585000  1.0
  H  H19  1  0.09230000  0.60169000  0.70003000  1.0
  H  H20  1  0.21150000  0.69065000  0.59810000  1.0
  H  H21  1  0.04466000  0.55511000  0.65041000  1.0
  H  H22  1  0.55516000  0.04495000  0.15279000  1.0
  H  H23  1  0.64028000  0.16408000  0.04902000  1.0
  H  H24  1  0.60565000  0.09239000  0.20050000  1.0
  H  H25  1  0.49911000  0.79080000  0.90189000  1.0
  H  H26  1  0.30435000  0.00565000  0.89350000  1.0
  H  H27  1  0.44857000  0.74548000  0.85318000  1.0
  H  H28  1  0.78514000  0.57520000  0.36164000  1.0
  H  H29  1  0.11115000  0.74885000  0.53434000  1.0
  H  H30  1  0.78525000  0.14650000  0.07183000  1.0
  H  H31  1  0.17947000  0.96739000  0.89021000  1.0
  C  C32  1  0.06020000  0.31713000  0.56290000  1.0
  C  C33  1  0.06957000  0.56998000  0.56861000  1.0
  C  C34  1  0.18231000  0.44162000  0.43944000  1.0
  C  C35  1  0.93338000  0.68555000  0.43829000  1.0
  C  C36  1  0.93169000  0.43084000  0.43081000  1.0
  C  C37  1  0.81792000  0.55945000  0.56210000  1.0
  C  C38  1  0.56531000  0.31022000  0.31281000  1.0
  C  C39  1  0.68199000  0.17954000  0.18106000  1.0
  C  C40  1  0.68704000  0.43142000  0.18683000  1.0
  C  C41  1  0.93639000  0.19039000  0.19103000  1.0
  C  C42  1  0.81498000  0.32364000  0.32016000  1.0
  C  C43  1  0.81146000  0.06674000  0.31005000  1.0
  C  C44  1  0.43261000  0.68769000  0.68568000  1.0
  C  C45  1  0.31998000  0.81942000  0.81817000  1.0
  C  C46  1  0.19008000  0.93367000  0.68892000  1.0
  C  C47  1  0.06530000  0.80679000  0.81008000  1.0
  C  C48  1  0.18149000  0.67885000  0.68064000  1.0
  C  C49  1  0.31688000  0.56772000  0.81220000  1.0
  C  C50  1  0.43760000  0.18396000  0.93810000  1.0
  C  C51  1  0.43284000  0.92869000  0.92985000  1.0
  C  C52  1  0.68444000  0.94028000  0.93909000  1.0
  C  C53  1  0.56128000  0.81677000  0.06240000  1.0
  C  C54  1  0.56715000  0.07217000  0.06942000  1.0
  C  C55  1  0.31518000  0.06084000  0.05987000  1.0
  C  C56  1  0.89920000  0.40325000  0.40341000  1.0
  C  C57  1  0.84402000  0.35153000  0.34928000  1.0
  C  C58  1  0.82427000  0.44601000  0.39286000  1.0
  C  C59  1  0.91793000  0.30870000  0.36040000  1.0
  C  C60  1  0.79752000  0.41993000  0.36551000  1.0
  C  C61  1  0.94514000  0.33479000  0.38717000  1.0
  C  C62  1  0.10150000  0.59650000  0.59683000  1.0
  C  C63  1  0.15383000  0.64949000  0.65167000  1.0
  C  C64  1  0.14903000  0.63465000  0.58144000  1.0
  C  C65  1  0.10758000  0.61062000  0.66687000  1.0
  C  C66  1  0.17440000  0.66131000  0.60912000  1.0
  C  C67  1  0.08155000  0.58462000  0.63945000  1.0
  C  C68  1  0.30527000  0.45490000  0.40290000  1.0
  C  C69  1  0.44335000  0.29638000  0.35060000  1.0
  C  C70  1  0.25754000  0.41728000  0.41507000  1.0
  C  C71  1  0.49075000  0.33426000  0.33784000  1.0
  C  C72  1  0.37560000  0.34050000  0.37417000  1.0
  C  C73  1  0.37296000  0.41068000  0.37920000  1.0
  C  C74  1  0.72545000  0.57577000  0.62972000  1.0
  C  C75  1  0.52468000  0.66886000  0.61777000  1.0
  C  C76  1  0.74329000  0.58273000  0.58700000  1.0
  C  C77  1  0.50688000  0.66215000  0.66051000  1.0
  C  C78  1  0.60456000  0.63674000  0.60652000  1.0
  C  C79  1  0.64565000  0.60667000  0.64089000  1.0
  C  C80  1  0.07583000  0.22561000  0.63116000  1.0
  C  C81  1  0.17706000  0.02560000  0.62110000  1.0
  C  C82  1  0.08571000  0.24304000  0.58843000  1.0
  C  C83  1  0.16677000  0.00814000  0.66383000  1.0
  C  C84  1  0.14427000  0.10498000  0.60927000  1.0
  C  C85  1  0.10962000  0.14620000  0.64311000  1.0
  C  C86  1  0.83913000  0.80289000  0.39606000  1.0
  C  C87  1  0.90602000  0.94754000  0.35070000  1.0
  C  C88  1  0.90797000  0.75943000  0.41253000  1.0
  C  C89  1  0.83717000  0.99147000  0.33434000  1.0
  C  C90  1  0.90683000  0.87857000  0.37295000  1.0
  C  C91  1  0.83862000  0.87144000  0.37322000  1.0
  C  C92  1  0.65096000  0.15450000  0.15160000  1.0
  C  C93  1  0.59565000  0.10129000  0.09820000  1.0
  C  C94  1  0.66103000  0.17556000  0.10868000  1.0
  C  C95  1  0.58487000  0.08137000  0.14088000  1.0
  C  C96  1  0.63353000  0.14832000  0.08230000  1.0
  C  C97  1  0.61257000  0.10784000  0.16724000  1.0
  C  C98  1  0.66956000  0.52374000  0.11869000  1.0
  C  C99  1  0.57722000  0.72378000  0.13017000  1.0
  C  C100  1  0.66239000  0.50573000  0.16146000  1.0
  C  C101  1  0.58487000  0.74216000  0.08744000  1.0
  C  C102  1  0.60819000  0.64418000  0.14154000  1.0
  C  C103  1  0.63846000  0.60347000  0.10734000  1.0
  C  C104  1  0.08415000  0.12300000  0.17874000  1.0
  C  C105  1  0.16760000  0.12838000  0.07240000  1.0
  C  C106  1  0.01147000  0.16444000  0.16637000  1.0
  C  C107  1  0.24034000  0.08690000  0.08474000  1.0
  C  C108  1  0.11067000  0.14159000  0.10673000  1.0
  C  C109  1  0.14113000  0.10996000  0.14443000  1.0
  C  C110  1  0.34884000  0.84988000  0.84603000  1.0
  C  C111  1  0.40413000  0.90068000  0.90064000  1.0
  C  C112  1  0.30730000  0.92395000  0.85712000  1.0
  C  C113  1  0.44561000  0.82744000  0.88923000  1.0
  C  C114  1  0.33523000  0.94851000  0.88460000  1.0
  C  C115  1  0.41778000  0.80249000  0.86216000  1.0
  C  C116  1  0.41015000  0.44968000  0.85472000  1.0
  C  C117  1  0.34400000  0.30330000  0.89684000  1.0
  C  C118  1  0.34221000  0.49320000  0.83741000  1.0
  C  C119  1  0.41220000  0.25931000  0.91385000  1.0
  C  C120  1  0.34339000  0.37269000  0.87528000  1.0
  C  C121  1  0.41082000  0.38032000  0.87646000  1.0
  C  C122  1  0.94434000  0.79243000  0.84978000  1.0
  C  C123  1  0.80501000  0.95444000  0.89892000  1.0
  C  C124  1  0.99041000  0.83119000  0.83495000  1.0
  C  C125  1  0.75881000  0.91578000  0.91378000  1.0
  C  C126  1  0.87258000  0.90943000  0.87551000  1.0
  C  C127  1  0.87656000  0.83751000  0.87305000  1.0
  C  C128  1  0.76853000  0.51588000  0.41250000  1.0
  C  C129  1  0.17969000  0.64275000  0.53652000  1.0
  C  C130  1  0.69466000  0.23164000  0.08961000  1.0
  C  C131  1  0.23679000  0.98124000  0.83809000  1.0
  S  S132  1  0.29553000  0.32825000  0.39795000  1.0
  S  S133  1  0.45253000  0.42336000  0.35487000  1.0
  S  S134  1  0.66292000  0.62627000  0.56060000  1.0
  S  S135  1  0.58741000  0.61656000  0.68682000  1.0
  S  S136  1  0.13637000  0.16264000  0.56300000  1.0
  S  S137  1  0.11774000  0.08851000  0.68940000  1.0
  S  S138  1  0.97186000  0.80185000  0.40003000  1.0
  S  S139  1  0.77382000  0.94832000  0.34601000  1.0
  S  S140  1  0.61754000  0.58573000  0.18757000  1.0
  S  S141  1  0.62955000  0.66211000  0.06135000  1.0
  S  S142  1  0.01283000  0.18725000  0.11298000  1.0
  S  S143  1  0.23897000  0.06439000  0.13815000  1.0
  S  S144  1  0.27940000  0.44950000  0.84766000  1.0
  S  S145  1  0.47510000  0.30295000  0.90367000  1.0
  S  S146  1  0.95101000  0.92239000  0.84941000  1.0
  S  S147  1  0.79793000  0.82477000  0.89905000  1.0
  Cl  Cl148  1  0.28872000  0.54176000  0.41423000  1.0
  Cl  Cl149  1  0.46039000  0.20843000  0.34028000  1.0
  Cl  Cl150  1  0.78820000  0.53558000  0.66583000  1.0
  Cl  Cl151  1  0.46189000  0.70960000  0.58177000  1.0
  Cl  Cl152  1  0.02980000  0.28832000  0.66654000  1.0
  Cl  Cl153  1  0.22243000  0.96311000  0.58553000  1.0
  Cl  Cl154  1  0.76339000  0.77988000  0.40117000  1.0
  Cl  Cl155  1  0.98241000  0.96955000  0.34571000  1.0
  Cl  Cl156  1  0.70890000  0.46130000  0.08308000  1.0
  Cl  Cl157  1  0.53664000  0.78582000  0.16617000  1.0
  Cl  Cl158  1  0.10626000  0.08994000  0.22811000  1.0
  Cl  Cl159  1  0.14526000  0.16143000  0.02308000  1.0
  Cl  Cl160  1  0.48548000  0.47284000  0.85118000  1.0
  Cl  Cl161  1  0.26853000  0.28053000  0.90008000  1.0
  Cl  Cl162  1  0.96319000  0.70236000  0.84233000  1.0
  Cl  Cl163  1  0.78650000  0.04437000  0.90644000  1.0
  O  O164  1  0.00010000  0.50024000  0.49961000  1.0
  O  O165  1  0.08071000  0.31578000  0.52401000  1.0
  O  O166  1  0.04258000  0.52160000  0.58485000  1.0
  O  O167  1  0.15476000  0.50618000  0.45237000  1.0
  O  O168  1  0.02025000  0.37565000  0.58130000  1.0
  O  O169  1  0.15136000  0.39455000  0.44529000  1.0
  O  O170  1  0.07076000  0.59901000  0.53091000  1.0
  O  O171  1  0.00244000  0.65754000  0.44656000  1.0
  O  O172  1  0.89581000  0.50070000  0.43616000  1.0
  O  O173  1  0.88551000  0.65635000  0.45016000  1.0
  O  O174  1  0.99265000  0.38315000  0.44579000  1.0
  O  O175  1  0.87684000  0.53322000  0.58108000  1.0
  O  O176  1  0.81635000  0.56847000  0.52302000  1.0
  O  O177  1  0.74824000  0.25207000  0.25007000  1.0
  O  O178  1  0.59391000  0.35932000  0.30383000  1.0
  O  O179  1  0.65601000  0.17303000  0.21897000  1.0
  O  O180  1  0.72083000  0.37246000  0.16825000  1.0
  O  O181  1  0.59502000  0.24347000  0.30230000  1.0
  O  O182  1  0.67196000  0.43363000  0.22593000  1.0
  O  O183  1  0.73271000  0.20419000  0.16576000  1.0
  O  O184  1  0.87913000  0.22700000  0.17038000  1.0
  O  O185  1  0.85913000  0.25853000  0.30901000  1.0
  O  O186  1  0.93450000  0.17467000  0.23009000  1.0
  O  O187  1  0.74925000  0.36681000  0.30892000  1.0
  O  O188  1  0.74642000  0.09121000  0.29678000  1.0
  O  O189  1  0.85508000  0.10098000  0.30448000  1.0
  O  O190  1  0.25006000  0.75019000  0.75002000  1.0
  O  O191  1  0.37324000  0.72404000  0.66708000  1.0
  O  O192  1  0.36832000  0.76049000  0.80206000  1.0
  O  O193  1  0.17467000  0.93440000  0.72809000  1.0
  O  O194  1  0.43477000  0.67075000  0.72480000  1.0
  O  O195  1  0.22272000  0.87540000  0.66971000  1.0
  O  O196  1  0.24928000  0.85423000  0.81356000  1.0
  O  O197  1  0.09316000  0.85638000  0.80102000  1.0
  O  O198  1  0.16653000  0.66109000  0.71915000  1.0
  O  O199  1  0.09558000  0.73976000  0.79997000  1.0
  O  O200  1  0.21750000  0.71945000  0.66424000  1.0
  O  O201  1  0.36079000  0.60183000  0.80524000  1.0
  O  O202  1  0.25154000  0.59138000  0.79945000  1.0
  O  O203  1  0.50087000  0.99937000  0.99980000  1.0
  O  O204  1  0.50439000  0.15762000  0.94948000  1.0
  O  O205  1  0.38938000  0.99442000  0.94039000  1.0
  O  O206  1  0.65436000  0.89244000  0.94680000  1.0
  O  O207  1  0.39214000  0.15152000  0.94563000  1.0
  O  O208  1  0.65677000  0.00572000  0.95107000  1.0
  O  O209  1  0.49792000  0.88486000  0.94173000  1.0
  O  O210  1  0.57729000  0.81552000  0.02327000  1.0
  O  O211  1  0.52943000  0.03317000  0.08583000  1.0
  O  O212  1  0.52746000  0.87551000  0.08124000  1.0
  O  O213  1  0.58329000  0.08869000  0.03090000  1.0
  O  O214  1  0.31631000  0.07449000  0.02078000  1.0
  O  O215  1  0.37297000  0.02621000  0.08030000  1.0
  O  O216  1  0.75147000  0.58340000  0.38755000  1.0
  O  O217  1  0.73553000  0.51339000  0.44701000  1.0
  O  O218  1  0.15216000  0.71497000  0.51638000  1.0
  O  O219  1  0.22973000  0.59092000  0.51946000  1.0
  O  O220  1  0.76535000  0.20186000  0.06796000  1.0
  O  O221  1  0.66022000  0.29966000  0.09017000  1.0
  O  O222  1  0.17022000  0.00042000  0.86403000  1.0
  O  O223  1  0.23804000  0.01346000  0.80324000  1.0
