# generated using pymatgen
data_NiH22C14(N2O3)2
_symmetry_space_group_name_H-M   'P 1'
_cell_length_a   9.04068000
_cell_length_b   9.04065000
_cell_length_c   11.51960000
_cell_angle_alpha   69.50050000
_cell_angle_beta   69.49980000
_cell_angle_gamma   79.30700000
_symmetry_Int_Tables_number   1
_chemical_formula_structural   NiH22C14(N2O3)2
_chemical_formula_sum   'Ni2 H44 C28 N8 O12'
_cell_volume   823.93920107
_cell_formula_units_Z   2
loop_
 _symmetry_equiv_pos_site_id
 _symmetry_equiv_pos_as_xyz
  1  'x, y, z'
loop_
 _atom_site_type_symbol
 _atom_site_label
 _atom_site_symmetry_multiplicity
 _atom_site_fract_x
 _atom_site_fract_y
 _atom_site_fract_z
 _atom_site_occupancy
  Ni  Ni0  1  0.44943000  0.55056000  0.25000000  1.0
  Ni  Ni1  1  0.55057000  0.44944000  0.75000000  1.0
  H  H2  1  0.60609000  0.09638000  0.52178000  1.0
  H  H3  1  0.90363000  0.39395000  0.97819000  1.0
  H  H4  1  0.39395000  0.90364000  0.47819000  1.0
  H  H5  1  0.09637000  0.60607000  0.02180000  1.0
  H  H6  1  0.40184000  0.10837000  0.58253000  1.0
  H  H7  1  0.89164000  0.59821000  0.91747000  1.0
  H  H8  1  0.59821000  0.89164000  0.41746000  1.0
  H  H9  1  0.10836000  0.40182000  0.08253000  1.0
  H  H10  1  0.29626000  0.64456000  0.51171000  1.0
  H  H11  1  0.35543000  0.70373000  0.98828000  1.0
  H  H12  1  0.70374000  0.35545000  0.48828000  1.0
  H  H13  1  0.64456000  0.29626000  0.01173000  1.0
  H  H14  1  0.09932000  0.57856000  0.25156000  1.0
  H  H15  1  0.42144000  0.90066000  0.24844000  1.0
  H  H16  1  0.90068000  0.42143000  0.74844000  1.0
  H  H17  1  0.57855000  0.09934000  0.75156000  1.0
  H  H18  1  0.86716000  0.71950000  0.42069000  1.0
  H  H19  1  0.28050000  0.13283000  0.07932000  1.0
  H  H20  1  0.13284000  0.28048000  0.57932000  1.0
  H  H21  1  0.71950000  0.86717000  0.92068000  1.0
  H  H22  1  0.06958000  0.75970000  0.65174000  1.0
  H  H23  1  0.24029000  0.93043000  0.84826000  1.0
  H  H24  1  0.93042000  0.24029000  0.34827000  1.0
  H  H25  1  0.75970000  0.06958000  0.15174000  1.0
  H  H26  1  0.88208000  0.70791000  0.66988000  1.0
  H  H27  1  0.29208000  0.11792000  0.83013000  1.0
  H  H28  1  0.11791000  0.29207000  0.33012000  1.0
  H  H29  1  0.70791000  0.88209000  0.16988000  1.0
  H  H30  1  0.84306000  0.95942000  0.49833000  1.0
  H  H31  1  0.04057000  0.15694000  0.00168000  1.0
  H  H32  1  0.15694000  0.04056000  0.50167000  1.0
  H  H33  1  0.95943000  0.84307000  0.99832000  1.0
  H  H34  1  0.86995000  0.99285000  0.63107000  1.0
  H  H35  1  0.00715000  0.13005000  0.86893000  1.0
  H  H36  1  0.13005000  0.00714000  0.36893000  1.0
  H  H37  1  0.99285000  0.86995000  0.13107000  1.0
  H  H38  1  0.58460000  0.64269000  0.44930000  1.0
  H  H39  1  0.35731000  0.41540000  0.05070000  1.0
  H  H40  1  0.41541000  0.35732000  0.55070000  1.0
  H  H41  1  0.64268000  0.58460000  0.94930000  1.0
  H  H42  1  0.68706000  0.59921000  0.31855000  1.0
  H  H43  1  0.40077000  0.31294000  0.18145000  1.0
  H  H44  1  0.31294000  0.40079000  0.68145000  1.0
  H  H45  1  0.59921000  0.68707000  0.81855000  1.0
  C  C46  1  0.49222000  0.21197000  0.37548000  1.0
  C  C47  1  0.78804000  0.50778000  0.12451000  1.0
  C  C48  1  0.50779000  0.78804000  0.62451000  1.0
  C  C49  1  0.21196000  0.49222000  0.87549000  1.0
  C  C50  1  0.49990000  0.08313000  0.50141000  1.0
  C  C51  1  0.91688000  0.50013000  0.99858000  1.0
  C  C52  1  0.50013000  0.91689000  0.49857000  1.0
  C  C53  1  0.08312000  0.49989000  0.00142000  1.0
  C  C54  1  0.21347000  0.64539000  0.46243000  1.0
  C  C55  1  0.35460000  0.78652000  0.03757000  1.0
  C  C56  1  0.78653000  0.35460000  0.53757000  1.0
  C  C57  1  0.64540000  0.21348000  0.96244000  1.0
  C  C58  1  0.10619000  0.61562000  0.32923000  1.0
  C  C59  1  0.38437000  0.89379000  0.17078000  1.0
  C  C60  1  0.89380000  0.38436000  0.67078000  1.0
  C  C61  1  0.61563000  0.10621000  0.82923000  1.0
  C  C62  1  0.99120000  0.68650000  0.41193000  1.0
  C  C63  1  0.31349000  0.00879000  0.08808000  1.0
  C  C64  1  0.00880000  0.31348000  0.58808000  1.0
  C  C65  1  0.68650000  0.99121000  0.91192000  1.0
  C  C66  1  0.98358000  0.77517000  0.59999000  1.0
  C  C67  1  0.22482000  0.01642000  0.90001000  1.0
  C  C68  1  0.01642000  0.22481000  0.40001000  1.0
  C  C69  1  0.77518000  0.98359000  0.09999000  1.0
  C  C70  1  0.93164000  0.94929000  0.54699000  1.0
  C  C71  1  0.05070000  0.06837000  0.95302000  1.0
  C  C72  1  0.06837000  0.05069000  0.45301000  1.0
  C  C73  1  0.94930000  0.93164000  0.04699000  1.0
  N  N74  1  0.24417000  0.59061000  0.36194000  1.0
  N  N75  1  0.40938000  0.75582000  0.13806000  1.0
  N  N76  1  0.75583000  0.40938000  0.63806000  1.0
  N  N77  1  0.59061000  0.24418000  0.86195000  1.0
  N  N78  1  0.06068000  0.70388000  0.49542000  1.0
  N  N79  1  0.29611000  0.93931000  0.00458000  1.0
  N  N80  1  0.93932000  0.29610000  0.50458000  1.0
  N  N81  1  0.70388000  0.06069000  0.99542000  1.0
  O  O82  1  0.47919000  0.35523000  0.38169000  1.0
  O  O83  1  0.64478000  0.52081000  0.11830000  1.0
  O  O84  1  0.52082000  0.64478000  0.61830000  1.0
  O  O85  1  0.35522000  0.47920000  0.88169000  1.0
  O  O86  1  0.49711000  0.17670000  0.27825000  1.0
  O  O87  1  0.82329000  0.50285000  0.22176000  1.0
  O  O88  1  0.50287000  0.82331000  0.72175000  1.0
  O  O89  1  0.17670000  0.49712000  0.77825000  1.0
  O  O90  1  0.61014000  0.67914000  0.35371000  1.0
  O  O91  1  0.32086000  0.38986000  0.14629000  1.0
  O  O92  1  0.38988000  0.32088000  0.64629000  1.0
  O  O93  1  0.67912000  0.61014000  0.85371000  1.0
