# generated using pymatgen
data_Al2H7C20N4ClO18
_symmetry_space_group_name_H-M   'P 1'
_cell_length_a   6.63995000
_cell_length_b   10.94690000
_cell_length_c   11.13545911
_cell_angle_alpha   88.67667022
_cell_angle_beta   73.09668501
_cell_angle_gamma   74.23460000
_symmetry_Int_Tables_number   1
_chemical_formula_structural   Al2H7C20N4ClO18
_chemical_formula_sum   'Al2 H7 C20 N4 Cl1 O18'
_cell_volume   743.92560344
_cell_formula_units_Z   1
loop_
 _symmetry_equiv_pos_site_id
 _symmetry_equiv_pos_as_xyz
  1  'x, y, z'
loop_
 _atom_site_type_symbol
 _atom_site_label
 _atom_site_symmetry_multiplicity
 _atom_site_fract_x
 _atom_site_fract_y
 _atom_site_fract_z
 _atom_site_occupancy
  Al  Al0  1  0.99451000  0.49986000  0.49641000  1.0
  Al  Al1  1  0.49979000  0.49413000  0.49228000  1.0
  H  H2  1  0.62644000  0.59027000  0.63875000  1.0
  H  H3  1  0.35006000  0.34957000  0.41001000  1.0
  H  H4  1  0.68966000  0.08812000  0.41285000  1.0
  H  H5  1  0.18776000  0.13840000  0.56803000  1.0
  H  H6  1  0.82600000  0.85297000  0.42466000  1.0
  H  H7  1  0.47451000  0.31567000  0.76640000  1.0
  H  H8  1  0.22406000  0.35919000  0.23435000  1.0
  C  C9  1  0.13876000  0.47900000  0.72054000  1.0
  C  C10  1  0.14986000  0.72313000  0.50461000  1.0
  C  C11  1  0.85559000  0.51971000  0.27134000  1.0
  C  C12  1  0.85563000  0.26696000  0.48265000  1.0
  C  C13  1  0.07993000  0.86398000  0.50334000  1.0
  C  C14  1  0.93254000  0.12692000  0.48845000  1.0
  C  C15  1  0.18069000  0.94519000  0.54563000  1.0
  C  C16  1  0.82646000  0.04755000  0.44999000  1.0
  C  C17  1  0.11015000  0.07590000  0.53513000  1.0
  C  C18  1  0.90287000  0.91705000  0.45612000  1.0
  C  C19  1  0.06771000  0.48327000  0.86221000  1.0
  C  C20  1  0.20813000  0.41205000  0.93014000  1.0
  C  C21  1  0.86631000  0.56346000  0.92860000  1.0
  C  C22  1  0.41627000  0.32726000  0.86852000  1.0
  C  C23  1  0.54617000  0.25992000  0.93723000  1.0
  C  C24  1  0.93260000  0.51233000  0.12947000  1.0
  C  C25  1  0.80294000  0.58190000  0.06071000  1.0
  C  C26  1  0.13622000  0.42452000  0.06503000  1.0
  C  C27  1  0.27254000  0.35080000  0.13243000  1.0
  C  C28  1  0.47425000  0.27198000  0.07014000  1.0
  N  N29  1  0.60072000  0.68077000  0.12762000  1.0
  N  N30  1  0.72234000  0.64100000  0.85799000  1.0
  N  N31  1  0.75653000  0.16881000  0.86858000  1.0
  N  N32  1  0.61669000  0.21056000  0.14638000  1.0
  Cl  Cl33  1  0.38069000  0.89039000  0.61944000  1.0
  O  O34  1  0.00000000  0.46683000  0.66764000  1.0
  O  O35  1  0.35164000  0.66696000  0.48520000  1.0
  O  O36  1  0.67468000  0.49442000  0.31944000  1.0
  O  O37  1  0.99996000  0.32776000  0.46515000  1.0
  O  O38  1  0.98438000  0.54043000  0.32736000  1.0
  O  O39  1  0.65263000  0.31720000  0.49535000  1.0
  O  O40  1  0.32835000  0.49150000  0.66832000  1.0
  O  O41  1  0.99842000  0.66765000  0.52341000  1.0
  O  O42  1  0.69286000  0.54579000  0.55603000  1.0
  O  O43  1  0.30007000  0.43993000  0.43531000  1.0
  O  O44  1  0.61548000  0.74835000  0.21015000  1.0
  O  O45  1  0.43483000  0.68828000  0.09535000  1.0
  O  O46  1  0.58624000  0.59506000  0.83506000  1.0
  O  O47  1  0.75505000  0.74430000  0.82660000  1.0
  O  O48  1  0.89876000  0.21458000  0.80195000  1.0
  O  O49  1  0.76880000  0.05503000  0.88105000  1.0
  O  O50  1  0.52678000  0.19253000  0.25703000  1.0
  O  O51  1  0.81702000  0.18453000  0.09581000  1.0
