# generated using pymatgen
data_ZnSiH4C8S4N4(OF3)2
_symmetry_space_group_name_H-M   'P 1'
_cell_length_a   7.43688000
_cell_length_b   8.90164000
_cell_length_c   8.93105000
_cell_angle_alpha   79.77400000
_cell_angle_beta   90.46630000
_cell_angle_gamma   90.33770000
_symmetry_Int_Tables_number   1
_chemical_formula_structural   ZnSiH4C8S4N4(OF3)2
_chemical_formula_sum   'Zn1 Si1 H4 C8 S4 N4 O2 F6'
_cell_volume   581.82237199
_cell_formula_units_Z   1
loop_
 _symmetry_equiv_pos_site_id
 _symmetry_equiv_pos_as_xyz
  1  'x, y, z'
loop_
 _atom_site_type_symbol
 _atom_site_label
 _atom_site_symmetry_multiplicity
 _atom_site_fract_x
 _atom_site_fract_y
 _atom_site_fract_z
 _atom_site_occupancy
  Zn  Zn0  1  0.48478000  0.48699000  0.51271000  1.0
  Si  Si1  1  0.98288000  0.49838000  0.50155000  1.0
  H  H2  1  0.72870000  0.75254000  0.63351000  1.0
  H  H3  1  0.72980000  0.36753000  0.24832000  1.0
  H  H4  1  0.15571000  0.28724000  0.36821000  1.0
  H  H5  1  0.15936000  0.63605000  0.70749000  1.0
  C  C6  1  0.37423000  0.16003000  0.43724000  1.0
  C  C7  1  0.61681000  0.81230000  0.57000000  1.0
  C  C8  1  0.57430000  0.96961000  0.55214000  1.0
  C  C9  1  0.42531000  0.00395000  0.45631000  1.0
  C  C10  1  0.37401000  0.56235000  0.83992000  1.0
  C  C11  1  0.61772000  0.43039000  0.18812000  1.0
  C  C12  1  0.57439000  0.44794000  0.03102000  1.0
  C  C13  1  0.42560000  0.54283000  0.99596000  1.0
  S  S14  1  0.64224000  0.13327000  0.61479000  1.0
  S  S15  1  0.34334000  0.84385000  0.40069000  1.0
  S  S16  1  0.64143000  0.38650000  0.86784000  1.0
  S  S17  1  0.34467000  0.59782000  0.15499000  1.0
  N  N18  1  0.47706000  0.24096000  0.51808000  1.0
  N  N19  1  0.50403000  0.73431000  0.49568000  1.0
  N  N20  1  0.47600000  0.48259000  0.75939000  1.0
  N  N21  1  0.50563000  0.50388000  0.26527000  1.0
  O  O22  1  0.24513000  0.21177000  0.33956000  1.0
  O  O23  1  0.24498000  0.65978000  0.78907000  1.0
  F  F24  1  0.21185000  0.53777000  0.45592000  1.0
  F  F25  1  0.76048000  0.45497000  0.55099000  1.0
  F  F26  1  0.98865000  0.63416000  0.61798000  1.0
  F  F27  1  0.98030000  0.36411000  0.38326000  1.0
  F  F28  1  0.91917000  0.63173000  0.35612000  1.0
  F  F29  1  0.05255000  0.36534000  0.64692000  1.0
