# generated using pymatgen
data_AlH11C16O5
_symmetry_space_group_name_H-M   'P 1'
_cell_length_a   6.68149000
_cell_length_b   17.50720000
_cell_length_c   21.11950000
_cell_angle_alpha   107.61700000
_cell_angle_beta   89.99810000
_cell_angle_gamma   89.99300000
_symmetry_Int_Tables_number   1
_chemical_formula_structural   AlH11C16O5
_chemical_formula_sum   'Al4 H44 C64 O20'
_cell_volume   2354.57499811
_cell_formula_units_Z   4
loop_
 _symmetry_equiv_pos_site_id
 _symmetry_equiv_pos_as_xyz
  1  'x, y, z'
loop_
 _atom_site_type_symbol
 _atom_site_label
 _atom_site_symmetry_multiplicity
 _atom_site_fract_x
 _atom_site_fract_y
 _atom_site_fract_z
 _atom_site_occupancy
  Al  Al0  1  0.88521000  0.49981000  0.49956000  1.0
  Al  Al1  1  0.38522000  0.50020000  0.50046000  1.0
  Al  Al2  1  0.35778000  0.00017000  0.00026000  1.0
  Al  Al3  1  0.85780000  0.99988000  0.99988000  1.0
  H  H4  1  0.43297000  0.74784000  0.30922000  1.0
  H  H5  1  0.93271000  0.25191000  0.69063000  1.0
  H  H6  1  0.86501000  0.84244000  0.25622000  1.0
  H  H7  1  0.36467000  0.15762000  0.74382000  1.0
  H  H8  1  0.09527000  0.88743000  0.28674000  1.0
  H  H9  1  0.59481000  0.11253000  0.71325000  1.0
  H  H10  1  0.10554000  0.81324000  0.36209000  1.0
  H  H11  1  0.60513000  0.18669000  0.63789000  1.0
  H  H12  1  0.87460000  0.76853000  0.33099000  1.0
  H  H13  1  0.37432000  0.23153000  0.66904000  1.0
  H  H14  1  0.84413000  0.72174000  0.17196000  1.0
  H  H15  1  0.34415000  0.27837000  0.82811000  1.0
  H  H16  1  0.09853000  0.59552000  0.19807000  1.0
  H  H17  1  0.59877000  0.40444000  0.80190000  1.0
  H  H18  1  0.40507000  0.72737000  0.16601000  1.0
  H  H19  1  0.90503000  0.27248000  0.83388000  1.0
  H  H20  1  0.42574000  0.65844000  0.24264000  1.0
  H  H21  1  0.92584000  0.34134000  0.75721000  1.0
  H  H22  1  0.87006000  0.63636000  0.23509000  1.0
  H  H23  1  0.37018000  0.36370000  0.76495000  1.0
  H  H24  1  0.41635000  0.87216000  0.34015000  1.0
  H  H25  1  0.59325000  0.00137000  0.36721000  1.0
  H  H26  1  0.74778000  0.04714000  0.27733000  1.0
  H  H27  1  0.72654000  0.95929000  0.15948000  1.0
  H  H28  1  0.54728000  0.83056000  0.13248000  1.0
  H  H29  1  0.91588000  0.12759000  0.65976000  1.0
  H  H30  1  0.09280000  0.99836000  0.63273000  1.0
  H  H31  1  0.24752000  0.95265000  0.72260000  1.0
  H  H32  1  0.22657000  0.04058000  0.84043000  1.0
  H  H33  1  0.04734000  0.16936000  0.86742000  1.0
  H  H34  1  0.80546000  0.71007000  0.06255000  1.0
  H  H35  1  0.88768000  0.64507000  0.94405000  1.0
  H  H36  1  0.18536000  0.55506000  0.91318000  1.0
  H  H37  1  0.39411000  0.52908000  0.00241000  1.0
  H  H38  1  0.31001000  0.59252000  0.12011000  1.0
  H  H39  1  0.30585000  0.28999000  0.93755000  1.0
  H  H40  1  0.38850000  0.35493000  0.05602000  1.0
  H  H41  1  0.68632000  0.44484000  0.08678000  1.0
  H  H42  1  0.89471000  0.47081000  0.99748000  1.0
  H  H43  1  0.81024000  0.40742000  0.87981000  1.0
  H  H44  1  0.63507000  0.59698000  0.49354000  1.0
  H  H45  1  0.13511000  0.40298000  0.50638000  1.0
  H  H46  1  0.60729000  0.89435000  0.97690000  1.0
  H  H47  1  0.10719000  0.10555000  0.02098000  1.0
  C  C48  1  0.63583000  0.42356000  0.57814000  1.0
  C  C49  1  0.13596000  0.57645000  0.42187000  1.0
  C  C50  1  0.63453000  0.38887000  0.39889000  1.0
  C  C51  1  0.13422000  0.61114000  0.60113000  1.0
  C  C52  1  0.13126000  0.67375000  0.66390000  1.0
  C  C53  1  0.63145000  0.32625000  0.33614000  1.0
  C  C54  1  0.12440000  0.72660000  0.71715000  1.0
  C  C55  1  0.62456000  0.27338000  0.28289000  1.0
  C  C56  1  0.11714000  0.78462000  0.77608000  1.0
  C  C57  1  0.61722000  0.21535000  0.22397000  1.0
  C  C58  1  0.11034000  0.83698000  0.82963000  1.0
  C  C59  1  0.61030000  0.16298000  0.17046000  1.0
  C  C60  1  0.34565000  0.76468000  0.21398000  1.0
  C  C61  1  0.84553000  0.23517000  0.78593000  1.0
  C  C62  1  0.01966000  0.82952000  0.26674000  1.0
  C  C63  1  0.51932000  0.17047000  0.73327000  1.0
  C  C64  1  0.02634000  0.78052000  0.31629000  1.0
  C  C65  1  0.52605000  0.21946000  0.68371000  1.0
  C  C66  1  0.13719000  0.61863000  0.37305000  1.0
  C  C67  1  0.63716000  0.38134000  0.62694000  1.0
  C  C68  1  0.12130000  0.78245000  0.20056000  1.0
  C  C69  1  0.62117000  0.21749000  0.79941000  1.0
  C  C70  1  0.34897000  0.71603000  0.26429000  1.0
  C  C71  1  0.84886000  0.28379000  0.73560000  1.0
  C  C72  1  0.13428000  0.69953000  0.28450000  1.0
  C  C73  1  0.63417000  0.30040000  0.71546000  1.0
  C  C74  1  0.01935000  0.65211000  0.22109000  1.0
  C  C75  1  0.51943000  0.34788000  0.77891000  1.0
  C  C76  1  0.00043000  0.70181000  0.17188000  1.0
  C  C77  1  0.50051000  0.29820000  0.82814000  1.0
  C  C78  1  0.13841000  0.65454000  0.33197000  1.0
  C  C79  1  0.63832000  0.34539000  0.66799000  1.0
  C  C80  1  0.11117000  0.82834000  0.15410000  1.0
  C  C81  1  0.61104000  0.17165000  0.84590000  1.0
  C  C82  1  0.10798000  0.86638000  0.11468000  1.0
  C  C83  1  0.60786000  0.13369000  0.88540000  1.0
  C  C84  1  0.60808000  0.10270000  0.10656000  1.0
  C  C85  1  0.10810000  0.89722000  0.89354000  1.0
  C  C86  1  0.60756000  0.08765000  0.93111000  1.0
  C  C87  1  0.10771000  0.91250000  0.06902000  1.0
  C  C88  1  0.46729000  0.84141000  0.23392000  1.0
  C  C89  1  0.48328000  0.89064000  0.29996000  1.0
  C  C90  1  0.58339000  0.96407000  0.31551000  1.0
  C  C91  1  0.66978000  0.98979000  0.26523000  1.0
  C  C92  1  0.65732000  0.94110000  0.19938000  1.0
  C  C93  1  0.55760000  0.86772000  0.18420000  1.0
  C  C94  1  0.96708000  0.15842000  0.76599000  1.0
  C  C95  1  0.98293000  0.10914000  0.69995000  1.0
  C  C96  1  0.08306000  0.03570000  0.68442000  1.0
  C  C97  1  0.16958000  0.01002000  0.73470000  1.0
  C  C98  1  0.15725000  0.05876000  0.80053000  1.0
  C  C99  1  0.05752000  0.13214000  0.81571000  1.0
  C  C100  1  0.05207000  0.65714000  0.10033000  1.0
  C  C101  1  0.93468000  0.67019000  0.04938000  1.0
  C  C102  1  0.98146000  0.63390000  0.98261000  1.0
  C  C103  1  0.14783000  0.58345000  0.96532000  1.0
  C  C104  1  0.26514000  0.56901000  0.01526000  1.0
  C  C105  1  0.21695000  0.60539000  0.08206000  1.0
  C  C106  1  0.55237000  0.34285000  0.89968000  1.0
  C  C107  1  0.43515000  0.32981000  0.95067000  1.0
  C  C108  1  0.48216000  0.36607000  0.01742000  1.0
  C  C109  1  0.64859000  0.41647000  0.03466000  1.0
  C  C110  1  0.76572000  0.43090000  0.98467000  1.0
  C  C111  1  0.71731000  0.39456000  0.91789000  1.0
  O  O112  1  0.46420000  0.41282000  0.42396000  1.0
  O  O113  1  0.96386000  0.58701000  0.57625000  1.0
  O  O114  1  0.80547000  0.43965000  0.55765000  1.0
  O  O115  1  0.30569000  0.56013000  0.44217000  1.0
  O  O116  1  0.80622000  0.41284000  0.42263000  1.0
  O  O117  1  0.30590000  0.58735000  0.57722000  1.0
  O  O118  1  0.96537000  0.55969000  0.44124000  1.0
  O  O119  1  0.46515000  0.44060000  0.55900000  1.0
  O  O120  1  0.63527000  0.54732000  0.50488000  1.0
  O  O121  1  0.13531000  0.45271000  0.49513000  1.0
  O  O122  1  0.77783000  0.06965000  0.94987000  1.0
  O  O123  1  0.27795000  0.93062000  0.05037000  1.0
  O  O124  1  0.43717000  0.08003000  0.08139000  1.0
  O  O125  1  0.93709000  0.91996000  0.91866000  1.0
  O  O126  1  0.43680000  0.06928000  0.94943000  1.0
  O  O127  1  0.93699000  0.93082000  0.05065000  1.0
  O  O128  1  0.27867000  0.92089000  0.91866000  1.0
  O  O129  1  0.77865000  0.07895000  0.08148000  1.0
  O  O130  1  0.60766000  0.95235000  0.99047000  1.0
  O  O131  1  0.10761000  0.04767000  0.00952000  1.0
