# generated using pymatgen
data_CuH16C10S2N2Cl
_symmetry_space_group_name_H-M   'P 1'
_cell_length_a   9.84310000
_cell_length_b   10.64287263
_cell_length_c   14.14490563
_cell_angle_alpha   77.97409893
_cell_angle_beta   69.65175909
_cell_angle_gamma   62.45964370
_symmetry_Int_Tables_number   1
_chemical_formula_structural   CuH16C10S2N2Cl
_chemical_formula_sum   'Cu4 H64 C40 S8 N8 Cl4'
_cell_volume   1229.88372735
_cell_formula_units_Z   4
loop_
 _symmetry_equiv_pos_site_id
 _symmetry_equiv_pos_as_xyz
  1  'x, y, z'
loop_
 _atom_site_type_symbol
 _atom_site_label
 _atom_site_symmetry_multiplicity
 _atom_site_fract_x
 _atom_site_fract_y
 _atom_site_fract_z
 _atom_site_occupancy
  Cu  Cu0  1  0.50288000  0.60332000  0.03943000  1.0
  Cu  Cu1  1  0.14553000  0.89667000  0.46052000  1.0
  Cu  Cu2  1  0.49712000  0.39668000  0.96057000  1.0
  Cu  Cu3  1  0.85447000  0.10333000  0.53948000  1.0
  H  H4  1  0.55884000  0.80957000  0.12473000  1.0
  H  H5  1  0.49275000  0.69067000  0.37508000  1.0
  H  H6  1  0.44116000  0.19042000  0.87528000  1.0
  H  H7  1  0.50725000  0.30933000  0.62492000  1.0
  H  H8  1  0.39918000  0.86328000  0.23718000  1.0
  H  H9  1  0.49912000  0.63667000  0.26274000  1.0
  H  H10  1  0.60081000  0.13672000  0.76282000  1.0
  H  H11  1  0.50088000  0.36333000  0.73726000  1.0
  H  H12  1  0.46965000  0.04880000  0.22748000  1.0
  H  H13  1  0.74561000  0.45140000  0.27247000  1.0
  H  H14  1  0.53035000  0.95120000  0.77252000  1.0
  H  H15  1  0.25439000  0.54860000  0.72753000  1.0
  H  H16  1  0.55695000  0.04603000  0.09412000  1.0
  H  H17  1  0.69682000  0.45439000  0.40583000  1.0
  H  H18  1  0.44305000  0.95397000  0.90588000  1.0
  H  H19  1  0.30317000  0.54561000  0.59418000  1.0
  H  H20  1  0.20786000  0.19380000  0.21206000  1.0
  H  H21  1  0.61346000  0.30623000  0.28808000  1.0
  H  H22  1  0.79214000  0.80620000  0.78794000  1.0
  H  H23  1  0.38654000  0.69377000  0.71192000  1.0
  H  H24  1  0.30841000  0.24107000  0.08742000  1.0
  H  H25  1  0.63694000  0.25908000  0.41268000  1.0
  H  H26  1  0.69159000  0.75893000  0.91258000  1.0
  H  H27  1  0.36306000  0.74092000  0.58732000  1.0
  H  H28  1  0.09753000  0.08516000  0.01713000  1.0
  H  H29  1  0.19995000  0.41459000  0.48308000  1.0
  H  H30  1  0.90247000  0.91485000  0.98286000  1.0
  H  H31  1  0.80005000  0.58541000  0.51692000  1.0
  H  H32  1  0.11433000  0.24680000  0.01477000  1.0
  H  H33  1  0.37615000  0.25299000  0.48530000  1.0
  H  H34  1  0.88568000  0.75320000  0.98523000  1.0
  H  H35  1  0.62386000  0.74700000  0.51470000  1.0
  H  H36  1  0.96136000  0.26462000  0.20108000  1.0
  H  H37  1  0.42714000  0.23550000  0.29898000  1.0
  H  H38  1  0.03865000  0.73538000  0.79891000  1.0
  H  H39  1  0.57286000  0.76450000  0.70102000  1.0
  H  H40  1  0.84958000  0.28647000  0.11929000  1.0
  H  H41  1  0.25544000  0.21357000  0.38067000  1.0
  H  H42  1  0.15042000  0.71353000  0.88071000  1.0
  H  H43  1  0.74456000  0.78643000  0.61933000  1.0
  H  H44  1  0.92683000  0.95956000  0.11347000  1.0
  H  H45  1  0.99987000  0.54062000  0.38651000  1.0
  H  H46  1  0.07316000  0.04045000  0.88653000  1.0
  H  H47  1  0.00012000  0.45938000  0.61349000  1.0
  H  H48  1  0.74158000  0.11506000  0.13693000  1.0
  H  H49  1  0.99380000  0.38492000  0.36314000  1.0
  H  H50  1  0.25842000  0.88494000  0.86307000  1.0
  H  H51  1  0.00620000  0.61508000  0.63685000  1.0
  H  H52  1  0.76683000  0.85821000  0.24765000  1.0
  H  H53  1  0.87276000  0.64160000  0.25227000  1.0
  H  H54  1  0.23317000  0.14179000  0.75235000  1.0
  H  H55  1  0.12724000  0.35840000  0.74773000  1.0
  H  H56  1  0.64073000  0.02142000  0.30491000  1.0
  H  H57  1  0.96724000  0.47829000  0.19513000  1.0
  H  H58  1  0.35927000  0.97858000  0.69509000  1.0
  H  H59  1  0.03276000  0.52172000  0.80487000  1.0
  H  H60  1  0.80901000  0.92599000  0.41408000  1.0
  H  H61  1  0.14913000  0.57366000  0.08588000  1.0
  H  H62  1  0.19099000  0.07401000  0.58592000  1.0
  H  H63  1  0.85087000  0.42635000  0.91412000  1.0
  H  H64  1  0.97890000  0.82250000  0.31898000  1.0
  H  H65  1  0.12025000  0.67751000  0.18082000  1.0
  H  H66  1  0.02111000  0.17750000  0.68101000  1.0
  H  H67  1  0.87975000  0.32249000  0.81919000  1.0
  C  C68  1  0.32220000  0.93424000  0.10664000  1.0
  C  C69  1  0.36285000  0.56577000  0.39345000  1.0
  C  C70  1  0.67780000  0.06576000  0.89336000  1.0
  C  C71  1  0.63715000  0.43423000  0.60655000  1.0
  C  C72  1  0.44589000  0.89840000  0.15863000  1.0
  C  C73  1  0.50251000  0.60174000  0.34130000  1.0
  C  C74  1  0.55411000  0.10160000  0.84137000  1.0
  C  C75  1  0.49748000  0.39826000  0.65871000  1.0
  C  C76  1  0.45621000  0.03839000  0.15636000  1.0
  C  C77  1  0.65069000  0.46188000  0.34360000  1.0
  C  C78  1  0.54379000  0.96161000  0.84364000  1.0
  C  C79  1  0.34931000  0.53812000  0.65640000  1.0
  C  C80  1  0.29779000  0.15221000  0.14028000  1.0
  C  C81  1  0.59015000  0.34790000  0.35983000  1.0
  C  C82  1  0.70221000  0.84779000  0.85972000  1.0
  C  C83  1  0.40985000  0.65210000  0.64017000  1.0
  C  C84  1  0.10199000  0.15441000  0.06248000  1.0
  C  C85  1  0.31901000  0.34546000  0.43768000  1.0
  C  C86  1  0.89801000  0.84559000  0.93752000  1.0
  C  C87  1  0.68100000  0.65454000  0.56231000  1.0
  C  C88  1  0.94770000  0.20913000  0.15017000  1.0
  C  C89  1  0.30708000  0.29093000  0.34987000  1.0
  C  C90  1  0.05229000  0.79088000  0.84983000  1.0
  C  C91  1  0.69291000  0.70907000  0.65013000  1.0
  C  C92  1  0.83192000  0.03263000  0.17176000  1.0
  C  C93  1  0.03645000  0.46739000  0.32828000  1.0
  C  C94  1  0.16808000  0.96737000  0.82824000  1.0
  C  C95  1  0.96356000  0.53261000  0.67171000  1.0
  C  C96  1  0.76538000  0.95400000  0.26582000  1.0
  C  C97  1  0.98530000  0.54583000  0.23418000  1.0
  C  C98  1  0.23462000  0.04600000  0.73418000  1.0
  C  C99  1  0.01470000  0.45417000  0.76582000  1.0
  C  C100  1  0.87150000  0.92445000  0.33286000  1.0
  C  C101  1  0.12874000  0.57546000  0.16709000  1.0
  C  C102  1  0.12849000  0.07556000  0.66714000  1.0
  C  C103  1  0.87125000  0.42455000  0.83291000  1.0
  C  C104  1  0.92731000  0.04045000  0.30003000  1.0
  C  C105  1  0.26781000  0.45969000  0.20002000  1.0
  C  C106  1  0.07269000  0.95955000  0.69997000  1.0
  C  C107  1  0.73219000  0.54032000  0.79998000  1.0
  S  S108  1  0.28400000  0.81712000  0.06846000  1.0
  S  S109  1  0.16935000  0.68283000  0.43164000  1.0
  S  S110  1  0.71599000  0.18289000  0.93154000  1.0
  S  S111  1  0.83064000  0.31717000  0.56836000  1.0
  S  S112  1  0.46306000  0.40862000  0.13518000  1.0
  S  S113  1  0.00664000  0.09153000  0.36490000  1.0
  S  S114  1  0.53694000  0.59138000  0.86482000  1.0
  S  S115  1  0.99336000  0.90847000  0.63510000  1.0
  N  N116  1  0.24279000  0.07534000  0.09766000  1.0
  N  N117  1  0.41574000  0.42465000  0.40256000  1.0
  N  N118  1  0.75721000  0.92466000  0.90234000  1.0
  N  N119  1  0.58427000  0.57534000  0.59744000  1.0
  N  N120  1  0.90372000  0.09826000  0.21011000  1.0
  N  N121  1  0.21219000  0.40186000  0.28995000  1.0
  N  N122  1  0.09628000  0.90175000  0.78989000  1.0
  N  N123  1  0.78781000  0.59814000  0.71005000  1.0
  Cl  Cl124  1  0.73698000  0.56559000  0.06626000  1.0
  Cl  Cl125  1  0.36878000  0.93434000  0.43373000  1.0
  Cl  Cl126  1  0.26302000  0.43441000  0.93374000  1.0
  Cl  Cl127  1  0.63122000  0.06566000  0.56627000  1.0
