# generated using pymatgen
data_CoH12C15N5O6
_symmetry_space_group_name_H-M   'P 1'
_cell_length_a   10.75810000
_cell_length_b   15.81130000
_cell_length_c   15.81120000
_cell_angle_alpha   95.90390000
_cell_angle_beta   103.06400000
_cell_angle_gamma   103.06400000
_symmetry_Int_Tables_number   1
_chemical_formula_structural   CoH12C15N5O6
_chemical_formula_sum   'Co4 H48 C60 N20 O24'
_cell_volume   2518.24943223
_cell_formula_units_Z   4
loop_
 _symmetry_equiv_pos_site_id
 _symmetry_equiv_pos_as_xyz
  1  'x, y, z'
loop_
 _atom_site_type_symbol
 _atom_site_label
 _atom_site_symmetry_multiplicity
 _atom_site_fract_x
 _atom_site_fract_y
 _atom_site_fract_z
 _atom_site_occupancy
  Co  Co0  1  0.04602000  0.77172000  0.93433000  1.0
  Co  Co1  1  0.54602000  0.93432000  0.77172000  1.0
  Co  Co2  1  0.27770000  0.25975000  0.42210000  1.0
  Co  Co3  1  0.77770000  0.42210000  0.25975000  1.0
  H  H4  1  0.82681000  0.93730000  0.77056000  1.0
  H  H5  1  0.32680000  0.77056000  0.93730000  1.0
  H  H6  1  0.74780000  0.71536000  0.86934000  1.0
  H  H7  1  0.24779000  0.86933000  0.71537000  1.0
  H  H8  1  0.17186000  0.07820000  0.31714000  1.0
  H  H9  1  0.67186000  0.31713000  0.07820000  1.0
  H  H10  1  0.27730000  0.13937000  0.55774000  1.0
  H  H11  1  0.77730000  0.55774000  0.13937000  1.0
  H  H12  1  0.12120000  0.06089000  0.63227000  1.0
  H  H13  1  0.62119000  0.63227000  0.06089000  1.0
  H  H14  1  0.00111000  0.26118000  0.42925000  1.0
  H  H15  1  0.50112000  0.42925000  0.26118000  1.0
  H  H16  1  0.44521000  0.45396000  0.72971000  1.0
  H  H17  1  0.94521000  0.72971000  0.45396000  1.0
  H  H18  1  0.57535000  0.59850000  0.76612000  1.0
  H  H19  1  0.07535000  0.76612000  0.59850000  1.0
  H  H20  1  0.74728000  0.43001000  0.59458000  1.0
  H  H21  1  0.24728000  0.59458000  0.43002000  1.0
  H  H22  1  0.28428000  0.34607000  0.60595000  1.0
  H  H23  1  0.78428000  0.60595000  0.34606000  1.0
  H  H24  1  0.03977000  0.58962000  0.84445000  1.0
  H  H25  1  0.53976000  0.84446000  0.58962000  1.0
  H  H26  1  0.87800000  0.46543000  0.73766000  1.0
  H  H27  1  0.37800000  0.73767000  0.46543000  1.0
  H  H28  1  0.57577000  0.32589000  0.47819000  1.0
  H  H29  1  0.07577000  0.47818000  0.32589000  1.0
  H  H30  1  0.99403000  0.00800000  0.70007000  1.0
  H  H31  1  0.49402000  0.70007000  0.00800000  1.0
  H  H32  1  0.88438000  0.94183000  0.06227000  1.0
  H  H33  1  0.38437000  0.06228000  0.94183000  1.0
  H  H34  1  0.54189000  0.04276000  0.62614000  1.0
  H  H35  1  0.04189000  0.62614000  0.04276000  1.0
  H  H36  1  0.83313000  0.18831000  0.49793000  1.0
  H  H37  1  0.33313000  0.49793000  0.18830000  1.0
  H  H38  1  0.65622000  0.11717000  0.87469000  1.0
  H  H39  1  0.15623000  0.87470000  0.11718000  1.0
  H  H40  1  0.01424000  0.00049000  0.17664000  1.0
  H  H41  1  0.51424000  0.17664000  0.00049000  1.0
  H  H42  1  0.08421000  0.31533000  0.27636000  1.0
  H  H43  1  0.58420000  0.27637000  0.31533000  1.0
  H  H44  1  0.81027000  0.19433000  0.01670000  1.0
  H  H45  1  0.31027000  0.01671000  0.19433000  1.0
  H  H46  1  0.92564000  0.25049000  0.13722000  1.0
  H  H47  1  0.42563000  0.13722000  0.25049000  1.0
  H  H48  1  0.73221000  0.87804000  0.92075000  1.0
  H  H49  1  0.23221000  0.92075000  0.87805000  1.0
  H  H50  1  0.69512000  0.11519000  0.54629000  1.0
  H  H51  1  0.19512000  0.54629000  0.11519000  1.0
  C  C52  1  0.80181000  0.97850000  0.72146000  1.0
  C  C53  1  0.30181000  0.72146000  0.97851000  1.0
  C  C54  1  0.77328000  0.65809000  0.84073000  1.0
  C  C55  1  0.27328000  0.84073000  0.65809000  1.0
  C  C56  1  0.11490000  0.11343000  0.27432000  1.0
  C  C57  1  0.61490000  0.27433000  0.11343000  1.0
  C  C58  1  0.17748000  0.14793000  0.54607000  1.0
  C  C59  1  0.67747000  0.54607000  0.14793000  1.0
  C  C60  1  0.08751000  0.10340000  0.58721000  1.0
  C  C61  1  0.58751000  0.58721000  0.10340000  1.0
  C  C62  1  0.95499000  0.11798000  0.14106000  1.0
  C  C63  1  0.45498000  0.14106000  0.11797000  1.0
  C  C64  1  0.86239000  0.07567000  0.05527000  1.0
  C  C65  1  0.36238000  0.05527000  0.07567000  1.0
  C  C66  1  0.71092000  0.52039000  0.74168000  1.0
  C  C67  1  0.21092000  0.74168000  0.52039000  1.0
  C  C68  1  0.61199000  0.45226000  0.67373000  1.0
  C  C69  1  0.11199000  0.67373000  0.45226000  1.0
  C  C70  1  0.02389000  0.21570000  0.47423000  1.0
  C  C71  1  0.52389000  0.47423000  0.21570000  1.0
  C  C72  1  0.86229000  0.07059000  0.61640000  1.0
  C  C73  1  0.36228000  0.61640000  0.07059000  1.0
  C  C74  1  0.95943000  0.11563000  0.57197000  1.0
  C  C75  1  0.45942000  0.57197000  0.11563000  1.0
  C  C76  1  0.47876000  0.42679000  0.67535000  1.0
  C  C77  1  0.97876000  0.67535000  0.42679000  1.0
  C  C78  1  0.67606000  0.59157000  0.78189000  1.0
  C  C79  1  0.17606000  0.78189000  0.59157000  1.0
  C  C80  1  0.64690000  0.41306000  0.60203000  1.0
  C  C81  1  0.14690000  0.60203000  0.41306000  1.0
  C  C82  1  0.38838000  0.36622000  0.60669000  1.0
  C  C83  1  0.88838000  0.60669000  0.36622000  1.0
  C  C84  1  0.93534000  0.58828000  0.82568000  1.0
  C  C85  1  0.43533000  0.82569000  0.58828000  1.0
  C  C86  1  0.84454000  0.51944000  0.76563000  1.0
  C  C87  1  0.34454000  0.76563000  0.51944000  1.0
  C  C88  1  0.55012000  0.35373000  0.53572000  1.0
  C  C89  1  0.05012000  0.53572000  0.35373000  1.0
  C  C90  1  0.89571000  0.01850000  0.68062000  1.0
  C  C91  1  0.39570000  0.68062000  0.01849000  1.0
  C  C92  1  0.83764000  0.98546000  0.02508000  1.0
  C  C93  1  0.33764000  0.02508000  0.98546000  1.0
  C  C94  1  0.64308000  0.03657000  0.64023000  1.0
  C  C95  1  0.14308000  0.64023000  0.03657000  1.0
  C  C96  1  0.92920000  0.17385000  0.51352000  1.0
  C  C97  1  0.42920000  0.51352000  0.17384000  1.0
  C  C98  1  0.70942000  0.08128000  0.91907000  1.0
  C  C99  1  0.20942000  0.91907000  0.08128000  1.0
  C  C100  1  0.02637000  0.07062000  0.19538000  1.0
  C  C101  1  0.52636000  0.19538000  0.07062000  1.0
  C  C102  1  0.06771000  0.24572000  0.25226000  1.0
  C  C103  1  0.56770000  0.25226000  0.24572000  1.0
  C  C104  1  0.79565000  0.12376000  0.99900000  1.0
  C  C105  1  0.29564000  0.99901000  0.12376000  1.0
  C  C106  1  0.97696000  0.20766000  0.17252000  1.0
  C  C107  1  0.47694000  0.17252000  0.20766000  1.0
  C  C108  1  0.74995000  0.94791000  0.94415000  1.0
  C  C109  1  0.24995000  0.94415000  0.94792000  1.0
  C  C110  1  0.73157000  0.07818000  0.59650000  1.0
  C  C111  1  0.23157000  0.59650000  0.07818000  1.0
  N  N112  1  0.67698000  0.98747000  0.70251000  1.0
  N  N113  1  0.17698000  0.70251000  0.98747000  1.0
  N  N114  1  0.90157000  0.65753000  0.86276000  1.0
  N  N115  1  0.40157000  0.86276000  0.65752000  1.0
  N  N116  1  0.14687000  0.20346000  0.48991000  1.0
  N  N117  1  0.64687000  0.48991000  0.20346000  1.0
  N  N118  1  0.42216000  0.33023000  0.53689000  1.0
  N  N119  1  0.92216000  0.53689000  0.33023000  1.0
  N  N120  1  0.13781000  0.20034000  0.30280000  1.0
  N  N121  1  0.63781000  0.30280000  0.20034000  1.0
  N  N122  1  0.68485000  0.99409000  0.89138000  1.0
  N  N123  1  0.18485000  0.89138000  0.99409000  1.0
  N  N124  1  0.01152000  0.82068000  0.77964000  1.0
  N  N125  1  0.51152000  0.77964000  0.82069000  1.0
  N  N126  1  0.31342000  0.41500000  0.37425000  1.0
  N  N127  1  0.81342000  0.37425000  0.41500000  1.0
  N  N128  1  0.47951000  0.15509000  0.44580000  1.0
  N  N129  1  0.97951000  0.44580000  0.15509000  1.0
  N  N130  1  0.84729000  0.74751000  0.04107000  1.0
  N  N131  1  0.34728000  0.04107000  0.74751000  1.0
  O  O132  1  0.09400000  0.77486000  0.80517000  1.0
  O  O133  1  0.59399000  0.80517000  0.77486000  1.0
  O  O134  1  0.23051000  0.38910000  0.41975000  1.0
  O  O135  1  0.73051000  0.41975000  0.38910000  1.0
  O  O136  1  0.95445000  0.84527000  0.83746000  1.0
  O  O137  1  0.45445000  0.83746000  0.84527000  1.0
  O  O138  1  0.37028000  0.35721000  0.34932000  1.0
  O  O139  1  0.87028000  0.34932000  0.35721000  1.0
  O  O140  1  0.93778000  0.80310000  0.01459000  1.0
  O  O141  1  0.43778000  0.01459000  0.80310000  1.0
  O  O142  1  0.38637000  0.17983000  0.39076000  1.0
  O  O143  1  0.88637000  0.39076000  0.17983000  1.0
  O  O144  1  0.98968000  0.84011000  0.70483000  1.0
  O  O145  1  0.48968000  0.70482000  0.84011000  1.0
  O  O146  1  0.33602000  0.49010000  0.35568000  1.0
  O  O147  1  0.83602000  0.35568000  0.49010000  1.0
  O  O148  1  0.57910000  0.14921000  0.41991000  1.0
  O  O149  1  0.07910000  0.41992000  0.14921000  1.0
  O  O150  1  0.75112000  0.77431000  0.05329000  1.0
  O  O151  1  0.25112000  0.05329000  0.77431000  1.0
  O  O152  1  0.46317000  0.13891000  0.51841000  1.0
  O  O153  1  0.96316000  0.51841000  0.13891000  1.0
  O  O154  1  0.86262000  0.67350000  0.05246000  1.0
  O  O155  1  0.36262000  0.05246000  0.67350000  1.0
