# generated using pymatgen
data_Zn4H49C80N22F
_symmetry_space_group_name_H-M   'P 1'
_cell_length_a   18.64800000
_cell_length_b   18.92780000
_cell_length_c   20.60276527
_cell_angle_alpha   102.01149255
_cell_angle_beta   108.30583918
_cell_angle_gamma   112.53400000
_symmetry_Int_Tables_number   1
_chemical_formula_structural   Zn4H49C80N22F
_chemical_formula_sum   'Zn4 H49 C80 N22 F1'
_cell_volume   5912.65690764
_cell_formula_units_Z   1
loop_
 _symmetry_equiv_pos_site_id
 _symmetry_equiv_pos_as_xyz
  1  'x, y, z'
loop_
 _atom_site_type_symbol
 _atom_site_label
 _atom_site_symmetry_multiplicity
 _atom_site_fract_x
 _atom_site_fract_y
 _atom_site_fract_z
 _atom_site_occupancy
  Zn  Zn0  1  0.38533000  0.40651000  0.52601000  1.0
  Zn  Zn1  1  0.59461000  0.60828000  0.50501000  1.0
  Zn  Zn2  1  0.38566000  0.50543000  0.41430000  1.0
  Zn  Zn3  1  0.59716000  0.49791000  0.60767000  1.0
  H  H4  1  0.30960000  0.23450000  0.39929000  1.0
  H  H5  1  0.25153000  0.81870000  0.49369000  1.0
  H  H6  1  0.63292000  0.51194000  0.38073000  1.0
  H  H7  1  0.25577000  0.95104000  0.49446000  1.0
  H  H8  1  0.34103000  0.10064000  0.53070000  1.0
  H  H9  1  0.60223000  0.23527000  0.70266000  1.0
  H  H10  1  0.67334000  0.15889000  0.75378000  1.0
  H  H11  1  0.67047000  0.02680000  0.75040000  1.0
  H  H12  1  0.01585000  0.25989000  0.42820000  1.0
  H  H13  1  0.05078000  0.43540000  0.32088000  1.0
  H  H14  1  0.93522000  0.46836000  0.26885000  1.0
  H  H15  1  0.61164000  0.76106000  0.62590000  1.0
  H  H16  1  0.80818000  0.47787000  0.27344000  1.0
  H  H17  1  0.36185000  0.56306000  0.26789000  1.0
  H  H18  1  0.67774000  0.29290000  0.44877000  1.0
  H  H19  1  0.75734000  0.21243000  0.45412000  1.0
  H  H20  1  0.88251000  0.20119000  0.44742000  1.0
  H  H21  1  0.37424000  0.59720000  0.16879000  1.0
  H  H22  1  0.38883000  0.63069000  0.06183000  1.0
  H  H23  1  0.35631000  0.65225000  0.87312000  1.0
  H  H24  1  0.36005000  0.61159000  0.75170000  1.0
  H  H25  1  0.64911000  0.75150000  0.30016000  1.0
  H  H26  1  0.77493000  0.64247000  0.75966000  1.0
  H  H27  1  0.62224000  0.71601000  0.98491000  1.0
  H  H28  1  0.66257000  0.78207000  0.19156000  1.0
  H  H29  1  0.61906000  0.34247000  0.65189000  1.0
  H  H30  1  0.62669000  0.67335000  0.86472000  1.0
  H  H31  1  0.81302000  0.76884000  0.85873000  1.0
  H  H32  1  0.91961000  0.89324000  0.97285000  1.0
  H  H33  1  0.04857000  0.04997000  0.16680000  1.0
  H  H34  1  0.16918000  0.15763000  0.28709000  1.0
  H  H35  1  0.91048000  0.89676000  0.72947000  1.0
  H  H36  1  0.19207000  0.15284000  0.05198000  1.0
  H  H37  1  0.76278000  0.78780000  0.62394000  1.0
  H  H38  1  0.01582000  0.02153000  0.84442000  1.0
  H  H39  1  0.31479000  0.25828000  0.17178000  1.0
  H  H40  1  0.64040000  0.69516000  0.38813000  1.0
  H  H41  1  0.62346000  0.35824000  0.51082000  1.0
  H  H42  1  0.37785000  0.39179000  0.27871000  1.0
  H  H43  1  0.35237000  0.52061000  0.64489000  1.0
  H  H44  1  0.20517000  0.41135000  0.27439000  1.0
  H  H45  1  0.10442000  0.38263000  0.26365000  1.0
  H  H46  1  0.30454000  0.17933000  0.57436000  1.0
  H  H47  1  0.28998000  0.25711000  0.55887000  1.0
  H  H48  1  0.17803000  0.34902000  0.50384000  1.0
  H  H49  1  0.63149000  0.63585000  0.75360000  1.0
  H  H50  1  0.33290000  0.62151000  0.50462000  1.0
  H  H51  1  0.59653000  0.87390000  0.68833000  1.0
  H  H52  1  0.33079000  0.74348000  0.52561000  1.0
  C  C53  1  0.33451000  0.28431000  0.38055000  1.0
  C  C54  1  0.19171000  0.37028000  0.46180000  1.0
  C  C55  1  0.56298000  0.59951000  0.71728000  1.0
  C  C56  1  0.62667000  0.48148000  0.41924000  1.0
  C  C57  1  0.40224000  0.64517000  0.52895000  1.0
  C  C58  1  0.49225000  0.59817000  0.72931000  1.0
  C  C59  1  0.46964000  0.72340000  0.58058000  1.0
  C  C60  1  0.13419000  0.36917000  0.39755000  1.0
  C  C61  1  0.79545000  0.74821000  0.72037000  1.0
  C  C62  1  0.53739000  0.87385000  0.65635000  1.0
  C  C63  1  0.46456000  0.79924000  0.60398000  1.0
  C  C64  1  0.64250000  0.41578000  0.42727000  1.0
  C  C65  1  0.38833000  0.80071000  0.56602000  1.0
  C  C66  1  0.38564000  0.87471000  0.57342000  1.0
  C  C67  1  0.46213000  0.95087000  0.62198000  1.0
  C  C68  1  0.42928000  0.59058000  0.30634000  1.0
  C  C69  1  0.53782000  0.94969000  0.66592000  1.0
  C  C70  1  0.31042000  0.87709000  0.52939000  1.0
  C  C71  1  0.31276000  0.95018000  0.52984000  1.0
  C  C72  1  0.39002000  0.02736000  0.57545000  1.0
  C  C73  1  0.46407000  0.02685000  0.62331000  1.0
  C  C74  1  0.54136000  0.10326000  0.66972000  1.0
  C  C75  1  0.50389000  0.64303000  0.30211000  1.0
  C  C76  1  0.61485000  0.10058000  0.71694000  1.0
  C  C77  1  0.61320000  0.02731000  0.71510000  1.0
  C  C78  1  0.39586000  0.10255000  0.57233000  1.0
  C  C79  1  0.47186000  0.17813000  0.61699000  1.0
  C  C80  1  0.55207000  0.32877000  0.62854000  1.0
  C  C81  1  0.54323000  0.17717000  0.66641000  1.0
  C  C82  1  0.99240000  0.29560000  0.40096000  1.0
  C  C83  1  0.04430000  0.34941000  0.37673000  1.0
  C  C84  1  0.01106000  0.39165000  0.33852000  1.0
  C  C85  1  0.93151000  0.38687000  0.32972000  1.0
  C  C86  1  0.47756000  0.25512000  0.61016000  1.0
  C  C87  1  0.88353000  0.33877000  0.36123000  1.0
  C  C88  1  0.91318000  0.29016000  0.39482000  1.0
  C  C89  1  0.90006000  0.43431000  0.29541000  1.0
  C  C90  1  0.82993000  0.43974000  0.29787000  1.0
  C  C91  1  0.78615000  0.39822000  0.33572000  1.0
  C  C92  1  0.57110000  0.65845000  0.36791000  1.0
  C  C93  1  0.81120000  0.34480000  0.36472000  1.0
  C  C94  1  0.76761000  0.30292000  0.40221000  1.0
  C  C95  1  0.79321000  0.24788000  0.42875000  1.0
  C  C96  1  0.86260000  0.24161000  0.42505000  1.0
  C  C97  1  0.42065000  0.54149000  0.66153000  1.0
  C  C98  1  0.72413000  0.41284000  0.35125000  1.0
  C  C99  1  0.68742000  0.38106000  0.39560000  1.0
  C  C100  1  0.70706000  0.32187000  0.41653000  1.0
  C  C101  1  0.49287000  0.63666000  0.79874000  1.0
  C  C102  1  0.56751000  0.67021000  0.86595000  1.0
  C  C103  1  0.56579000  0.69415000  0.93337000  1.0
  C  C104  1  0.41016000  0.27360000  0.58174000  1.0
  C  C105  1  0.48828000  0.68516000  0.93618000  1.0
  C  C106  1  0.41537000  0.65758000  0.86996000  1.0
  C  C107  1  0.41786000  0.63442000  0.80248000  1.0
  C  C108  1  0.54435000  0.71593000  0.59094000  1.0
  C  C109  1  0.44495000  0.65745000  0.11472000  1.0
  C  C110  1  0.43762000  0.63909000  0.17472000  1.0
  C  C111  1  0.52680000  0.70799000  0.12007000  1.0
  C  C112  1  0.51086000  0.67040000  0.24223000  1.0
  C  C113  1  0.59162000  0.72483000  0.24819000  1.0
  C  C114  1  0.59967000  0.74273000  0.18803000  1.0
  C  C115  1  0.25087000  0.21566000  0.23826000  1.0
  C  C116  1  0.62140000  0.40260000  0.48530000  1.0
  C  C117  1  0.25592000  0.21345000  0.17087000  1.0
  C  C118  1  0.18807000  0.15492000  0.10394000  1.0
  C  C119  1  0.18828000  0.40498000  0.36517000  1.0
  C  C120  1  0.11259000  0.09557000  0.10238000  1.0
  C  C121  1  0.10751000  0.09637000  0.16917000  1.0
  C  C122  1  0.17524000  0.15570000  0.23587000  1.0
  C  C123  1  0.91663000  0.89291000  0.91913000  1.0
  C  C124  1  0.85820000  0.82387000  0.85546000  1.0
  C  C125  1  0.97488000  0.96446000  0.91545000  1.0
  C  C126  1  0.85534000  0.82310000  0.78596000  1.0
  C  C127  1  0.91145000  0.89597000  0.78256000  1.0
  C  C128  1  0.37034000  0.36413000  0.31906000  1.0
  C  C129  1  0.97047000  0.96560000  0.84636000  1.0
  C  C130  1  0.76074000  0.66604000  0.71612000  1.0
  C  C131  1  0.31774000  0.28208000  0.30823000  1.0
  C  C132  1  0.75595000  0.74015000  0.64691000  1.0
  N  N133  1  0.39072000  0.36198000  0.42957000  1.0
  N  N134  1  0.54242000  0.71862000  0.05948000  1.0
  N  N135  1  0.04144000  0.03125000  0.03860000  1.0
  N  N136  1  0.60077000  0.50555000  0.46957000  1.0
  N  N137  1  0.04199000  0.03471000  0.97776000  1.0
  N  N138  1  0.45072000  0.57638000  0.36916000  1.0
  N  N139  1  0.53166000  0.38570000  0.61249000  1.0
  N  N140  1  0.53909000  0.61873000  0.40750000  1.0
  N  N141  1  0.44261000  0.35106000  0.58300000  1.0
  N  N142  1  0.59737000  0.45726000  0.51013000  1.0
  N  N143  1  0.41227000  0.41173000  0.39174000  1.0
  N  N144  1  0.52256000  0.64012000  0.54746000  1.0
  N  N145  1  0.44757000  0.51130000  0.61456000  1.0
  N  N146  1  0.16790000  0.41859000  0.29949000  1.0
  N  N147  1  0.32116000  0.22395000  0.55328000  1.0
  N  N148  1  0.27059000  0.42810000  0.40861000  1.0
  N  N149  1  0.70488000  0.61372000  0.64622000  1.0
  N  N150  1  0.70161000  0.66023000  0.60317000  1.0
  N  N151  1  0.27279000  0.40532000  0.46867000  1.0
  N  N152  1  0.53500000  0.54710000  0.64879000  1.0
  N  N153  1  0.43518000  0.59669000  0.50964000  1.0
  N  N154  1  0.47509000  0.69218000  0.00015000  1.0
  F  F155  1  0.70388000  0.46725000  0.32566000  1.0
