# generated using pymatgen
data_Ag2H5C6SBrO5
_symmetry_space_group_name_H-M   'P 1'
_cell_length_a   9.40492000
_cell_length_b   9.57485000
_cell_length_c   11.03340000
_cell_angle_alpha   89.99990000
_cell_angle_beta   90.00000000
_cell_angle_gamma   102.01900000
_symmetry_Int_Tables_number   1
_chemical_formula_structural   Ag2H5C6SBrO5
_chemical_formula_sum   'Ag8 H20 C24 S4 Br4 O20'
_cell_volume   971.78503103
_cell_formula_units_Z   4
loop_
 _symmetry_equiv_pos_site_id
 _symmetry_equiv_pos_as_xyz
  1  'x, y, z'
loop_
 _atom_site_type_symbol
 _atom_site_label
 _atom_site_symmetry_multiplicity
 _atom_site_fract_x
 _atom_site_fract_y
 _atom_site_fract_z
 _atom_site_occupancy
  Ag  Ag0  1  0.05060000  0.42923000  0.36743000  1.0
  Ag  Ag1  1  0.44940000  0.57078000  0.86743000  1.0
  Ag  Ag2  1  0.94940000  0.57078000  0.63257000  1.0
  Ag  Ag3  1  0.55060000  0.42922000  0.13257000  1.0
  Ag  Ag4  1  0.11242000  0.24711000  0.62341000  1.0
  Ag  Ag5  1  0.38757000  0.75289000  0.12341000  1.0
  Ag  Ag6  1  0.88758000  0.75289000  0.37659000  1.0
  Ag  Ag7  1  0.61243000  0.24711000  0.87659000  1.0
  H  H8  1  0.12000000  0.96268000  0.65748000  1.0
  H  H9  1  0.38000000  0.03732000  0.15748000  1.0
  H  H10  1  0.88000000  0.03732000  0.34252000  1.0
  H  H11  1  0.62000000  0.96268000  0.84252000  1.0
  H  H12  1  0.12548000  0.04375000  0.78671000  1.0
  H  H13  1  0.37453000  0.95625000  0.28671000  1.0
  H  H14  1  0.87453000  0.95625000  0.21329000  1.0
  H  H15  1  0.62547000  0.04375000  0.71329000  1.0
  H  H16  1  0.62608000  0.63277000  0.33375000  1.0
  H  H17  1  0.87392000  0.36724000  0.83374000  1.0
  H  H18  1  0.37392000  0.36723000  0.66625000  1.0
  H  H19  1  0.12608000  0.63277000  0.16625000  1.0
  H  H20  1  0.36859000  0.50744000  0.30640000  1.0
  H  H21  1  0.13141000  0.49256000  0.80640000  1.0
  H  H22  1  0.63141000  0.49256000  0.69360000  1.0
  H  H23  1  0.86859000  0.50744000  0.19360000  1.0
  H  H24  1  0.46849000  0.12916000  0.46931000  1.0
  H  H25  1  0.03151000  0.87084000  0.96932000  1.0
  H  H26  1  0.53151000  0.87084000  0.53069000  1.0
  H  H27  1  0.96849000  0.12916000  0.03068000  1.0
  C  C28  1  0.64671000  0.31028000  0.45389000  1.0
  C  C29  1  0.85329000  0.68972000  0.95389000  1.0
  C  C30  1  0.35329000  0.68972000  0.54611000  1.0
  C  C31  1  0.14671000  0.31028000  0.04611000  1.0
  C  C32  1  0.69721000  0.45356000  0.41457000  1.0
  C  C33  1  0.80279000  0.54644000  0.91457000  1.0
  C  C34  1  0.30279000  0.54644000  0.58543000  1.0
  C  C35  1  0.19721000  0.45356000  0.08543000  1.0
  C  C36  1  0.59256000  0.52025000  0.35901000  1.0
  C  C37  1  0.90744000  0.47975000  0.85901000  1.0
  C  C38  1  0.40744000  0.47975000  0.64099000  1.0
  C  C39  1  0.09256000  0.52025000  0.14099000  1.0
  C  C40  1  0.44797000  0.44918000  0.34145000  1.0
  C  C41  1  0.05203000  0.55082000  0.84145000  1.0
  C  C42  1  0.55202000  0.55082000  0.65855000  1.0
  C  C43  1  0.94797000  0.44918000  0.15855000  1.0
  C  C44  1  0.40465000  0.30759000  0.38100000  1.0
  C  C45  1  0.09535000  0.69241000  0.88100000  1.0
  C  C46  1  0.59534000  0.69241000  0.61900000  1.0
  C  C47  1  0.90465000  0.30759000  0.11900000  1.0
  C  C48  1  0.50236000  0.23855000  0.43752000  1.0
  C  C49  1  0.99764000  0.76145000  0.93752000  1.0
  C  C50  1  0.49764000  0.76145000  0.56248000  1.0
  C  C51  1  0.00236000  0.23855000  0.06248000  1.0
  S  S52  1  0.76606000  0.21359000  0.52382000  1.0
  S  S53  1  0.73394000  0.78641000  0.02383000  1.0
  S  S54  1  0.23393000  0.78641000  0.47617000  1.0
  S  S55  1  0.26607000  0.21359000  0.97617000  1.0
  Br  Br56  1  0.20802000  0.20866000  0.35751000  1.0
  Br  Br57  1  0.29198000  0.79134000  0.85752000  1.0
  Br  Br58  1  0.79198000  0.79134000  0.64249000  1.0
  Br  Br59  1  0.70802000  0.20866000  0.14249000  1.0
  O  O60  1  0.83882000  0.30175000  0.62489000  1.0
  O  O61  1  0.66117000  0.69825000  0.12489000  1.0
  O  O62  1  0.16117000  0.69825000  0.37511000  1.0
  O  O63  1  0.33883000  0.30175000  0.87511000  1.0
  O  O64  1  0.08216000  0.03562000  0.70405000  1.0
  O  O65  1  0.41784000  0.96438000  0.20405000  1.0
  O  O66  1  0.91784000  0.96438000  0.29595000  1.0
  O  O67  1  0.58216000  0.03562000  0.79595000  1.0
  O  O68  1  0.87177000  0.19191000  0.42928000  1.0
  O  O69  1  0.62823000  0.80809000  0.92928000  1.0
  O  O70  1  0.12823000  0.80809000  0.57072000  1.0
  O  O71  1  0.37177000  0.19191000  0.07072000  1.0
  O  O72  1  0.67573000  0.07832000  0.56503000  1.0
  O  O73  1  0.82427000  0.92167000  0.06503000  1.0
  O  O74  1  0.32427000  0.92168000  0.43497000  1.0
  O  O75  1  0.17573000  0.07833000  0.93497000  1.0
  O  O76  1  0.83356000  0.52444000  0.42884000  1.0
  O  O77  1  0.66644000  0.47556000  0.92884000  1.0
  O  O78  1  0.16644000  0.47556000  0.57116000  1.0
  O  O79  1  0.33356000  0.52444000  0.07116000  1.0
