# generated using pymatgen
data_TbPH11C9SNO9
_symmetry_space_group_name_H-M   'P 1'
_cell_length_a   6.73699000
_cell_length_b   13.37980000
_cell_length_c   15.00430000
_cell_angle_alpha   90.57950000
_cell_angle_beta   90.00000000
_cell_angle_gamma   90.00000000
_symmetry_Int_Tables_number   1
_chemical_formula_structural   TbPH11C9SNO9
_chemical_formula_sum   'Tb4 P4 H44 C36 S4 N4 O36'
_cell_volume   1352.41210562
_cell_formula_units_Z   4
loop_
 _symmetry_equiv_pos_site_id
 _symmetry_equiv_pos_as_xyz
  1  'x, y, z'
loop_
 _atom_site_type_symbol
 _atom_site_label
 _atom_site_symmetry_multiplicity
 _atom_site_fract_x
 _atom_site_fract_y
 _atom_site_fract_z
 _atom_site_occupancy
  Tb  Tb0  1  0.87506000  0.54816000  0.61927000  1.0
  Tb  Tb1  1  0.37506000  0.45184000  0.88073000  1.0
  Tb  Tb2  1  0.12494000  0.45184000  0.38073000  1.0
  Tb  Tb3  1  0.62493000  0.54816000  0.11927000  1.0
  P  P4  1  0.86891000  0.37751000  0.80314000  1.0
  P  P5  1  0.36891000  0.62249000  0.69687000  1.0
  P  P6  1  0.13108000  0.62249000  0.19686000  1.0
  P  P7  1  0.63109000  0.37751000  0.30314000  1.0
  H  H8  1  0.85246000  0.22482000  0.94300000  1.0
  H  H9  1  0.35246000  0.77518000  0.55700000  1.0
  H  H10  1  0.14753000  0.77517000  0.05699000  1.0
  H  H11  1  0.64754000  0.22482000  0.44300000  1.0
  H  H12  1  0.85390000  0.03815000  0.93621000  1.0
  H  H13  1  0.35390000  0.96185000  0.56380000  1.0
  H  H14  1  0.14611000  0.96185000  0.06379000  1.0
  H  H15  1  0.64611000  0.03815000  0.43621000  1.0
  H  H16  1  0.85142000  0.87932000  0.84282000  1.0
  H  H17  1  0.35141000  0.12068000  0.65718000  1.0
  H  H18  1  0.14859000  0.12068000  0.15718000  1.0
  H  H19  1  0.64858000  0.87932000  0.34282000  1.0
  H  H20  1  0.85728000  0.80021000  0.69264000  1.0
  H  H21  1  0.35728000  0.19979000  0.80736000  1.0
  H  H22  1  0.14272000  0.19979000  0.30735000  1.0
  H  H23  1  0.64272000  0.80021000  0.19264000  1.0
  H  H24  1  0.86168000  0.90266000  0.55780000  1.0
  H  H25  1  0.36169000  0.09735000  0.94220000  1.0
  H  H26  1  0.13832000  0.09734000  0.44220000  1.0
  H  H27  1  0.63832000  0.90266000  0.05780000  1.0
  H  H28  1  0.86386000  0.09092000  0.56957000  1.0
  H  H29  1  0.36387000  0.90909000  0.93043000  1.0
  H  H30  1  0.13613000  0.90908000  0.43043000  1.0
  H  H31  1  0.63614000  0.09092000  0.06957000  1.0
  H  H32  1  0.86327000  0.23233000  0.66189000  1.0
  H  H33  1  0.36327000  0.76767000  0.83811000  1.0
  H  H34  1  0.13673000  0.76767000  0.33811000  1.0
  H  H35  1  0.63674000  0.23233000  0.16189000  1.0
  H  H36  1  0.05529000  0.61085000  0.79215000  1.0
  H  H37  1  0.55529000  0.38915000  0.70785000  1.0
  H  H38  1  0.94471000  0.38915000  0.20785000  1.0
  H  H39  1  0.44470000  0.61085000  0.29215000  1.0
  H  H40  1  0.83696000  0.65196000  0.81029000  1.0
  H  H41  1  0.33696000  0.34804000  0.68971000  1.0
  H  H42  1  0.16304000  0.34804000  0.18971000  1.0
  H  H43  1  0.66304000  0.65196000  0.31029000  1.0
  H  H44  1  0.70920000  0.36825000  0.55031000  1.0
  H  H45  1  0.20920000  0.63175000  0.94969000  1.0
  H  H46  1  0.29080000  0.63175000  0.44970000  1.0
  H  H47  1  0.79080000  0.36825000  0.05031000  1.0
  H  H48  1  0.66393000  0.44373000  0.47622000  1.0
  H  H49  1  0.16393000  0.55627000  0.02378000  1.0
  H  H50  1  0.33607000  0.55627000  0.52378000  1.0
  H  H51  1  0.83607000  0.44373000  0.97622000  1.0
  C  C52  1  0.85830000  0.24030000  0.80025000  1.0
  C  C53  1  0.35830000  0.75970000  0.69975000  1.0
  C  C54  1  0.14169000  0.75969000  0.19975000  1.0
  C  C55  1  0.64169000  0.24030000  0.30025000  1.0
  C  C56  1  0.85692000  0.18488000  0.87958000  1.0
  C  C57  1  0.35691000  0.81512000  0.62042000  1.0
  C  C58  1  0.14308000  0.81512000  0.12041000  1.0
  C  C59  1  0.64308000  0.18488000  0.37958000  1.0
  C  C60  1  0.85597000  0.08195000  0.87525000  1.0
  C  C61  1  0.35597000  0.91805000  0.62475000  1.0
  C  C62  1  0.14403000  0.91804000  0.12475000  1.0
  C  C63  1  0.64403000  0.08196000  0.37525000  1.0
  C  C64  1  0.85687000  0.03099000  0.79218000  1.0
  C  C65  1  0.35687000  0.96901000  0.70783000  1.0
  C  C66  1  0.14314000  0.96900000  0.20782000  1.0
  C  C67  1  0.64313000  0.03100000  0.29218000  1.0
  C  C68  1  0.85607000  0.92546000  0.78330000  1.0
  C  C69  1  0.35607000  0.07454000  0.71670000  1.0
  C  C70  1  0.14394000  0.07454000  0.21669000  1.0
  C  C71  1  0.64394000  0.92546000  0.28330000  1.0
  C  C72  1  0.85754000  0.88123000  0.69992000  1.0
  C  C73  1  0.35754000  0.11877000  0.80008000  1.0
  C  C74  1  0.14246000  0.11877000  0.30007000  1.0
  C  C75  1  0.64246000  0.88124000  0.19993000  1.0
  C  C76  1  0.86003000  0.94059000  0.62243000  1.0
  C  C77  1  0.36004000  0.05942000  0.87758000  1.0
  C  C78  1  0.13997000  0.05941000  0.37757000  1.0
  C  C79  1  0.63997000  0.94059000  0.12242000  1.0
  C  C80  1  0.86034000  0.04366000  0.62822000  1.0
  C  C81  1  0.36034000  0.95634000  0.87178000  1.0
  C  C82  1  0.13966000  0.95634000  0.37178000  1.0
  C  C83  1  0.63967000  0.04366000  0.12822000  1.0
  C  C84  1  0.85845000  0.08956000  0.71335000  1.0
  C  C85  1  0.35846000  0.91045000  0.78665000  1.0
  C  C86  1  0.14155000  0.91044000  0.28664000  1.0
  C  C87  1  0.64155000  0.08955000  0.21335000  1.0
  S  S88  1  0.91319000  0.69268000  0.46144000  1.0
  S  S89  1  0.41318000  0.30732000  0.03856000  1.0
  S  S90  1  0.08682000  0.30732000  0.53856000  1.0
  S  S91  1  0.58681000  0.69268000  0.96144000  1.0
  N  N92  1  0.85832000  0.19177000  0.72192000  1.0
  N  N93  1  0.35832000  0.80823000  0.77808000  1.0
  N  N94  1  0.14167000  0.80823000  0.27808000  1.0
  N  N95  1  0.64168000  0.19177000  0.22192000  1.0
  O  O96  1  0.82612000  0.40979000  0.70735000  1.0
  O  O97  1  0.32612000  0.59021000  0.79265000  1.0
  O  O98  1  0.17387000  0.59021000  0.29265000  1.0
  O  O99  1  0.67388000  0.40979000  0.20735000  1.0
  O  O100  1  0.70833000  0.40968000  0.86929000  1.0
  O  O101  1  0.20833000  0.59032000  0.63071000  1.0
  O  O102  1  0.29166000  0.59032000  0.13071000  1.0
  O  O103  1  0.79167000  0.40967000  0.36929000  1.0
  O  O104  1  0.07676000  0.39999000  0.83517000  1.0
  O  O105  1  0.57676000  0.60001000  0.66483000  1.0
  O  O106  1  0.92323000  0.60001000  0.16482000  1.0
  O  O107  1  0.42324000  0.39999000  0.33518000  1.0
  O  O108  1  0.84723000  0.71570000  0.55409000  1.0
  O  O109  1  0.34722000  0.28430000  0.94591000  1.0
  O  O110  1  0.15278000  0.28430000  0.44591000  1.0
  O  O111  1  0.65277000  0.71570000  0.05410000  1.0
  O  O112  1  0.92672000  0.57929000  0.45937000  1.0
  O  O113  1  0.42672000  0.42071000  0.04063000  1.0
  O  O114  1  0.07328000  0.42071000  0.54063000  1.0
  O  O115  1  0.57328000  0.57929000  0.95937000  1.0
  O  O116  1  0.11572000  0.73516000  0.44528000  1.0
  O  O117  1  0.61572000  0.26484000  0.05472000  1.0
  O  O118  1  0.88429000  0.26484000  0.55472000  1.0
  O  O119  1  0.38428000  0.73516000  0.94529000  1.0
  O  O120  1  0.77396000  0.72844000  0.39366000  1.0
  O  O121  1  0.27396000  0.27156000  0.10634000  1.0
  O  O122  1  0.22604000  0.27156000  0.60634000  1.0
  O  O123  1  0.72604000  0.72844000  0.89366000  1.0
  O  O124  1  0.92639000  0.62483000  0.76355000  1.0
  O  O125  1  0.42639000  0.37517000  0.73645000  1.0
  O  O126  1  0.07361000  0.37517000  0.23645000  1.0
  O  O127  1  0.57361000  0.62483000  0.26355000  1.0
  O  O128  1  0.64890000  0.43486000  0.54124000  1.0
  O  O129  1  0.14889000  0.56514000  0.95876000  1.0
  O  O130  1  0.35111000  0.56514000  0.45876000  1.0
  O  O131  1  0.85110000  0.43486000  0.04124000  1.0
