# generated using pymatgen
data_GdCuH8C14(NO4)2
_symmetry_space_group_name_H-M   'P 1'
_cell_length_a   9.17018000
_cell_length_b   9.56962000
_cell_length_c   21.45930000
_cell_angle_alpha   89.99920000
_cell_angle_beta   89.99960000
_cell_angle_gamma   63.78400000
_symmetry_Int_Tables_number   1
_chemical_formula_structural   GdCuH8C14(NO4)2
_chemical_formula_sum   'Gd4 Cu4 H32 C56 N8 O32'
_cell_volume   1689.45226470
_cell_formula_units_Z   4
loop_
 _symmetry_equiv_pos_site_id
 _symmetry_equiv_pos_as_xyz
  1  'x, y, z'
loop_
 _atom_site_type_symbol
 _atom_site_label
 _atom_site_symmetry_multiplicity
 _atom_site_fract_x
 _atom_site_fract_y
 _atom_site_fract_z
 _atom_site_occupancy
  Gd  Gd0  1  0.12265000  0.14630000  0.49105000  1.0
  Gd  Gd1  1  0.37736000  0.85370000  0.99106000  1.0
  Gd  Gd2  1  0.87735000  0.85370000  0.50895000  1.0
  Gd  Gd3  1  0.62265000  0.14630000  0.00895000  1.0
  Cu  Cu4  1  0.04726000  0.80260000  0.85438000  1.0
  Cu  Cu5  1  0.45274000  0.19741000  0.35438000  1.0
  Cu  Cu6  1  0.95276000  0.19739000  0.14562000  1.0
  Cu  Cu7  1  0.54726000  0.80260000  0.64563000  1.0
  H  H8  1  0.99825000  0.82989000  0.72325000  1.0
  H  H9  1  0.50175000  0.17012000  0.22325000  1.0
  H  H10  1  0.00175000  0.17011000  0.27675000  1.0
  H  H11  1  0.49825000  0.82988000  0.77675000  1.0
  H  H12  1  0.10563000  0.20254000  0.66251000  1.0
  H  H13  1  0.39436000  0.79747000  0.16252000  1.0
  H  H14  1  0.89436000  0.79747000  0.33748000  1.0
  H  H15  1  0.60562000  0.20255000  0.83748000  1.0
  H  H16  1  0.15340000  0.24499000  0.77607000  1.0
  H  H17  1  0.34661000  0.75501000  0.27608000  1.0
  H  H18  1  0.84660000  0.75501000  0.22392000  1.0
  H  H19  1  0.65339000  0.24500000  0.72392000  1.0
  H  H20  1  0.13116000  0.06726000  0.85676000  1.0
  H  H21  1  0.36885000  0.93274000  0.35677000  1.0
  H  H22  1  0.86884000  0.93273000  0.14323000  1.0
  H  H23  1  0.63116000  0.06726000  0.64323000  1.0
  H  H24  1  0.78330000  0.72116000  0.83743000  1.0
  H  H25  1  0.71669000  0.27885000  0.33742000  1.0
  H  H26  1  0.21672000  0.27883000  0.16258000  1.0
  H  H27  1  0.28329000  0.72115000  0.66257000  1.0
  H  H28  1  0.71885000  0.50549000  0.87160000  1.0
  H  H29  1  0.78115000  0.49452000  0.37159000  1.0
  H  H30  1  0.28116000  0.49451000  0.12841000  1.0
  H  H31  1  0.21884000  0.50548000  0.62841000  1.0
  H  H32  1  0.92896000  0.28313000  0.93209000  1.0
  H  H33  1  0.57105000  0.71686000  0.43209000  1.0
  H  H34  1  0.07105000  0.71685000  0.06791000  1.0
  H  H35  1  0.42895000  0.28314000  0.56791000  1.0
  H  H36  1  0.22779000  0.52688000  0.92881000  1.0
  H  H37  1  0.27221000  0.47312000  0.42881000  1.0
  H  H38  1  0.77222000  0.47311000  0.07119000  1.0
  H  H39  1  0.72778000  0.52689000  0.57118000  1.0
  C  C40  1  0.03421000  0.92161000  0.73376000  1.0
  C  C41  1  0.46580000  0.07840000  0.23376000  1.0
  C  C42  1  0.96579000  0.07839000  0.26624000  1.0
  C  C43  1  0.53421000  0.92160000  0.76624000  1.0
  C  C44  1  0.04759000  0.01296000  0.68559000  1.0
  C  C45  1  0.45240000  0.98705000  0.18559000  1.0
  C  C46  1  0.95240000  0.98704000  0.31441000  1.0
  C  C47  1  0.54759000  0.01296000  0.81441000  1.0
  C  C48  1  0.09302000  0.13103000  0.69984000  1.0
  C  C49  1  0.40698000  0.86897000  0.19985000  1.0
  C  C50  1  0.90697000  0.86897000  0.30016000  1.0
  C  C51  1  0.59301000  0.13103000  0.80016000  1.0
  C  C52  1  0.12028000  0.15320000  0.76223000  1.0
  C  C53  1  0.37973000  0.84680000  0.26224000  1.0
  C  C54  1  0.87972000  0.84680000  0.23777000  1.0
  C  C55  1  0.62027000  0.15321000  0.73777000  1.0
  C  C56  1  0.10674000  0.05587000  0.80783000  1.0
  C  C57  1  0.39327000  0.94413000  0.30784000  1.0
  C  C58  1  0.89326000  0.94412000  0.19217000  1.0
  C  C59  1  0.60673000  0.05587000  0.69217000  1.0
  C  C60  1  0.01312000  0.98020000  0.62029000  1.0
  C  C61  1  0.48688000  0.01982000  0.12030000  1.0
  C  C62  1  0.98688000  0.01982000  0.37970000  1.0
  C  C63  1  0.51312000  0.98019000  0.87970000  1.0
  C  C64  1  0.86913000  0.62509000  0.86525000  1.0
  C  C65  1  0.63086000  0.37492000  0.36525000  1.0
  C  C66  1  0.13088000  0.37491000  0.13475000  1.0
  C  C67  1  0.36912000  0.62508000  0.63475000  1.0
  C  C68  1  0.83547000  0.50312000  0.88335000  1.0
  C  C69  1  0.66453000  0.49689000  0.38334000  1.0
  C  C70  1  0.16454000  0.49688000  0.11666000  1.0
  C  C71  1  0.33546000  0.50311000  0.61665000  1.0
  C  C72  1  0.95110000  0.38117000  0.91775000  1.0
  C  C73  1  0.54891000  0.61883000  0.41775000  1.0
  C  C74  1  0.04892000  0.61882000  0.08225000  1.0
  C  C75  1  0.45109000  0.38118000  0.58225000  1.0
  C  C76  1  0.09547000  0.38757000  0.93464000  1.0
  C  C77  1  0.40454000  0.61243000  0.43464000  1.0
  C  C78  1  0.90454000  0.61242000  0.06536000  1.0
  C  C79  1  0.59546000  0.38758000  0.56536000  1.0
  C  C80  1  0.11835000  0.51629000  0.91607000  1.0
  C  C81  1  0.38165000  0.48371000  0.41607000  1.0
  C  C82  1  0.88166000  0.48370000  0.08393000  1.0
  C  C83  1  0.61835000  0.51629000  0.58393000  1.0
  C  C84  1  0.22669000  0.25631000  0.97035000  1.0
  C  C85  1  0.27332000  0.74370000  0.47035000  1.0
  C  C86  1  0.77332000  0.74368000  0.02966000  1.0
  C  C87  1  0.72668000  0.25632000  0.52965000  1.0
  C  C88  1  0.98944000  0.50751000  0.46398000  1.0
  C  C89  1  0.51055000  0.49248000  0.96398000  1.0
  C  C90  1  0.01056000  0.49247000  0.53602000  1.0
  C  C91  1  0.48944000  0.50751000  0.03602000  1.0
  C  C92  1  0.99519000  0.97856000  0.96580000  1.0
  C  C93  1  0.50481000  0.02143000  0.46580000  1.0
  C  C94  1  0.00480000  0.02143000  0.03420000  1.0
  C  C95  1  0.49519000  0.97857000  0.53420000  1.0
  N  N96  1  0.06535000  0.93993000  0.79391000  1.0
  N  N97  1  0.43465000  0.06008000  0.29391000  1.0
  N  N98  1  0.93465000  0.06007000  0.20609000  1.0
  N  N99  1  0.56535000  0.93992000  0.70609000  1.0
  N  N100  1  0.00853000  0.63292000  0.88102000  1.0
  N  N101  1  0.49147000  0.36708000  0.38102000  1.0
  N  N102  1  0.99149000  0.36708000  0.11898000  1.0
  N  N103  1  0.50852000  0.63292000  0.61898000  1.0
  O  O104  1  0.05193000  0.04438000  0.57598000  1.0
  O  O105  1  0.44807000  0.95561000  0.07598000  1.0
  O  O106  1  0.94807000  0.95563000  0.42402000  1.0
  O  O107  1  0.55193000  0.04438000  0.92402000  1.0
  O  O108  1  0.94696000  0.88947000  0.61335000  1.0
  O  O109  1  0.55304000  0.11054000  0.11335000  1.0
  O  O110  1  0.05303000  0.11054000  0.38665000  1.0
  O  O111  1  0.44696000  0.88946000  0.88665000  1.0
  O  O112  1  0.33426000  0.28396000  0.99732000  1.0
  O  O113  1  0.16574000  0.71603000  0.49732000  1.0
  O  O114  1  0.66575000  0.71602000  0.00268000  1.0
  O  O115  1  0.83426000  0.28397000  0.50267000  1.0
  O  O116  1  0.21935000  0.12690000  0.96910000  1.0
  O  O117  1  0.28065000  0.87310000  0.46910000  1.0
  O  O118  1  0.78066000  0.87309000  0.03090000  1.0
  O  O119  1  0.71934000  0.12691000  0.53090000  1.0
  O  O120  1  0.05250000  0.38273000  0.43291000  1.0
  O  O121  1  0.44750000  0.61727000  0.93291000  1.0
  O  O122  1  0.94748000  0.61727000  0.56709000  1.0
  O  O123  1  0.55250000  0.38273000  0.06709000  1.0
  O  O124  1  0.91092000  0.64385000  0.44202000  1.0
  O  O125  1  0.58907000  0.35615000  0.94203000  1.0
  O  O126  1  0.08907000  0.35615000  0.55797000  1.0
  O  O127  1  0.41091000  0.64385000  0.05797000  1.0
  O  O128  1  0.12771000  0.87935000  0.94129000  1.0
  O  O129  1  0.37230000  0.12064000  0.44128000  1.0
  O  O130  1  0.87229000  0.12065000  0.05872000  1.0
  O  O131  1  0.62772000  0.87935000  0.55872000  1.0
  O  O132  1  0.85985000  0.04198000  0.93875000  1.0
  O  O133  1  0.64016000  0.95801000  0.43874000  1.0
  O  O134  1  0.14015000  0.95802000  0.06126000  1.0
  O  O135  1  0.35985000  0.04198000  0.56125000  1.0
