# generated using pymatgen
data_CdH13C11N2O5
_symmetry_space_group_name_H-M   'P 1'
_cell_length_a   8.50159000
_cell_length_b   10.75850000
_cell_length_c   17.10780000
_cell_angle_alpha   75.73800000
_cell_angle_beta   81.31070000
_cell_angle_gamma   88.32800000
_symmetry_Int_Tables_number   1
_chemical_formula_structural   CdH13C11N2O5
_chemical_formula_sum   'Cd4 H52 C44 N8 O20'
_cell_volume   1499.06783231
_cell_formula_units_Z   4
loop_
 _symmetry_equiv_pos_site_id
 _symmetry_equiv_pos_as_xyz
  1  'x, y, z'
loop_
 _atom_site_type_symbol
 _atom_site_label
 _atom_site_symmetry_multiplicity
 _atom_site_fract_x
 _atom_site_fract_y
 _atom_site_fract_z
 _atom_site_occupancy
  Cd  Cd0  1  0.27688000  0.74911000  0.75253000  1.0
  Cd  Cd1  1  0.72311000  0.25089000  0.24748000  1.0
  Cd  Cd2  1  0.96650000  0.29686000  0.75245000  1.0
  Cd  Cd3  1  0.03350000  0.70314000  0.24755000  1.0
  H  H4  1  0.02137000  0.93974000  0.78645000  1.0
  H  H5  1  0.97863000  0.06026000  0.21355000  1.0
  H  H6  1  0.03011000  0.92032000  0.69838000  1.0
  H  H7  1  0.96990000  0.07967000  0.30163000  1.0
  H  H8  1  0.00741000  0.53044000  0.81277000  1.0
  H  H9  1  0.99260000  0.46955000  0.18723000  1.0
  H  H10  1  0.00633000  0.56227000  0.71939000  1.0
  H  H11  1  0.99367000  0.43773000  0.28061000  1.0
  H  H12  1  0.59106000  0.68551000  0.69104000  1.0
  H  H13  1  0.40895000  0.31449000  0.30896000  1.0
  H  H14  1  0.38660000  0.85161000  0.85893000  1.0
  H  H15  1  0.61341000  0.14840000  0.14107000  1.0
  H  H16  1  0.25600000  0.39715000  0.81120000  1.0
  H  H17  1  0.74401000  0.60285000  0.18880000  1.0
  H  H18  1  0.65707000  0.48423000  0.61893000  1.0
  H  H19  1  0.34292000  0.51578000  0.38107000  1.0
  H  H20  1  0.51014000  0.37605000  0.53735000  1.0
  H  H21  1  0.48986000  0.62394000  0.46266000  1.0
  H  H22  1  0.23806000  0.28329000  0.59853000  1.0
  H  H23  1  0.76195000  0.71670000  0.40148000  1.0
  H  H24  1  0.48900000  0.48192000  0.83802000  1.0
  H  H25  1  0.51100000  0.51809000  0.16198000  1.0
  H  H26  1  0.67316000  0.48331000  0.77267000  1.0
  H  H27  1  0.32684000  0.51669000  0.22732000  1.0
  H  H28  1  0.75232000  0.69087000  0.79416000  1.0
  H  H29  1  0.24768000  0.30913000  0.20583000  1.0
  H  H30  1  0.57443000  0.66983000  0.86584000  1.0
  H  H31  1  0.42557000  0.33018000  0.13415000  1.0
  H  H32  1  0.67466000  0.89894000  0.81756000  1.0
  H  H33  1  0.32535000  0.10106000  0.18244000  1.0
  H  H34  1  0.64405000  0.89961000  0.71758000  1.0
  H  H35  1  0.35596000  0.10039000  0.28242000  1.0
  H  H36  1  0.27046000  0.04139000  0.78449000  1.0
  H  H37  1  0.72954000  0.95861000  0.21551000  1.0
  H  H38  1  0.43994000  0.06083000  0.70834000  1.0
  H  H39  1  0.56006000  0.93917000  0.29165000  1.0
  H  H40  1  0.67852000  0.16354000  0.72134000  1.0
  H  H41  1  0.32147000  0.83646000  0.27866000  1.0
  H  H42  1  0.31372000  0.06136000  0.93164000  1.0
  H  H43  1  0.68628000  0.93864000  0.06836000  1.0
  H  H44  1  0.46863000  0.18444000  0.00110000  1.0
  H  H45  1  0.53137000  0.81556000  0.99889000  1.0
  H  H46  1  0.72567000  0.28777000  0.92789000  1.0
  H  H47  1  0.27432000  0.71223000  0.07211000  1.0
  H  H48  1  0.04531000  0.89394000  0.95442000  1.0
  H  H49  1  0.95469000  0.10606000  0.04558000  1.0
  H  H50  1  0.01604000  0.60077000  0.04950000  1.0
  H  H51  1  0.98397000  0.39922000  0.95051000  1.0
  H  H52  1  0.24101000  0.85052000  0.46712000  1.0
  H  H53  1  0.75897000  0.14948000  0.53289000  1.0
  H  H54  1  0.06892000  0.58830000  0.53767000  1.0
  H  H55  1  0.93109000  0.41169000  0.46232000  1.0
  C  C56  1  0.31600000  0.39571000  0.75034000  1.0
  C  C57  1  0.68400000  0.60429000  0.24966000  1.0
  C  C58  1  0.46643000  0.45142000  0.72143000  1.0
  C  C59  1  0.53357000  0.54858000  0.27857000  1.0
  C  C60  1  0.53725000  0.44573000  0.64306000  1.0
  C  C61  1  0.46275000  0.55427000  0.35694000  1.0
  C  C62  1  0.45644000  0.38442000  0.59775000  1.0
  C  C63  1  0.54356000  0.61558000  0.40225000  1.0
  C  C64  1  0.30628000  0.33214000  0.63139000  1.0
  C  C65  1  0.69372000  0.66785000  0.36861000  1.0
  C  C66  1  0.54788000  0.51289000  0.77453000  1.0
  C  C67  1  0.45212000  0.48712000  0.22547000  1.0
  C  C68  1  0.62436000  0.71286000  0.80186000  1.0
  C  C69  1  0.37565000  0.28715000  0.19814000  1.0
  C  C70  1  0.60103000  0.85704000  0.78257000  1.0
  C  C71  1  0.39897000  0.14297000  0.21743000  1.0
  C  C72  1  0.39957000  0.02770000  0.77429000  1.0
  C  C73  1  0.60043000  0.97230000  0.22570000  1.0
  C  C74  1  0.62580000  0.16647000  0.78320000  1.0
  C  C75  1  0.37419000  0.83354000  0.21679000  1.0
  C  C76  1  0.48218000  0.10371000  0.81966000  1.0
  C  C77  1  0.51781000  0.89630000  0.18034000  1.0
  C  C78  1  0.42464000  0.10956000  0.89978000  1.0
  C  C79  1  0.57536000  0.89044000  0.10021000  1.0
  C  C80  1  0.51075000  0.17763000  0.93893000  1.0
  C  C81  1  0.48925000  0.82237000  0.06107000  1.0
  C  C82  1  0.65347000  0.23720000  0.89784000  1.0
  C  C83  1  0.34652000  0.76280000  0.10216000  1.0
  C  C84  1  0.02007000  0.09736000  0.88835000  1.0
  C  C85  1  0.97994000  0.90263000  0.11165000  1.0
  C  C86  1  0.01908000  0.99050000  0.96242000  1.0
  C  C87  1  0.98091000  0.00950000  0.03758000  1.0
  C  C88  1  0.14734000  0.62625000  0.92629000  1.0
  C  C89  1  0.85266000  0.37374000  0.07371000  1.0
  C  C90  1  0.03572000  0.55566000  0.99829000  1.0
  C  C91  1  0.96429000  0.44434000  0.00171000  1.0
  C  C92  1  0.22663000  0.75448000  0.59709000  1.0
  C  C93  1  0.77337000  0.24552000  0.40291000  1.0
  C  C94  1  0.19454000  0.76485000  0.51288000  1.0
  C  C95  1  0.80545000  0.23514000  0.48712000  1.0
  C  C96  1  0.11395000  0.67523000  0.49232000  1.0
  C  C97  1  0.88605000  0.32477000  0.50768000  1.0
  C  C98  1  0.08914000  0.68562000  0.40664000  1.0
  C  C99  1  0.91086000  0.31438000  0.59336000  1.0
  N  N100  1  0.23737000  0.33814000  0.70643000  1.0
  N  N101  1  0.76264000  0.66186000  0.29357000  1.0
  N  N102  1  0.53890000  0.65439000  0.75057000  1.0
  N  N103  1  0.46110000  0.34562000  0.24943000  1.0
  N  N104  1  0.43139000  0.88900000  0.79852000  1.0
  N  N105  1  0.56861000  0.11100000  0.20147000  1.0
  N  N106  1  0.70948000  0.23159000  0.82090000  1.0
  N  N107  1  0.29051000  0.76842000  0.17910000  1.0
  O  O108  1  0.02893000  0.21295000  0.89250000  1.0
  O  O109  1  0.97108000  0.78705000  0.10750000  1.0
  O  O110  1  0.03453000  0.87218000  0.75426000  1.0
  O  O111  1  0.96549000  0.12782000  0.24574000  1.0
  O  O112  1  0.00777000  0.06663000  0.82144000  1.0
  O  O113  1  0.99224000  0.93337000  0.17857000  1.0
  O  O114  1  0.94891000  0.50982000  0.77125000  1.0
  O  O115  1  0.05109000  0.49018000  0.22876000  1.0
  O  O116  1  0.14751000  0.59604000  0.85740000  1.0
  O  O117  1  0.85249000  0.40395000  0.14261000  1.0
  O  O118  1  0.23591000  0.71169000  0.93586000  1.0
  O  O119  1  0.76408000  0.28831000  0.06413000  1.0
  O  O120  1  0.16455000  0.66270000  0.65592000  1.0
  O  O121  1  0.83544000  0.33731000  0.34408000  1.0
  O  O122  1  0.31587000  0.83995000  0.60859000  1.0
  O  O123  1  0.68412000  0.16005000  0.39141000  1.0
  O  O124  1  0.08371000  0.58111000  0.38413000  1.0
  O  O125  1  0.91627000  0.41889000  0.61587000  1.0
  O  O126  1  0.07573000  0.79585000  0.35868000  1.0
  O  O127  1  0.92428000  0.20414000  0.64132000  1.0
