# generated using pymatgen
data_Dy2CuH20C32(NO7)4
_symmetry_space_group_name_H-M   'P 1'
_cell_length_a   10.18490000
_cell_length_b   10.77740000
_cell_length_c   11.18650000
_cell_angle_alpha   88.15520000
_cell_angle_beta   76.12200000
_cell_angle_gamma   68.37510000
_symmetry_Int_Tables_number   1
_chemical_formula_structural   Dy2CuH20C32(NO7)4
_chemical_formula_sum   'Dy2 Cu1 H20 C32 N4 O28'
_cell_volume   1106.00901662
_cell_formula_units_Z   1
loop_
 _symmetry_equiv_pos_site_id
 _symmetry_equiv_pos_as_xyz
  1  'x, y, z'
loop_
 _atom_site_type_symbol
 _atom_site_label
 _atom_site_symmetry_multiplicity
 _atom_site_fract_x
 _atom_site_fract_y
 _atom_site_fract_z
 _atom_site_occupancy
  Dy  Dy0  1  0.58488000  0.60222000  0.63421000  1.0
  Dy  Dy1  1  0.41512000  0.39776000  0.36578000  1.0
  Cu  Cu2  1  0.00000000  0.50000000  0.50001000  1.0
  H  H3  1  0.36719000  0.98019000  0.46392000  1.0
  H  H4  1  0.63284000  0.01980000  0.53603000  1.0
  H  H5  1  0.97269000  0.17127000  0.34194000  1.0
  H  H6  1  0.02730000  0.82872000  0.65806000  1.0
  H  H7  1  0.16721000  0.74121000  0.33091000  1.0
  H  H8  1  0.83282000  0.25878000  0.66904000  1.0
  H  H9  1  0.67653000  0.47143000  0.94598000  1.0
  H  H10  1  0.32347000  0.52859000  0.05403000  1.0
  H  H11  1  0.93910000  0.30518000  0.20467000  1.0
  H  H12  1  0.06088000  0.69484000  0.79536000  1.0
  H  H13  1  0.14582000  0.33870000  0.82786000  1.0
  H  H14  1  0.85417000  0.66132000  0.17217000  1.0
  H  H15  1  0.50870000  0.77045000  0.86659000  1.0
  H  H16  1  0.49129000  0.22952000  0.13338000  1.0
  H  H17  1  0.56888000  0.83982000  0.75309000  1.0
  H  H18  1  0.43113000  0.16016000  0.24689000  1.0
  H  H19  1  0.71869000  0.45881000  0.38410000  1.0
  H  H20  1  0.28130000  0.54120000  0.61589000  1.0
  H  H21  1  0.79843000  0.56103000  0.38340000  1.0
  H  H22  1  0.20160000  0.43896000  0.61658000  1.0
  C  C23  1  0.27858000  0.84823000  0.40029000  1.0
  C  C24  1  0.72142000  0.15177000  0.59972000  1.0
  C  C25  1  0.28152000  0.97410000  0.42463000  1.0
  C  C26  1  0.71849000  0.02589000  0.57536000  1.0
  C  C27  1  0.17269000  0.09059000  0.40254000  1.0
  C  C28  1  0.82732000  0.90941000  0.59744000  1.0
  C  C29  1  0.06108000  0.08169000  0.35520000  1.0
  C  C30  1  0.93893000  0.91830000  0.64478000  1.0
  C  C31  1  0.06325000  0.95636000  0.32715000  1.0
  C  C32  1  0.93677000  0.04362000  0.67283000  1.0
  C  C33  1  0.16957000  0.83859000  0.34965000  1.0
  C  C34  1  0.83045000  0.16140000  0.65034000  1.0
  C  C35  1  0.38719000  0.72447000  0.43665000  1.0
  C  C36  1  0.61282000  0.27553000  0.56335000  1.0
  C  C37  1  0.16917000  0.22751000  0.42930000  1.0
  C  C38  1  0.83084000  0.77248000  0.57070000  1.0
  C  C39  1  0.90944000  0.41309000  0.87404000  1.0
  C  C40  1  0.09054000  0.58696000  0.12598000  1.0
  C  C41  1  0.78334000  0.42878000  0.96634000  1.0
  C  C42  1  0.21664000  0.57125000  0.03368000  1.0
  C  C43  1  0.79361000  0.38974000  0.08557000  1.0
  C  C44  1  0.20638000  0.61027000  0.91444000  1.0
  C  C45  1  0.92998000  0.33446000  0.11232000  1.0
  C  C46  1  0.07001000  0.66554000  0.88770000  1.0
  C  C47  1  0.05433000  0.31688000  0.01805000  1.0
  C  C48  1  0.94567000  0.68312000  0.98198000  1.0
  C  C49  1  0.04673000  0.35483000  0.89925000  1.0
  C  C50  1  0.95325000  0.64519000  0.10078000  1.0
  C  C51  1  0.89810000  0.45827000  0.74787000  1.0
  C  C52  1  0.10190000  0.54173000  0.25214000  1.0
  C  C53  1  0.65851000  0.40384000  0.18315000  1.0
  C  C54  1  0.34147000  0.59616000  0.81686000  1.0
  N  N55  1  0.94634000  0.95059000  0.27434000  1.0
  N  N56  1  0.05368000  0.04940000  0.72564000  1.0
  N  N57  1  0.19847000  0.25870000  0.04516000  1.0
  N  N58  1  0.80152000  0.74132000  0.95487000  1.0
  O  O59  1  0.39852000  0.61067000  0.39732000  1.0
  O  O60  1  0.60150000  0.38933000  0.60266000  1.0
  O  O61  1  0.45859000  0.74280000  0.50831000  1.0
  O  O62  1  0.54141000  0.25719000  0.49170000  1.0
  O  O63  1  0.28658000  0.24537000  0.42275000  1.0
  O  O64  1  0.71344000  0.75460000  0.57723000  1.0
  O  O65  1  0.04075000  0.31734000  0.45477000  1.0
  O  O66  1  0.95925000  0.68265000  0.54525000  1.0
  O  O67  1  0.88105000  0.04973000  0.22283000  1.0
  O  O68  1  0.11895000  0.95026000  0.77717000  1.0
  O  O69  1  0.91978000  0.84658000  0.28536000  1.0
  O  O70  1  0.08023000  0.15340000  0.71463000  1.0
  O  O71  1  0.01647000  0.44820000  0.66972000  1.0
  O  O72  1  0.98353000  0.55179000  0.33030000  1.0
  O  O73  1  0.77455000  0.50313000  0.72403000  1.0
  O  O74  1  0.22544000  0.49687000  0.27597000  1.0
  O  O75  1  0.53701000  0.43889000  0.15552000  1.0
  O  O76  1  0.46298000  0.56110000  0.84449000  1.0
  O  O77  1  0.66894000  0.37566000  0.29420000  1.0
  O  O78  1  0.33103000  0.62433000  0.70581000  1.0
  O  O79  1  0.20262000  0.22922000  0.15303000  1.0
  O  O80  1  0.79738000  0.77078000  0.84699000  1.0
  O  O81  1  0.30800000  0.24379000  0.96048000  1.0
  O  O82  1  0.69198000  0.75626000  0.03955000  1.0
  O  O83  1  0.50381000  0.79162000  0.78206000  1.0
  O  O84  1  0.49619000  0.20838000  0.21792000  1.0
  O  O85  1  0.73603000  0.52086000  0.43757000  1.0
  O  O86  1  0.26398000  0.47915000  0.56242000  1.0
