# generated using pymatgen
data_ZnH10C16(Cl2O3)2
_symmetry_space_group_name_H-M   'P 1'
_cell_length_a   4.72984000
_cell_length_b   10.40250000
_cell_length_c   18.79890000
_cell_angle_alpha   99.92640000
_cell_angle_beta   90.19870000
_cell_angle_gamma   96.87990000
_symmetry_Int_Tables_number   1
_chemical_formula_structural   ZnH10C16(Cl2O3)2
_chemical_formula_sum   'Zn2 H20 C32 Cl8 O12'
_cell_volume   904.26449755
_cell_formula_units_Z   2
loop_
 _symmetry_equiv_pos_site_id
 _symmetry_equiv_pos_as_xyz
  1  'x, y, z'
loop_
 _atom_site_type_symbol
 _atom_site_label
 _atom_site_symmetry_multiplicity
 _atom_site_fract_x
 _atom_site_fract_y
 _atom_site_fract_z
 _atom_site_occupancy
  Zn  Zn0  1  0.32576000  0.53526000  0.58764000  1.0
  Zn  Zn1  1  0.67424000  0.46474000  0.41236000  1.0
  H  H2  1  0.98802000  0.87350000  0.50953000  1.0
  H  H3  1  0.01200000  0.12650000  0.49047000  1.0
  H  H4  1  0.67595000  0.89577000  0.46182000  1.0
  H  H5  1  0.32406000  0.10423000  0.53818000  1.0
  H  H6  1  0.80683000  0.17451000  0.79979000  1.0
  H  H7  1  0.19317000  0.82549000  0.20021000  1.0
  H  H8  1  0.03169000  0.80394000  0.61209000  1.0
  H  H9  1  0.96831000  0.19606000  0.38792000  1.0
  H  H10  1  0.24632000  0.83417000  0.73411000  1.0
  H  H11  1  0.75368000  0.16584000  0.26590000  1.0
  H  H12  1  0.06950000  0.41510000  0.72365000  1.0
  H  H13  1  0.93050000  0.58490000  0.27635000  1.0
  H  H14  1  0.11142000  0.58274000  0.76261000  1.0
  H  H15  1  0.88857000  0.41726000  0.23739000  1.0
  H  H16  1  0.64865000  0.88534000  0.89826000  1.0
  H  H17  1  0.35135000  0.11466000  0.10173000  1.0
  H  H18  1  0.16158000  0.56251000  0.97541000  1.0
  H  H19  1  0.83841000  0.43749000  0.02459000  1.0
  H  H20  1  0.86801000  0.73007000  0.80814000  1.0
  H  H21  1  0.13199000  0.26993000  0.19186000  1.0
  C  C22  1  0.75442000  0.86844000  0.51159000  1.0
  C  C23  1  0.24558000  0.13156000  0.48841000  1.0
  C  C24  1  0.63401000  0.72561000  0.51093000  1.0
  C  C25  1  0.36599000  0.27439000  0.48907000  1.0
  C  C26  1  0.73635000  0.07603000  0.68957000  1.0
  C  C27  1  0.26366000  0.92397000  0.31043000  1.0
  C  C28  1  0.79392000  0.97108000  0.63567000  1.0
  C  C29  1  0.20608000  0.02892000  0.36433000  1.0
  C  C30  1  0.85384000  0.09250000  0.75904000  1.0
  C  C31  1  0.14617000  0.90750000  0.24097000  1.0
  C  C32  1  0.97765000  0.88449000  0.65261000  1.0
  C  C33  1  0.02236000  0.11552000  0.34739000  1.0
  C  C34  1  0.03504000  0.00391000  0.77464000  1.0
  C  C35  1  0.96497000  0.99610000  0.22537000  1.0
  C  C36  1  0.09919000  0.90077000  0.72175000  1.0
  C  C37  1  0.90082000  0.09923000  0.27825000  1.0
  C  C38  1  0.79496000  0.52750000  0.67579000  1.0
  C  C39  1  0.20504000  0.47250000  0.32422000  1.0
  C  C40  1  0.95098000  0.49905000  0.74137000  1.0
  C  C41  1  0.04902000  0.50095000  0.25863000  1.0
  C  C42  1  0.64680000  0.55585000  0.84084000  1.0
  C  C43  1  0.35319000  0.44415000  0.15916000  1.0
  C  C44  1  0.44343000  0.51046000  0.88834000  1.0
  C  C45  1  0.55656000  0.48954000  0.11166000  1.0
  C  C46  1  0.39184000  0.73362000  0.94234000  1.0
  C  C47  1  0.60814000  0.26638000  0.05766000  1.0
  C  C48  1  0.58986000  0.78032000  0.89534000  1.0
  C  C49  1  0.41013000  0.21968000  0.10465000  1.0
  C  C50  1  0.31711000  0.59875000  0.93889000  1.0
  C  C51  1  0.68288000  0.40125000  0.06111000  1.0
  C  C52  1  0.71482000  0.69140000  0.84455000  1.0
  C  C53  1  0.28518000  0.30860000  0.15545000  1.0
  Cl  Cl54  1  0.52338000  0.18907000  0.66901000  1.0
  Cl  Cl55  1  0.47660000  0.81092000  0.33099000  1.0
  Cl  Cl56  1  0.18445000  0.02299000  0.86045000  1.0
  Cl  Cl57  1  0.81555000  0.97702000  0.13955000  1.0
  Cl  Cl58  1  0.34937000  0.34382000  0.88348000  1.0
  Cl  Cl59  1  0.65063000  0.65619000  0.11652000  1.0
  Cl  Cl60  1  0.23391000  0.84169000  0.00583000  1.0
  Cl  Cl61  1  0.76609000  0.15831000  0.99417000  1.0
  O  O62  1  0.43253000  0.69996000  0.55271000  1.0
  O  O63  1  0.56747000  0.30003000  0.44727000  1.0
  O  O64  1  0.66634000  0.96184000  0.56908000  1.0
  O  O65  1  0.33367000  0.03816000  0.43092000  1.0
  O  O66  1  0.52599000  0.52482000  0.67849000  1.0
  O  O67  1  0.47401000  0.47518000  0.32151000  1.0
  O  O68  1  0.76599000  0.46117000  0.79510000  1.0
  O  O69  1  0.23401000  0.53882000  0.20490000  1.0
  O  O70  1  0.93086000  0.55128000  0.62018000  1.0
  O  O71  1  0.06913000  0.44871000  0.37982000  1.0
  O  O72  1  0.75054000  0.64441000  0.46565000  1.0
  O  O73  1  0.24950000  0.35559000  0.53434000  1.0
