# generated using pymatgen
data_ZnH8C11NO4
_symmetry_space_group_name_H-M   'P 1'
_cell_length_a   10.31670000
_cell_length_b   11.09160000
_cell_length_c   11.11392094
_cell_angle_alpha   68.80062454
_cell_angle_beta   70.51494983
_cell_angle_gamma   66.93800000
_symmetry_Int_Tables_number   1
_chemical_formula_structural   ZnH8C11NO4
_chemical_formula_sum   'Zn4 H32 C44 N4 O16'
_cell_volume   1063.28071087
_cell_formula_units_Z   4
loop_
 _symmetry_equiv_pos_site_id
 _symmetry_equiv_pos_as_xyz
  1  'x, y, z'
loop_
 _atom_site_type_symbol
 _atom_site_label
 _atom_site_symmetry_multiplicity
 _atom_site_fract_x
 _atom_site_fract_y
 _atom_site_fract_z
 _atom_site_occupancy
  Zn  Zn0  1  0.84585000  0.35232000  0.24887000  1.0
  Zn  Zn1  1  0.84214000  0.56808000  0.97343000  1.0
  Zn  Zn2  1  0.15414000  0.64767000  0.75113000  1.0
  Zn  Zn3  1  0.15788000  0.43191000  0.02657000  1.0
  H  H4  1  0.88474000  0.99857000  0.12157000  1.0
  H  H5  1  0.68340000  0.97092000  0.85444000  1.0
  H  H6  1  0.68142000  0.36161000  0.85226000  1.0
  H  H7  1  0.64582000  0.41095000  0.66233000  1.0
  H  H8  1  0.56181000  0.37369000  0.57064000  1.0
  H  H9  1  0.81557000  0.53994000  0.70974000  1.0
  H  H10  1  0.64676000  0.66190000  0.55445000  1.0
  H  H11  1  0.41935000  0.94739000  0.79392000  1.0
  H  H12  1  0.58830000  0.80805000  0.94151000  1.0
  H  H13  1  0.43295000  0.84930000  0.49110000  1.0
  H  H14  1  0.26987000  0.02225000  0.69144000  1.0
  H  H15  1  0.26004000  0.94770000  0.38224000  1.0
  H  H16  1  0.06627000  0.09536000  0.25965000  1.0
  H  H17  1  0.87108000  0.33593000  0.52151000  1.0
  H  H18  1  0.05781000  0.19884000  0.65714000  1.0
  H  H19  1  0.11526000  0.00143000  0.87845000  1.0
  H  H20  1  0.31662000  0.02908000  0.14556000  1.0
  H  H21  1  0.31858000  0.63838000  0.14775000  1.0
  H  H22  1  0.35420000  0.58903000  0.33767000  1.0
  H  H23  1  0.43820000  0.62629000  0.42936000  1.0
  H  H24  1  0.18442000  0.46006000  0.29026000  1.0
  H  H25  1  0.35323000  0.33811000  0.44555000  1.0
  H  H26  1  0.58065000  0.05263000  0.20607000  1.0
  H  H27  1  0.41170000  0.19197000  0.05848000  1.0
  H  H28  1  0.56705000  0.15073000  0.50889000  1.0
  H  H29  1  0.73012000  0.97776000  0.30856000  1.0
  H  H30  1  0.73997000  0.05231000  0.61776000  1.0
  H  H31  1  0.93373000  0.90464000  0.74034000  1.0
  H  H32  1  0.12891000  0.66407000  0.47848000  1.0
  H  H33  1  0.94218000  0.80116000  0.34286000  1.0
  H  H34  1  0.91716000  0.57306000  0.16302000  1.0
  H  H35  1  0.08285000  0.42694000  0.83697000  1.0
  C  C36  1  0.81468000  0.27711000  0.04578000  1.0
  C  C37  1  0.78542000  0.18786000  0.99088000  1.0
  C  C38  1  0.82471000  0.04683000  0.04369000  1.0
  C  C39  1  0.78832000  0.96794000  0.99400000  1.0
  C  C40  1  0.71268000  0.03181000  0.89269000  1.0
  C  C41  1  0.67650000  0.17258000  0.83765000  1.0
  C  C42  1  0.71216000  0.25144000  0.88736000  1.0
  C  C43  1  0.56593000  0.36317000  0.67146000  1.0
  C  C44  1  0.41853000  0.43962000  0.74364000  1.0
  C  C45  1  0.83153000  0.81440000  0.04365000  1.0
  C  C46  1  0.72455000  0.63033000  0.72448000  1.0
  C  C47  1  0.63045000  0.69851000  0.63886000  1.0
  C  C48  1  0.51444000  0.81473000  0.66167000  1.0
  C  C49  1  0.50345000  0.85705000  0.77059000  1.0
  C  C50  1  0.59914000  0.78141000  0.85285000  1.0
  C  C51  1  0.41015000  0.88541000  0.57764000  1.0
  C  C52  1  0.28940000  0.98836000  0.60453000  1.0
  C  C53  1  0.17800000  0.06287000  0.52927000  1.0
  C  C54  1  0.17700000  0.03294000  0.41705000  1.0
  C  C55  1  0.06879000  0.11338000  0.34868000  1.0
  C  C56  1  0.95960000  0.24878000  0.49500000  1.0
  C  C57  1  0.06329000  0.17258000  0.56947000  1.0
  C  C58  1  0.18532000  0.72290000  0.95421000  1.0
  C  C59  1  0.21458000  0.81213000  0.00912000  1.0
  C  C60  1  0.17529000  0.95316000  0.95633000  1.0
  C  C61  1  0.21169000  0.03205000  0.00601000  1.0
  C  C62  1  0.28732000  0.96818000  0.10732000  1.0
  C  C63  1  0.32350000  0.82741000  0.16236000  1.0
  C  C64  1  0.28784000  0.74855000  0.11265000  1.0
  C  C65  1  0.43407000  0.63681000  0.32855000  1.0
  C  C66  1  0.58148000  0.56040000  0.25633000  1.0
  C  C67  1  0.16848000  0.18560000  0.95633000  1.0
  C  C68  1  0.27545000  0.36968000  0.27551000  1.0
  C  C69  1  0.36955000  0.30150000  0.36113000  1.0
  C  C70  1  0.48555000  0.18528000  0.33833000  1.0
  C  C71  1  0.49655000  0.14297000  0.22940000  1.0
  C  C72  1  0.40086000  0.21861000  0.14714000  1.0
  C  C73  1  0.58985000  0.11461000  0.42235000  1.0
  C  C74  1  0.71058000  0.01166000  0.39547000  1.0
  C  C75  1  0.82199000  0.93713000  0.47074000  1.0
  C  C76  1  0.82300000  0.96707000  0.58295000  1.0
  C  C77  1  0.93121000  0.88662000  0.65132000  1.0
  C  C78  1  0.04038000  0.75121000  0.50500000  1.0
  C  C79  1  0.93669000  0.82743000  0.43053000  1.0
  N  N80  1  0.70894000  0.66975000  0.83087000  1.0
  N  N81  1  0.96252000  0.22135000  0.38522000  1.0
  N  N82  1  0.29105000  0.33026000  0.16912000  1.0
  N  N83  1  0.03747000  0.77865000  0.61478000  1.0
  O  O84  1  0.84396000  0.22628000  0.16100000  1.0
  O  O85  1  0.80441000  0.39767000  0.97621000  1.0
  O  O86  1  0.61045000  0.22092000  0.73331000  1.0
  O  O87  1  0.37394000  0.39102000  0.86400000  1.0
  O  O88  1  0.35373000  0.55248000  0.66806000  1.0
  O  O89  1  0.83860000  0.75744000  0.95847000  1.0
  O  O90  1  0.85768000  0.75497000  0.15732000  1.0
  O  O91  1  0.94663000  0.48623000  0.13876000  1.0
  O  O92  1  0.15604000  0.77370000  0.83901000  1.0
  O  O93  1  0.19558000  0.60232000  0.02380000  1.0
  O  O94  1  0.38953000  0.77907000  0.26672000  1.0
  O  O95  1  0.62605000  0.60896000  0.13601000  1.0
  O  O96  1  0.64627000  0.44751000  0.33194000  1.0
  O  O97  1  0.16139000  0.24257000  0.04152000  1.0
  O  O98  1  0.14236000  0.24501000  0.84266000  1.0
  O  O99  1  0.05339000  0.51375000  0.86125000  1.0
