# generated using pymatgen
data_AgH8C11N3O4
_symmetry_space_group_name_H-M   'P 1'
_cell_length_a   7.54090000
_cell_length_b   8.72069000
_cell_length_c   8.92503000
_cell_angle_alpha   90.00050000
_cell_angle_beta   90.00010000
_cell_angle_gamma   101.71200000
_symmetry_Int_Tables_number   1
_chemical_formula_structural   AgH8C11N3O4
_chemical_formula_sum   'Ag2 H16 C22 N6 O8'
_cell_volume   574.70687169
_cell_formula_units_Z   2
loop_
 _symmetry_equiv_pos_site_id
 _symmetry_equiv_pos_as_xyz
  1  'x, y, z'
loop_
 _atom_site_type_symbol
 _atom_site_label
 _atom_site_symmetry_multiplicity
 _atom_site_fract_x
 _atom_site_fract_y
 _atom_site_fract_z
 _atom_site_occupancy
  Ag  Ag0  1  0.51895000  0.84884000  0.26823000  1.0
  Ag  Ag1  1  0.48106000  0.15116000  0.76823000  1.0
  H  H2  1  0.19111000  0.91193000  0.06877000  1.0
  H  H3  1  0.80888000  0.08807000  0.56877000  1.0
  H  H4  1  0.07452000  0.85478000  0.81176000  1.0
  H  H5  1  0.92548000  0.14522000  0.31176000  1.0
  H  H6  1  0.41249000  0.50984000  0.78056000  1.0
  H  H7  1  0.58752000  0.49016000  0.28057000  1.0
  H  H8  1  0.52153000  0.58570000  0.03804000  1.0
  H  H9  1  0.47846000  0.41430000  0.53805000  1.0
  H  H10  1  0.60176000  0.77247000  0.60022000  1.0
  H  H11  1  0.39824000  0.22753000  0.10022000  1.0
  H  H12  1  0.83904000  0.67711000  0.74437000  1.0
  H  H13  1  0.16096000  0.32289000  0.24437000  1.0
  H  H14  1  0.14227000  0.68820000  0.33124000  1.0
  H  H15  1  0.85773000  0.31180000  0.83124000  1.0
  H  H16  1  0.89147000  0.78962000  0.20389000  1.0
  H  H17  1  0.10853000  0.21038000  0.70389000  1.0
  C  C18  1  0.23615000  0.82285000  0.00138000  1.0
  C  C19  1  0.76385000  0.17715000  0.50138000  1.0
  C  C20  1  0.17015000  0.78876000  0.85673000  1.0
  C  C21  1  0.82986000  0.21124000  0.35673000  1.0
  C  C22  1  0.23012000  0.67197000  0.77495000  1.0
  C  C23  1  0.76988000  0.32803000  0.27496000  1.0
  C  C24  1  0.35993000  0.59922000  0.84129000  1.0
  C  C25  1  0.64007000  0.40078000  0.34130000  1.0
  C  C26  1  0.41982000  0.64052000  0.98538000  1.0
  C  C27  1  0.58018000  0.35948000  0.48538000  1.0
  C  C28  1  0.72350000  0.75220000  0.54465000  1.0
  C  C29  1  0.27650000  0.24780000  0.04465000  1.0
  C  C30  1  0.85832000  0.69963000  0.62482000  1.0
  C  C31  1  0.14168000  0.30037000  0.12481000  1.0
  C  C32  1  0.01351000  0.67761000  0.54865000  1.0
  C  C33  1  0.98649000  0.32238000  0.04865000  1.0
  C  C34  1  0.02393000  0.70565000  0.39390000  1.0
  C  C35  1  0.97607000  0.29435000  0.89390000  1.0
  C  C36  1  0.88630000  0.76121000  0.32296000  1.0
  C  C37  1  0.11371000  0.23879000  0.82296000  1.0
  C  C38  1  0.16976000  0.62365000  0.61928000  1.0
  C  C39  1  0.83024000  0.37635000  0.11929000  1.0
  N  N40  1  0.35765000  0.74989000  0.06576000  1.0
  N  N41  1  0.64235000  0.25011000  0.56576000  1.0
  N  N42  1  0.73757000  0.78464000  0.39716000  1.0
  N  N43  1  0.26244000  0.21536000  0.89716000  1.0
  N  N44  1  0.27860000  0.02332000  0.44981000  1.0
  N  N45  1  0.72139000  0.97668000  0.94981000  1.0
  O  O46  1  0.25128000  0.53980000  0.54559000  1.0
  O  O47  1  0.74872000  0.46021000  0.04560000  1.0
  O  O48  1  0.31250000  0.02488000  0.30920000  1.0
  O  O49  1  0.68750000  0.97512000  0.80920000  1.0
  O  O50  1  0.16673000  0.09968000  0.49931000  1.0
  O  O51  1  0.83326000  0.90032000  0.99931000  1.0
  O  O52  1  0.35912000  0.94426000  0.53694000  1.0
  O  O53  1  0.64088000  0.05574000  0.03694000  1.0
