# generated using pymatgen
data_Al2H18C26O11
_symmetry_space_group_name_H-M   'P 1'
_cell_length_a   6.89992000
_cell_length_b   11.12490000
_cell_length_c   17.59160000
_cell_angle_alpha   79.96950000
_cell_angle_beta   81.69710000
_cell_angle_gamma   72.13190000
_symmetry_Int_Tables_number   1
_chemical_formula_structural   Al2H18C26O11
_chemical_formula_sum   'Al2 H18 C26 O11'
_cell_volume   1259.59440121
_cell_formula_units_Z   1
loop_
 _symmetry_equiv_pos_site_id
 _symmetry_equiv_pos_as_xyz
  1  'x, y, z'
loop_
 _atom_site_type_symbol
 _atom_site_label
 _atom_site_symmetry_multiplicity
 _atom_site_fract_x
 _atom_site_fract_y
 _atom_site_fract_z
 _atom_site_occupancy
  Al  Al0  1  0.49984000  0.50061000  0.50091000  1.0
  Al  Al1  1  0.00170000  0.49721000  0.50071000  1.0
  H  H2  1  0.23413000  0.60026000  0.41144000  1.0
  H  H3  1  0.79796000  0.35208000  0.56167000  1.0
  H  H4  1  0.13394000  0.11524000  0.49258000  1.0
  H  H5  1  0.75056000  0.12037000  0.50553000  1.0
  H  H6  1  0.25732000  0.87968000  0.49537000  1.0
  H  H7  1  0.54588000  0.48981000  0.25810000  1.0
  H  H8  1  0.63838000  0.48777000  0.11460000  1.0
  H  H9  1  0.15143000  0.50145000  0.27922000  1.0
  H  H10  1  0.85099000  0.49537000  0.72063000  1.0
  H  H11  1  0.45213000  0.51452000  0.74183000  1.0
  H  H12  1  0.35912000  0.51576000  0.88560000  1.0
  H  H13  1  0.93612000  0.78489000  0.51015000  1.0
  H  H14  1  0.41285000  0.41039000  0.15280000  1.0
  H  H15  1  0.31816000  0.50278000  0.06555000  1.0
  H  H16  1  0.33980000  0.57931000  0.14365000  1.0
  H  H17  1  0.65929000  0.42037000  0.85411000  1.0
  H  H18  1  0.68455000  0.49027000  0.93471000  1.0
  H  H19  1  0.58807000  0.58867000  0.84937000  1.0
  C  C20  1  0.79659000  0.50386000  0.36223000  1.0
  C  C21  1  0.64031000  0.72695000  0.50208000  1.0
  C  C22  1  0.20325000  0.49871000  0.63793000  1.0
  C  C23  1  0.36144000  0.27255000  0.50005000  1.0
  C  C24  1  0.57267000  0.86643000  0.50170000  1.0
  C  C25  1  0.43514000  0.13166000  0.49939000  1.0
  C  C26  1  0.71384000  0.93515000  0.50483000  1.0
  C  C27  1  0.29507000  0.06407000  0.49604000  1.0
  C  C28  1  0.64240000  0.06777000  0.50335000  1.0
  C  C29  1  0.36437000  0.93313000  0.49732000  1.0
  C  C30  1  0.84324000  0.49821000  0.27729000  1.0
  C  C31  1  0.69718000  0.49265000  0.23113000  1.0
  C  C32  1  0.74744000  0.49136000  0.15201000  1.0
  C  C33  1  0.94211000  0.49544000  0.11657000  1.0
  C  C34  1  0.09097000  0.49786000  0.16312000  1.0
  C  C35  1  0.03838000  0.49937000  0.24247000  1.0
  C  C36  1  0.98354000  0.49809000  0.03524000  1.0
  C  C37  1  0.01524000  0.50236000  0.96478000  1.0
  C  C38  1  0.05701000  0.50515000  0.88343000  1.0
  C  C39  1  0.90936000  0.50080000  0.83692000  1.0
  C  C40  1  0.96223000  0.49956000  0.75754000  1.0
  C  C41  1  0.15641000  0.50334000  0.72290000  1.0
  C  C42  1  0.30150000  0.51041000  0.76896000  1.0
  C  C43  1  0.25094000  0.51115000  0.84811000  1.0
  C  C44  1  0.30144000  0.49796000  0.12886000  1.0
  C  C45  1  0.69946000  0.49935000  0.87120000  1.0
  O  O46  1  0.61958000  0.49932000  0.39363000  1.0
  O  O47  1  0.83298000  0.66997000  0.50760000  1.0
  O  O48  1  0.06147000  0.48618000  0.60342000  1.0
  O  O49  1  0.49445000  0.32788000  0.50624000  1.0
  O  O50  1  0.37832000  0.50614000  0.60626000  1.0
  O  O51  1  0.17029000  0.32600000  0.49546000  1.0
  O  O52  1  0.94035000  0.51469000  0.39663000  1.0
  O  O53  1  0.50883000  0.67140000  0.49605000  1.0
  O  O54  1  0.23312000  0.56047000  0.46506000  1.0
  O  O55  1  0.76701000  0.43890000  0.53529000  1.0
  O  O56  1  0.91594000  0.87824000  0.50921000  1.0
