# generated using pymatgen
data_Ga2P3H11C12(NO6)2
_symmetry_space_group_name_H-M   'P 1'
_cell_length_a   7.69574000
_cell_length_b   11.84890000
_cell_length_c   12.06400000
_cell_angle_alpha   113.92800000
_cell_angle_beta   102.06600000
_cell_angle_gamma   103.33100000
_symmetry_Int_Tables_number   1
_chemical_formula_structural   Ga2P3H11C12(NO6)2
_chemical_formula_sum   'Ga4 P6 H22 C24 N4 O24'
_cell_volume   920.07932795
_cell_formula_units_Z   2
loop_
 _symmetry_equiv_pos_site_id
 _symmetry_equiv_pos_as_xyz
  1  'x, y, z'
loop_
 _atom_site_type_symbol
 _atom_site_label
 _atom_site_symmetry_multiplicity
 _atom_site_fract_x
 _atom_site_fract_y
 _atom_site_fract_z
 _atom_site_occupancy
  Ga  Ga0  1  0.80380000  0.82582000  0.47884000  1.0
  Ga  Ga1  1  0.19620000  0.17418000  0.52116000  1.0
  Ga  Ga2  1  0.63723000  0.38065000  0.36393000  1.0
  Ga  Ga3  1  0.36277000  0.61934000  0.63607000  1.0
  P  P4  1  0.96002000  0.67879000  0.60723000  1.0
  P  P5  1  0.03997000  0.32121000  0.39277000  1.0
  P  P6  1  0.18384000  0.88882000  0.41953000  1.0
  P  P7  1  0.81616000  0.11118000  0.58047000  1.0
  P  P8  1  0.43523000  0.59622000  0.37605000  1.0
  P  P9  1  0.56476000  0.40378000  0.62395000  1.0
  H  H10  1  0.80435000  0.63252000  0.72152000  1.0
  H  H11  1  0.19565000  0.36748000  0.27848000  1.0
  H  H12  1  0.23817000  0.81478000  0.56398000  1.0
  H  H13  1  0.76183000  0.18522000  0.43602000  1.0
  H  H14  1  0.23819000  0.67896000  0.29804000  1.0
  H  H15  1  0.76182000  0.32104000  0.70196000  1.0
  H  H16  1  0.90473000  0.58136000  0.30648000  1.0
  H  H17  1  0.09527000  0.41864000  0.69353000  1.0
  H  H18  1  0.91157000  0.59945000  0.10857000  1.0
  H  H19  1  0.08843000  0.40055000  0.89144000  1.0
  H  H20  1  0.68824000  0.41316000  0.89186000  1.0
  H  H21  1  0.31176000  0.58684000  0.10814000  1.0
  H  H22  1  0.43362000  0.18236000  0.76639000  1.0
  H  H23  1  0.56639000  0.81764000  0.23361000  1.0
  H  H24  1  0.21858000  0.99245000  0.76788000  1.0
  H  H25  1  0.78142000  0.00755000  0.23212000  1.0
  H  H26  1  0.11154000  0.88045000  0.89798000  1.0
  H  H27  1  0.88847000  0.11955000  0.10202000  1.0
  H  H28  1  0.15329000  0.89410000  0.11584000  1.0
  H  H29  1  0.84671000  0.10590000  0.88416000  1.0
  H  H30  1  0.37570000  0.10076000  0.31256000  1.0
  H  H31  1  0.62430000  0.89924000  0.68744000  1.0
  C  C32  1  0.80866000  0.50368000  0.21189000  1.0
  C  C33  1  0.19133000  0.49633000  0.78811000  1.0
  C  C34  1  0.81140000  0.51171000  0.09917000  1.0
  C  C35  1  0.18860000  0.48829000  0.90083000  1.0
  C  C36  1  0.68843000  0.40914000  0.98057000  1.0
  C  C37  1  0.31157000  0.59086000  0.01943000  1.0
  C  C38  1  0.56216000  0.29705000  0.97444000  1.0
  C  C39  1  0.43785000  0.70295000  0.02557000  1.0
  C  C40  1  0.43280000  0.18369000  0.85701000  1.0
  C  C41  1  0.56720000  0.81631000  0.14299000  1.0
  C  C42  1  0.31559000  0.07815000  0.85808000  1.0
  C  C43  1  0.68441000  0.92186000  0.14192000  1.0
  C  C44  1  0.31972000  0.07681000  0.97683000  1.0
  C  C45  1  0.68028000  0.92318000  0.02317000  1.0
  C  C46  1  0.20983000  0.96898000  0.98555000  1.0
  C  C47  1  0.79017000  0.03102000  0.01445000  1.0
  C  C48  1  0.23114000  0.97626000  0.10531000  1.0
  C  C49  1  0.76886000  0.02374000  0.89469000  1.0
  C  C50  1  0.35587000  0.09222000  0.21720000  1.0
  C  C51  1  0.64413000  0.90778000  0.78280000  1.0
  C  C52  1  0.56743000  0.29861000  0.09296000  1.0
  C  C53  1  0.43257000  0.70139000  0.90704000  1.0
  C  C54  1  0.44431000  0.18857000  0.09417000  1.0
  C  C55  1  0.55568000  0.81143000  0.90583000  1.0
  N  N56  1  0.68901000  0.40061000  0.20841000  1.0
  N  N57  1  0.31099000  0.59939000  0.79159000  1.0
  N  N58  1  0.45631000  0.19585000  0.21089000  1.0
  N  N59  1  0.54369000  0.80415000  0.78911000  1.0
  O  O60  1  0.96464000  0.85125000  0.39100000  1.0
  O  O61  1  0.03536000  0.14875000  0.60900000  1.0
  O  O62  1  0.91746000  0.80366000  0.61520000  1.0
  O  O63  1  0.08253000  0.19634000  0.38480000  1.0
  O  O64  1  0.26992000  0.03309000  0.44621000  1.0
  O  O65  1  0.73008000  0.96691000  0.55380000  1.0
  O  O66  1  0.60149000  0.67802000  0.35361000  1.0
  O  O67  1  0.39851000  0.32198000  0.64639000  1.0
  O  O68  1  0.82293000  0.55578000  0.48514000  1.0
  O  O69  1  0.17707000  0.44421000  0.51486000  1.0
  O  O70  1  0.16917000  0.70529000  0.61646000  1.0
  O  O71  1  0.83083000  0.29471000  0.38355000  1.0
  O  O72  1  0.45899000  0.66713000  0.51969000  1.0
  O  O73  1  0.54101000  0.33287000  0.48031000  1.0
  O  O74  1  0.42521000  0.45159000  0.32803000  1.0
  O  O75  1  0.57478000  0.54841000  0.67197000  1.0
  O  O76  1  0.94205000  0.67319000  0.73293000  1.0
  O  O77  1  0.05794000  0.32681000  0.26707000  1.0
  O  O78  1  0.28103000  0.89425000  0.55179000  1.0
  O  O79  1  0.71897000  0.10575000  0.44821000  1.0
  O  O80  1  0.24652000  0.58609000  0.28738000  1.0
  O  O81  1  0.75348000  0.41391000  0.71262000  1.0
  O  O82  1  0.22342000  0.79628000  0.30612000  1.0
  O  O83  1  0.77658000  0.20372000  0.69387000  1.0
