# generated using pymatgen
data_GdH11C9(NO2)4
_symmetry_space_group_name_H-M   'P 1'
_cell_length_a   7.04677000
_cell_length_b   10.99250000
_cell_length_c   11.03870000
_cell_angle_alpha   110.77100000
_cell_angle_beta   102.07000000
_cell_angle_gamma   106.75400000
_symmetry_Int_Tables_number   1
_chemical_formula_structural   GdH11C9(NO2)4
_chemical_formula_sum   'Gd2 H22 C18 N8 O16'
_cell_volume   717.78524169
_cell_formula_units_Z   2
loop_
 _symmetry_equiv_pos_site_id
 _symmetry_equiv_pos_as_xyz
  1  'x, y, z'
loop_
 _atom_site_type_symbol
 _atom_site_label
 _atom_site_symmetry_multiplicity
 _atom_site_fract_x
 _atom_site_fract_y
 _atom_site_fract_z
 _atom_site_occupancy
  Gd  Gd0  1  0.71053000  0.78337000  0.68192000  1.0
  Gd  Gd1  1  0.28947000  0.21663000  0.31808000  1.0
  H  H2  1  0.41773000  0.81863000  0.39056000  1.0
  H  H3  1  0.58228000  0.18137000  0.60944000  1.0
  H  H4  1  0.21129000  0.75789000  0.96972000  1.0
  H  H5  1  0.78872000  0.24211000  0.03029000  1.0
  H  H6  1  0.31293000  0.42534000  0.05496000  1.0
  H  H7  1  0.68707000  0.57466000  0.94504000  1.0
  H  H8  1  0.29854000  0.79366000  0.70852000  1.0
  H  H9  1  0.70145000  0.20634000  0.29147000  1.0
  H  H10  1  0.32459000  0.67719000  0.75105000  1.0
  H  H11  1  0.67540000  0.32281000  0.24895000  1.0
  H  H12  1  0.82473000  0.95203000  0.53782000  1.0
  H  H13  1  0.17527000  0.04797000  0.46218000  1.0
  H  H14  1  0.90851000  0.83264000  0.47407000  1.0
  H  H15  1  0.09148000  0.16736000  0.52593000  1.0
  H  H16  1  0.95292000  0.63826000  0.53393000  1.0
  H  H17  1  0.04707000  0.36173000  0.46607000  1.0
  H  H18  1  0.99768000  0.62690000  0.67876000  1.0
  H  H19  1  0.00232000  0.37310000  0.32123000  1.0
  H  H20  1  0.84014000  0.72128000  0.89748000  1.0
  H  H21  1  0.15986000  0.27872000  0.10252000  1.0
  H  H22  1  0.01406000  0.87833000  0.99961000  1.0
  H  H23  1  0.98594000  0.12167000  0.00039000  1.0
  C  C24  1  0.42178000  0.55576000  0.33363000  1.0
  C  C25  1  0.57822000  0.44424000  0.66637000  1.0
  C  C26  1  0.36957000  0.61503000  0.23383000  1.0
  C  C27  1  0.63044000  0.38497000  0.76617000  1.0
  C  C28  1  0.37492000  0.75249000  0.28059000  1.0
  C  C29  1  0.62509000  0.24751000  0.71941000  1.0
  C  C30  1  0.31613000  0.80278000  0.18477000  1.0
  C  C31  1  0.68388000  0.19722000  0.81523000  1.0
  C  C32  1  0.30870000  0.94558000  0.23460000  1.0
  C  C33  1  0.69130000  0.05442000  0.76540000  1.0
  C  C34  1  0.25590000  0.71742000  0.04318000  1.0
  C  C35  1  0.74409000  0.28257000  0.95681000  1.0
  C  C36  1  0.25213000  0.58016000  0.99587000  1.0
  C  C37  1  0.74789000  0.41984000  0.00413000  1.0
  C  C38  1  0.31068000  0.53064000  0.09231000  1.0
  C  C39  1  0.68931000  0.46937000  0.90770000  1.0
  C  C40  1  0.18107000  0.48560000  0.84869000  1.0
  C  C41  1  0.81893000  0.51440000  0.15131000  1.0
  N  N42  1  0.15517000  0.34849000  0.79820000  1.0
  N  N43  1  0.84483000  0.65150000  0.20180000  1.0
  N  N44  1  0.08864000  0.30079000  0.66119000  1.0
  N  N45  1  0.91136000  0.69921000  0.33881000  1.0
  N  N46  1  0.07468000  0.40347000  0.62861000  1.0
  N  N47  1  0.92532000  0.59653000  0.37140000  1.0
  N  N48  1  0.13138000  0.52183000  0.74443000  1.0
  N  N49  1  0.86862000  0.47817000  0.25557000  1.0
  O  O50  1  0.48894000  0.63711000  0.46204000  1.0
  O  O51  1  0.51106000  0.36289000  0.53796000  1.0
  O  O52  1  0.39269000  0.42545000  0.28277000  1.0
  O  O53  1  0.60731000  0.57456000  0.71724000  1.0
  O  O54  1  0.42333000  0.04102000  0.35638000  1.0
  O  O55  1  0.57667000  0.95899000  0.64362000  1.0
  O  O56  1  0.18356000  0.97282000  0.15422000  1.0
  O  O57  1  0.81644000  0.02717000  0.84577000  1.0
  O  O58  1  0.40709000  0.76545000  0.74745000  1.0
  O  O59  1  0.59290000  0.23455000  0.25254000  1.0
  O  O60  1  0.89652000  0.89602000  0.56255000  1.0
  O  O61  1  0.10347000  0.10398000  0.43745000  1.0
  O  O62  1  0.96618000  0.68678000  0.63497000  1.0
  O  O63  1  0.03382000  0.31322000  0.36503000  1.0
  O  O64  1  0.90941000  0.81480000  0.90290000  1.0
  O  O65  1  0.09059000  0.18520000  0.09710000  1.0
