# generated using pymatgen
data_CsH7C7SO3
_symmetry_space_group_name_H-M   'P 1'
_cell_length_a   7.22588000
_cell_length_b   10.26880000
_cell_length_c   13.70620000
_cell_angle_alpha   70.32600000
_cell_angle_beta   89.99980000
_cell_angle_gamma   89.99940000
_symmetry_Int_Tables_number   1
_chemical_formula_structural   CsH7C7SO3
_chemical_formula_sum   'Cs4 H28 C28 S4 O12'
_cell_volume   957.64546275
_cell_formula_units_Z   4
loop_
 _symmetry_equiv_pos_site_id
 _symmetry_equiv_pos_as_xyz
  1  'x, y, z'
loop_
 _atom_site_type_symbol
 _atom_site_label
 _atom_site_symmetry_multiplicity
 _atom_site_fract_x
 _atom_site_fract_y
 _atom_site_fract_z
 _atom_site_occupancy
  Cs  Cs0  1  0.67112000  0.83763000  0.43087000  1.0
  Cs  Cs1  1  0.17113000  0.66237000  0.56913000  1.0
  Cs  Cs2  1  0.32888000  0.16237000  0.56913000  1.0
  Cs  Cs3  1  0.82888000  0.33763000  0.43087000  1.0
  H  H4  1  0.27205000  0.90547000  0.20161000  1.0
  H  H5  1  0.77206000  0.59453000  0.79839000  1.0
  H  H6  1  0.72794000  0.09454000  0.79839000  1.0
  H  H7  1  0.22794000  0.40547000  0.20161000  1.0
  H  H8  1  0.54222000  0.93908000  0.08373000  1.0
  H  H9  1  0.04222000  0.56093000  0.91627000  1.0
  H  H10  1  0.45779000  0.06092000  0.91627000  1.0
  H  H11  1  0.95778000  0.43907000  0.08373000  1.0
  H  H12  1  0.72710000  0.27856000  0.17640000  1.0
  H  H13  1  0.22710000  0.22143000  0.82361000  1.0
  H  H14  1  0.27290000  0.72143000  0.82361000  1.0
  H  H15  1  0.77289000  0.77856000  0.17639000  1.0
  H  H16  1  0.45426000  0.24860000  0.29143000  1.0
  H  H17  1  0.95426000  0.25140000  0.70857000  1.0
  H  H18  1  0.54574000  0.75140000  0.70857000  1.0
  H  H19  1  0.04574000  0.74860000  0.29143000  1.0
  H  H20  1  0.91351000  0.21033000  0.05886000  1.0
  H  H21  1  0.41351000  0.28967000  0.94115000  1.0
  H  H22  1  0.08650000  0.78967000  0.94115000  1.0
  H  H23  1  0.58649000  0.71033000  0.05886000  1.0
  H  H24  1  0.90730000  0.03048000  0.07927000  1.0
  H  H25  1  0.40730000  0.46952000  0.92073000  1.0
  H  H26  1  0.09270000  0.96952000  0.92073000  1.0
  H  H27  1  0.59270000  0.53047000  0.07927000  1.0
  H  H28  1  0.78737000  0.14744000  0.97295000  1.0
  H  H29  1  0.28737000  0.35256000  0.02705000  1.0
  H  H30  1  0.21263000  0.85256000  0.02705000  1.0
  H  H31  1  0.71263000  0.64744000  0.97295000  1.0
  C  C32  1  0.34716000  0.07392000  0.25420000  1.0
  C  C33  1  0.84717000  0.42607000  0.74580000  1.0
  C  C34  1  0.65284000  0.92608000  0.74580000  1.0
  C  C35  1  0.15284000  0.57393000  0.25420000  1.0
  C  C36  1  0.37019000  0.98866000  0.19426000  1.0
  C  C37  1  0.87019000  0.51135000  0.80573000  1.0
  C  C38  1  0.62980000  0.01134000  0.80573000  1.0
  C  C39  1  0.12981000  0.48865000  0.19426000  1.0
  C  C40  1  0.52341000  0.00763000  0.12892000  1.0
  C  C41  1  0.02342000  0.49237000  0.87108000  1.0
  C  C42  1  0.47658000  0.99238000  0.87108000  1.0
  C  C43  1  0.97657000  0.50763000  0.12892000  1.0
  C  C44  1  0.65567000  0.11075000  0.12185000  1.0
  C  C45  1  0.15566000  0.38926000  0.87815000  1.0
  C  C46  1  0.34433000  0.88925000  0.87815000  1.0
  C  C47  1  0.84434000  0.61074000  0.12185000  1.0
  C  C48  1  0.62644000  0.19759000  0.18056000  1.0
  C  C49  1  0.12644000  0.30241000  0.81944000  1.0
  C  C50  1  0.37356000  0.80241000  0.81944000  1.0
  C  C51  1  0.87355000  0.69759000  0.18056000  1.0
  C  C52  1  0.47399000  0.18011000  0.24626000  1.0
  C  C53  1  0.97399000  0.31990000  0.75374000  1.0
  C  C54  1  0.52600000  0.81989000  0.75374000  1.0
  C  C55  1  0.02601000  0.68010000  0.24626000  1.0
  C  C56  1  0.82443000  0.12592000  0.05473000  1.0
  C  C57  1  0.32443000  0.37408000  0.94528000  1.0
  C  C58  1  0.17558000  0.87408000  0.94527000  1.0
  C  C59  1  0.67557000  0.62592000  0.05473000  1.0
  S  S60  1  0.17521000  0.03511000  0.35353000  1.0
  S  S61  1  0.67520000  0.46491000  0.64647000  1.0
  S  S62  1  0.82479000  0.96488000  0.64646000  1.0
  S  S63  1  0.32480000  0.53510000  0.35353000  1.0
  O  O64  1  0.03529000  0.94810000  0.32790000  1.0
  O  O65  1  0.53530000  0.55190000  0.67210000  1.0
  O  O66  1  0.96471000  0.05191000  0.67210000  1.0
  O  O67  1  0.46471000  0.44810000  0.32790000  1.0
  O  O68  1  0.27996000  0.95918000  0.44892000  1.0
  O  O69  1  0.77997000  0.54082000  0.55108000  1.0
  O  O70  1  0.72003000  0.04082000  0.55108000  1.0
  O  O71  1  0.22003000  0.45918000  0.44892000  1.0
  O  O72  1  0.10491000  0.16787000  0.35638000  1.0
  O  O73  1  0.60491000  0.33213000  0.64362000  1.0
  O  O74  1  0.89509000  0.83214000  0.64362000  1.0
  O  O75  1  0.39509000  0.66787000  0.35638000  1.0
