# generated using pymatgen
data_CuH10C17O5F6
_symmetry_space_group_name_H-M   'P 1'
_cell_length_a   6.96871000
_cell_length_b   12.76820000
_cell_length_c   20.85580000
_cell_angle_alpha   85.83530000
_cell_angle_beta   89.99990000
_cell_angle_gamma   89.99990000
_symmetry_Int_Tables_number   1
_chemical_formula_structural   CuH10C17O5F6
_chemical_formula_sum   'Cu4 H40 C68 O20 F24'
_cell_volume   1850.80477699
_cell_formula_units_Z   4
loop_
 _symmetry_equiv_pos_site_id
 _symmetry_equiv_pos_as_xyz
  1  'x, y, z'
loop_
 _atom_site_type_symbol
 _atom_site_label
 _atom_site_symmetry_multiplicity
 _atom_site_fract_x
 _atom_site_fract_y
 _atom_site_fract_z
 _atom_site_occupancy
  Cu  Cu0  1  0.85020000  0.04659000  0.01881000  1.0
  Cu  Cu1  1  0.85020000  0.45341000  0.48120000  1.0
  Cu  Cu2  1  0.14979000  0.95341000  0.98119000  1.0
  Cu  Cu3  1  0.14979000  0.54659000  0.51881000  1.0
  H  H4  1  0.46930000  0.07286000  0.04756000  1.0
  H  H5  1  0.46930000  0.42715000  0.45244000  1.0
  H  H6  1  0.53068000  0.92714000  0.95243000  1.0
  H  H7  1  0.53068000  0.57286000  0.54756000  1.0
  H  H8  1  0.58400000  0.16282000  0.07702000  1.0
  H  H9  1  0.58401000  0.33719000  0.42297000  1.0
  H  H10  1  0.41598000  0.83720000  0.92296000  1.0
  H  H11  1  0.41599000  0.66282000  0.57703000  1.0
  H  H12  1  0.17106000  0.15477000  0.31299000  1.0
  H  H13  1  0.17105000  0.34523000  0.18701000  1.0
  H  H14  1  0.82895000  0.84524000  0.68701000  1.0
  H  H15  1  0.82894000  0.65477000  0.81299000  1.0
  H  H16  1  0.01927000  0.13336000  0.20817000  1.0
  H  H17  1  0.01927000  0.36664000  0.29183000  1.0
  H  H18  1  0.98074000  0.86664000  0.79183000  1.0
  H  H19  1  0.98074000  0.63336000  0.70817000  1.0
  H  H20  1  0.50829000  0.95853000  0.14942000  1.0
  H  H21  1  0.50827000  0.54147000  0.35058000  1.0
  H  H22  1  0.49172000  0.04146000  0.85058000  1.0
  H  H23  1  0.49173000  0.45854000  0.64942000  1.0
  H  H24  1  0.65821000  0.97486000  0.25530000  1.0
  H  H25  1  0.65820000  0.52514000  0.24469000  1.0
  H  H26  1  0.34180000  0.02514000  0.74470000  1.0
  H  H27  1  0.34180000  0.47486000  0.75530000  1.0
  H  H28  1  0.89758000  0.03552000  0.41130000  1.0
  H  H29  1  0.89757000  0.46447000  0.08869000  1.0
  H  H30  1  0.10243000  0.96448000  0.58870000  1.0
  H  H31  1  0.10242000  0.53552000  0.91130000  1.0
  H  H32  1  0.03350000  0.86447000  0.44926000  1.0
  H  H33  1  0.03348000  0.63553000  0.05074000  1.0
  H  H34  1  0.96652000  0.13554000  0.55074000  1.0
  H  H35  1  0.96652000  0.36446000  0.94926000  1.0
  H  H36  1  0.51199000  0.71055000  0.39929000  1.0
  H  H37  1  0.51198000  0.78945000  0.10072000  1.0
  H  H38  1  0.48802000  0.28945000  0.60072000  1.0
  H  H39  1  0.48802000  0.21055000  0.89928000  1.0
  H  H40  1  0.37693000  0.88098000  0.35691000  1.0
  H  H41  1  0.37692000  0.61903000  0.14309000  1.0
  H  H42  1  0.62309000  0.11903000  0.64310000  1.0
  H  H43  1  0.62308000  0.38098000  0.85690000  1.0
  C  C44  1  0.42516000  0.06490000  0.29259000  1.0
  C  C45  1  0.42515000  0.43510000  0.20741000  1.0
  C  C46  1  0.57485000  0.93510000  0.70741000  1.0
  C  C47  1  0.57484000  0.56491000  0.79259000  1.0
  C  C48  1  0.24587000  0.11025000  0.27830000  1.0
  C  C49  1  0.24586000  0.38975000  0.22170000  1.0
  C  C50  1  0.75414000  0.88976000  0.72169000  1.0
  C  C51  1  0.75413000  0.61025000  0.77831000  1.0
  C  C52  1  0.15974000  0.09921000  0.21894000  1.0
  C  C53  1  0.15973000  0.40079000  0.28106000  1.0
  C  C54  1  0.84027000  0.90079000  0.78106000  1.0
  C  C55  1  0.84027000  0.59921000  0.71895000  1.0
  C  C56  1  0.25230000  0.04437000  0.17225000  1.0
  C  C57  1  0.25230000  0.45563000  0.32775000  1.0
  C  C58  1  0.74771000  0.95563000  0.82775000  1.0
  C  C59  1  0.74771000  0.54437000  0.67225000  1.0
  C  C60  1  0.43367000  0.00039000  0.18572000  1.0
  C  C61  1  0.43367000  0.49960000  0.31428000  1.0
  C  C62  1  0.56633000  0.99961000  0.81428000  1.0
  C  C63  1  0.56634000  0.50039000  0.68572000  1.0
  C  C64  1  0.51820000  0.01033000  0.24541000  1.0
  C  C65  1  0.51819000  0.48967000  0.25459000  1.0
  C  C66  1  0.48180000  0.98967000  0.75459000  1.0
  C  C67  1  0.48180000  0.51034000  0.74541000  1.0
  C  C68  1  0.15731000  0.03287000  0.10884000  1.0
  C  C69  1  0.15732000  0.46713000  0.39116000  1.0
  C  C70  1  0.84269000  0.96712000  0.89116000  1.0
  C  C71  1  0.84269000  0.53287000  0.60884000  1.0
  C  C72  1  0.52968000  0.07548000  0.35696000  1.0
  C  C73  1  0.52966000  0.42452000  0.14304000  1.0
  C  C74  1  0.47033000  0.92452000  0.64304000  1.0
  C  C75  1  0.47032000  0.57548000  0.85696000  1.0
  C  C76  1  0.67515000  0.16745000  0.34512000  1.0
  C  C77  1  0.67514000  0.33255000  0.15488000  1.0
  C  C78  1  0.32485000  0.83255000  0.65488000  1.0
  C  C79  1  0.32484000  0.66745000  0.84513000  1.0
  C  C80  1  0.39222000  0.10388000  0.41231000  1.0
  C  C81  1  0.39221000  0.39612000  0.08769000  1.0
  C  C82  1  0.60778000  0.89612000  0.58769000  1.0
  C  C83  1  0.60778000  0.60388000  0.91231000  1.0
  C  C84  1  0.62740000  0.97117000  0.38021000  1.0
  C  C85  1  0.62740000  0.52882000  0.11979000  1.0
  C  C86  1  0.37260000  0.02883000  0.61979000  1.0
  C  C87  1  0.37260000  0.47117000  0.88021000  1.0
  C  C88  1  0.81204000  0.96541000  0.40672000  1.0
  C  C89  1  0.81202000  0.53460000  0.09328000  1.0
  C  C90  1  0.18798000  0.03460000  0.59328000  1.0
  C  C91  1  0.18797000  0.46540000  0.90671000  1.0
  C  C92  1  0.88980000  0.86881000  0.42865000  1.0
  C  C93  1  0.88979000  0.63119000  0.07135000  1.0
  C  C94  1  0.11022000  0.13120000  0.57135000  1.0
  C  C95  1  0.11021000  0.36880000  0.92864000  1.0
  C  C96  1  0.78318000  0.77656000  0.42550000  1.0
  C  C97  1  0.78317000  0.72344000  0.07450000  1.0
  C  C98  1  0.21684000  0.22344000  0.57450000  1.0
  C  C99  1  0.21683000  0.27656000  0.92550000  1.0
  C  C100  1  0.59728000  0.78192000  0.39985000  1.0
  C  C101  1  0.59727000  0.71808000  0.10015000  1.0
  C  C102  1  0.40273000  0.21808000  0.60016000  1.0
  C  C103  1  0.40272000  0.28192000  0.89984000  1.0
  C  C104  1  0.52122000  0.87817000  0.37704000  1.0
  C  C105  1  0.52121000  0.62183000  0.12296000  1.0
  C  C106  1  0.47879000  0.12184000  0.62296000  1.0
  C  C107  1  0.47878000  0.37816000  0.87704000  1.0
  C  C108  1  0.86465000  0.67346000  0.45105000  1.0
  C  C109  1  0.86463000  0.82654000  0.04895000  1.0
  C  C110  1  0.13537000  0.32655000  0.54896000  1.0
  C  C111  1  0.13536000  0.17345000  0.95104000  1.0
  O  O112  1  0.98553000  0.06485000  0.10193000  1.0
  O  O113  1  0.98552000  0.43514000  0.39807000  1.0
  O  O114  1  0.01447000  0.93514000  0.89807000  1.0
  O  O115  1  0.01448000  0.56486000  0.60193000  1.0
  O  O116  1  0.25855000  0.99098000  0.06597000  1.0
  O  O117  1  0.25855000  0.50901000  0.43403000  1.0
  O  O118  1  0.74145000  0.00901000  0.93402000  1.0
  O  O119  1  0.74144000  0.49099000  0.56598000  1.0
  O  O120  1  0.76354000  0.59207000  0.44303000  1.0
  O  O121  1  0.76353000  0.90793000  0.05697000  1.0
  O  O122  1  0.23646000  0.40794000  0.55698000  1.0
  O  O123  1  0.23645000  0.09206000  0.94302000  1.0
  O  O124  1  0.02750000  0.67533000  0.47900000  1.0
  O  O125  1  0.02749000  0.82467000  0.02100000  1.0
  O  O126  1  0.97252000  0.32467000  0.52101000  1.0
  O  O127  1  0.97251000  0.17533000  0.97900000  1.0
  O  O128  1  0.57629000  0.12273000  0.03930000  1.0
  O  O129  1  0.57630000  0.37728000  0.46069000  1.0
  O  O130  1  0.42368000  0.87727000  0.96068000  1.0
  O  O131  1  0.42369000  0.62272000  0.53931000  1.0
  F  F132  1  0.76483000  0.19579000  0.39952000  1.0
  F  F133  1  0.76481000  0.30421000  0.10048000  1.0
  F  F134  1  0.23516000  0.80421000  0.60049000  1.0
  F  F135  1  0.23516000  0.69578000  0.89952000  1.0
  F  F136  1  0.58819000  0.25616000  0.31905000  1.0
  F  F137  1  0.58819000  0.24385000  0.18095000  1.0
  F  F138  1  0.41182000  0.74385000  0.68095000  1.0
  F  F139  1  0.41181000  0.75616000  0.81906000  1.0
  F  F140  1  0.81492000  0.14226000  0.30346000  1.0
  F  F141  1  0.81492000  0.35775000  0.19654000  1.0
  F  F142  1  0.18509000  0.85774000  0.69655000  1.0
  F  F143  1  0.18509000  0.64226000  0.80346000  1.0
  F  F144  1  0.48561000  0.10154000  0.46922000  1.0
  F  F145  1  0.48560000  0.39846000  0.03078000  1.0
  F  F146  1  0.51438000  0.89846000  0.53078000  1.0
  F  F147  1  0.51438000  0.60154000  0.96922000  1.0
  F  F148  1  0.31166000  0.20159000  0.40294000  1.0
  F  F149  1  0.31164000  0.29841000  0.09706000  1.0
  F  F150  1  0.68835000  0.79841000  0.59706000  1.0
  F  F151  1  0.68836000  0.70158000  0.90295000  1.0
  F  F152  1  0.24450000  0.03411000  0.41899000  1.0
  F  F153  1  0.24449000  0.46590000  0.08101000  1.0
  F  F154  1  0.75549000  0.96589000  0.58100000  1.0
  F  F155  1  0.75548000  0.53410000  0.91900000  1.0
