# generated using pymatgen
data_ZnH26C36(NO2)4
_symmetry_space_group_name_H-M   'P 1'
_cell_length_a   9.40583000
_cell_length_b   13.73470000
_cell_length_c   13.96400000
_cell_angle_alpha   90.00000000
_cell_angle_beta   90.00000000
_cell_angle_gamma   110.02400000
_symmetry_Int_Tables_number   1
_chemical_formula_structural   ZnH26C36(NO2)4
_chemical_formula_sum   'Zn2 H52 C72 N8 O16'
_cell_volume   1694.90633909
_cell_formula_units_Z   2
loop_
 _symmetry_equiv_pos_site_id
 _symmetry_equiv_pos_as_xyz
  1  'x, y, z'
loop_
 _atom_site_type_symbol
 _atom_site_label
 _atom_site_symmetry_multiplicity
 _atom_site_fract_x
 _atom_site_fract_y
 _atom_site_fract_z
 _atom_site_occupancy
  Zn  Zn0  1  0.51950000  0.03922000  0.25002000  1.0
  Zn  Zn1  1  0.48050000  0.96078000  0.75002000  1.0
  H  H2  1  0.93085000  0.19371000  0.16272000  1.0
  H  H3  1  0.06915000  0.80628000  0.66272000  1.0
  H  H4  1  0.73725000  0.80633000  0.83729000  1.0
  H  H5  1  0.26275000  0.19367000  0.33729000  1.0
  H  H6  1  0.65067000  0.78055000  0.15149000  1.0
  H  H7  1  0.34933000  0.21945000  0.65149000  1.0
  H  H8  1  0.87024000  0.21928000  0.84851000  1.0
  H  H9  1  0.12977000  0.78072000  0.34851000  1.0
  H  H10  1  0.78768000  0.67306000  0.07689000  1.0
  H  H11  1  0.21232000  0.32694000  0.57689000  1.0
  H  H12  1  0.11464000  0.32680000  0.92323000  1.0
  H  H13  1  0.88536000  0.67320000  0.42323000  1.0
  H  H14  1  0.19350000  0.94128000  0.06517000  1.0
  H  H15  1  0.80650000  0.05872000  0.56517000  1.0
  H  H16  1  0.25249000  0.05867000  0.93482000  1.0
  H  H17  1  0.74751000  0.94133000  0.43482000  1.0
  H  H18  1  0.05538000  0.04735000  0.13903000  1.0
  H  H19  1  0.94462000  0.95265000  0.63903000  1.0
  H  H20  1  0.00829000  0.95256000  0.86098000  1.0
  H  H21  1  0.99171000  0.04744000  0.36098000  1.0
  H  H22  1  0.10766000  0.53166000  0.27128000  1.0
  H  H23  1  0.89233000  0.46833000  0.77128000  1.0
  H  H24  1  0.57590000  0.46845000  0.72866000  1.0
  H  H25  1  0.42410000  0.53155000  0.22866000  1.0
  H  H26  1  0.13432000  0.70183000  0.19486000  1.0
  H  H27  1  0.86567000  0.29816000  0.69485000  1.0
  H  H28  1  0.43230000  0.29825000  0.80505000  1.0
  H  H29  1  0.56770000  0.70175000  0.30505000  1.0
  H  H30  1  0.97438000  0.54598000  0.92805000  1.0
  H  H31  1  0.02563000  0.45402000  0.42806000  1.0
  H  H32  1  0.42869000  0.45401000  0.07197000  1.0
  H  H33  1  0.57131000  0.54599000  0.57197000  1.0
  H  H34  1  0.94057000  0.37525000  0.00656000  1.0
  H  H35  1  0.05943000  0.62475000  0.50656000  1.0
  H  H36  1  0.56584000  0.62476000  0.99354000  1.0
  H  H37  1  0.43416000  0.37524000  0.49354000  1.0
  H  H38  1  0.00280000  0.71358000  0.94042000  1.0
  H  H39  1  0.99720000  0.28642000  0.44042000  1.0
  H  H40  1  0.28923000  0.28646000  0.05948000  1.0
  H  H41  1  0.71077000  0.71354000  0.55948000  1.0
  H  H42  1  0.16192000  0.82372000  0.83146000  1.0
  H  H43  1  0.83808000  0.17628000  0.33146000  1.0
  H  H44  1  0.33814000  0.17638000  0.16849000  1.0
  H  H45  1  0.66186000  0.82361000  0.66849000  1.0
  H  H46  1  0.36917000  0.79645000  0.09488000  1.0
  H  H47  1  0.63083000  0.20355000  0.59488000  1.0
  H  H48  1  0.57280000  0.20356000  0.90516000  1.0
  H  H49  1  0.42720000  0.79644000  0.40516000  1.0
  H  H50  1  0.58892000  0.90601000  0.96581000  1.0
  H  H51  1  0.41108000  0.09399000  0.46581000  1.0
  H  H52  1  0.68285000  0.09397000  0.03429000  1.0
  H  H53  1  0.31715000  0.90603000  0.53429000  1.0
  C  C54  1  0.76087000  0.98541000  0.19019000  1.0
  C  C55  1  0.23913000  0.01458000  0.69019000  1.0
  C  C56  1  0.77569000  0.01453000  0.80977000  1.0
  C  C57  1  0.22431000  0.98547000  0.30977000  1.0
  C  C58  1  0.84421000  0.92081000  0.14839000  1.0
  C  C59  1  0.15579000  0.07919000  0.64839000  1.0
  C  C60  1  0.92362000  0.07907000  0.85158000  1.0
  C  C61  1  0.07638000  0.92093000  0.35158000  1.0
  C  C62  1  0.76978000  0.81461000  0.13235000  1.0
  C  C63  1  0.23022000  0.18539000  0.63235000  1.0
  C  C64  1  0.95531000  0.18526000  0.86763000  1.0
  C  C65  1  0.04469000  0.81474000  0.36763000  1.0
  C  C66  1  0.84635000  0.75522000  0.09086000  1.0
  C  C67  1  0.15365000  0.24478000  0.59086000  1.0
  C  C68  1  0.09125000  0.24468000  0.90913000  1.0
  C  C69  1  0.90876000  0.75532000  0.40913000  1.0
  C  C70  1  0.99858000  0.80080000  0.06410000  1.0
  C  C71  1  0.00142000  0.19920000  0.56410000  1.0
  C  C72  1  0.19797000  0.19916000  0.93583000  1.0
  C  C73  1  0.80203000  0.80084000  0.43584000  1.0
  C  C74  1  0.07426000  0.90557000  0.08338000  1.0
  C  C75  1  0.92574000  0.09443000  0.58337000  1.0
  C  C76  1  0.16896000  0.09438000  0.91660000  1.0
  C  C77  1  0.83104000  0.90562000  0.41660000  1.0
  C  C78  1  0.99723000  0.96539000  0.12471000  1.0
  C  C79  1  0.00277000  0.03461000  0.62471000  1.0
  C  C80  1  0.03209000  0.03453000  0.87525000  1.0
  C  C81  1  0.96791000  0.96547000  0.37525000  1.0
  C  C82  1  0.99966000  0.34233000  0.19158000  1.0
  C  C83  1  0.00034000  0.65767000  0.69158000  1.0
  C  C84  1  0.65756000  0.65772000  0.80844000  1.0
  C  C85  1  0.34244000  0.34228000  0.30844000  1.0
  C  C86  1  0.02479000  0.44359000  0.14304000  1.0
  C  C87  1  0.97521000  0.55641000  0.64304000  1.0
  C  C88  1  0.58145000  0.55644000  0.85699000  1.0
  C  C89  1  0.41855000  0.44356000  0.35699000  1.0
  C  C90  1  0.07983000  0.53581000  0.19594000  1.0
  C  C91  1  0.92017000  0.46419000  0.69594000  1.0
  C  C92  1  0.54407000  0.46425000  0.80402000  1.0
  C  C93  1  0.45592000  0.53575000  0.30402000  1.0
  C  C94  1  0.09589000  0.63045000  0.15290000  1.0
  C  C95  1  0.90411000  0.36955000  0.65290000  1.0
  C  C96  1  0.46545000  0.36962000  0.84705000  1.0
  C  C97  1  0.53455000  0.63038000  0.34705000  1.0
  C  C98  1  0.05835000  0.63399000  0.05608000  1.0
  C  C99  1  0.94165000  0.36601000  0.55608000  1.0
  C  C100  1  0.42447000  0.36605000  0.94388000  1.0
  C  C101  1  0.57553000  0.63395000  0.44388000  1.0
  C  C102  1  0.00430000  0.54209000  0.00318000  1.0
  C  C103  1  0.99570000  0.45791000  0.50318000  1.0
  C  C104  1  0.46251000  0.45792000  0.99685000  1.0
  C  C105  1  0.53748000  0.54208000  0.49685000  1.0
  C  C106  1  0.98688000  0.44738000  0.04637000  1.0
  C  C107  1  0.01312000  0.55262000  0.54637000  1.0
  C  C108  1  0.53987000  0.55263000  0.95368000  1.0
  C  C109  1  0.46013000  0.44737000  0.45369000  1.0
  C  C110  1  0.06850000  0.73459000  0.00715000  1.0
  C  C111  1  0.93150000  0.26541000  0.50715000  1.0
  C  C112  1  0.33403000  0.26543000  0.99281000  1.0
  C  C113  1  0.66597000  0.73456000  0.49281000  1.0
  C  C114  1  0.24947000  0.83308000  0.88451000  1.0
  C  C115  1  0.75053000  0.16692000  0.38451000  1.0
  C  C116  1  0.41638000  0.16698000  0.11550000  1.0
  C  C117  1  0.58363000  0.83302000  0.61550000  1.0
  C  C118  1  0.35974000  0.81806000  0.02121000  1.0
  C  C119  1  0.64026000  0.18194000  0.52121000  1.0
  C  C120  1  0.54173000  0.18199000  0.97883000  1.0
  C  C121  1  0.45827000  0.81801000  0.47883000  1.0
  C  C122  1  0.46742000  0.87383000  0.95692000  1.0
  C  C123  1  0.53257000  0.12617000  0.45692000  1.0
  C  C124  1  0.59357000  0.12619000  0.04313000  1.0
  C  C125  1  0.40643000  0.87381000  0.54313000  1.0
  N  N126  1  0.39707000  0.88297000  0.87188000  1.0
  N  N127  1  0.60293000  0.11702000  0.37188000  1.0
  N  N128  1  0.51402000  0.11705000  0.12816000  1.0
  N  N129  1  0.48598000  0.88295000  0.62816000  1.0
  N  N130  1  0.22249000  0.79234000  0.97356000  1.0
  N  N131  1  0.77751000  0.20766000  0.47356000  1.0
  N  N132  1  0.43025000  0.20775000  0.02647000  1.0
  N  N133  1  0.56975000  0.79225000  0.52647000  1.0
  O  O134  1  0.82623000  0.08188000  0.20203000  1.0
  O  O135  1  0.17378000  0.91812000  0.70203000  1.0
  O  O136  1  0.74448000  0.91806000  0.79792000  1.0
  O  O137  1  0.25552000  0.08194000  0.29792000  1.0
  O  O138  1  0.62104000  0.93838000  0.21260000  1.0
  O  O139  1  0.37896000  0.06162000  0.71260000  1.0
  O  O140  1  0.68290000  0.06159000  0.78745000  1.0
  O  O141  1  0.31710000  0.93841000  0.28744000  1.0
  O  O142  1  0.00474000  0.33348000  0.27931000  1.0
  O  O143  1  0.99526000  0.66652000  0.77931000  1.0
  O  O144  1  0.67133000  0.66655000  0.72069000  1.0
  O  O145  1  0.32867000  0.33345000  0.22069000  1.0
  O  O146  1  0.96852000  0.26349000  0.12981000  1.0
  O  O147  1  0.03148000  0.73651000  0.62981000  1.0
  O  O148  1  0.70517000  0.73655000  0.87022000  1.0
  O  O149  1  0.29483000  0.26344000  0.37022000  1.0
