# generated using pymatgen
data_AlH5C8O5
_symmetry_space_group_name_H-M   'P 1'
_cell_length_a   6.69515000
_cell_length_b   11.13650000
_cell_length_c   11.14019327
_cell_angle_alpha   95.53426264
_cell_angle_beta   107.48729016
_cell_angle_gamma   107.48390000
_symmetry_Int_Tables_number   1
_chemical_formula_structural   AlH5C8O5
_chemical_formula_sum   'Al2 H10 C16 O10'
_cell_volume   739.54285800
_cell_formula_units_Z   2
loop_
 _symmetry_equiv_pos_site_id
 _symmetry_equiv_pos_as_xyz
  1  'x, y, z'
loop_
 _atom_site_type_symbol
 _atom_site_label
 _atom_site_symmetry_multiplicity
 _atom_site_fract_x
 _atom_site_fract_y
 _atom_site_fract_z
 _atom_site_occupancy
  Al  Al0  1  0.99717000  0.00138000  0.00049000  1.0
  Al  Al1  1  0.49725000  0.00145000  0.00063000  1.0
  H  H2  1  0.73389000  0.61938000  0.99650000  1.0
  H  H3  1  0.61910000  0.38332000  0.00304000  1.0
  H  H4  1  0.37467000  0.99738000  0.61831000  1.0
  H  H5  1  0.25851000  0.00158000  0.38183000  1.0
  H  H6  1  0.25972000  0.38328000  0.00306000  1.0
  H  H7  1  0.37460000  0.61933000  0.99659000  1.0
  H  H8  1  0.61792000  0.00166000  0.38189000  1.0
  H  H9  1  0.73414000  0.99743000  0.61839000  1.0
  H  H10  1  0.37948000  0.13381000  0.13322000  1.0
  H  H11  1  0.61456000  0.87052000  0.86658000  1.0
  C  C12  1  0.84699000  0.56632000  0.99782000  1.0
  C  C13  1  0.78396000  0.43635000  0.00179000  1.0
  C  C14  1  0.20951000  0.99816000  0.56522000  1.0
  C  C15  1  0.14568000  0.00080000  0.43496000  1.0
  C  C16  1  0.14662000  0.43630000  0.00183000  1.0
  C  C17  1  0.20971000  0.56632000  0.99784000  1.0
  C  C18  1  0.78303000  0.00086000  0.43501000  1.0
  C  C19  1  0.84689000  0.99822000  0.56526000  1.0
  C  C20  1  0.06025000  0.63200000  0.99596000  1.0
  C  C21  1  0.93353000  0.37065000  0.00398000  1.0
  C  C22  1  0.12833000  0.77181000  0.99228000  1.0
  C  C23  1  0.86600000  0.23100000  0.00845000  1.0
  C  C24  1  0.06056000  0.99701000  0.63112000  1.0
  C  C25  1  0.93230000  0.00251000  0.36925000  1.0
  C  C26  1  0.12926000  0.99454000  0.77118000  1.0
  C  C27  1  0.86452000  0.00679000  0.22961000  1.0
  O  O28  1  0.98505000  0.82602000  0.99028000  1.0
  O  O29  1  0.67063000  0.17683000  0.01067000  1.0
  O  O30  1  0.32502000  0.99304000  0.82554000  1.0
  O  O31  1  0.00785000  0.00912000  0.17540000  1.0
  O  O32  1  0.00930000  0.17675000  0.01054000  1.0
  O  O33  1  0.32390000  0.82608000  0.99046000  1.0
  O  O34  1  0.66924000  0.00915000  0.17557000  1.0
  O  O35  1  0.98618000  0.99308000  0.82540000  1.0
  O  O36  1  0.30747000  0.06142000  0.06115000  1.0
  O  O37  1  0.68691000  0.94156000  0.93996000  1.0
