# generated using pymatgen
data_Zr3H9C25ClO16F5
_symmetry_space_group_name_H-M   'P 1'
_cell_length_a   14.79930000
_cell_length_b   14.81201011
_cell_length_c   14.82000000
_cell_angle_alpha   89.94549411
_cell_angle_beta   60.07850000
_cell_angle_gamma   60.13875548
_symmetry_Int_Tables_number   1
_chemical_formula_structural   Zr3H9C25ClO16F5
_chemical_formula_sum   'Zr6 H18 C50 Cl2 O32 F10'
_cell_volume   2305.74661930
_cell_formula_units_Z   2
loop_
 _symmetry_equiv_pos_site_id
 _symmetry_equiv_pos_as_xyz
  1  'x, y, z'
loop_
 _atom_site_type_symbol
 _atom_site_label
 _atom_site_symmetry_multiplicity
 _atom_site_fract_x
 _atom_site_fract_y
 _atom_site_fract_z
 _atom_site_occupancy
  Zr  Zr0  1  0.49635000  0.38209000  0.88262000  1.0
  Zr  Zr1  1  0.50166000  0.61792000  0.11835000  1.0
  Zr  Zr2  1  0.73570000  0.38164000  0.88203000  1.0
  Zr  Zr3  1  0.25952000  0.62125000  0.12191000  1.0
  Zr  Zr4  1  0.49733000  0.62007000  0.88144000  1.0
  Zr  Zr5  1  0.49783000  0.38078000  0.12055000  1.0
  H  H6  1  0.68336000  0.40707000  0.72017000  1.0
  H  H7  1  0.31227000  0.78174000  0.09439000  1.0
  H  H8  1  0.68782000  0.40537000  0.09311000  1.0
  H  H9  1  0.30845000  0.40764000  0.09646000  1.0
  H  H10  1  0.49366000  0.64304000  0.59286000  1.0
  H  H11  1  0.49016000  0.36239000  0.41499000  1.0
  H  H12  1  0.51413000  0.08224000  0.13323000  1.0
  H  H13  1  0.50766000  0.90581000  0.85422000  1.0
  H  H14  1  0.94646000  0.90550000  0.13762000  1.0
  H  H15  1  0.04850000  0.08562000  0.85533000  1.0
  H  H16  1  0.94649000  0.64685000  0.41567000  1.0
  H  H17  1  0.04823000  0.36421000  0.59537000  1.0
  H  H18  1  0.71035000  0.04118000  0.63110000  1.0
  H  H19  1  0.71184000  0.12584000  0.54595000  1.0
  H  H20  1  0.88110000  0.95605000  0.37618000  1.0
  H  H21  1  0.87998000  0.87099000  0.46123000  1.0
  H  H22  1  0.22935000  0.36662000  0.85687000  1.0
  H  H23  1  0.76743000  0.64547000  0.13549000  1.0
  C  C24  1  0.48919000  0.50092000  0.70215000  1.0
  C  C25  1  0.50902000  0.79802000  0.99799000  1.0
  C  C26  1  0.49597000  0.50416000  0.30513000  1.0
  C  C27  1  0.50474000  0.19400000  0.99373000  1.0
  C  C28  1  0.80240000  0.19562000  0.70241000  1.0
  C  C29  1  0.19000000  0.51003000  0.00283000  1.0
  C  C30  1  0.19938000  0.79913000  0.30605000  1.0
  C  C31  1  0.80701000  0.49960000  0.99163000  1.0
  C  C32  1  0.79700000  0.50740000  0.70091000  1.0
  C  C33  1  0.79739000  0.19361000  0.00100000  1.0
  C  C34  1  0.19779000  0.50249000  0.30906000  1.0
  C  C35  1  0.19755000  0.80066000  0.99503000  1.0
  C  C36  1  0.49416000  0.50552000  0.40696000  1.0
  C  C37  1  0.49011000  0.49967000  0.60076000  1.0
  C  C38  1  0.49573000  0.58361000  0.45917000  1.0
  C  C39  1  0.48989000  0.42093000  0.54787000  1.0
  C  C40  1  0.49311000  0.58121000  0.55389000  1.0
  C  C41  1  0.49122000  0.42391000  0.45379000  1.0
  C  C42  1  0.51198000  0.89756000  0.99709000  1.0
  C  C43  1  0.50948000  0.09072000  0.99052000  1.0
  C  C44  1  0.51468000  0.94921000  0.07456000  1.0
  C  C45  1  0.50870000  0.03809000  0.91210000  1.0
  C  C46  1  0.51306000  0.04350000  0.07170000  1.0
  C  C47  1  0.50950000  0.94424000  0.91532000  1.0
  C  C48  1  0.89766000  0.09171000  0.00067000  1.0
  C  C49  1  0.09726000  0.90014000  0.99307000  1.0
  C  C50  1  0.87222000  0.03841000  0.07938000  1.0
  C  C51  1  0.12274000  0.95322000  0.91412000  1.0
  C  C52  1  0.96917000  0.94509000  0.07576000  1.0
  C  C53  1  0.02575000  0.04641000  0.91758000  1.0
  C  C54  1  0.89746000  0.50924000  0.60121000  1.0
  C  C55  1  0.09725000  0.50256000  0.41049000  1.0
  C  C56  1  0.87212000  0.58819000  0.54814000  1.0
  C  C57  1  0.12258000  0.42367000  0.46363000  1.0
  C  C58  1  0.96918000  0.58505000  0.45530000  1.0
  C  C59  1  0.02551000  0.42669000  0.55641000  1.0
  C  C60  1  0.90871000  0.09587000  0.60187000  1.0
  C  C61  1  0.10470000  0.90003000  0.40566000  1.0
  C  C62  1  0.88111000  0.04433000  0.55072000  1.0
  C  C63  1  0.13647000  0.95184000  0.45454000  1.0
  C  C64  1  0.97462000  0.95079000  0.45708000  1.0
  C  C65  1  0.04077000  0.04717000  0.55045000  1.0
  C  C66  1  0.77239000  0.05130000  0.55684000  1.0
  C  C67  1  0.87841000  0.94503000  0.45059000  1.0
  C  C68  1  0.90768000  0.50095000  0.99096000  1.0
  C  C69  1  0.08914000  0.51103000  0.00148000  1.0
  C  C70  1  0.03936000  0.42312000  0.91309000  1.0
  C  C71  1  0.95745000  0.58896000  0.07925000  1.0
  C  C72  1  0.12799000  0.42791000  0.91799000  1.0
  C  C73  1  0.86880000  0.58430000  0.07425000  1.0
  Cl  Cl74  1  0.29175000  0.90343000  0.39948000  1.0
  Cl  Cl75  1  0.09307000  0.10121000  0.60015000  1.0
  O  O76  1  0.49084000  0.42408000  0.74182000  1.0
  O  O77  1  0.50693000  0.75881000  0.07506000  1.0
  O  O78  1  0.50159000  0.57738000  0.26225000  1.0
  O  O79  1  0.50049000  0.23664000  0.91988000  1.0
  O  O80  1  0.83222000  0.23960000  0.74673000  1.0
  O  O81  1  0.15459000  0.58416000  0.08029000  1.0
  O  O82  1  0.15529000  0.76609000  0.26890000  1.0
  O  O83  1  0.84239000  0.42225000  0.91742000  1.0
  O  O84  1  0.68097000  0.58170000  0.73932000  1.0
  O  O85  1  0.68124000  0.23468000  0.07785000  1.0
  O  O86  1  0.31359000  0.42430000  0.26681000  1.0
  O  O87  1  0.31359000  0.76138000  0.91986000  1.0
  O  O88  1  0.83636000  0.23265000  0.92475000  1.0
  O  O89  1  0.15924000  0.58049000  0.27141000  1.0
  O  O90  1  0.15877000  0.76358000  0.07346000  1.0
  O  O91  1  0.83577000  0.43009000  0.73899000  1.0
  O  O92  1  0.68869000  0.23132000  0.73692000  1.0
  O  O93  1  0.69203000  0.57609000  0.06858000  1.0
  O  O94  1  0.31692000  0.75278000  0.26379000  1.0
  O  O95  1  0.30487000  0.43286000  0.92625000  1.0
  O  O96  1  0.50333000  0.23264000  0.07164000  1.0
  O  O97  1  0.48885000  0.57831000  0.74036000  1.0
  O  O98  1  0.50636000  0.76119000  0.92214000  1.0
  O  O99  1  0.49331000  0.42833000  0.26812000  1.0
  O  O100  1  0.36202000  0.43431000  0.06977000  1.0
  O  O101  1  0.63384000  0.43215000  0.06694000  1.0
  O  O102  1  0.36504000  0.70182000  0.06755000  1.0
  O  O103  1  0.63006000  0.43419000  0.80008000  1.0
  O  O104  1  0.59767000  0.54987000  0.95021000  1.0
  O  O105  1  0.39767000  0.55087000  0.95283000  1.0
  O  O106  1  0.40057000  0.54905000  0.14886000  1.0
  O  O107  1  0.59538000  0.35238000  0.95232000  1.0
  F  F108  1  0.50037000  0.66433000  0.41875000  1.0
  F  F109  1  0.48834000  0.33848000  0.58697000  1.0
  F  F110  1  0.51877000  0.90896000  0.15551000  1.0
  F  F111  1  0.50648000  0.07754000  0.83002000  1.0
  F  F112  1  0.75120000  0.07656000  0.16271000  1.0
  F  F113  1  0.24370000  0.91550000  0.83135000  1.0
  F  F114  1  0.75118000  0.67081000  0.58558000  1.0
  F  F115  1  0.24348000  0.34108000  0.42600000  1.0
  F  F116  1  0.08495000  0.33984000  0.83003000  1.0
  F  F117  1  0.91185000  0.67188000  0.16271000  1.0
