# generated using pymatgen
data_ZnH14C24(NO2)2
_symmetry_space_group_name_H-M   'P 1'
_cell_length_a   9.17071000
_cell_length_b   10.92650000
_cell_length_c   10.98310000
_cell_angle_alpha   118.71300000
_cell_angle_beta   92.74240000
_cell_angle_gamma   104.50800000
_symmetry_Int_Tables_number   1
_chemical_formula_structural   ZnH14C24(NO2)2
_chemical_formula_sum   'Zn2 H28 C48 N4 O8'
_cell_volume   915.92464956
_cell_formula_units_Z   2
loop_
 _symmetry_equiv_pos_site_id
 _symmetry_equiv_pos_as_xyz
  1  'x, y, z'
loop_
 _atom_site_type_symbol
 _atom_site_label
 _atom_site_symmetry_multiplicity
 _atom_site_fract_x
 _atom_site_fract_y
 _atom_site_fract_z
 _atom_site_occupancy
  Zn  Zn0  1  0.52975000  0.60962000  0.93777000  1.0
  Zn  Zn1  1  0.47025000  0.39038000  0.06223000  1.0
  H  H2  1  0.17003000  0.50760000  0.90785000  1.0
  H  H3  1  0.82997000  0.49240000  0.09214000  1.0
  H  H4  1  0.97696000  0.63466000  0.02569000  1.0
  H  H5  1  0.02304000  0.36534000  0.97431000  1.0
  H  H6  1  0.06864000  0.90424000  0.19439000  1.0
  H  H7  1  0.93136000  0.09576000  0.80561000  1.0
  H  H8  1  0.28474000  0.14579000  0.29885000  1.0
  H  H9  1  0.71526000  0.85421000  0.70115000  1.0
  H  H10  1  0.55754000  0.27751000  0.32989000  1.0
  H  H11  1  0.44246000  0.72249000  0.67011000  1.0
  H  H12  1  0.82331000  0.26616000  0.28098000  1.0
  H  H13  1  0.17670000  0.73384000  0.71902000  1.0
  H  H14  1  0.98995000  0.11277000  0.16016000  1.0
  H  H15  1  0.01005000  0.88723000  0.83984000  1.0
  H  H16  1  0.86853000  0.83681000  0.00802000  1.0
  H  H17  1  0.13147000  0.16319000  0.99198000  1.0
  H  H18  1  0.64775000  0.59264000  0.52165000  1.0
  H  H19  1  0.35226000  0.40736000  0.47835000  1.0
  H  H20  1  0.82767000  0.58742000  0.35833000  1.0
  H  H21  1  0.17233000  0.41258000  0.64167000  1.0
  H  H22  1  0.93918000  0.46893000  0.73179000  1.0
  H  H23  1  0.06082000  0.53107000  0.26821000  1.0
  H  H24  1  0.40705000  0.71044000  0.27485000  1.0
  H  H25  1  0.59294000  0.28956000  0.72515000  1.0
  H  H26  1  0.79978000  0.19229000  0.61211000  1.0
  H  H27  1  0.20022000  0.80771000  0.38789000  1.0
  H  H28  1  0.87852000  0.98382000  0.43508000  1.0
  H  H29  1  0.12147000  0.01618000  0.56492000  1.0
  C  C30  1  0.20243000  0.62673000  0.97796000  1.0
  C  C31  1  0.79757000  0.37327000  0.02203000  1.0
  C  C32  1  0.09679000  0.69766000  0.04523000  1.0
  C  C33  1  0.90321000  0.30234000  0.95478000  1.0
  C  C34  1  0.14692000  0.84815000  0.13599000  1.0
  C  C35  1  0.85309000  0.15185000  0.86401000  1.0
  C  C36  1  0.30130000  0.92919000  0.15582000  1.0
  C  C37  1  0.69870000  0.07082000  0.84418000  1.0
  C  C38  1  0.36221000  0.08538000  0.24515000  1.0
  C  C39  1  0.63779000  0.91463000  0.75485000  1.0
  C  C40  1  0.51362000  0.15827000  0.26378000  1.0
  C  C41  1  0.48637000  0.84173000  0.73622000  1.0
  C  C42  1  0.61669000  0.07949000  0.19570000  1.0
  C  C43  1  0.38331000  0.92051000  0.80430000  1.0
  C  C44  1  0.77513000  0.14738000  0.21377000  1.0
  C  C45  1  0.22487000  0.85262000  0.78623000  1.0
  C  C46  1  0.86722000  0.06238000  0.14661000  1.0
  C  C47  1  0.13278000  0.93762000  0.85340000  1.0
  C  C48  1  0.80090000  0.90925000  0.06153000  1.0
  C  C49  1  0.19910000  0.09075000  0.93847000  1.0
  C  C50  1  0.55998000  0.92450000  0.10629000  1.0
  C  C51  1  0.44002000  0.07550000  0.89371000  1.0
  C  C52  1  0.39962000  0.84844000  0.08428000  1.0
  C  C53  1  0.60038000  0.15156000  0.91572000  1.0
  C  C54  1  0.68636000  0.55228000  0.74598000  1.0
  C  C55  1  0.31364000  0.44772000  0.25402000  1.0
  C  C56  1  0.78597000  0.53410000  0.63885000  1.0
  C  C57  1  0.21404000  0.46590000  0.36115000  1.0
  C  C58  1  0.75240000  0.56517000  0.53095000  1.0
  C  C59  1  0.24761000  0.43483000  0.46905000  1.0
  C  C60  1  0.85060000  0.55962000  0.43872000  1.0
  C  C61  1  0.14940000  0.44038000  0.56128000  1.0
  C  C62  1  0.98430000  0.51844000  0.44717000  1.0
  C  C63  1  0.01570000  0.48156000  0.55282000  1.0
  C  C64  1  0.91474000  0.49229000  0.64839000  1.0
  C  C65  1  0.08526000  0.50771000  0.35161000  1.0
  C  C66  1  0.69692000  0.71310000  0.23526000  1.0
  C  C67  1  0.30308000  0.28690000  0.76474000  1.0
  C  C68  1  0.64647000  0.83458000  0.34484000  1.0
  C  C69  1  0.35352000  0.16542000  0.65516000  1.0
  C  C70  1  0.49216000  0.81537000  0.35066000  1.0
  C  C71  1  0.50784000  0.18463000  0.64934000  1.0
  C  C72  1  0.44352000  0.93037000  0.45215000  1.0
  C  C73  1  0.55647000  0.06963000  0.54785000  1.0
  C  C74  1  0.71391000  0.08656000  0.53943000  1.0
  C  C75  1  0.28609000  0.91344000  0.46057000  1.0
  C  C76  1  0.75806000  0.97156000  0.44180000  1.0
  C  C77  1  0.24193000  0.02844000  0.55820000  1.0
  N  N78  1  0.34975000  0.70029000  0.99819000  1.0
  N  N79  1  0.65025000  0.29971000  0.00181000  1.0
  N  N80  1  0.65180000  0.84281000  0.04213000  1.0
  N  N81  1  0.34820000  0.15719000  0.95787000  1.0
  O  O82  1  0.55456000  0.56591000  0.72456000  1.0
  O  O83  1  0.44545000  0.43409000  0.27544000  1.0
  O  O84  1  0.73696000  0.55838000  0.86005000  1.0
  O  O85  1  0.26305000  0.44163000  0.13996000  1.0
  O  O86  1  0.83413000  0.71748000  0.24901000  1.0
  O  O87  1  0.16586000  0.28250000  0.75099000  1.0
  O  O88  1  0.58867000  0.60711000  0.12687000  1.0
  O  O89  1  0.41132000  0.39289000  0.87313000  1.0
