# generated using pymatgen
data_Sn2PH3C3O7
_symmetry_space_group_name_H-M   'P 1'
_cell_length_a   4.73450000
_cell_length_b   6.10496000
_cell_length_c   15.09480000
_cell_angle_alpha   89.99850000
_cell_angle_beta   89.99940000
_cell_angle_gamma   99.65140000
_symmetry_Int_Tables_number   1
_chemical_formula_structural   Sn2PH3C3O7
_chemical_formula_sum   'Sn4 P2 H6 C6 O14'
_cell_volume   430.12372620
_cell_formula_units_Z   2
loop_
 _symmetry_equiv_pos_site_id
 _symmetry_equiv_pos_as_xyz
  1  'x, y, z'
loop_
 _atom_site_type_symbol
 _atom_site_label
 _atom_site_symmetry_multiplicity
 _atom_site_fract_x
 _atom_site_fract_y
 _atom_site_fract_z
 _atom_site_occupancy
  Sn  Sn0  1  0.20279000  0.10267000  0.60417000  1.0
  Sn  Sn1  1  0.79724000  0.89721000  0.10416000  1.0
  Sn  Sn2  1  0.79722000  0.89720000  0.39582000  1.0
  Sn  Sn3  1  0.20277000  0.10278000  0.89581000  1.0
  P  P4  1  0.76123000  0.27589000  0.75000000  1.0
  P  P5  1  0.23878000  0.72410000  0.25000000  1.0
  H  H6  1  0.87318000  0.64431000  0.80937000  1.0
  H  H7  1  0.12680000  0.35569000  0.30936000  1.0
  H  H8  1  0.12681000  0.35570000  0.19064000  1.0
  H  H9  1  0.87320000  0.64433000  0.69065000  1.0
  H  H10  1  0.53995000  0.60044000  0.75001000  1.0
  H  H11  1  0.46005000  0.39957000  0.25000000  1.0
  C  C12  1  0.76198000  0.57039000  0.75001000  1.0
  C  C13  1  0.23803000  0.42962000  0.25001000  1.0
  C  C14  1  0.42497000  0.57394000  0.53110000  1.0
  C  C15  1  0.57504000  0.42608000  0.03110000  1.0
  C  C16  1  0.57496000  0.42605000  0.46890000  1.0
  C  C17  1  0.42504000  0.57398000  0.96889000  1.0
  O  O18  1  0.61787000  0.17469000  0.83604000  1.0
  O  O19  1  0.38212000  0.82527000  0.33604000  1.0
  O  O20  1  0.38217000  0.82528000  0.16396000  1.0
  O  O21  1  0.61784000  0.17474000  0.66397000  1.0
  O  O22  1  0.07439000  0.22840000  0.74999000  1.0
  O  O23  1  0.92558000  0.77156000  0.25000000  1.0
  O  O24  1  0.49996000  0.78149000  0.52401000  1.0
  O  O25  1  0.50003000  0.21855000  0.02401000  1.0
  O  O26  1  0.49994000  0.21853000  0.47599000  1.0
  O  O27  1  0.50003000  0.78150000  0.97599000  1.0
  O  O28  1  0.23778000  0.47814000  0.58496000  1.0
  O  O29  1  0.76224000  0.52187000  0.08495000  1.0
  O  O30  1  0.76214000  0.52184000  0.41504000  1.0
  O  O31  1  0.23788000  0.47821000  0.91503000  1.0
