# generated using pymatgen
data_Zn2MoH9C9N7O6
_symmetry_space_group_name_H-M   'P 1'
_cell_length_a   6.87656000
_cell_length_b   6.92407000
_cell_length_c   15.51850000
_cell_angle_alpha   80.12990000
_cell_angle_beta   84.19510000
_cell_angle_gamma   71.29000000
_symmetry_Int_Tables_number   1
_chemical_formula_structural   Zn2MoH9C9N7O6
_chemical_formula_sum   'Zn4 Mo2 H18 C18 N14 O12'
_cell_volume   688.64465363
_cell_formula_units_Z   2
loop_
 _symmetry_equiv_pos_site_id
 _symmetry_equiv_pos_as_xyz
  1  'x, y, z'
loop_
 _atom_site_type_symbol
 _atom_site_label
 _atom_site_symmetry_multiplicity
 _atom_site_fract_x
 _atom_site_fract_y
 _atom_site_fract_z
 _atom_site_occupancy
  Zn  Zn0  1  0.79952000  0.58288000  0.56426000  1.0
  Zn  Zn1  1  0.20048000  0.41712000  0.43573000  1.0
  Zn  Zn2  1  0.85416000  0.84082000  0.37480000  1.0
  Zn  Zn3  1  0.14584000  0.15918000  0.62520000  1.0
  Mo  Mo4  1  0.34301000  0.85468000  0.44870000  1.0
  Mo  Mo5  1  0.65699000  0.14532000  0.55130000  1.0
  H  H6  1  0.95764000  0.19390000  0.31928000  1.0
  H  H7  1  0.04236000  0.80610000  0.68072000  1.0
  H  H8  1  0.71244000  0.24385000  0.35726000  1.0
  H  H9  1  0.28756000  0.75615000  0.64274000  1.0
  H  H10  1  0.41394000  0.80789000  0.10139000  1.0
  H  H11  1  0.58606000  0.19211000  0.89861000  1.0
  H  H12  1  0.17621000  0.87777000  0.20475000  1.0
  H  H13  1  0.82379000  0.12223000  0.79525000  1.0
  H  H14  1  0.96247000  0.70518000  0.95546000  1.0
  H  H15  1  0.03753000  0.29482000  0.04454000  1.0
  H  H16  1  0.19700000  0.69312000  0.82393000  1.0
  H  H17  1  0.80300000  0.30689000  0.17607000  1.0
  H  H18  1  0.64751000  0.78901000  0.97190000  1.0
  H  H19  1  0.35249000  0.21099000  0.02810000  1.0
  H  H20  1  0.65338000  0.68082000  0.22320000  1.0
  H  H21  1  0.34662000  0.31918000  0.77680000  1.0
  H  H22  1  0.78722000  0.48571000  0.41150000  1.0
  H  H23  1  0.21278000  0.51429000  0.58850000  1.0
  C  C24  1  0.17195000  0.75866000  0.03663000  1.0
  C  C25  1  0.82805000  0.24134000  0.96337000  1.0
  C  C26  1  0.36449000  0.78361000  0.04083000  1.0
  C  C27  1  0.63552000  0.21639000  0.95917000  1.0
  C  C28  1  0.43937000  0.73940000  0.88798000  1.0
  C  C29  1  0.56063000  0.26060000  0.11202000  1.0
  C  C30  1  0.58184000  0.72337000  0.81111000  1.0
  C  C31  1  0.41816000  0.27663000  0.18889000  1.0
  C  C32  1  0.05915000  0.81479000  0.19096000  1.0
  C  C33  1  0.94085000  0.18521000  0.80904000  1.0
  C  C34  1  0.11174000  0.72513000  0.95869000  1.0
  C  C35  1  0.88826000  0.27487000  0.04131000  1.0
  C  C36  1  0.24504000  0.71633000  0.88495000  1.0
  C  C37  1  0.75496000  0.28367000  0.11504000  1.0
  C  C38  1  0.49683000  0.77355000  0.96696000  1.0
  C  C39  1  0.50317000  0.22645000  0.03304000  1.0
  C  C40  1  0.79104000  0.71956000  0.19730000  1.0
  C  C41  1  0.20896000  0.28043000  0.80270000  1.0
  N  N42  1  0.57450000  0.62631000  0.74339000  1.0
  N  N43  1  0.42550000  0.37369000  0.25661000  1.0
  N  N44  1  0.90511000  0.78672000  0.24565000  1.0
  N  N45  1  0.09489000  0.21328000  0.75435000  1.0
  N  N46  1  0.73202000  0.64865000  0.68966000  1.0
  N  N47  1  0.26798000  0.35135000  0.31034000  1.0
  N  N48  1  0.03877000  0.76344000  0.11291000  1.0
  N  N49  1  0.96123000  0.23656000  0.88709000  1.0
  N  N50  1  0.74111000  0.80201000  0.79909000  1.0
  N  N51  1  0.25889000  0.19799000  0.20091000  1.0
  N  N52  1  0.86685000  0.70361000  0.11602000  1.0
  N  N53  1  0.13315000  0.29639000  0.88398000  1.0
  N  N54  1  0.83181000  0.75300000  0.72255000  1.0
  N  N55  1  0.16819000  0.24700000  0.27745000  1.0
  O  O56  1  0.53424000  0.88999000  0.36931000  1.0
  O  O57  1  0.46576000  0.11001000  0.63069000  1.0
  O  O58  1  0.46514000  0.68395000  0.54064000  1.0
  O  O59  1  0.53486000  0.31605000  0.45936000  1.0
  O  O60  1  0.87692000  0.54658000  0.43442000  1.0
  O  O61  1  0.12308000  0.45342000  0.56558000  1.0
  O  O62  1  0.17821000  0.74471000  0.40327000  1.0
  O  O63  1  0.82179000  0.25529000  0.59673000  1.0
  O  O64  1  0.79520000  0.90176000  0.51650000  1.0
  O  O65  1  0.20480000  0.09824000  0.48350000  1.0
  O  O66  1  0.83526000  0.14118000  0.33653000  1.0
  O  O67  1  0.16474000  0.85882000  0.66347000  1.0
