# generated using pymatgen
data_NiH8C10(SN3)2
_symmetry_space_group_name_H-M   'P 1'
_cell_length_a   6.94708000
_cell_length_b   7.22071000
_cell_length_c   12.53690000
_cell_angle_alpha   89.91900000
_cell_angle_beta   102.41700000
_cell_angle_gamma   89.89900000
_symmetry_Int_Tables_number   1
_chemical_formula_structural   NiH8C10(SN3)2
_chemical_formula_sum   'Ni2 H16 C20 S4 N12'
_cell_volume   614.17405761
_cell_formula_units_Z   2
loop_
 _symmetry_equiv_pos_site_id
 _symmetry_equiv_pos_as_xyz
  1  'x, y, z'
loop_
 _atom_site_type_symbol
 _atom_site_label
 _atom_site_symmetry_multiplicity
 _atom_site_fract_x
 _atom_site_fract_y
 _atom_site_fract_z
 _atom_site_occupancy
  Ni  Ni0  1  0.49999000  0.50000000  0.50000000  1.0
  Ni  Ni1  1  0.00000000  0.00000000  0.00000000  1.0
  H  H2  1  0.55393000  0.16376000  0.67269000  1.0
  H  H3  1  0.94742000  0.66485000  0.82742000  1.0
  H  H4  1  0.44607000  0.83624000  0.32730000  1.0
  H  H5  1  0.05259000  0.33514000  0.17259000  1.0
  H  H6  1  0.45295000  0.18388000  0.33438000  1.0
  H  H7  1  0.04808000  0.68230000  0.16576000  1.0
  H  H8  1  0.54705000  0.81612000  0.66561000  1.0
  H  H9  1  0.95193000  0.31770000  0.83425000  1.0
  H  H10  1  0.13641000  0.68709000  0.37374000  1.0
  H  H11  1  0.36351000  0.18367000  0.12788000  1.0
  H  H12  1  0.86359000  0.31291000  0.62625000  1.0
  H  H13  1  0.63650000  0.81633000  0.87213000  1.0
  H  H14  1  0.22295000  0.30672000  0.62936000  1.0
  H  H15  1  0.27649000  0.81003000  0.86951000  1.0
  H  H16  1  0.77704000  0.69329000  0.37064000  1.0
  H  H17  1  0.72352000  0.18998000  0.13049000  1.0
  C  C18  1  0.48469000  0.53066000  0.25453000  1.0
  C  C19  1  0.01565000  0.03109000  0.24739000  1.0
  C  C20  1  0.51532000  0.46936000  0.74548000  1.0
  C  C21  1  0.98437000  0.96892000  0.75262000  1.0
  C  C22  1  0.52916000  0.09133000  0.59482000  1.0
  C  C23  1  0.97158000  0.59230000  0.90535000  1.0
  C  C24  1  0.47083000  0.90867000  0.40518000  1.0
  C  C25  1  0.02843000  0.40770000  0.09465000  1.0
  C  C26  1  0.47449000  0.10113000  0.40851000  1.0
  C  C27  1  0.02609000  0.60051000  0.09146000  1.0
  C  C28  1  0.52551000  0.89886000  0.59148000  1.0
  C  C29  1  0.97392000  0.39949000  0.90855000  1.0
  C  C30  1  0.07583000  0.60245000  0.43023000  1.0
  C  C31  1  0.42440000  0.10099000  0.07062000  1.0
  C  C32  1  0.92415000  0.39755000  0.56977000  1.0
  C  C33  1  0.57558000  0.89901000  0.92938000  1.0
  C  C34  1  0.12496000  0.39473000  0.57137000  1.0
  C  C35  1  0.37511000  0.89617000  0.92803000  1.0
  C  C36  1  0.87503000  0.60527000  0.42863000  1.0
  C  C37  1  0.62488000  0.10383000  0.07197000  1.0
  S  S38  1  0.54981000  0.57781000  0.14169000  1.0
  S  S39  1  0.94927000  0.07963000  0.35962000  1.0
  S  S40  1  0.45020000  0.42217000  0.85831000  1.0
  S  S41  1  0.05073000  0.92037000  0.64038000  1.0
  N  N42  1  0.43240000  0.49779000  0.33734000  1.0
  N  N43  1  0.06755000  0.99630000  0.16476000  1.0
  N  N44  1  0.56759000  0.50219000  0.66265000  1.0
  N  N45  1  0.93246000  0.00369000  0.83524000  1.0
  N  N46  1  0.50382000  0.19337000  0.50332000  1.0
  N  N47  1  0.99749000  0.69444000  0.99684000  1.0
  N  N48  1  0.49618000  0.80663000  0.49667000  1.0
  N  N49  1  0.00252000  0.30555000  0.00317000  1.0
  N  N50  1  0.20184000  0.49771000  0.50173000  1.0
  N  N51  1  0.29903000  0.99766000  0.99853000  1.0
  N  N52  1  0.79815000  0.50229000  0.49827000  1.0
  N  N53  1  0.70098000  0.00235000  0.00148000  1.0
