# generated using pymatgen
data_CoH14C14S2(N2O)2
_symmetry_space_group_name_H-M   'P 1'
_cell_length_a   7.49431000
_cell_length_b   7.74992000
_cell_length_c   7.74290000
_cell_angle_alpha   68.89700000
_cell_angle_beta   89.99530000
_cell_angle_gamma   93.70050000
_symmetry_Int_Tables_number   1
_chemical_formula_structural   CoH14C14S2(N2O)2
_chemical_formula_sum   'Co1 H14 C14 S2 N4 O2'
_cell_volume   418.54393424
_cell_formula_units_Z   1
loop_
 _symmetry_equiv_pos_site_id
 _symmetry_equiv_pos_as_xyz
  1  'x, y, z'
loop_
 _atom_site_type_symbol
 _atom_site_label
 _atom_site_symmetry_multiplicity
 _atom_site_fract_x
 _atom_site_fract_y
 _atom_site_fract_z
 _atom_site_occupancy
  Co  Co0  1  0.00000000  0.00000000  0.50000000  1.0
  H  H1  1  0.78165000  0.88743000  0.23817000  1.0
  H  H2  1  0.21834000  0.11257000  0.76184000  1.0
  H  H3  1  0.47369000  0.74938000  0.23604000  1.0
  H  H4  1  0.52632000  0.25062000  0.76398000  1.0
  H  H5  1  0.41708000  0.68488000  0.81147000  1.0
  H  H6  1  0.58292000  0.31512000  0.18854000  1.0
  H  H7  1  0.72355000  0.83622000  0.78720000  1.0
  H  H8  1  0.27646000  0.16377000  0.21281000  1.0
  H  H9  1  0.22062000  0.51528000  0.47435000  1.0
  H  H10  1  0.77938000  0.48472000  0.52566000  1.0
  H  H11  1  0.16828000  0.57722000  0.66729000  1.0
  H  H12  1  0.83172000  0.42278000  0.33272000  1.0
  H  H13  1  0.11825000  0.76750000  0.28684000  1.0
  H  H14  1  0.88174000  0.23250000  0.71317000  1.0
  C  C15  1  0.91010000  0.23449000  0.10757000  1.0
  C  C16  1  0.08990000  0.76552000  0.89242000  1.0
  C  C17  1  0.69587000  0.84322000  0.36161000  1.0
  C  C18  1  0.30414000  0.15678000  0.63838000  1.0
  C  C19  1  0.52444000  0.76438000  0.36244000  1.0
  C  C20  1  0.47558000  0.23562000  0.63755000  1.0
  C  C21  1  0.41696000  0.70699000  0.52405000  1.0
  C  C22  1  0.58305000  0.29302000  0.47595000  1.0
  C  C23  1  0.49220000  0.72949000  0.68016000  1.0
  C  C24  1  0.50778000  0.27051000  0.31983000  1.0
  C  C25  1  0.66361000  0.81375000  0.66860000  1.0
  C  C26  1  0.33639000  0.18627000  0.33138000  1.0
  C  C27  1  0.22618000  0.63036000  0.52625000  1.0
  C  C28  1  0.77382000  0.36963000  0.47376000  1.0
  S  S29  1  0.83195000  0.36516000  0.91241000  1.0
  S  S30  1  0.16804000  0.63485000  0.08758000  1.0
  N  N31  1  0.96254000  0.14307000  0.25417000  1.0
  N  N32  1  0.03745000  0.85692000  0.74583000  1.0
  N  N33  1  0.76488000  0.87239000  0.51141000  1.0
  N  N34  1  0.23512000  0.12761000  0.48857000  1.0
  O  O35  1  0.11539000  0.77119000  0.41390000  1.0
  O  O36  1  0.88461000  0.22880000  0.58611000  1.0
