# generated using pymatgen
data_AlH9C19N2O5F4
_symmetry_space_group_name_H-M   'P 1'
_cell_length_a   6.63954000
_cell_length_b   25.35750000
_cell_length_c   28.89940000
_cell_angle_alpha   90.54730000
_cell_angle_beta   90.67420000
_cell_angle_gamma   91.40780000
_symmetry_Int_Tables_number   1
_chemical_formula_structural   AlH9C19N2O5F4
_chemical_formula_sum   'Al4 H36 C76 N8 O20 F16'
_cell_volume   4863.52360444
_cell_formula_units_Z   4
loop_
 _symmetry_equiv_pos_site_id
 _symmetry_equiv_pos_as_xyz
  1  'x, y, z'
loop_
 _atom_site_type_symbol
 _atom_site_label
 _atom_site_symmetry_multiplicity
 _atom_site_fract_x
 _atom_site_fract_y
 _atom_site_fract_z
 _atom_site_occupancy
  Al  Al0  1  0.78787000  0.25114000  0.25326000  1.0
  Al  Al1  1  0.21521000  0.74713000  0.74685000  1.0
  Al  Al2  1  0.29150000  0.25288000  0.25275000  1.0
  Al  Al3  1  0.71249000  0.74596000  0.74751000  1.0
  H  H4  1  0.73324000  0.33969000  0.36463000  1.0
  H  H5  1  0.27636000  0.65800000  0.63494000  1.0
  H  H6  1  0.70910000  0.40390000  0.43046000  1.0
  H  H7  1  0.29687000  0.59419000  0.56880000  1.0
  H  H8  1  0.34351000  0.44151000  0.41780000  1.0
  H  H9  1  0.66181000  0.55805000  0.58214000  1.0
  H  H10  1  0.72603000  0.33905000  0.13630000  1.0
  H  H11  1  0.27013000  0.65998000  0.86377000  1.0
  H  H12  1  0.71228000  0.39949000  0.06950000  1.0
  H  H13  1  0.28450000  0.59954000  0.93058000  1.0
  H  H14  1  0.34092000  0.44116000  0.09349000  1.0
  H  H15  1  0.65615000  0.55729000  0.90670000  1.0
  H  H16  1  0.28694000  0.51214000  0.94755000  1.0
  H  H17  1  0.70932000  0.48680000  0.05261000  1.0
  H  H18  1  0.17863000  0.89902000  0.56366000  1.0
  H  H19  1  0.82565000  0.10140000  0.43863000  1.0
  H  H20  1  0.17930000  0.83257000  0.62651000  1.0
  H  H21  1  0.82927000  0.16680000  0.37508000  1.0
  H  H22  1  0.21019000  0.05761000  0.48699000  1.0
  H  H23  1  0.79245000  0.94322000  0.51510000  1.0
  H  H24  1  0.77531000  0.94904000  0.89875000  1.0
  H  H25  1  0.21918000  0.10562000  0.05799000  1.0
  H  H26  1  0.17646000  0.83169000  0.87094000  1.0
  H  H27  1  0.81982000  0.12673000  0.16074000  1.0
  H  H28  1  0.96066000  0.89607000  0.65454000  1.0
  H  H29  1  0.85891000  0.84239000  0.68420000  1.0
  H  H30  1  0.04604000  0.10462000  0.34708000  1.0
  H  H31  1  0.15546000  0.15567000  0.31438000  1.0
  H  H32  1  0.79917000  0.86735000  0.79673000  1.0
  H  H33  1  0.90581000  0.91939000  0.82826000  1.0
  H  H34  1  0.05417000  0.16846000  0.10250000  1.0
  H  H35  1  0.16710000  0.20003000  0.15082000  1.0
  H  H36  1  0.54781000  0.31939000  0.23786000  1.0
  H  H37  1  0.45550000  0.68103000  0.76621000  1.0
  H  H38  1  0.03216000  0.18587000  0.23385000  1.0
  H  H39  1  0.97628000  0.80455000  0.77582000  1.0
  C  C40  1  0.54064000  0.18850000  0.31479000  1.0
  C  C41  1  0.47577000  0.80915000  0.68467000  1.0
  C  C42  1  0.52515000  0.18947000  0.18740000  1.0
  C  C43  1  0.46431000  0.81359000  0.80953000  1.0
  C  C44  1  0.03603000  0.31650000  0.19108000  1.0
  C  C45  1  0.95473000  0.68315000  0.80999000  1.0
  C  C46  1  0.05472000  0.31426000  0.31595000  1.0
  C  C47  1  0.96074000  0.68342000  0.68482000  1.0
  C  C48  1  0.86599000  0.36172000  0.37719000  1.0
  C  C49  1  0.14295000  0.63609000  0.62264000  1.0
  C  C50  1  0.85210000  0.39756000  0.41352000  1.0
  C  C51  1  0.15474000  0.60053000  0.58611000  1.0
  C  C52  1  0.02433000  0.42659000  0.42850000  1.0
  C  C53  1  0.98127000  0.57200000  0.57121000  1.0
  C  C54  1  0.20954000  0.41887000  0.40687000  1.0
  C  C55  1  0.79730000  0.57993000  0.59327000  1.0
  C  C56  1  0.21928000  0.38244000  0.37096000  1.0
  C  C57  1  0.78984000  0.61584000  0.62967000  1.0
  C  C58  1  0.04994000  0.35299000  0.35510000  1.0
  C  C59  1  0.96058000  0.64484000  0.64550000  1.0
  C  C60  1  0.99175000  0.53368000  0.53290000  1.0
  C  C61  1  0.01194000  0.46558000  0.46622000  1.0
  C  C62  1  0.85973000  0.36166000  0.12623000  1.0
  C  C63  1  0.13648000  0.63740000  0.87392000  1.0
  C  C64  1  0.85218000  0.39598000  0.08921000  1.0
  C  C65  1  0.14437000  0.60304000  0.91096000  1.0
  C  C66  1  0.02473000  0.42534000  0.07620000  1.0
  C  C67  1  0.97192000  0.57367000  0.92405000  1.0
  C  C68  1  0.20402000  0.41880000  0.10145000  1.0
  C  C69  1  0.79226000  0.58002000  0.89888000  1.0
  C  C70  1  0.20825000  0.38406000  0.13824000  1.0
  C  C71  1  0.78744000  0.61504000  0.86235000  1.0
  C  C72  1  0.03803000  0.35445000  0.15192000  1.0
  C  C73  1  0.95717000  0.64478000  0.84876000  1.0
  C  C74  1  0.17173000  0.47275000  0.00685000  1.0
  C  C75  1  0.82469000  0.52622000  0.99336000  1.0
  C  C76  1  0.15900000  0.50770000  0.97053000  1.0
  C  C77  1  0.83738000  0.49123000  0.02966000  1.0
  C  C78  1  0.98292000  0.53607000  0.96254000  1.0
  C  C79  1  0.01364000  0.46291000  0.03769000  1.0
  C  C80  1  0.66428000  0.87905000  0.64008000  1.0
  C  C81  1  0.34381000  0.12100000  0.36095000  1.0
  C  C82  1  0.65466000  0.91693000  0.60469000  1.0
  C  C83  1  0.35061000  0.08392000  0.39717000  1.0
  C  C84  1  0.48705000  0.92534000  0.57669000  1.0
  C  C85  1  0.51690000  0.07545000  0.42542000  1.0
  C  C86  1  0.31203000  0.89412000  0.58524000  1.0
  C  C87  1  0.69310000  0.10632000  0.41680000  1.0
  C  C88  1  0.31265000  0.85723000  0.62021000  1.0
  C  C89  1  0.69499000  0.14253000  0.38141000  1.0
  C  C90  1  0.48457000  0.84887000  0.64783000  1.0
  C  C91  1  0.52536000  0.15050000  0.35274000  1.0
  C  C92  1  0.33567000  0.99731000  0.52846000  1.0
  C  C93  1  0.66720000  0.00358000  0.47371000  1.0
  C  C94  1  0.33955000  0.03282000  0.49237000  1.0
  C  C95  1  0.66326000  0.96809000  0.50980000  1.0
  C  C96  1  0.50795000  0.03716000  0.46352000  1.0
  C  C97  1  0.49501000  0.96378000  0.53869000  1.0
  C  C98  1  0.64702000  0.88728000  0.85485000  1.0
  C  C99  1  0.34603000  0.14817000  0.11699000  1.0
  C  C100  1  0.64402000  0.92319000  0.89236000  1.0
  C  C101  1  0.35177000  0.11097000  0.08032000  1.0
  C  C102  1  0.48116000  0.92620000  0.92199000  1.0
  C  C103  1  0.51788000  0.08006000  0.07249000  1.0
  C  C104  1  0.31370000  0.89250000  0.91351000  1.0
  C  C105  1  0.68674000  0.08704000  0.10182000  1.0
  C  C106  1  0.30913000  0.85698000  0.87711000  1.0
  C  C107  1  0.68834000  0.12277000  0.13800000  1.0
  C  C108  1  0.47548000  0.85315000  0.84752000  1.0
  C  C109  1  0.51892000  0.15361000  0.14676000  1.0
  C  C110  1  0.49494000  0.01913000  0.95207000  1.0
  C  C111  1  0.50623000  0.98643000  0.04297000  1.0
  C  C112  1  0.50614000  0.05609000  0.98802000  1.0
  C  C113  1  0.49151000  0.94944000  0.00701000  1.0
  C  C114  1  0.51255000  0.04063000  0.03431000  1.0
  C  C115  1  0.48700000  0.96493000  0.96067000  1.0
  N  N116  1  0.18148000  0.49383000  0.47774000  1.0
  N  N117  1  0.82137000  0.50612000  0.52086000  1.0
  N  N118  1  0.17135000  0.52847000  0.51170000  1.0
  N  N119  1  0.83152000  0.47142000  0.48689000  1.0
  N  N120  1  0.83768000  0.87567000  0.66560000  1.0
  N  N121  1  0.16970000  0.12480000  0.33621000  1.0
  N  N122  1  0.81488000  0.88674000  0.82745000  1.0
  N  N123  1  0.17858000  0.17774000  0.12166000  1.0
  O  O124  1  0.35822000  0.20996000  0.19950000  1.0
  O  O125  1  0.62925000  0.80192000  0.78953000  1.0
  O  O126  1  0.71342000  0.20799000  0.30440000  1.0
  O  O127  1  0.30572000  0.79774000  0.70262000  1.0
  O  O128  1  0.88627000  0.30342000  0.29622000  1.0
  O  O129  1  0.13182000  0.70355000  0.69630000  1.0
  O  O130  1  0.69319000  0.19765000  0.20871000  1.0
  O  O131  1  0.29181000  0.79342000  0.79852000  1.0
  O  O132  1  0.86485000  0.29659000  0.20176000  1.0
  O  O133  1  0.12347000  0.69403000  0.79134000  1.0
  O  O134  1  0.37741000  0.19962000  0.29307000  1.0
  O  O135  1  0.64258000  0.78883000  0.69709000  1.0
  O  O136  1  0.54402000  0.28492000  0.25207000  1.0
  O  O137  1  0.45983000  0.71387000  0.74929000  1.0
  O  O138  1  0.20323000  0.30649000  0.21078000  1.0
  O  O139  1  0.78556000  0.70235000  0.79890000  1.0
  O  O140  1  0.22260000  0.29500000  0.30499000  1.0
  O  O141  1  0.79542000  0.69358000  0.70428000  1.0
  O  O142  1  0.03732000  0.21874000  0.25129000  1.0
  O  O143  1  0.96679000  0.78032000  0.74956000  1.0
  F  F144  1  0.82742000  0.94689000  0.59904000  1.0
  F  F145  1  0.17596000  0.05483000  0.40308000  1.0
  F  F146  1  0.16861000  0.99637000  0.55563000  1.0
  F  F147  1  0.83398000  0.00438000  0.44647000  1.0
  F  F148  1  0.15001000  0.89603000  0.94163000  1.0
  F  F149  1  0.85374000  0.05768000  0.09386000  1.0
  F  F150  1  0.48916000  0.03660000  0.90788000  1.0
  F  F151  1  0.51100000  0.96935000  0.08712000  1.0
  F  F152  1  0.51268000  0.10807000  0.97746000  1.0
  F  F153  1  0.48501000  0.89759000  0.01737000  1.0
  F  F154  1  0.40037000  0.37724000  0.35029000  1.0
  F  F155  1  0.60853000  0.62160000  0.65006000  1.0
  F  F156  1  0.38741000  0.38068000  0.16123000  1.0
  F  F157  1  0.60931000  0.61814000  0.83881000  1.0
  F  F158  1  0.34663000  0.44563000  0.01131000  1.0
  F  F159  1  0.64981000  0.55333000  0.98890000  1.0
