# generated using pymatgen
data_MnH2C4NO5
_symmetry_space_group_name_H-M   'P 1'
_cell_length_a   4.88090000
_cell_length_b   6.63370000
_cell_length_c   8.36054000
_cell_angle_alpha   88.02490000
_cell_angle_beta   76.69300000
_cell_angle_gamma   77.33100000
_symmetry_Int_Tables_number   1
_chemical_formula_structural   MnH2C4NO5
_chemical_formula_sum   'Mn2 H4 C8 N2 O10'
_cell_volume   256.98273192
_cell_formula_units_Z   2
loop_
 _symmetry_equiv_pos_site_id
 _symmetry_equiv_pos_as_xyz
  1  'x, y, z'
loop_
 _atom_site_type_symbol
 _atom_site_label
 _atom_site_symmetry_multiplicity
 _atom_site_fract_x
 _atom_site_fract_y
 _atom_site_fract_z
 _atom_site_occupancy
  Mn  Mn0  1  0.50000000  0.00000000  0.49999000  1.0
  Mn  Mn1  1  0.00001000  0.50000000  1.00000000  1.0
  H  H2  1  0.26896000  0.13072000  0.15047000  1.0
  H  H3  1  0.73104000  0.86928000  0.84953000  1.0
  H  H4  1  0.50074000  0.22512000  0.01802000  1.0
  H  H5  1  0.49925000  0.77488000  0.98199000  1.0
  C  C6  1  0.09711000  0.63319000  0.38552000  1.0
  C  C7  1  0.90289000  0.36681000  0.61448000  1.0
  C  C8  1  0.42836000  0.63282000  0.69396000  1.0
  C  C9  1  0.57164000  0.36718000  0.30604000  1.0
  C  C10  1  0.73212000  0.56209000  0.59496000  1.0
  C  C11  1  0.26788000  0.43791000  0.40504000  1.0
  C  C12  1  0.19969000  0.77918000  0.25395000  1.0
  C  C13  1  0.80031000  0.22082000  0.74605000  1.0
  N  N14  1  0.83163000  0.69335000  0.48104000  1.0
  N  N15  1  0.16837000  0.30665000  0.51896000  1.0
  O  O16  1  0.32405000  0.50060000  0.78740000  1.0
  O  O17  1  0.67594000  0.49940000  0.21260000  1.0
  O  O18  1  0.29486000  0.81491000  0.67212000  1.0
  O  O19  1  0.70515000  0.18509000  0.32788000  1.0
  O  O20  1  0.29619000  0.92686000  0.29591000  1.0
  O  O21  1  0.70381000  0.07315000  0.70409000  1.0
  O  O22  1  0.17213000  0.74769000  0.11034000  1.0
  O  O23  1  0.82787000  0.25231000  0.88966000  1.0
  O  O24  1  0.29581000  0.25076000  0.07891000  1.0
  O  O25  1  0.70419000  0.74924000  0.92109000  1.0
