# generated using pymatgen
data_ZnP2H16C17(NO3)2
_symmetry_space_group_name_H-M   'P 1'
_cell_length_a   8.55449000
_cell_length_b   9.04244000
_cell_length_c   12.29730000
_cell_angle_alpha   95.44760000
_cell_angle_beta   107.06700000
_cell_angle_gamma   102.47800000
_symmetry_Int_Tables_number   1
_chemical_formula_structural   ZnP2H16C17(NO3)2
_chemical_formula_sum   'Zn2 P4 H32 C34 N4 O12'
_cell_volume   874.99839970
_cell_formula_units_Z   2
loop_
 _symmetry_equiv_pos_site_id
 _symmetry_equiv_pos_as_xyz
  1  'x, y, z'
loop_
 _atom_site_type_symbol
 _atom_site_label
 _atom_site_symmetry_multiplicity
 _atom_site_fract_x
 _atom_site_fract_y
 _atom_site_fract_z
 _atom_site_occupancy
  Zn  Zn0  1  0.67992000  0.64957000  0.89000000  1.0
  Zn  Zn1  1  0.32008000  0.35042000  0.11000000  1.0
  P  P2  1  0.65686000  0.46192000  0.65335000  1.0
  P  P3  1  0.34314000  0.53808000  0.34665000  1.0
  P  P4  1  0.31180000  0.42007000  0.85333000  1.0
  P  P5  1  0.68820000  0.57992000  0.14667000  1.0
  H  H6  1  0.43517000  0.35626000  0.49193000  1.0
  H  H7  1  0.56483000  0.64374000  0.50807000  1.0
  H  H8  1  0.50978000  0.34297000  0.80608000  1.0
  H  H9  1  0.49021000  0.65703000  0.19392000  1.0
  H  H10  1  0.39210000  0.78757000  0.77871000  1.0
  H  H11  1  0.60790000  0.21243000  0.22129000  1.0
  H  H12  1  0.34936000  0.98315000  0.64506000  1.0
  H  H13  1  0.65065000  0.01685000  0.35494000  1.0
  H  H14  1  0.60036000  0.12977000  0.60207000  1.0
  H  H15  1  0.39965000  0.87023000  0.39793000  1.0
  H  H16  1  0.88551000  0.09436000  0.70210000  1.0
  H  H17  1  0.11449000  0.90564000  0.29790000  1.0
  H  H18  1  0.11556000  0.09581000  0.83009000  1.0
  H  H19  1  0.88444000  0.90420000  0.16992000  1.0
  H  H20  1  0.37659000  0.02977000  0.93624000  1.0
  H  H21  1  0.62340000  0.97023000  0.06376000  1.0
  H  H22  1  0.35420000  0.78721000  0.02683000  1.0
  H  H23  1  0.64580000  0.21279000  0.97317000  1.0
  H  H24  1  0.06598000  0.63334000  0.01037000  1.0
  H  H25  1  0.93402000  0.36665000  0.98963000  1.0
  H  H26  1  0.87273000  0.21916000  0.33531000  1.0
  H  H27  1  0.12727000  0.78085000  0.66469000  1.0
  H  H28  1  0.96776000  0.08395000  0.40805000  1.0
  H  H29  1  0.03224000  0.91605000  0.59195000  1.0
  H  H30  1  0.09654000  0.25475000  0.38917000  1.0
  H  H31  1  0.90346000  0.74526000  0.61083000  1.0
  H  H32  1  0.23545000  0.27754000  0.61070000  1.0
  H  H33  1  0.76455000  0.72246000  0.38930000  1.0
  H  H34  1  0.98381000  0.47829000  0.81933000  1.0
  H  H35  1  0.01619000  0.52171000  0.18067000  1.0
  H  H36  1  0.72921000  0.31992000  0.45587000  1.0
  H  H37  1  0.27079000  0.68008000  0.54413000  1.0
  C  C38  1  0.49663000  0.86114000  0.75997000  1.0
  C  C39  1  0.50337000  0.13886000  0.24003000  1.0
  C  C40  1  0.47453000  0.96691000  0.68536000  1.0
  C  C41  1  0.52548000  0.03309000  0.31464000  1.0
  C  C42  1  0.61539000  0.04945000  0.66241000  1.0
  C  C43  1  0.38462000  0.95055000  0.33759000  1.0
  C  C44  1  0.77430000  0.02957000  0.71859000  1.0
  C  C45  1  0.22570000  0.97043000  0.28141000  1.0
  C  C46  1  0.78786000  0.92410000  0.79462000  1.0
  C  C47  1  0.21214000  0.07590000  0.20538000  1.0
  C  C48  1  0.95099000  0.89472000  0.85808000  1.0
  C  C49  1  0.04902000  0.10527000  0.14192000  1.0
  C  C50  1  0.10760000  0.99150000  0.86767000  1.0
  C  C51  1  0.89240000  0.00849000  0.13233000  1.0
  C  C52  1  0.25468000  0.95436000  0.92894000  1.0
  C  C53  1  0.74532000  0.04564000  0.07106000  1.0
  C  C54  1  0.24291000  0.82264000  0.97988000  1.0
  C  C55  1  0.75709000  0.17736000  0.02012000  1.0
  C  C56  1  0.08214000  0.73446000  0.96904000  1.0
  C  C57  1  0.91787000  0.26554000  0.03096000  1.0
  C  C58  1  0.97883000  0.20758000  0.40693000  1.0
  C  C59  1  0.02117000  0.79243000  0.59307000  1.0
  C  C60  1  0.98102000  0.28804000  0.52030000  1.0
  C  C61  1  0.01899000  0.71197000  0.47969000  1.0
  C  C62  1  0.12471000  0.31333000  0.61846000  1.0
  C  C63  1  0.87529000  0.68667000  0.38154000  1.0
  C  C64  1  0.12817000  0.38454000  0.72563000  1.0
  C  C65  1  0.87183000  0.61546000  0.27437000  1.0
  C  C66  1  0.98487000  0.42887000  0.73550000  1.0
  C  C67  1  0.01513000  0.57113000  0.26450000  1.0
  C  C68  1  0.84137000  0.40598000  0.63877000  1.0
  C  C69  1  0.15863000  0.59402000  0.36123000  1.0
  C  C70  1  0.84130000  0.33735000  0.53145000  1.0
  C  C71  1  0.15869000  0.66265000  0.46855000  1.0
  N  N72  1  0.64938000  0.84014000  0.81264000  1.0
  N  N73  1  0.35062000  0.15985000  0.18736000  1.0
  N  N74  1  0.94027000  0.76877000  0.90889000  1.0
  N  N75  1  0.05973000  0.23123000  0.09111000  1.0
  O  O76  1  0.65427000  0.61802000  0.61805000  1.0
  O  O77  1  0.34573000  0.38198000  0.38195000  1.0
  O  O78  1  0.49882000  0.33202000  0.57386000  1.0
  O  O79  1  0.50118000  0.66798000  0.42614000  1.0
  O  O80  1  0.66418000  0.45690000  0.77993000  1.0
  O  O81  1  0.33582000  0.54310000  0.22007000  1.0
  O  O82  1  0.42271000  0.58130000  0.86741000  1.0
  O  O83  1  0.57728000  0.41870000  0.13259000  1.0
  O  O84  1  0.41167000  0.29490000  0.83269000  1.0
  O  O85  1  0.58833000  0.70509000  0.16732000  1.0
  O  O86  1  0.23887000  0.38523000  0.94976000  1.0
  O  O87  1  0.76113000  0.61477000  0.05024000  1.0
