# generated using pymatgen
data_Zn2H31C31N3O11
_symmetry_space_group_name_H-M   'P 1'
_cell_length_a   10.27190000
_cell_length_b   18.26050000
_cell_length_c   26.93710000
_cell_angle_alpha   90.00020000
_cell_angle_beta   90.00000000
_cell_angle_gamma   89.99980000
_symmetry_Int_Tables_number   1
_chemical_formula_structural   Zn2H31C31N3O11
_chemical_formula_sum   'Zn8 H124 C124 N12 O44'
_cell_volume   5052.59265370
_cell_formula_units_Z   4
loop_
 _symmetry_equiv_pos_site_id
 _symmetry_equiv_pos_as_xyz
  1  'x, y, z'
loop_
 _atom_site_type_symbol
 _atom_site_label
 _atom_site_symmetry_multiplicity
 _atom_site_fract_x
 _atom_site_fract_y
 _atom_site_fract_z
 _atom_site_occupancy
  Zn  Zn0  1  0.68226000  0.17459000  0.96408000  1.0
  Zn  Zn1  1  0.31774000  0.82541000  0.46408000  1.0
  Zn  Zn2  1  0.18227000  0.32541000  0.46408000  1.0
  Zn  Zn3  1  0.81773000  0.67459000  0.96408000  1.0
  Zn  Zn4  1  0.99239000  0.31008000  0.56391000  1.0
  Zn  Zn5  1  0.00761000  0.68992000  0.06391000  1.0
  Zn  Zn6  1  0.49240000  0.18992000  0.06391000  1.0
  Zn  Zn7  1  0.50760000  0.81008000  0.56391000  1.0
  H  H8  1  0.76658000  0.43711000  0.98545000  1.0
  H  H9  1  0.23342000  0.56289000  0.48545000  1.0
  H  H10  1  0.26659000  0.06290000  0.48545000  1.0
  H  H11  1  0.73341000  0.93710000  0.98545000  1.0
  H  H12  1  0.81956000  0.51742000  0.13403000  1.0
  H  H13  1  0.18043000  0.48258000  0.63403000  1.0
  H  H14  1  0.31957000  0.98258000  0.63403000  1.0
  H  H15  1  0.68043000  0.01742000  0.13403000  1.0
  H  H16  1  0.66231000  0.30128000  0.10953000  1.0
  H  H17  1  0.33769000  0.69872000  0.60953000  1.0
  H  H18  1  0.16232000  0.19872000  0.60953000  1.0
  H  H19  1  0.83768000  0.80128000  0.10953000  1.0
  H  H20  1  0.51916000  0.31296000  0.26605000  1.0
  H  H21  1  0.48084000  0.68705000  0.76605000  1.0
  H  H22  1  0.01916000  0.18704000  0.76605000  1.0
  H  H23  1  0.98084000  0.81296000  0.26605000  1.0
  H  H24  1  0.54016000  0.33671000  0.17608000  1.0
  H  H25  1  0.45984000  0.66329000  0.67608000  1.0
  H  H26  1  0.04017000  0.16329000  0.67608000  1.0
  H  H27  1  0.95983000  0.83671000  0.17608000  1.0
  H  H28  1  0.89949000  0.45168000  0.20217000  1.0
  H  H29  1  0.10051000  0.54832000  0.70217000  1.0
  H  H30  1  0.39949000  0.04832000  0.70217000  1.0
  H  H31  1  0.60051000  0.95168000  0.20217000  1.0
  H  H32  1  0.65369000  0.32275000  0.48230000  1.0
  H  H33  1  0.34631000  0.67725000  0.98230000  1.0
  H  H34  1  0.15369000  0.17725000  0.98230000  1.0
  H  H35  1  0.84631000  0.82275000  0.48230000  1.0
  H  H36  1  0.87749000  0.42923000  0.29222000  1.0
  H  H37  1  0.12251000  0.57078000  0.79221000  1.0
  H  H38  1  0.37749000  0.07078000  0.79222000  1.0
  H  H39  1  0.62251000  0.92923000  0.29222000  1.0
  H  H40  1  0.89322000  0.34821000  0.35316000  1.0
  H  H41  1  0.10678000  0.65179000  0.85316000  1.0
  H  H42  1  0.39322000  0.15179000  0.85316000  1.0
  H  H43  1  0.60678000  0.84821000  0.35316000  1.0
  H  H44  1  0.97740000  0.36702000  0.68086000  1.0
  H  H45  1  0.02260000  0.63299000  0.18086000  1.0
  H  H46  1  0.47740000  0.13298000  0.18086000  1.0
  H  H47  1  0.52260000  0.86702000  0.68086000  1.0
  H  H48  1  0.73675000  0.24494000  0.53772000  1.0
  H  H49  1  0.26324000  0.75506000  0.03772000  1.0
  H  H50  1  0.23675000  0.25507000  0.03772000  1.0
  H  H51  1  0.76324000  0.74493000  0.53772000  1.0
  H  H52  1  0.47220000  0.35740000  0.34146000  1.0
  H  H53  1  0.52780000  0.64261000  0.84146000  1.0
  H  H54  1  0.97219000  0.14260000  0.84146000  1.0
  H  H55  1  0.02780000  0.85740000  0.34146000  1.0
  H  H56  1  0.53961000  0.20277000  0.53974000  1.0
  H  H57  1  0.46039000  0.79722000  0.03974000  1.0
  H  H58  1  0.03961000  0.29723000  0.03974000  1.0
  H  H59  1  0.96039000  0.70277000  0.53974000  1.0
  H  H60  1  0.48658000  0.16978000  0.59879000  1.0
  H  H61  1  0.51342000  0.83022000  0.09879000  1.0
  H  H62  1  0.98658000  0.33022000  0.09879000  1.0
  H  H63  1  0.01342000  0.66978000  0.59879000  1.0
  H  H64  1  0.53133000  0.10649000  0.55169000  1.0
  H  H65  1  0.46867000  0.89351000  0.05169000  1.0
  H  H66  1  0.03133000  0.39351000  0.05169000  1.0
  H  H67  1  0.96867000  0.60649000  0.55169000  1.0
  H  H68  1  0.72144000  0.05423000  0.61164000  1.0
  H  H69  1  0.27856000  0.94577000  0.11164000  1.0
  H  H70  1  0.22144000  0.44577000  0.11164000  1.0
  H  H71  1  0.77856000  0.55423000  0.61163000  1.0
  H  H72  1  0.65464000  0.11612000  0.65608000  1.0
  H  H73  1  0.34536000  0.88388000  0.15608000  1.0
  H  H74  1  0.15464000  0.38389000  0.15608000  1.0
  H  H75  1  0.84536000  0.61612000  0.65608000  1.0
  H  H76  1  0.82241000  0.12425000  0.63791000  1.0
  H  H77  1  0.17758000  0.87576000  0.13791000  1.0
  H  H78  1  0.32242000  0.37576000  0.13791000  1.0
  H  H79  1  0.67758000  0.62424000  0.63790000  1.0
  H  H80  1  0.81068000  0.44517000  0.54929000  1.0
  H  H81  1  0.18933000  0.55483000  0.04929000  1.0
  H  H82  1  0.31068000  0.05483000  0.04929000  1.0
  H  H83  1  0.68932000  0.94516000  0.54929000  1.0
  H  H84  1  0.51874000  0.51979000  0.55997000  1.0
  H  H85  1  0.48126000  0.48021000  0.05998000  1.0
  H  H86  1  0.01874000  0.98021000  0.05997000  1.0
  H  H87  1  0.98126000  0.01979000  0.55998000  1.0
  H  H88  1  0.50111000  0.45366000  0.51159000  1.0
  H  H89  1  0.49889000  0.54634000  0.01159000  1.0
  H  H90  1  0.00111000  0.04634000  0.01159000  1.0
  H  H91  1  0.99889000  0.95366000  0.51159000  1.0
  H  H92  1  0.64956000  0.50436000  0.51732000  1.0
  H  H93  1  0.35044000  0.49564000  0.01732000  1.0
  H  H94  1  0.14956000  0.99564000  0.01732000  1.0
  H  H95  1  0.85044000  0.00436000  0.51732000  1.0
  H  H96  1  0.29262000  0.28258000  0.66777000  1.0
  H  H97  1  0.70737000  0.71742000  0.16777000  1.0
  H  H98  1  0.79262000  0.21742000  0.16777000  1.0
  H  H99  1  0.20738000  0.78258000  0.66777000  1.0
  H  H100  1  0.30169000  0.26855000  0.73345000  1.0
  H  H101  1  0.69831000  0.73145000  0.23346000  1.0
  H  H102  1  0.80169000  0.23145000  0.23345000  1.0
  H  H103  1  0.19831000  0.76855000  0.73345000  1.0
  H  H104  1  0.36335000  0.35151000  0.70698000  1.0
  H  H105  1  0.63665000  0.64849000  0.20698000  1.0
  H  H106  1  0.86335000  0.14849000  0.20698000  1.0
  H  H107  1  0.13665000  0.85151000  0.70698000  1.0
  H  H108  1  0.46574000  0.34834000  0.56923000  1.0
  H  H109  1  0.53426000  0.65166000  0.06923000  1.0
  H  H110  1  0.96574000  0.15166000  0.06923000  1.0
  H  H111  1  0.03427000  0.84834000  0.56923000  1.0
  H  H112  1  0.46793000  0.41079000  0.62046000  1.0
  H  H113  1  0.53207000  0.58921000  0.12046000  1.0
  H  H114  1  0.96793000  0.08920000  0.12046000  1.0
  H  H115  1  0.03207000  0.91079000  0.62046000  1.0
  H  H116  1  0.58148000  0.33599000  0.61901000  1.0
  H  H117  1  0.41852000  0.66401000  0.11901000  1.0
  H  H118  1  0.08147000  0.16401000  0.11900000  1.0
  H  H119  1  0.91853000  0.83599000  0.61901000  1.0
  H  H120  1  0.03621000  0.40730000  0.75345000  1.0
  H  H121  1  0.96380000  0.59270000  0.25345000  1.0
  H  H122  1  0.53621000  0.09270000  0.25345000  1.0
  H  H123  1  0.46379000  0.90730000  0.75345000  1.0
  H  H124  1  0.20525000  0.42933000  0.75845000  1.0
  H  H125  1  0.79476000  0.57068000  0.25845000  1.0
  H  H126  1  0.70525000  0.07067000  0.25844000  1.0
  H  H127  1  0.29475000  0.92932000  0.75844000  1.0
  H  H128  1  0.14316000  0.34790000  0.78686000  1.0
  H  H129  1  0.85685000  0.65210000  0.28686000  1.0
  H  H130  1  0.64317000  0.15210000  0.28686000  1.0
  H  H131  1  0.35684000  0.84790000  0.78686000  1.0
  C  C132  1  0.75771000  0.42929000  0.02540000  1.0
  C  C133  1  0.24229000  0.57071000  0.52540000  1.0
  C  C134  1  0.25772000  0.07071000  0.52540000  1.0
  C  C135  1  0.74229000  0.92929000  0.02540000  1.0
  C  C136  1  0.78714000  0.47358000  0.10951000  1.0
  C  C137  1  0.21286000  0.52642000  0.60951000  1.0
  C  C138  1  0.28714000  0.02642000  0.60951000  1.0
  C  C139  1  0.71286000  0.97358000  0.10951000  1.0
  C  C140  1  0.69719000  0.35345000  0.09539000  1.0
  C  C141  1  0.30281000  0.64655000  0.59539000  1.0
  C  C142  1  0.19720000  0.14655000  0.59539000  1.0
  C  C143  1  0.80280000  0.85345000  0.09539000  1.0
  C  C144  1  0.60215000  0.34424000  0.25229000  1.0
  C  C145  1  0.39785000  0.65576000  0.75228000  1.0
  C  C146  1  0.10215000  0.15575000  0.75228000  1.0
  C  C147  1  0.89785000  0.84425000  0.25228000  1.0
  C  C148  1  0.72052000  0.39667000  0.18255000  1.0
  C  C149  1  0.27948000  0.60333000  0.68255000  1.0
  C  C150  1  0.22052000  0.10333000  0.68255000  1.0
  C  C151  1  0.77947000  0.89667000  0.18255000  1.0
  C  C152  1  0.85409000  0.55418000  0.03875000  1.0
  C  C153  1  0.14591000  0.44582000  0.53875000  1.0
  C  C154  1  0.35409000  0.94582000  0.53875000  1.0
  C  C155  1  0.64592000  0.05418000  0.03875000  1.0
  C  C156  1  0.61382000  0.35750000  0.20163000  1.0
  C  C157  1  0.38619000  0.64250000  0.70163000  1.0
  C  C158  1  0.11382000  0.14250000  0.70163000  1.0
  C  C159  1  0.88618000  0.85750000  0.20163000  1.0
  C  C160  1  0.73390000  0.40884000  0.12866000  1.0
  C  C161  1  0.26610000  0.59116000  0.62866000  1.0
  C  C162  1  0.23390000  0.09116000  0.62866000  1.0
  C  C163  1  0.76610000  0.90884000  0.12866000  1.0
  C  C164  1  0.81486000  0.42198000  0.21619000  1.0
  C  C165  1  0.18514000  0.57802000  0.71619000  1.0
  C  C166  1  0.31486000  0.07802000  0.71619000  1.0
  C  C167  1  0.68514000  0.92198000  0.21619000  1.0
  C  C168  1  0.71055000  0.36292000  0.04419000  1.0
  C  C169  1  0.28944000  0.63708000  0.54419000  1.0
  C  C170  1  0.21056000  0.13708000  0.54419000  1.0
  C  C171  1  0.78944000  0.86292000  0.04419000  1.0
  C  C172  1  0.69654000  0.36941000  0.28607000  1.0
  C  C173  1  0.30346000  0.63059000  0.78606000  1.0
  C  C174  1  0.19654000  0.13059000  0.78606000  1.0
  C  C175  1  0.80346000  0.86942000  0.28607000  1.0
  C  C176  1  0.66327000  0.33116000  0.44251000  1.0
  C  C177  1  0.33673000  0.66884000  0.94251000  1.0
  C  C178  1  0.16326000  0.16884000  0.94251000  1.0
  C  C179  1  0.83674000  0.83116000  0.44251000  1.0
  C  C180  1  0.90520000  0.32713000  0.45173000  1.0
  C  C181  1  0.09480000  0.67287000  0.95173000  1.0
  C  C182  1  0.40520000  0.17287000  0.95173000  1.0
  C  C183  1  0.59481000  0.82713000  0.45173000  1.0
  C  C184  1  0.55105000  0.33786000  0.41378000  1.0
  C  C185  1  0.44895000  0.66214000  0.91378000  1.0
  C  C186  1  0.05105000  0.16214000  0.91378000  1.0
  C  C187  1  0.94895000  0.83786000  0.41378000  1.0
  C  C188  1  0.80322000  0.40861000  0.26686000  1.0
  C  C189  1  0.19678000  0.59139000  0.76686000  1.0
  C  C190  1  0.30322000  0.09139000  0.76686000  1.0
  C  C191  1  0.69678000  0.90861000  0.26686000  1.0
  C  C192  1  0.79602000  0.34675000  0.36935000  1.0
  C  C193  1  0.20398000  0.65325000  0.86934000  1.0
  C  C194  1  0.29602000  0.15325000  0.86935000  1.0
  C  C195  1  0.70398000  0.84675000  0.36935000  1.0
  C  C196  1  0.68611000  0.30081000  0.00932000  1.0
  C  C197  1  0.31389000  0.69919000  0.50932000  1.0
  C  C198  1  0.18611000  0.19919000  0.50932000  1.0
  C  C199  1  0.81388000  0.80081000  0.00932000  1.0
  C  C200  1  0.68437000  0.35526000  0.33987000  1.0
  C  C201  1  0.31563000  0.64474000  0.83986000  1.0
  C  C202  1  0.18436000  0.14474000  0.83986000  1.0
  C  C203  1  0.81563000  0.85527000  0.33986000  1.0
  C  C204  1  0.78569000  0.33519000  0.42048000  1.0
  C  C205  1  0.21431000  0.66481000  0.92048000  1.0
  C  C206  1  0.28569000  0.16481000  0.92048000  1.0
  C  C207  1  0.71431000  0.83518000  0.42048000  1.0
  C  C208  1  0.06821000  0.33629000  0.67374000  1.0
  C  C209  1  0.93179000  0.66371000  0.17374000  1.0
  C  C210  1  0.56821000  0.16371000  0.17374000  1.0
  C  C211  1  0.43179000  0.83628000  0.67374000  1.0
  C  C212  1  0.77518000  0.20865000  0.56689000  1.0
  C  C213  1  0.22482000  0.79135000  0.06689000  1.0
  C  C214  1  0.27518000  0.29135000  0.06689000  1.0
  C  C215  1  0.72482000  0.70865000  0.56689000  1.0
  C  C216  1  0.79798000  0.48404000  0.05823000  1.0
  C  C217  1  0.20202000  0.51596000  0.55822000  1.0
  C  C218  1  0.29799000  0.01596000  0.55822000  1.0
  C  C219  1  0.70202000  0.98404000  0.05822000  1.0
  C  C220  1  0.56157000  0.35038000  0.36273000  1.0
  C  C221  1  0.43843000  0.64962000  0.86273000  1.0
  C  C222  1  0.06157000  0.14962000  0.86273000  1.0
  C  C223  1  0.93843000  0.85038000  0.36273000  1.0
  C  C224  1  0.42205000  0.33114000  0.43918000  1.0
  C  C225  1  0.57795000  0.66886000  0.93918000  1.0
  C  C226  1  0.92205000  0.16886000  0.93918000  1.0
  C  C227  1  0.07795000  0.83114000  0.43918000  1.0
  C  C228  1  0.55439000  0.16016000  0.56788000  1.0
  C  C229  1  0.44561000  0.83984000  0.06788000  1.0
  C  C230  1  0.05439000  0.33984000  0.06788000  1.0
  C  C231  1  0.94561000  0.66016000  0.56788000  1.0
  C  C232  1  0.72393000  0.11106000  0.62516000  1.0
  C  C233  1  0.27606000  0.88895000  0.12516000  1.0
  C  C234  1  0.22394000  0.38895000  0.12516000  1.0
  C  C235  1  0.77607000  0.61105000  0.62516000  1.0
  C  C236  1  0.75163000  0.40866000  0.57310000  1.0
  C  C237  1  0.24837000  0.59134000  0.07310000  1.0
  C  C238  1  0.25163000  0.09134000  0.07310000  1.0
  C  C239  1  0.74837000  0.90866000  0.57310000  1.0
  C  C240  1  0.57020000  0.47813000  0.53793000  1.0
  C  C241  1  0.42980000  0.52187000  0.03794000  1.0
  C  C242  1  0.07020000  0.02187000  0.03793000  1.0
  C  C243  1  0.92980000  0.97813000  0.53793000  1.0
  C  C244  1  0.28705000  0.30945000  0.70401000  1.0
  C  C245  1  0.71295000  0.69055000  0.20402000  1.0
  C  C246  1  0.78705000  0.19055000  0.20401000  1.0
  C  C247  1  0.21295000  0.80945000  0.70401000  1.0
  C  C248  1  0.52871000  0.37607000  0.59642000  1.0
  C  C249  1  0.47130000  0.62393000  0.09642000  1.0
  C  C250  1  0.02870000  0.12393000  0.09642000  1.0
  C  C251  1  0.97130000  0.87607000  0.59642000  1.0
  C  C252  1  0.13485000  0.38433000  0.75446000  1.0
  C  C253  1  0.86516000  0.61567000  0.25446000  1.0
  C  C254  1  0.63485000  0.11567000  0.25446000  1.0
  C  C255  1  0.36515000  0.88433000  0.75446000  1.0
  N  N256  1  0.68828000  0.16173000  0.58578000  1.0
  N  N257  1  0.31172000  0.83827000  0.08578000  1.0
  N  N258  1  0.18828000  0.33827000  0.08578000  1.0
  N  N259  1  0.81172000  0.66173000  0.58578000  1.0
  N  N260  1  0.15965000  0.34369000  0.70902000  1.0
  N  N261  1  0.84036000  0.65631000  0.20902000  1.0
  N  N262  1  0.65965000  0.15631000  0.20902000  1.0
  N  N263  1  0.34035000  0.84369000  0.70902000  1.0
  N  N264  1  0.62311000  0.42125000  0.57010000  1.0
  N  N265  1  0.37689000  0.57875000  0.07010000  1.0
  N  N266  1  0.12311000  0.07875000  0.07010000  1.0
  N  N267  1  0.87689000  0.92125000  0.57010000  1.0
  O  O268  1  0.93210000  0.58756000  0.06797000  1.0
  O  O269  1  0.06789000  0.41244000  0.56797000  1.0
  O  O270  1  0.43211000  0.91244000  0.56797000  1.0
  O  O271  1  0.56790000  0.08756000  0.06797000  1.0
  O  O272  1  0.08236000  0.29801000  0.63573000  1.0
  O  O273  1  0.91764000  0.70199000  0.13573000  1.0
  O  O274  1  0.58236000  0.20199000  0.13573000  1.0
  O  O275  1  0.41765000  0.79800000  0.63573000  1.0
  O  O276  1  0.81952000  0.57338000  0.99557000  1.0
  O  O277  1  0.18048000  0.42662000  0.49557000  1.0
  O  O278  1  0.31952000  0.92662000  0.49557000  1.0
  O  O279  1  0.68048000  0.07338000  0.99557000  1.0
  O  O280  1  0.65342000  0.23717000  0.02853000  1.0
  O  O281  1  0.34657000  0.76282000  0.52853000  1.0
  O  O282  1  0.15342000  0.26282000  0.52853000  1.0
  O  O283  1  0.84657000  0.73717000  0.02853000  1.0
  O  O284  1  0.01323000  0.32647000  0.42875000  1.0
  O  O285  1  0.98677000  0.67353000  0.92875000  1.0
  O  O286  1  0.51323000  0.17353000  0.92875000  1.0
  O  O287  1  0.48677000  0.82647000  0.42875000  1.0
  O  O288  1  0.80417000  0.36046000  0.59953000  1.0
  O  O289  1  0.19583000  0.63954000  0.09953000  1.0
  O  O290  1  0.30416000  0.13954000  0.09953000  1.0
  O  O291  1  0.69583000  0.86046000  0.59953000  1.0
  O  O292  1  0.31917000  0.33825000  0.41217000  1.0
  O  O293  1  0.68083000  0.66175000  0.91217000  1.0
  O  O294  1  0.81917000  0.16175000  0.91217000  1.0
  O  O295  1  0.18083000  0.83825000  0.41217000  1.0
  O  O296  1  0.41823000  0.31883000  0.48531000  1.0
  O  O297  1  0.58176000  0.68118000  0.98531000  1.0
  O  O298  1  0.91823000  0.18118000  0.98531000  1.0
  O  O299  1  0.08177000  0.81882000  0.48531000  1.0
  O  O300  1  0.89222000  0.21217000  0.58038000  1.0
  O  O301  1  0.10777000  0.78783000  0.08038000  1.0
  O  O302  1  0.39223000  0.28782000  0.08038000  1.0
  O  O303  1  0.60777000  0.71217000  0.58038000  1.0
  O  O304  1  0.88808000  0.32205000  0.49849000  1.0
  O  O305  1  0.11192000  0.67796000  0.99850000  1.0
  O  O306  1  0.38808000  0.17796000  0.99849000  1.0
  O  O307  1  0.61193000  0.82205000  0.49850000  1.0
  O  O308  1  0.70539000  0.30763000  0.96388000  1.0
  O  O309  1  0.29461000  0.69236000  0.46388000  1.0
  O  O310  1  0.20539000  0.19238000  0.46388000  1.0
  O  O311  1  0.79461000  0.80763000  0.96388000  1.0
