# generated using pymatgen
data_DyCuH25C49(N2O5)2
_symmetry_space_group_name_H-M   'P 1'
_cell_length_a   9.38859000
_cell_length_b   14.84250000
_cell_length_c   18.33100000
_cell_angle_alpha   92.80040000
_cell_angle_beta   103.69600000
_cell_angle_gamma   94.71160000
_symmetry_Int_Tables_number   1
_chemical_formula_structural   DyCuH25C49(N2O5)2
_chemical_formula_sum   'Dy2 Cu2 H50 C98 N8 O20'
_cell_volume   2467.24570428
_cell_formula_units_Z   2
loop_
 _symmetry_equiv_pos_site_id
 _symmetry_equiv_pos_as_xyz
  1  'x, y, z'
loop_
 _atom_site_type_symbol
 _atom_site_label
 _atom_site_symmetry_multiplicity
 _atom_site_fract_x
 _atom_site_fract_y
 _atom_site_fract_z
 _atom_site_occupancy
  Dy  Dy0  1  0.80856000  0.56372000  0.96796000  1.0
  Dy  Dy1  1  0.19140000  0.43629000  0.03205000  1.0
  Cu  Cu2  1  0.72213000  0.02912000  0.44876000  1.0
  Cu  Cu3  1  0.27787000  0.97088000  0.55121000  1.0
  H  H4  1  0.31309000  0.76144000  0.41648000  1.0
  H  H5  1  0.68694000  0.23855000  0.58351000  1.0
  H  H6  1  0.45097000  0.77357000  0.56464000  1.0
  H  H7  1  0.54911000  0.22642000  0.43537000  1.0
  H  H8  1  0.98188000  0.93438000  0.71226000  1.0
  H  H9  1  0.01799000  0.06565000  0.28774000  1.0
  H  H10  1  0.14212000  0.08798000  0.69281000  1.0
  H  H11  1  0.85784000  0.91205000  0.30717000  1.0
  H  H12  1  0.01155000  0.34724000  0.49920000  1.0
  H  H13  1  0.98857000  0.65271000  0.50077000  1.0
  H  H14  1  0.86948000  0.33809000  0.35227000  1.0
  H  H15  1  0.13069000  0.66182000  0.64766000  1.0
  H  H16  1  0.59195000  0.06329000  0.15911000  1.0
  H  H17  1  0.40794000  0.93673000  0.84090000  1.0
  H  H18  1  0.43996000  0.90593000  0.17761000  1.0
  H  H19  1  0.55981000  0.09410000  0.82243000  1.0
  H  H20  1  0.69942000  0.71255000  0.59844000  1.0
  H  H21  1  0.30064000  0.28748000  0.40157000  1.0
  H  H22  1  0.69425000  0.61897000  0.70579000  1.0
  H  H23  1  0.30583000  0.38104000  0.29421000  1.0
  H  H24  1  0.72536000  0.86012000  0.85107000  1.0
  H  H25  1  0.27458000  0.13989000  0.14894000  1.0
  H  H26  1  0.72385000  0.95481000  0.74241000  1.0
  H  H27  1  0.27607000  0.04520000  0.25760000  1.0
  H  H28  1  0.04297000  0.26127000  0.70393000  1.0
  H  H29  1  0.95708000  0.73874000  0.29604000  1.0
  H  H30  1  0.23614000  0.38624000  0.76039000  1.0
  H  H31  1  0.76389000  0.61377000  0.23957000  1.0
  H  H32  1  0.42197000  0.36138000  0.56817000  1.0
  H  H33  1  0.57808000  0.63858000  0.43179000  1.0
  H  H34  1  0.23004000  0.23401000  0.51209000  1.0
  H  H35  1  0.77000000  0.76596000  0.48789000  1.0
  H  H36  1  0.55271000  0.53285000  0.78811000  1.0
  H  H37  1  0.44729000  0.46718000  0.21183000  1.0
  H  H38  1  0.60430000  0.31498000  0.25855000  1.0
  H  H39  1  0.39570000  0.68495000  0.74145000  1.0
  H  H40  1  0.66358000  0.41732000  0.16365000  1.0
  H  H41  1  0.33644000  0.58265000  0.83637000  1.0
  H  H42  1  0.95931000  0.23337000  0.10911000  1.0
  H  H43  1  0.04075000  0.76664000  0.89090000  1.0
  H  H44  1  0.89419000  0.12791000  0.20045000  1.0
  H  H45  1  0.10588000  0.87208000  0.79955000  1.0
  H  H46  1  0.52276000  0.73366000  0.26275000  1.0
  H  H47  1  0.47719000  0.26633000  0.73737000  1.0
  H  H48  1  0.35699000  0.62550000  0.16551000  1.0
  H  H49  1  0.64302000  0.37448000  0.83458000  1.0
  H  H50  1  0.99237000  0.77745000  0.17697000  1.0
  H  H51  1  0.00762000  0.22258000  0.82299000  1.0
  H  H52  1  0.15678000  0.88320000  0.27851000  1.0
  H  H53  1  0.84316000  0.11685000  0.72146000  1.0
  C  C54  1  0.48763000  0.87091000  0.41023000  1.0
  C  C55  1  0.51237000  0.12912000  0.58979000  1.0
  C  C56  1  0.40958000  0.80578000  0.44564000  1.0
  C  C57  1  0.59045000  0.19424000  0.55435000  1.0
  C  C58  1  0.47952000  0.81191000  0.52043000  1.0
  C  C59  1  0.52053000  0.18810000  0.47958000  1.0
  C  C60  1  0.60357000  0.87947000  0.53097000  1.0
  C  C61  1  0.39644000  0.12055000  0.46903000  1.0
  C  C62  1  0.71404000  0.89746000  0.59790000  1.0
  C  C63  1  0.28594000  0.10257000  0.40210000  1.0
  C  C64  1  0.82928000  0.96669000  0.60530000  1.0
  C  C65  1  0.17069000  0.03331000  0.39469000  1.0
  C  C66  1  0.95761000  0.97969000  0.66734000  1.0
  C  C67  1  0.04232000  0.02033000  0.33265000  1.0
  C  C68  1  0.03858000  0.05698000  0.65729000  1.0
  C  C69  1  0.96138000  0.94303000  0.34268000  1.0
  C  C70  1  0.96006000  0.09185000  0.58905000  1.0
  C  C71  1  0.03993000  0.90814000  0.41091000  1.0
  C  C72  1  0.99881000  0.17439000  0.56185000  1.0
  C  C73  1  0.00123000  0.82558000  0.43812000  1.0
  C  C74  1  0.92464000  0.20060000  0.49152000  1.0
  C  C75  1  0.07541000  0.79937000  0.50846000  1.0
  C  C76  1  0.94706000  0.28945000  0.46524000  1.0
  C  C77  1  0.05301000  0.71050000  0.53473000  1.0
  C  C78  1  0.87450000  0.28510000  0.39116000  1.0
  C  C79  1  0.12559000  0.71483000  0.60879000  1.0
  C  C80  1  0.80365000  0.19448000  0.37246000  1.0
  C  C81  1  0.19644000  0.80546000  0.62752000  1.0
  C  C82  1  0.73097000  0.16007000  0.29973000  1.0
  C  C83  1  0.26907000  0.83988000  0.70026000  1.0
  C  C84  1  0.65334000  0.07449000  0.28524000  1.0
  C  C85  1  0.34661000  0.92551000  0.71478000  1.0
  C  C86  1  0.58430000  0.03362000  0.21114000  1.0
  C  C87  1  0.41559000  0.96641000  0.78889000  1.0
  C  C88  1  0.50739000  0.95469000  0.22050000  1.0
  C  C89  1  0.49246000  0.04533000  0.77953000  1.0
  C  C90  1  0.52881000  0.94754000  0.30049000  1.0
  C  C91  1  0.47107000  0.05249000  0.69954000  1.0
  C  C92  1  0.45680000  0.88001000  0.33271000  1.0
  C  C93  1  0.54314000  0.12004000  0.66734000  1.0
  C  C94  1  0.71201000  0.84082000  0.66235000  1.0
  C  C95  1  0.28798000  0.15920000  0.33766000  1.0
  C  C96  1  0.70292000  0.74559000  0.65337000  1.0
  C  C97  1  0.29712000  0.25442000  0.34664000  1.0
  C  C98  1  0.70186000  0.69267000  0.71402000  1.0
  C  C99  1  0.29819000  0.30734000  0.28599000  1.0
  C  C100  1  0.71058000  0.73400000  0.78562000  1.0
  C  C101  1  0.28941000  0.26601000  0.21438000  1.0
  C  C102  1  0.71953000  0.82874000  0.79528000  1.0
  C  C103  1  0.28044000  0.17127000  0.20474000  1.0
  C  C104  1  0.72014000  0.88134000  0.73455000  1.0
  C  C105  1  0.27982000  0.11867000  0.26547000  1.0
  C  C106  1  0.71684000  0.67821000  0.85189000  1.0
  C  C107  1  0.28315000  0.32180000  0.14812000  1.0
  C  C108  1  0.12291000  0.23950000  0.60375000  1.0
  C  C109  1  0.87713000  0.76049000  0.39622000  1.0
  C  C110  1  0.12745000  0.28165000  0.67463000  1.0
  C  C111  1  0.87258000  0.71835000  0.32533000  1.0
  C  C112  1  0.23437000  0.35309000  0.70574000  1.0
  C  C113  1  0.76565000  0.64692000  0.29422000  1.0
  C  C114  1  0.33873000  0.38292000  0.66637000  1.0
  C  C115  1  0.66128000  0.61708000  0.33359000  1.0
  C  C116  1  0.33778000  0.33878000  0.59693000  1.0
  C  C117  1  0.66227000  0.66119000  0.40303000  1.0
  C  C118  1  0.23169000  0.26792000  0.56631000  1.0
  C  C119  1  0.76836000  0.73206000  0.43366000  1.0
  C  C120  1  0.45846000  0.45758000  0.69647000  1.0
  C  C121  1  0.54157000  0.54242000  0.30348000  1.0
  C  C122  1  0.74761000  0.21581000  0.23669000  1.0
  C  C123  1  0.25243000  0.78415000  0.76329000  1.0
  C  C124  1  0.68033000  0.29652000  0.22492000  1.0
  C  C125  1  0.31968000  0.70344000  0.77507000  1.0
  C  C126  1  0.71319000  0.35371000  0.17189000  1.0
  C  C127  1  0.28683000  0.64627000  0.82812000  1.0
  C  C128  1  0.81628000  0.33170000  0.13162000  1.0
  C  C129  1  0.18375000  0.66829000  0.86840000  1.0
  C  C130  1  0.87932000  0.24940000  0.14105000  1.0
  C  C131  1  0.12075000  0.75060000  0.85896000  1.0
  C  C132  1  0.84344000  0.19130000  0.19244000  1.0
  C  C133  1  0.15664000  0.80869000  0.80756000  1.0
  C  C134  1  0.86829000  0.39693000  0.08179000  1.0
  C  C135  1  0.13171000  0.60307000  0.91824000  1.0
  C  C136  1  0.35015000  0.81345000  0.27892000  1.0
  C  C137  1  0.64978000  0.18657000  0.72113000  1.0
  C  C138  1  0.40553000  0.74127000  0.24595000  1.0
  C  C139  1  0.59442000  0.25872000  0.75414000  1.0
  C  C140  1  0.31302000  0.68115000  0.19110000  1.0
  C  C141  1  0.68695000  0.31884000  0.80896000  1.0
  C  C142  1  0.16349000  0.69355000  0.16667000  1.0
  C  C143  1  0.83651000  0.30646000  0.83336000  1.0
  C  C144  1  0.10808000  0.76693000  0.19821000  1.0
  C  C145  1  0.89189000  0.23309000  0.80179000  1.0
  C  C146  1  0.20037000  0.82601000  0.25454000  1.0
  C  C147  1  0.79955000  0.17402000  0.74545000  1.0
  C  C148  1  0.06629000  0.63040000  0.10544000  1.0
  C  C149  1  0.93373000  0.36960000  0.89458000  1.0
  C  C150  1  0.51105000  0.55457000  0.03392000  1.0
  C  C151  1  0.48890000  0.44547000  0.96611000  1.0
  N  N152  1  0.60422000  0.91705000  0.46328000  1.0
  N  N153  1  0.39577000  0.08298000  0.53672000  1.0
  N  N154  1  0.83448000  0.03428000  0.55653000  1.0
  N  N155  1  0.16551000  0.96572000  0.44343000  1.0
  N  N156  1  0.83189000  0.14424000  0.43506000  1.0
  N  N157  1  0.16816000  0.85570000  0.56491000  1.0
  N  N158  1  0.62029000  0.02058000  0.33947000  1.0
  N  N159  1  0.37966000  0.97945000  0.66056000  1.0
  O  O160  1  0.75445000  0.71434000  0.91825000  1.0
  O  O161  1  0.24549000  0.28565000  0.08177000  1.0
  O  O162  1  0.69060000  0.59068000  0.84049000  1.0
  O  O163  1  0.30943000  0.40932000  0.15952000  1.0
  O  O164  1  0.46008000  0.48978000  0.76602000  1.0
  O  O165  1  0.53993000  0.51026000  0.23392000  1.0
  O  O166  1  0.54705000  0.48428000  0.66050000  1.0
  O  O167  1  0.45301000  0.51570000  0.33945000  1.0
  O  O168  1  0.79395000  0.46300000  0.06108000  1.0
  O  O169  1  0.20604000  0.53699000  0.93894000  1.0
  O  O170  1  0.98734000  0.38126000  0.06417000  1.0
  O  O171  1  0.01267000  0.61876000  0.93587000  1.0
  O  O172  1  0.11943000  0.56000000  0.08427000  1.0
  O  O173  1  0.88061000  0.44001000  0.91576000  1.0
  O  O174  1  0.93667000  0.65019000  0.07663000  1.0
  O  O175  1  0.06336000  0.34980000  0.92337000  1.0
  O  O176  1  0.60641000  0.60899000  0.02198000  1.0
  O  O177  1  0.39358000  0.39103000  0.97806000  1.0
  O  O178  1  0.42383000  0.54354000  0.07329000  1.0
  O  O179  1  0.57611000  0.45650000  0.92673000  1.0
