# generated using pymatgen
data_Ba2H18C8O17
_symmetry_space_group_name_H-M   'P 1'
_cell_length_a   5.10057000
_cell_length_b   9.64598000
_cell_length_c   18.49630000
_cell_angle_alpha   102.89900000
_cell_angle_beta   89.99180000
_cell_angle_gamma   105.34100000
_symmetry_Int_Tables_number   1
_chemical_formula_structural   Ba2H18C8O17
_chemical_formula_sum   'Ba4 H36 C16 O34'
_cell_volume   853.76468888
_cell_formula_units_Z   2
loop_
 _symmetry_equiv_pos_site_id
 _symmetry_equiv_pos_as_xyz
  1  'x, y, z'
loop_
 _atom_site_type_symbol
 _atom_site_label
 _atom_site_symmetry_multiplicity
 _atom_site_fract_x
 _atom_site_fract_y
 _atom_site_fract_z
 _atom_site_occupancy
  Ba  Ba0  1  0.82427000  0.15420000  0.85887000  1.0
  Ba  Ba1  1  0.66996000  0.84546000  0.64114000  1.0
  Ba  Ba2  1  0.17574000  0.84579000  0.14113000  1.0
  Ba  Ba3  1  0.33003000  0.15455000  0.35886000  1.0
  H  H4  1  0.70638000  0.66407000  0.85861000  1.0
  H  H5  1  0.04160000  0.33548000  0.64140000  1.0
  H  H6  1  0.29362000  0.33592000  0.14139000  1.0
  H  H7  1  0.95839000  0.66453000  0.35860000  1.0
  H  H8  1  0.34814000  0.60652000  0.93513000  1.0
  H  H9  1  0.74135000  0.39333000  0.56497000  1.0
  H  H10  1  0.65187000  0.39348000  0.06487000  1.0
  H  H11  1  0.25864000  0.60668000  0.43504000  1.0
  H  H12  1  0.00327000  0.87459000  0.91309000  1.0
  H  H13  1  0.12790000  0.12508000  0.58681000  1.0
  H  H14  1  0.99673000  0.12540000  0.08690000  1.0
  H  H15  1  0.87209000  0.87493000  0.41319000  1.0
  H  H16  1  0.10165000  0.74405000  0.97741000  1.0
  H  H17  1  0.35726000  0.25602000  0.52259000  1.0
  H  H18  1  0.89836000  0.25595000  0.02259000  1.0
  H  H19  1  0.64274000  0.74398000  0.47741000  1.0
  H  H20  1  0.33625000  0.35475000  0.76150000  1.0
  H  H21  1  0.98144000  0.64485000  0.73852000  1.0
  H  H22  1  0.66375000  0.64524000  0.23850000  1.0
  H  H23  1  0.01856000  0.35515000  0.26148000  1.0
  H  H24  1  0.18682000  0.93481000  0.76899000  1.0
  H  H25  1  0.25210000  0.06490000  0.73104000  1.0
  H  H26  1  0.81318000  0.06519000  0.23101000  1.0
  H  H27  1  0.74791000  0.93510000  0.26896000  1.0
  H  H28  1  0.18802000  0.46592000  0.80905000  1.0
  H  H29  1  0.72178000  0.53375000  0.69102000  1.0
  H  H30  1  0.81198000  0.53408000  0.19095000  1.0
  H  H31  1  0.27821000  0.46625000  0.30898000  1.0
  H  H32  1  0.74625000  0.50625000  0.93125000  1.0
  H  H33  1  0.23944000  0.49359000  0.56875000  1.0
  H  H34  1  0.25375000  0.49375000  0.06875000  1.0
  H  H35  1  0.76056000  0.50642000  0.43125000  1.0
  H  H36  1  0.52598000  0.41050000  0.86526000  1.0
  H  H37  1  0.11505000  0.58928000  0.63479000  1.0
  H  H38  1  0.47402000  0.58950000  0.13474000  1.0
  H  H39  1  0.88495000  0.41072000  0.36521000  1.0
  C  C40  1  0.41426000  0.75969000  0.82093000  1.0
  C  C41  1  0.65378000  0.23986000  0.67903000  1.0
  C  C42  1  0.58574000  0.24030000  0.17907000  1.0
  C  C43  1  0.34622000  0.76014000  0.32097000  1.0
  C  C44  1  0.61972000  0.75699000  0.88108000  1.0
  C  C45  1  0.86199000  0.24259000  0.61887000  1.0
  C  C46  1  0.38028000  0.24301000  0.11891000  1.0
  C  C47  1  0.13801000  0.75742000  0.38113000  1.0
  C  C48  1  0.46140000  0.72454000  0.94962000  1.0
  C  C49  1  0.73640000  0.27529000  0.55035000  1.0
  C  C50  1  0.53860000  0.27545000  0.05038000  1.0
  C  C51  1  0.26360000  0.72472000  0.44965000  1.0
  C  C52  1  0.66270000  0.74572000  0.01528000  1.0
  C  C53  1  0.91674000  0.25430000  0.48469000  1.0
  C  C54  1  0.33730000  0.25427000  0.98472000  1.0
  C  C55  1  0.08326000  0.74571000  0.51531000  1.0
  O  O56  1  0.46288000  0.87060000  0.79118000  1.0
  O  O57  1  0.59167000  0.12903000  0.70882000  1.0
  O  O58  1  0.53712000  0.12940000  0.20882000  1.0
  O  O59  1  0.40833000  0.87098000  0.29118000  1.0
  O  O60  1  0.20558000  0.65033000  0.80486000  1.0
  O  O61  1  0.55444000  0.34922000  0.69507000  1.0
  O  O62  1  0.79442000  0.34966000  0.19514000  1.0
  O  O63  1  0.44554000  0.65079000  0.30492000  1.0
  O  O64  1  0.83217000  0.89188000  0.89761000  1.0
  O  O65  1  0.93951000  0.10772000  0.60230000  1.0
  O  O66  1  0.16784000  0.10811000  0.10239000  1.0
  O  O67  1  0.06049000  0.89229000  0.39770000  1.0
  O  O68  1  0.27581000  0.81263000  0.96781000  1.0
  O  O69  1  0.46262000  0.18731000  0.53211000  1.0
  O  O70  1  0.72420000  0.18736000  0.03219000  1.0
  O  O71  1  0.53738000  0.81269000  0.46789000  1.0
  O  O72  1  0.82077000  0.65916000  0.00572000  1.0
  O  O73  1  0.16128000  0.34097000  0.49426000  1.0
  O  O74  1  0.17924000  0.34083000  0.99427000  1.0
  O  O75  1  0.83872000  0.65904000  0.50575000  1.0
  O  O76  1  0.67261000  0.84392000  0.07355000  1.0
  O  O77  1  0.82856000  0.15612000  0.42640000  1.0
  O  O78  1  0.32740000  0.15607000  0.92645000  1.0
  O  O79  1  0.17144000  0.84390000  0.57360000  1.0
  O  O80  1  0.09511000  0.99986000  0.75000000  1.0
  O  O81  1  0.90489000  0.00014000  0.25000000  1.0
  O  O82  1  0.22216000  0.36794000  0.80557000  1.0
  O  O83  1  0.85392000  0.63173000  0.69452000  1.0
  O  O84  1  0.77784000  0.63205000  0.19443000  1.0
  O  O85  1  0.14607000  0.36827000  0.30548000  1.0
  O  O86  1  0.71073000  0.42220000  0.88698000  1.0
  O  O87  1  0.28805000  0.57762000  0.61303000  1.0
  O  O88  1  0.28927000  0.57779000  0.11302000  1.0
  O  O89  1  0.71194000  0.42239000  0.38697000  1.0
