# generated using pymatgen
data_CuH18(C9O2)2
_symmetry_space_group_name_H-M   'P 1'
_cell_length_a   5.21874000
_cell_length_b   8.74883000
_cell_length_c   17.46650000
_cell_angle_alpha   87.79380000
_cell_angle_beta   82.55860000
_cell_angle_gamma   81.95760000
_symmetry_Int_Tables_number   1
_chemical_formula_structural   CuH18(C9O2)2
_chemical_formula_sum   'Cu2 H36 C36 O8'
_cell_volume   782.82065685
_cell_formula_units_Z   2
loop_
 _symmetry_equiv_pos_site_id
 _symmetry_equiv_pos_as_xyz
  1  'x, y, z'
loop_
 _atom_site_type_symbol
 _atom_site_label
 _atom_site_symmetry_multiplicity
 _atom_site_fract_x
 _atom_site_fract_y
 _atom_site_fract_z
 _atom_site_occupancy
  Cu  Cu0  1  0.27746000  0.07107000  0.99141000  1.0
  Cu  Cu1  1  0.72254000  0.92894000  0.00859000  1.0
  H  H2  1  0.71790000  0.17482000  0.66230000  1.0
  H  H3  1  0.28208000  0.82519000  0.33770000  1.0
  H  H4  1  0.01698000  0.37554000  0.92942000  1.0
  H  H5  1  0.98304000  0.62445000  0.07057000  1.0
  H  H6  1  0.76028000  0.47277000  0.99375000  1.0
  H  H7  1  0.23977000  0.52724000  0.00625000  1.0
  H  H8  1  0.52347000  0.27218000  0.79133000  1.0
  H  H9  1  0.47653000  0.72784000  0.20867000  1.0
  H  H10  1  0.78430000  0.92438000  0.74635000  1.0
  H  H11  1  0.21568000  0.07562000  0.25365000  1.0
  H  H12  1  0.66522000  0.75182000  0.77606000  1.0
  H  H13  1  0.33478000  0.24817000  0.22394000  1.0
  H  H14  1  0.47509000  0.49355000  0.88262000  1.0
  H  H15  1  0.52494000  0.50647000  0.11738000  1.0
  H  H16  1  0.72492000  0.61292000  0.87853000  1.0
  H  H17  1  0.27513000  0.38709000  0.12147000  1.0
  H  H18  1  0.30048000  0.48168000  0.65422000  1.0
  H  H19  1  0.69952000  0.51832000  0.34577000  1.0
  H  H20  1  0.33658000  0.04851000  0.72397000  1.0
  H  H21  1  0.66336000  0.95148000  0.27604000  1.0
  H  H22  1  0.20179000  0.88977000  0.76657000  1.0
  H  H23  1  0.79820000  0.11020000  0.23344000  1.0
  H  H24  1  0.11055000  0.27680000  0.59361000  1.0
  H  H25  1  0.88942000  0.72319000  0.40638000  1.0
  H  H26  1  0.42555000  0.65977000  0.45166000  1.0
  H  H27  1  0.57448000  0.34023000  0.54834000  1.0
  H  H28  1  0.78069000  0.58191000  0.53434000  1.0
  H  H29  1  0.21932000  0.41809000  0.46567000  1.0
  H  H30  1  0.76595000  0.69948000  0.65975000  1.0
  H  H31  1  0.23405000  0.30052000  0.34025000  1.0
  H  H32  1  0.10577000  0.57808000  0.78308000  1.0
  H  H33  1  0.89423000  0.42193000  0.21691000  1.0
  H  H34  1  0.04126000  0.97997000  0.62464000  1.0
  H  H35  1  0.95871000  0.02001000  0.37537000  1.0
  H  H36  1  0.05537000  0.86058000  0.49831000  1.0
  H  H37  1  0.94464000  0.13941000  0.50169000  1.0
  C  C38  1  0.69117000  0.25357000  0.96291000  1.0
  C  C39  1  0.30884000  0.74644000  0.03708000  1.0
  C  C40  1  0.80599000  0.26181000  0.68921000  1.0
  C  C41  1  0.19400000  0.73819000  0.31079000  1.0
  C  C42  1  0.80422000  0.40163000  0.94176000  1.0
  C  C43  1  0.19580000  0.59838000  0.05824000  1.0
  C  C44  1  0.69616000  0.31663000  0.76186000  1.0
  C  C45  1  0.30385000  0.68337000  0.23814000  1.0
  C  C46  1  0.56935000  0.92787000  0.85798000  1.0
  C  C47  1  0.43063000  0.07213000  0.14202000  1.0
  C  C48  1  0.60988000  0.87772000  0.77464000  1.0
  C  C49  1  0.39009000  0.12228000  0.22536000  1.0
  C  C50  1  0.80251000  0.43129000  0.79645000  1.0
  C  C51  1  0.19749000  0.56873000  0.20355000  1.0
  C  C52  1  0.68766000  0.49323000  0.87465000  1.0
  C  C53  1  0.31237000  0.50678000  0.12534000  1.0
  C  C54  1  0.13185000  0.43394000  0.68411000  1.0
  C  C55  1  0.86814000  0.56606000  0.31589000  1.0
  C  C56  1  0.37642000  0.92207000  0.73062000  1.0
  C  C57  1  0.62356000  0.07791000  0.26938000  1.0
  C  C58  1  0.02423000  0.31987000  0.65022000  1.0
  C  C59  1  0.97576000  0.68012000  0.34978000  1.0
  C  C60  1  0.42010000  0.71326000  0.50726000  1.0
  C  C61  1  0.57990000  0.28673000  0.49274000  1.0
  C  C62  1  0.61746000  0.66956000  0.55358000  1.0
  C  C63  1  0.38256000  0.33045000  0.44642000  1.0
  C  C64  1  0.60798000  0.73680000  0.62536000  1.0
  C  C65  1  0.39202000  0.26319000  0.37464000  1.0
  C  C66  1  0.02202000  0.48825000  0.75681000  1.0
  C  C67  1  0.97799000  0.51175000  0.24318000  1.0
  C  C68  1  0.40094000  0.84929000  0.65229000  1.0
  C  C69  1  0.59905000  0.15071000  0.34771000  1.0
  C  C70  1  0.20453000  0.89283000  0.60472000  1.0
  C  C71  1  0.79546000  0.10716000  0.39528000  1.0
  C  C72  1  0.21324000  0.82594000  0.53320000  1.0
  C  C73  1  0.78676000  0.17405000  0.46681000  1.0
  O  O74  1  0.35614000  0.01106000  0.88187000  1.0
  O  O75  1  0.64385000  0.98894000  0.11814000  1.0
  O  O76  1  0.75479000  0.87931000  0.89777000  1.0
  O  O77  1  0.24520000  0.12070000  0.10223000  1.0
  O  O78  1  0.44611000  0.25791000  0.96380000  1.0
  O  O79  1  0.55389000  0.74208000  0.03620000  1.0
  O  O80  1  0.84632000  0.13448000  0.98045000  1.0
  O  O81  1  0.15368000  0.86554000  0.01955000  1.0
