# generated using pymatgen
data_Co3H16C26N4O13
_symmetry_space_group_name_H-M   'P 1'
_cell_length_a   15.21090000
_cell_length_b   15.23010000
_cell_length_c   22.53920000
_cell_angle_alpha   90.00020000
_cell_angle_beta   90.00010000
_cell_angle_gamma   83.08280000
_symmetry_Int_Tables_number   1
_chemical_formula_structural   Co3H16C26N4O13
_chemical_formula_sum   'Co12 H64 C104 N16 O52'
_cell_volume   5183.50443081
_cell_formula_units_Z   4
loop_
 _symmetry_equiv_pos_site_id
 _symmetry_equiv_pos_as_xyz
  1  'x, y, z'
loop_
 _atom_site_type_symbol
 _atom_site_label
 _atom_site_symmetry_multiplicity
 _atom_site_fract_x
 _atom_site_fract_y
 _atom_site_fract_z
 _atom_site_occupancy
  Co  Co0  1  0.26049000  0.15567000  0.39607000  1.0
  Co  Co1  1  0.73951000  0.84433000  0.89608000  1.0
  Co  Co2  1  0.15568000  0.26097000  0.10395000  1.0
  Co  Co3  1  0.84432000  0.73903000  0.60394000  1.0
  Co  Co4  1  0.21336000  0.21343000  0.24992000  1.0
  Co  Co5  1  0.78664000  0.78657000  0.74992000  1.0
  Co  Co6  1  0.65668000  0.26189000  0.15091000  1.0
  Co  Co7  1  0.34332000  0.73811000  0.65091000  1.0
  Co  Co8  1  0.26206000  0.65692000  0.34910000  1.0
  Co  Co9  1  0.73795000  0.34308000  0.84910000  1.0
  Co  Co10  1  0.70354000  0.29648000  0.00014000  1.0
  Co  Co11  1  0.29646000  0.70352000  0.50014000  1.0
  H  H12  1  0.63631000  0.38616000  0.23800000  1.0
  H  H13  1  0.36369000  0.61384000  0.73799000  1.0
  H  H14  1  0.38648000  0.63648000  0.26211000  1.0
  H  H15  1  0.61352000  0.36352000  0.76210000  1.0
  H  H16  1  0.68105000  0.42080000  0.17915000  1.0
  H  H17  1  0.31895000  0.57920000  0.67914000  1.0
  H  H18  1  0.42099000  0.68135000  0.32095000  1.0
  H  H19  1  0.57901000  0.31865000  0.82094000  1.0
  H  H20  1  0.47759000  0.23528000  0.20531000  1.0
  H  H21  1  0.52241000  0.76471000  0.70531000  1.0
  H  H22  1  0.23545000  0.47792000  0.29492000  1.0
  H  H23  1  0.76455000  0.52209000  0.79491000  1.0
  H  H24  1  0.53540000  0.11517000  0.37611000  1.0
  H  H25  1  0.46460000  0.88485000  0.87610000  1.0
  H  H26  1  0.11515000  0.53535000  0.12408000  1.0
  H  H27  1  0.88484000  0.46464000  0.62407000  1.0
  H  H28  1  0.69684000  0.11343000  0.35327000  1.0
  H  H29  1  0.30316000  0.88659000  0.85326000  1.0
  H  H30  1  0.11344000  0.69661000  0.14678000  1.0
  H  H31  1  0.88655000  0.30339000  0.64677000  1.0
  H  H32  1  0.82647000  0.11036000  0.32602000  1.0
  H  H33  1  0.17353000  0.88965000  0.82601000  1.0
  H  H34  1  0.11041000  0.82621000  0.17388000  1.0
  H  H35  1  0.88961000  0.17379000  0.67388000  1.0
  H  H36  1  0.97920000  0.13320000  0.29364000  1.0
  H  H37  1  0.02080000  0.86680000  0.79363000  1.0
  H  H38  1  0.13323000  0.97880000  0.20612000  1.0
  H  H39  1  0.86678000  0.02119000  0.70613000  1.0
  H  H40  1  0.86479000  0.26100000  0.13665000  1.0
  H  H41  1  0.13522000  0.73899000  0.63665000  1.0
  H  H42  1  0.26102000  0.86494000  0.36326000  1.0
  H  H43  1  0.73899000  0.13506000  0.86326000  1.0
  H  H44  1  0.26876000  0.97474000  0.45246000  1.0
  H  H45  1  0.73125000  0.02527000  0.95246000  1.0
  H  H46  1  0.97451000  0.26913000  0.04753000  1.0
  H  H47  1  0.02549000  0.73087000  0.54752000  1.0
  H  H48  1  0.33958000  0.00976000  0.63504000  1.0
  H  H49  1  0.66042000  0.99025000  0.13503000  1.0
  H  H50  1  0.00973000  0.33946000  0.86487000  1.0
  H  H51  1  0.99027000  0.66054000  0.36486000  1.0
  H  H52  1  0.34263000  0.17108000  0.61339000  1.0
  H  H53  1  0.65736000  0.82893000  0.11339000  1.0
  H  H54  1  0.17119000  0.34274000  0.88656000  1.0
  H  H55  1  0.82881000  0.65725000  0.38655000  1.0
  H  H56  1  0.35264000  0.29947000  0.58706000  1.0
  H  H57  1  0.64736000  0.70054000  0.08707000  1.0
  H  H58  1  0.29993000  0.35253000  0.91290000  1.0
  H  H59  1  0.70007000  0.64746000  0.41290000  1.0
  H  H60  1  0.34829000  0.45402000  0.54940000  1.0
  H  H61  1  0.65172000  0.54598000  0.04941000  1.0
  H  H62  1  0.45466000  0.34771000  0.95055000  1.0
  H  H63  1  0.54533000  0.65228000  0.45054000  1.0
  H  H64  1  0.26676000  0.36241000  0.37946000  1.0
  H  H65  1  0.73324000  0.63760000  0.87946000  1.0
  H  H66  1  0.36253000  0.26707000  0.12062000  1.0
  H  H67  1  0.63747000  0.73293000  0.62061000  1.0
  H  H68  1  0.04565000  0.26708000  0.34796000  1.0
  H  H69  1  0.95435000  0.73291000  0.84795000  1.0
  H  H70  1  0.26705000  0.04609000  0.15193000  1.0
  H  H71  1  0.73296000  0.95392000  0.65192000  1.0
  H  H72  1  0.81364000  0.41571000  0.06144000  1.0
  H  H73  1  0.18636000  0.58430000  0.56144000  1.0
  H  H74  1  0.41476000  0.81413000  0.43862000  1.0
  H  H75  1  0.58525000  0.18587000  0.93860000  1.0
  C  C76  1  0.52403000  0.20760000  0.23915000  1.0
  C  C77  1  0.47597000  0.79240000  0.73915000  1.0
  C  C78  1  0.20776000  0.52422000  0.26102000  1.0
  C  C79  1  0.79223000  0.47577000  0.76101000  1.0
  C  C80  1  0.49444000  0.17495000  0.29254000  1.0
  C  C81  1  0.50556000  0.82505000  0.79254000  1.0
  C  C82  1  0.17508000  0.49455000  0.20767000  1.0
  C  C83  1  0.82491000  0.50544000  0.70766000  1.0
  C  C84  1  0.55767000  0.14039000  0.33421000  1.0
  C  C85  1  0.44233000  0.85963000  0.83420000  1.0
  C  C86  1  0.14042000  0.55764000  0.16598000  1.0
  C  C87  1  0.85957000  0.44235000  0.66596000  1.0
  C  C88  1  0.64690000  0.13970000  0.32126000  1.0
  C  C89  1  0.35310000  0.86032000  0.82125000  1.0
  C  C90  1  0.13972000  0.64680000  0.17885000  1.0
  C  C91  1  0.86027000  0.35320000  0.67884000  1.0
  C  C92  1  0.67193000  0.17431000  0.26703000  1.0
  C  C93  1  0.32807000  0.82570000  0.76702000  1.0
  C  C94  1  0.17442000  0.67192000  0.23303000  1.0
  C  C95  1  0.82558000  0.32808000  0.73303000  1.0
  C  C96  1  0.76430000  0.17953000  0.24999000  1.0
  C  C97  1  0.23570000  0.82048000  0.74999000  1.0
  C  C98  1  0.17968000  0.76423000  0.24995000  1.0
  C  C99  1  0.82033000  0.23577000  0.74995000  1.0
  C  C100  1  0.83667000  0.14506000  0.28485000  1.0
  C  C101  1  0.16333000  0.85494000  0.78485000  1.0
  C  C102  1  0.14517000  0.83646000  0.21504000  1.0
  C  C103  1  0.85483000  0.16353000  0.71504000  1.0
  C  C104  1  0.92159000  0.15674000  0.26682000  1.0
  C  C105  1  0.07842000  0.84326000  0.76682000  1.0
  C  C106  1  0.15683000  0.92133000  0.23299000  1.0
  C  C107  1  0.84317000  0.07867000  0.73299000  1.0
  C  C108  1  0.93355000  0.20016000  0.21309000  1.0
  C  C109  1  0.06646000  0.79983000  0.71309000  1.0
  C  C110  1  0.20021000  0.93347000  0.28673000  1.0
  C  C111  1  0.79980000  0.06653000  0.78673000  1.0
  C  C112  1  0.85852000  0.22926000  0.17949000  1.0
  C  C113  1  0.14149000  0.77073000  0.67949000  1.0
  C  C114  1  0.22937000  0.85857000  0.32038000  1.0
  C  C115  1  0.77064000  0.14143000  0.82038000  1.0
  C  C116  1  0.39744000  0.17888000  0.30527000  1.0
  C  C117  1  0.60256000  0.82113000  0.80527000  1.0
  C  C118  1  0.17905000  0.39762000  0.19500000  1.0
  C  C119  1  0.82094000  0.60238000  0.69499000  1.0
  C  C120  1  0.02500000  0.21736000  0.19483000  1.0
  C  C121  1  0.97501000  0.78263000  0.69482000  1.0
  C  C122  1  0.21717000  0.02497000  0.30494000  1.0
  C  C123  1  0.78285000  0.97503000  0.80494000  1.0
  C  C124  1  0.28631000  0.01583000  0.48910000  1.0
  C  C125  1  0.71369000  0.98418000  0.98910000  1.0
  C  C126  1  0.01561000  0.28659000  0.01084000  1.0
  C  C127  1  0.98438000  0.71340000  0.51084000  1.0
  C  C128  1  0.30512000  0.98010000  0.54534000  1.0
  C  C129  1  0.69489000  0.01990000  0.04534000  1.0
  C  C130  1  0.97991000  0.30519000  0.95457000  1.0
  C  C131  1  0.02008000  0.69481000  0.45457000  1.0
  C  C132  1  0.32545000  0.03687000  0.59086000  1.0
  C  C133  1  0.67455000  0.96314000  0.09086000  1.0
  C  C134  1  0.03684000  0.32546000  0.90907000  1.0
  C  C135  1  0.96316000  0.67454000  0.40906000  1.0
  C  C136  1  0.32726000  0.12592000  0.57853000  1.0
  C  C137  1  0.67274000  0.87409000  0.07853000  1.0
  C  C138  1  0.12596000  0.32740000  0.92143000  1.0
  C  C139  1  0.87404000  0.67259000  0.42142000  1.0
  C  C140  1  0.30909000  0.15710000  0.52084000  1.0
  C  C141  1  0.69091000  0.84291000  0.02084000  1.0
  C  C142  1  0.15712000  0.30937000  0.97914000  1.0
  C  C143  1  0.84287000  0.69062000  0.47913000  1.0
  C  C144  1  0.31043000  0.24957000  0.50291000  1.0
  C  C145  1  0.68956000  0.75044000  0.00291000  1.0
  C  C146  1  0.24974000  0.31069000  0.99707000  1.0
  C  C147  1  0.75026000  0.68931000  0.49707000  1.0
  C  C148  1  0.33371000  0.31513000  0.54136000  1.0
  C  C149  1  0.66629000  0.68487000  0.04136000  1.0
  C  C150  1  0.31553000  0.33366000  0.95863000  1.0
  C  C151  1  0.68447000  0.66633000  0.45863000  1.0
  C  C152  1  0.33168000  0.40100000  0.52070000  1.0
  C  C153  1  0.66833000  0.59900000  0.02070000  1.0
  C  C154  1  0.40155000  0.33139000  0.97930000  1.0
  C  C155  1  0.59845000  0.66861000  0.47930000  1.0
  C  C156  1  0.30670000  0.42059000  0.46186000  1.0
  C  C157  1  0.69330000  0.57941000  0.96186000  1.0
  C  C158  1  0.42098000  0.30654000  0.03818000  1.0
  C  C159  1  0.57902000  0.69345000  0.53818000  1.0
  C  C160  1  0.28610000  0.35124000  0.42569000  1.0
  C  C161  1  0.71390000  0.64876000  0.92569000  1.0
  C  C162  1  0.35139000  0.28631000  0.07436000  1.0
  C  C163  1  0.64861000  0.71368000  0.57435000  1.0
  C  C164  1  0.30419000  0.88301000  0.55621000  1.0
  C  C165  1  0.69582000  0.11699000  0.05621000  1.0
  C  C166  1  0.88280000  0.30435000  0.94336000  1.0
  C  C167  1  0.11719000  0.69565000  0.44336000  1.0
  C  C168  1  0.30027000  0.51552000  0.44137000  1.0
  C  C169  1  0.69972000  0.48449000  0.94137000  1.0
  C  C170  1  0.51577000  0.29958000  0.05901000  1.0
  C  C171  1  0.48424000  0.70042000  0.55901000  1.0
  C  C172  1  0.10766000  0.23420000  0.36763000  1.0
  C  C173  1  0.89233000  0.76580000  0.86762000  1.0
  C  C174  1  0.23418000  0.10802000  0.13225000  1.0
  C  C175  1  0.76582000  0.89198000  0.63224000  1.0
  C  C176  1  0.76733000  0.40195000  0.09714000  1.0
  C  C177  1  0.23266000  0.59805000  0.59714000  1.0
  C  C178  1  0.40137000  0.76767000  0.40295000  1.0
  C  C179  1  0.59864000  0.23233000  0.90295000  1.0
  N  N180  1  0.61028000  0.20776000  0.22680000  1.0
  N  N181  1  0.38972000  0.79224000  0.72680000  1.0
  N  N182  1  0.20790000  0.61040000  0.27330000  1.0
  N  N183  1  0.79210000  0.38960000  0.77330000  1.0
  N  N184  1  0.77588000  0.22128000  0.19784000  1.0
  N  N185  1  0.22412000  0.77872000  0.69784000  1.0
  N  N186  1  0.22146000  0.77597000  0.30208000  1.0
  N  N187  1  0.77855000  0.22403000  0.80208000  1.0
  N  N188  1  0.28840000  0.10184000  0.47704000  1.0
  N  N189  1  0.71160000  0.89817000  0.97705000  1.0
  N  N190  1  0.10174000  0.28877000  0.02292000  1.0
  N  N191  1  0.89826000  0.71122000  0.52292000  1.0
  N  N192  1  0.28760000  0.26797000  0.44570000  1.0
  N  N193  1  0.71240000  0.73203000  0.94570000  1.0
  N  N194  1  0.26802000  0.28798000  0.05432000  1.0
  N  N195  1  0.73199000  0.71202000  0.55432000  1.0
  O  O196  1  0.34482000  0.20712000  0.26409000  1.0
  O  O197  1  0.65518000  0.79289000  0.76408000  1.0
  O  O198  1  0.20744000  0.34513000  0.23619000  1.0
  O  O199  1  0.79254000  0.65487000  0.73618000  1.0
  O  O200  1  0.37755000  0.15403000  0.35719000  1.0
  O  O201  1  0.62245000  0.84596000  0.85719000  1.0
  O  O202  1  0.15410000  0.37770000  0.14310000  1.0
  O  O203  1  0.84590000  0.62230000  0.64309000  1.0
  O  O204  1  0.03863000  0.23314000  0.14035000  1.0
  O  O205  1  0.96137000  0.76687000  0.64034000  1.0
  O  O206  1  0.23289000  0.03871000  0.35942000  1.0
  O  O207  1  0.76711000  0.96129000  0.85942000  1.0
  O  O208  1  0.08022000  0.21519000  0.23710000  1.0
  O  O209  1  0.91979000  0.78478000  0.73710000  1.0
  O  O210  1  0.21477000  0.08005000  0.26261000  1.0
  O  O211  1  0.78526000  0.91994000  0.76261000  1.0
  O  O212  1  0.28702000  0.83686000  0.51180000  1.0
  O  O213  1  0.71298000  0.16315000  0.01180000  1.0
  O  O214  1  0.83573000  0.28769000  0.98747000  1.0
  O  O215  1  0.16426000  0.71231000  0.48747000  1.0
  O  O216  1  0.32085000  0.85702000  0.60908000  1.0
  O  O217  1  0.67915000  0.14299000  0.10909000  1.0
  O  O218  1  0.85723000  0.32086000  0.89040000  1.0
  O  O219  1  0.14277000  0.67915000  0.39040000  1.0
  O  O220  1  0.28445000  0.53223000  0.38681000  1.0
  O  O221  1  0.71555000  0.46777000  0.88681000  1.0
  O  O222  1  0.53192000  0.28421000  0.11368000  1.0
  O  O223  1  0.46808000  0.71579000  0.61368000  1.0
  O  O224  1  0.31088000  0.57026000  0.48233000  1.0
  O  O225  1  0.68911000  0.42974000  0.98233000  1.0
  O  O226  1  0.57150000  0.30910000  0.01844000  1.0
  O  O227  1  0.42851000  0.69090000  0.51844000  1.0
  O  O228  1  0.18044000  0.24008000  0.33877000  1.0
  O  O229  1  0.81955000  0.75991000  0.83876000  1.0
  O  O230  1  0.24018000  0.18073000  0.16108000  1.0
  O  O231  1  0.75982000  0.81927000  0.66108000  1.0
  O  O232  1  0.10828000  0.19316000  0.41570000  1.0
  O  O233  1  0.89171000  0.80684000  0.91569000  1.0
  O  O234  1  0.19307000  0.10867000  0.08419000  1.0
  O  O235  1  0.80692000  0.89132000  0.58418000  1.0
  O  O236  1  0.72656000  0.33296000  0.08860000  1.0
  O  O237  1  0.27345000  0.66704000  0.58860000  1.0
  O  O238  1  0.33258000  0.72646000  0.41149000  1.0
  O  O239  1  0.66741000  0.27355000  0.91148000  1.0
  O  O240  1  0.75873000  0.45133000  0.14169000  1.0
  O  O241  1  0.24127000  0.54867000  0.64169000  1.0
  O  O242  1  0.45109000  0.75902000  0.35856000  1.0
  O  O243  1  0.54891000  0.24099000  0.85855000  1.0
  O  O244  1  0.63024000  0.38910000  0.19510000  1.0
  O  O245  1  0.36975000  0.61090000  0.69510000  1.0
  O  O246  1  0.38945000  0.63049000  0.30500000  1.0
  O  O247  1  0.61055000  0.36951000  0.80500000  1.0
