# generated using pymatgen
data_NaH7(C2O3)2
_symmetry_space_group_name_H-M   'P 1'
_cell_length_a   5.87707000
_cell_length_b   6.25315000
_cell_length_c   9.92092000
_cell_angle_alpha   90.00220000
_cell_angle_beta   73.34500000
_cell_angle_gamma   90.00030000
_symmetry_Int_Tables_number   1
_chemical_formula_structural   NaH7(C2O3)2
_chemical_formula_sum   'Na2 H14 C8 O12'
_cell_volume   349.30023430
_cell_formula_units_Z   2
loop_
 _symmetry_equiv_pos_site_id
 _symmetry_equiv_pos_as_xyz
  1  'x, y, z'
loop_
 _atom_site_type_symbol
 _atom_site_label
 _atom_site_symmetry_multiplicity
 _atom_site_fract_x
 _atom_site_fract_y
 _atom_site_fract_z
 _atom_site_occupancy
  Na  Na0  1  0.00000000  0.00000000  0.00000000  1.0
  Na  Na1  1  0.00000000  0.50000000  0.00000000  1.0
  H  H2  1  0.40480000  0.75000000  0.46159000  1.0
  H  H3  1  0.59520000  0.25000000  0.53841000  1.0
  H  H4  1  0.01372000  0.75003000  0.27877000  1.0
  H  H5  1  0.98628000  0.24997000  0.72123000  1.0
  H  H6  1  0.98634000  0.75002000  0.51757000  1.0
  H  H7  1  0.01365000  0.24998000  0.48244000  1.0
  H  H8  1  0.88021000  0.74999000  0.78316000  1.0
  H  H9  1  0.11978000  0.25001000  0.21684000  1.0
  H  H10  1  0.16113000  0.74999000  0.74302000  1.0
  H  H11  1  0.83886000  0.25001000  0.25697000  1.0
  H  H12  1  0.43372000  0.75002000  0.06897000  1.0
  H  H13  1  0.56627000  0.24999000  0.93103000  1.0
  H  H14  1  0.42629000  0.75001000  0.91324000  1.0
  H  H15  1  0.57370000  0.25000000  0.08676000  1.0
  C  C16  1  0.83511000  0.75002000  0.35200000  1.0
  C  C17  1  0.16489000  0.24998000  0.64800000  1.0
  C  C18  1  0.81920000  0.75001000  0.49047000  1.0
  C  C19  1  0.18080000  0.24999000  0.50953000  1.0
  C  C20  1  0.64678000  0.75001000  0.27804000  1.0
  C  C21  1  0.35323000  0.24999000  0.72196000  1.0
  C  C22  1  0.60570000  0.75000000  0.61598000  1.0
  C  C23  1  0.39429000  0.25000000  0.38402000  1.0
  O  O24  1  0.42202000  0.75001000  0.34923000  1.0
  O  O25  1  0.57799000  0.24999000  0.65077000  1.0
  O  O26  1  0.70815000  0.75001000  0.14624000  1.0
  O  O27  1  0.29186000  0.24999000  0.85376000  1.0
  O  O28  1  0.39673000  0.74999000  0.59773000  1.0
  O  O29  1  0.60326000  0.25001000  0.40227000  1.0
  O  O30  1  0.63519000  0.75000000  0.73664000  1.0
  O  O31  1  0.36479000  0.25001000  0.26337000  1.0
  O  O32  1  0.01612000  0.74999000  0.82461000  1.0
  O  O33  1  0.98388000  0.25001000  0.17539000  1.0
  O  O34  1  0.32209000  0.75001000  0.01143000  1.0
  O  O35  1  0.67791000  0.24999000  0.98857000  1.0
