# generated using pymatgen
data_Co2H18C12O11
_symmetry_space_group_name_H-M   'P 1'
_cell_length_a   7.72944000
_cell_length_b   9.73837000
_cell_length_c   10.84397607
_cell_angle_alpha   81.78704615
_cell_angle_beta   69.12133153
_cell_angle_gamma   89.97690000
_symmetry_Int_Tables_number   1
_chemical_formula_structural   Co2H18C12O11
_chemical_formula_sum   'Co4 H36 C24 O22'
_cell_volume   753.70365414
_cell_formula_units_Z   2
loop_
 _symmetry_equiv_pos_site_id
 _symmetry_equiv_pos_as_xyz
  1  'x, y, z'
loop_
 _atom_site_type_symbol
 _atom_site_label
 _atom_site_symmetry_multiplicity
 _atom_site_fract_x
 _atom_site_fract_y
 _atom_site_fract_z
 _atom_site_occupancy
  Co  Co0  1  0.29898000  0.06964000  0.04945000  1.0
  Co  Co1  1  0.34845000  0.43037000  0.95059000  1.0
  Co  Co2  1  0.70104000  0.93041000  0.95054000  1.0
  Co  Co3  1  0.65160000  0.56960000  0.04939000  1.0
  H  H4  1  0.20031000  0.60628000  0.41198000  1.0
  H  H5  1  0.61173000  0.89381000  0.58795000  1.0
  H  H6  1  0.79970000  0.39371000  0.58801000  1.0
  H  H7  1  0.38822000  0.10621000  0.41205000  1.0
  H  H8  1  0.97914000  0.60658000  0.39363000  1.0
  H  H9  1  0.37219000  0.89336000  0.60650000  1.0
  H  H10  1  0.02088000  0.39341000  0.60636000  1.0
  H  H11  1  0.62779000  0.10665000  0.39352000  1.0
  H  H12  1  0.89400000  0.80832000  0.51940000  1.0
  H  H13  1  0.41317000  0.69165000  0.48060000  1.0
  H  H14  1  0.10600000  0.19168000  0.48059000  1.0
  H  H15  1  0.58682000  0.30838000  0.51939000  1.0
  H  H16  1  0.05985000  0.75384000  0.59296000  1.0
  H  H17  1  0.65249000  0.74633000  0.40699000  1.0
  H  H18  1  0.94017000  0.24615000  0.40703000  1.0
  H  H19  1  0.34750000  0.25369000  0.59300000  1.0
  H  H20  1  0.31111000  0.89213000  0.39762000  1.0
  H  H21  1  0.70895000  0.60824000  0.60214000  1.0
  H  H22  1  0.68890000  0.10786000  0.60237000  1.0
  H  H23  1  0.29105000  0.39177000  0.39784000  1.0
  H  H24  1  0.13041000  0.99310000  0.37215000  1.0
  H  H25  1  0.50305000  0.50697000  0.62773000  1.0
  H  H26  1  0.86958000  0.00691000  0.62784000  1.0
  H  H27  1  0.49694000  0.49304000  0.37226000  1.0
  H  H28  1  0.05147000  0.25848000  0.08030000  1.0
  H  H29  1  0.13170000  0.24156000  0.91980000  1.0
  H  H30  1  0.94850000  0.74149000  0.91971000  1.0
  H  H31  1  0.86829000  0.75842000  0.08022000  1.0
  H  H32  1  0.14628000  0.99759000  0.86846000  1.0
  H  H33  1  0.01473000  0.50240000  0.13179000  1.0
  H  H34  1  0.85376000  0.00242000  0.13153000  1.0
  H  H35  1  0.98528000  0.49759000  0.86830000  1.0
  H  H36  1  0.36046000  0.95276000  0.83068000  1.0
  H  H37  1  0.19115000  0.54767000  0.16920000  1.0
  H  H38  1  0.63952000  0.04725000  0.16932000  1.0
  H  H39  1  0.80884000  0.45243000  0.83074000  1.0
  C  C40  1  0.03691000  0.84104000  0.21352000  1.0
  C  C41  1  0.25038000  0.65887000  0.78644000  1.0
  C  C42  1  0.96311000  0.15897000  0.78649000  1.0
  C  C43  1  0.74961000  0.34113000  0.21356000  1.0
  C  C44  1  0.17248000  0.79344000  0.28374000  1.0
  C  C45  1  0.45613000  0.70654000  0.71624000  1.0
  C  C46  1  0.82754000  0.20658000  0.71626000  1.0
  C  C47  1  0.54388000  0.29345000  0.28377000  1.0
  C  C48  1  0.36024000  0.77806000  0.17707000  1.0
  C  C49  1  0.53712000  0.72194000  0.82294000  1.0
  C  C50  1  0.63978000  0.22194000  0.82292000  1.0
  C  C51  1  0.46289000  0.27802000  0.17708000  1.0
  C  C52  1  0.09053000  0.67174000  0.39977000  1.0
  C  C53  1  0.48986000  0.82825000  0.60026000  1.0
  C  C54  1  0.90948000  0.32826000  0.60023000  1.0
  C  C55  1  0.51013000  0.17174000  0.39973000  1.0
  C  C56  1  0.03757000  0.77889000  0.49812000  1.0
  C  C57  1  0.53542000  0.72116000  0.50184000  1.0
  C  C58  1  0.96243000  0.22112000  0.50188000  1.0
  C  C59  1  0.46458000  0.27885000  0.49814000  1.0
  C  C60  1  0.17435000  0.88751000  0.38880000  1.0
  C  C61  1  0.56332000  0.61264000  0.61109000  1.0
  C  C62  1  0.82564000  0.11250000  0.61120000  1.0
  C  C63  1  0.43669000  0.38738000  0.38888000  1.0
  O  O64  1  0.04239000  0.97147000  0.16736000  1.0
  O  O65  1  0.20973000  0.52845000  0.83271000  1.0
  O  O66  1  0.95758000  0.02851000  0.83264000  1.0
  O  O67  1  0.79022000  0.47155000  0.16733000  1.0
  O  O68  1  0.92829000  0.75074000  0.20411000  1.0
  O  O69  1  0.13234000  0.74917000  0.79582000  1.0
  O  O70  1  0.07177000  0.24927000  0.79585000  1.0
  O  O71  1  0.86765000  0.25082000  0.20418000  1.0
  O  O72  1  0.43167000  0.88608000  0.08939000  1.0
  O  O73  1  0.52044000  0.61409000  0.91087000  1.0
  O  O74  1  0.56832000  0.11395000  0.91061000  1.0
  O  O75  1  0.47959000  0.38590000  0.08914000  1.0
  O  O76  1  0.43573000  0.66302000  0.17997000  1.0
  O  O77  1  0.61577000  0.83689000  0.81985000  1.0
  O  O78  1  0.56423000  0.33695000  0.82004000  1.0
  O  O79  1  0.38422000  0.16312000  0.18013000  1.0
  O  O80  1  0.16934000  0.25006000  0.00002000  1.0
  O  O81  1  0.83068000  0.74994000  0.99998000  1.0
  O  O82  1  0.25804000  0.99155000  0.89585000  1.0
  O  O83  1  0.15385000  0.50791000  0.10457000  1.0
  O  O84  1  0.74196000  0.00845000  0.10416000  1.0
  O  O85  1  0.84616000  0.49195000  0.89552000  1.0
