# generated using pymatgen
data_Cd2H14C4SO15
_symmetry_space_group_name_H-M   'P 1'
_cell_length_a   8.08390000
_cell_length_b   9.27818000
_cell_length_c   20.94600000
_cell_angle_alpha   90.00000000
_cell_angle_beta   90.00000000
_cell_angle_gamma   90.00000000
_symmetry_Int_Tables_number   1
_chemical_formula_structural   Cd2H14C4SO15
_chemical_formula_sum   'Cd8 H56 C16 S4 O60'
_cell_volume   1571.03125586
_cell_formula_units_Z   4
loop_
 _symmetry_equiv_pos_site_id
 _symmetry_equiv_pos_as_xyz
  1  'x, y, z'
loop_
 _atom_site_type_symbol
 _atom_site_label
 _atom_site_symmetry_multiplicity
 _atom_site_fract_x
 _atom_site_fract_y
 _atom_site_fract_z
 _atom_site_occupancy
  Cd  Cd0  1  0.48018000  0.41292000  0.28365000  1.0
  Cd  Cd1  1  0.01980000  0.58708000  0.78365000  1.0
  Cd  Cd2  1  0.51981000  0.91291000  0.21635000  1.0
  Cd  Cd3  1  0.98018000  0.08708000  0.71635000  1.0
  Cd  Cd4  1  0.63423000  0.38187000  0.00914000  1.0
  Cd  Cd5  1  0.86578000  0.61813000  0.50914000  1.0
  Cd  Cd6  1  0.36578000  0.88187000  0.49086000  1.0
  Cd  Cd7  1  0.13423000  0.11813000  0.99086000  1.0
  H  H8  1  0.47580000  0.63798000  0.37853000  1.0
  H  H9  1  0.02419000  0.36202000  0.87853000  1.0
  H  H10  1  0.52419000  0.13799000  0.12147000  1.0
  H  H11  1  0.97580000  0.86202000  0.62147000  1.0
  H  H12  1  0.65001000  0.55353000  0.38451000  1.0
  H  H13  1  0.84998000  0.44647000  0.88451000  1.0
  H  H14  1  0.34998000  0.05354000  0.11549000  1.0
  H  H15  1  0.15002000  0.94646000  0.61549000  1.0
  H  H16  1  0.59880000  0.55335000  0.87194000  1.0
  H  H17  1  0.90120000  0.44665000  0.37194000  1.0
  H  H18  1  0.40120000  0.05335000  0.62806000  1.0
  H  H19  1  0.09879000  0.94665000  0.12806000  1.0
  H  H20  1  0.59633000  0.38766000  0.85987000  1.0
  H  H21  1  0.90367000  0.61234000  0.35987000  1.0
  H  H22  1  0.40367000  0.88766000  0.64013000  1.0
  H  H23  1  0.09632000  0.11234000  0.14013000  1.0
  H  H24  1  0.77411000  0.49511000  0.20733000  1.0
  H  H25  1  0.72588000  0.50489000  0.70733000  1.0
  H  H26  1  0.22589000  0.99511000  0.29267000  1.0
  H  H27  1  0.27411000  0.00489000  0.79267000  1.0
  H  H28  1  0.81124000  0.35866000  0.25277000  1.0
  H  H29  1  0.68875000  0.64133000  0.75276000  1.0
  H  H30  1  0.18876000  0.85866000  0.24724000  1.0
  H  H31  1  0.31124000  0.14133000  0.74723000  1.0
  H  H32  1  0.83666000  0.57292000  0.08481000  1.0
  H  H33  1  0.66335000  0.42707000  0.58481000  1.0
  H  H34  1  0.16335000  0.07293000  0.41519000  1.0
  H  H35  1  0.33666000  0.92707000  0.91519000  1.0
  H  H36  1  0.94406000  0.46245000  0.04560000  1.0
  H  H37  1  0.55596000  0.53754000  0.54560000  1.0
  H  H38  1  0.05595000  0.96246000  0.45440000  1.0
  H  H39  1  0.44406000  0.03755000  0.95440000  1.0
  H  H40  1  0.78903000  0.20370000  0.10644000  1.0
  H  H41  1  0.71096000  0.79628000  0.60644000  1.0
  H  H42  1  0.21097000  0.70371000  0.39356000  1.0
  H  H43  1  0.28903000  0.29629000  0.89356000  1.0
  H  H44  1  0.70281000  0.31283000  0.15451000  1.0
  H  H45  1  0.79719000  0.68716000  0.65451000  1.0
  H  H46  1  0.29719000  0.81284000  0.34549000  1.0
  H  H47  1  0.20281000  0.18716000  0.84549000  1.0
  H  H48  1  0.48676000  0.65544000  0.07348000  1.0
  H  H49  1  0.01325000  0.34455000  0.57349000  1.0
  H  H50  1  0.51324000  0.15545000  0.42652000  1.0
  H  H51  1  0.98676000  0.84455000  0.92651000  1.0
  H  H52  1  0.25664000  0.32101000  0.19025000  1.0
  H  H53  1  0.24336000  0.67899000  0.69026000  1.0
  H  H54  1  0.74337000  0.82101000  0.30975000  1.0
  H  H55  1  0.75663000  0.17900000  0.80974000  1.0
  H  H56  1  0.21111000  0.60439000  0.06032000  1.0
  H  H57  1  0.28890000  0.39562000  0.56033000  1.0
  H  H58  1  0.78889000  0.10439000  0.43967000  1.0
  H  H59  1  0.71111000  0.89562000  0.93967000  1.0
  H  H60  1  0.16572000  0.52942000  0.16309000  1.0
  H  H61  1  0.33430000  0.47058000  0.66310000  1.0
  H  H62  1  0.83430000  0.02943000  0.33691000  1.0
  H  H63  1  0.66570000  0.97060000  0.83691000  1.0
  C  C64  1  0.25310000  0.38009000  0.04597000  1.0
  C  C65  1  0.24691000  0.61990000  0.54596000  1.0
  C  C66  1  0.74692000  0.88011000  0.45404000  1.0
  C  C67  1  0.75310000  0.11992000  0.95403000  1.0
  C  C68  1  0.30270000  0.52284000  0.07503000  1.0
  C  C69  1  0.19732000  0.47717000  0.57503000  1.0
  C  C70  1  0.69731000  0.02284000  0.42497000  1.0
  C  C71  1  0.80270000  0.97716000  0.92496000  1.0
  C  C72  1  0.29584000  0.51178000  0.14903000  1.0
  C  C73  1  0.20417000  0.48823000  0.64905000  1.0
  C  C74  1  0.70417000  0.01177000  0.35096000  1.0
  C  C75  1  0.79582000  0.98822000  0.85096000  1.0
  C  C76  1  0.39268000  0.63745000  0.17826000  1.0
  C  C77  1  0.10734000  0.36254000  0.67826000  1.0
  C  C78  1  0.60734000  0.13746000  0.32174000  1.0
  C  C79  1  0.89263000  0.86254000  0.82174000  1.0
  S  S80  1  0.10036000  0.26149000  0.29588000  1.0
  S  S81  1  0.39964000  0.73852000  0.79588000  1.0
  S  S82  1  0.89964000  0.76147000  0.20412000  1.0
  S  S83  1  0.60036000  0.23851000  0.70412000  1.0
  O  O84  1  0.21243000  0.38247000  0.31359000  1.0
  O  O85  1  0.28757000  0.61754000  0.81359000  1.0
  O  O86  1  0.78759000  0.88245000  0.18642000  1.0
  O  O87  1  0.71243000  0.11754000  0.68641000  1.0
  O  O88  1  0.14594000  0.12773000  0.33202000  1.0
  O  O89  1  0.35405000  0.87226000  0.83202000  1.0
  O  O90  1  0.85405000  0.62773000  0.16798000  1.0
  O  O91  1  0.64594000  0.37226000  0.66798000  1.0
  O  O92  1  0.11010000  0.23206000  0.22564000  1.0
  O  O93  1  0.38988000  0.76795000  0.72564000  1.0
  O  O94  1  0.88988000  0.73206000  0.27436000  1.0
  O  O95  1  0.61010000  0.26794000  0.77436000  1.0
  O  O96  1  0.92789000  0.30415000  0.31366000  1.0
  O  O97  1  0.57211000  0.69584000  0.81367000  1.0
  O  O98  1  0.07212000  0.80415000  0.18633000  1.0
  O  O99  1  0.42787000  0.19585000  0.68633000  1.0
  O  O100  1  0.53064000  0.54292000  0.37606000  1.0
  O  O101  1  0.96935000  0.45709000  0.87607000  1.0
  O  O102  1  0.46935000  0.04292000  0.12394000  1.0
  O  O103  1  0.03064000  0.95708000  0.62393000  1.0
  O  O104  1  0.62472000  0.45903000  0.89278000  1.0
  O  O105  1  0.87527000  0.54097000  0.39279000  1.0
  O  O106  1  0.37527000  0.95902000  0.60722000  1.0
  O  O107  1  0.12471000  0.04097000  0.10722000  1.0
  O  O108  1  0.72684000  0.40055000  0.22275000  1.0
  O  O109  1  0.77315000  0.59944000  0.72275000  1.0
  O  O110  1  0.27316000  0.90055000  0.27725000  1.0
  O  O111  1  0.22683000  0.09945000  0.77725000  1.0
  O  O112  1  0.84659000  0.52781000  0.04189000  1.0
  O  O113  1  0.65342000  0.47220000  0.54189000  1.0
  O  O114  1  0.15342000  0.02781000  0.45811000  1.0
  O  O115  1  0.34659000  0.97219000  0.95811000  1.0
  O  O116  1  0.68965000  0.26193000  0.11194000  1.0
  O  O117  1  0.81035000  0.73807000  0.61194000  1.0
  O  O118  1  0.31035000  0.76193000  0.38807000  1.0
  O  O119  1  0.18965000  0.23807000  0.88807000  1.0
  O  O120  1  0.35981000  0.30301000  0.01703000  1.0
  O  O121  1  0.14020000  0.69698000  0.51704000  1.0
  O  O122  1  0.64021000  0.80303000  0.48297000  1.0
  O  O123  1  0.85980000  0.19698000  0.98297000  1.0
  O  O124  1  0.10410000  0.33932000  0.05200000  1.0
  O  O125  1  0.39591000  0.66068000  0.55201000  1.0
  O  O126  1  0.89592000  0.83933000  0.44800000  1.0
  O  O127  1  0.60409000  0.16069000  0.94799000  1.0
  O  O128  1  0.46202000  0.56338000  0.05103000  1.0
  O  O129  1  0.03800000  0.43662000  0.55104000  1.0
  O  O130  1  0.53801000  0.06338000  0.44896000  1.0
  O  O131  1  0.96202000  0.93663000  0.94895000  1.0
  O  O132  1  0.35397000  0.37749000  0.17319000  1.0
  O  O133  1  0.14601000  0.62252000  0.67320000  1.0
  O  O134  1  0.64602000  0.87747000  0.32681000  1.0
  O  O135  1  0.85396000  0.12252000  0.82680000  1.0
  O  O136  1  0.41788000  0.74696000  0.14288000  1.0
  O  O137  1  0.08213000  0.25303000  0.64290000  1.0
  O  O138  1  0.58213000  0.24698000  0.35711000  1.0
  O  O139  1  0.91784000  0.75303000  0.85711000  1.0
  O  O140  1  0.44170000  0.63173000  0.23560000  1.0
  O  O141  1  0.05831000  0.36826000  0.73561000  1.0
  O  O142  1  0.55830000  0.13174000  0.26440000  1.0
  O  O143  1  0.94169000  0.86827000  0.76440000  1.0
