# generated using pymatgen
data_Eu2H40C52O19
_symmetry_space_group_name_H-M   'P 1'
_cell_length_a   7.08340000
_cell_length_b   14.46570000
_cell_length_c   16.90839267
_cell_angle_alpha   75.65090716
_cell_angle_beta   77.90911602
_cell_angle_gamma   89.99980000
_symmetry_Int_Tables_number   1
_chemical_formula_structural   Eu2H40C52O19
_chemical_formula_sum   'Eu2 H40 C52 O19'
_cell_volume   1638.79184690
_cell_formula_units_Z   1
loop_
 _symmetry_equiv_pos_site_id
 _symmetry_equiv_pos_as_xyz
  1  'x, y, z'
loop_
 _atom_site_type_symbol
 _atom_site_label
 _atom_site_symmetry_multiplicity
 _atom_site_fract_x
 _atom_site_fract_y
 _atom_site_fract_z
 _atom_site_occupancy
  Eu  Eu0  1  0.49971000  0.03002000  0.50279000  1.0
  Eu  Eu1  1  0.00250000  0.96998000  0.49721000  1.0
  H  H2  1  0.69947000  0.46421000  0.10648000  1.0
  H  H3  1  0.80598000  0.53578000  0.89351000  1.0
  H  H4  1  0.67175000  0.57145000  0.02989000  1.0
  H  H5  1  0.70166000  0.42855000  0.97009000  1.0
  H  H6  1  0.11855000  0.50075000  0.10717000  1.0
  H  H7  1  0.22573000  0.49925000  0.89283000  1.0
  H  H8  1  0.09759000  0.57713000  0.17737000  1.0
  H  H9  1  0.27498000  0.42287000  0.82262000  1.0
  H  H10  1  0.61025000  0.66265000  0.12944000  1.0
  H  H11  1  0.73967000  0.33736000  0.87056000  1.0
  H  H12  1  0.62919000  0.55848000  0.21079000  1.0
  H  H13  1  0.84001000  0.44153000  0.78920000  1.0
  H  H14  1  0.03949000  0.72407000  0.07405000  1.0
  H  H15  1  0.11359000  0.27593000  0.92594000  1.0
  H  H16  1  0.12083000  0.64733000  0.00625000  1.0
  H  H17  1  0.12709000  0.35266000  0.99375000  1.0
  H  H18  1  0.39736000  0.64740000  0.25270000  1.0
  H  H19  1  0.65009000  0.35264000  0.74728000  1.0
  H  H20  1  0.18132000  0.73101000  0.34396000  1.0
  H  H21  1  0.52526000  0.26902000  0.65603000  1.0
  H  H22  1  0.67155000  0.88579000  0.37165000  1.0
  H  H23  1  0.04314000  0.11419000  0.62836000  1.0
  H  H24  1  0.89212000  0.80260000  0.28002000  1.0
  H  H25  1  0.17211000  0.19738000  0.71999000  1.0
  H  H26  1  0.71698000  0.78118000  0.86107000  1.0
  H  H27  1  0.57809000  0.21884000  0.13892000  1.0
  H  H28  1  0.87939000  0.87882000  0.71929000  1.0
  H  H29  1  0.59870000  0.12120000  0.28071000  1.0
  H  H30  1  0.41086000  0.88777000  0.80215000  1.0
  H  H31  1  0.21302000  0.11220000  0.19785000  1.0
  H  H32  1  0.25180000  0.79182000  0.94383000  1.0
  H  H33  1  0.19564000  0.20815000  0.05617000  1.0
  H  H34  1  0.30380000  0.44429000  0.19151000  1.0
  H  H35  1  0.49531000  0.55572000  0.80850000  1.0
  H  H36  1  0.46674000  0.32026000  0.27891000  1.0
  H  H37  1  0.74563000  0.67975000  0.72110000  1.0
  H  H38  1  0.91608000  0.20428000  0.43476000  1.0
  H  H39  1  0.35082000  0.79571000  0.56524000  1.0
  H  H40  1  0.74852000  0.32447000  0.34649000  1.0
  H  H41  1  0.09501000  0.67552000  0.65350000  1.0
  C  C42  1  0.87318000  0.58891000  0.10535000  1.0
  C  C43  1  0.97854000  0.41108000  0.89465000  1.0
  C  C44  1  0.77687000  0.52822000  0.06074000  1.0
  C  C45  1  0.83763000  0.47177000  0.93925000  1.0
  C  C46  1  0.01617000  0.53092000  0.15160000  1.0
  C  C47  1  0.16777000  0.46908000  0.84840000  1.0
  C  C48  1  0.70958000  0.62140000  0.16527000  1.0
  C  C49  1  0.87485000  0.37859000  0.83473000  1.0
  C  C50  1  0.99269000  0.67387000  0.04154000  1.0
  C  C51  1  0.03426000  0.32613000  0.95845000  1.0
  C  C52  1  0.65930000  0.72154000  0.25922000  1.0
  C  C53  1  0.91851000  0.27846000  0.74078000  1.0
  C  C54  1  0.45896000  0.70023000  0.27739000  1.0
  C  C55  1  0.73635000  0.29980000  0.72260000  1.0
  C  C56  1  0.33710000  0.74674000  0.32882000  1.0
  C  C57  1  0.66591000  0.25328000  0.67117000  1.0
  C  C58  1  0.41189000  0.81452000  0.36224000  1.0
  C  C59  1  0.77409000  0.18549000  0.63776000  1.0
  C  C60  1  0.61280000  0.83412000  0.34484000  1.0
  C  C61  1  0.95761000  0.16588000  0.65516000  1.0
  C  C62  1  0.73615000  0.78781000  0.29390000  1.0
  C  C63  1  0.03002000  0.21218000  0.70610000  1.0
  C  C64  1  0.97457000  0.77852000  0.91032000  1.0
  C  C65  1  0.88491000  0.22148000  0.08968000  1.0
  C  C66  1  0.86863000  0.80581000  0.84758000  1.0
  C  C67  1  0.71624000  0.19420000  0.15241000  1.0
  C  C68  1  0.95908000  0.86067000  0.76898000  1.0
  C  C69  1  0.72808000  0.13934000  0.23102000  1.0
  C  C70  1  0.15608000  0.88913000  0.75186000  1.0
  C  C71  1  0.90795000  0.11087000  0.24814000  1.0
  C  C72  1  0.25874000  0.86420000  0.81581000  1.0
  C  C73  1  0.07457000  0.13579000  0.18419000  1.0
  C  C74  1  0.16974000  0.80952000  0.89488000  1.0
  C  C75  1  0.06463000  0.19047000  0.10512000  1.0
  C  C76  1  0.26272000  0.94007000  0.66721000  1.0
  C  C77  1  0.92994000  0.05993000  0.33279000  1.0
  C  C78  1  0.01464000  0.39240000  0.26366000  1.0
  C  C79  1  0.27829000  0.60760000  0.73635000  1.0
  C  C80  1  0.21747000  0.39201000  0.24460000  1.0
  C  C81  1  0.46206000  0.60800000  0.75541000  1.0
  C  C82  1  0.30970000  0.32273000  0.29385000  1.0
  C  C83  1  0.60353000  0.67729000  0.70616000  1.0
  C  C84  1  0.20264000  0.25449000  0.36252000  1.0
  C  C85  1  0.56514000  0.74552000  0.63749000  1.0
  C  C86  1  0.00015000  0.25689000  0.38143000  1.0
  C  C87  1  0.38157000  0.74311000  0.61857000  1.0
  C  C88  1  0.90588000  0.32452000  0.33247000  1.0
  C  C89  1  0.23835000  0.67547000  0.66753000  1.0
  C  C90  1  0.30281000  0.17942000  0.41189000  1.0
  C  C91  1  0.71468000  0.82059000  0.58812000  1.0
  C  C92  1  0.27597000  0.86361000  0.41447000  1.0
  C  C93  1  0.69040000  0.13639000  0.58554000  1.0
  O  O94  1  0.17697000  0.96074000  0.60467000  1.0
  O  O95  1  0.78166000  0.03927000  0.39533000  1.0
  O  O96  1  0.44132000  0.96229000  0.65478000  1.0
  O  O97  1  0.09612000  0.03771000  0.34522000  1.0
  O  O98  1  0.09600000  0.84184000  0.43180000  1.0
  O  O99  1  0.52775000  0.15815000  0.56822000  1.0
  O  O100  1  0.34024000  0.93050000  0.44311000  1.0
  O  O101  1  0.78333000  0.06951000  0.55689000  1.0
  O  O102  1  0.20290000  0.11234000  0.47228000  1.0
  O  O103  1  0.67518000  0.88766000  0.52771000  1.0
  O  O104  1  0.48580000  0.17847000  0.39593000  1.0
  O  O105  1  0.88170000  0.82154000  0.60409000  1.0
  O  O106  1  0.78934000  0.68047000  0.20792000  1.0
  O  O107  1  0.99723000  0.31952000  0.79209000  1.0
  O  O108  1  0.91061000  0.45607000  0.21803000  1.0
  O  O109  1  0.12863000  0.54393000  0.78198000  1.0
  O  O110  1  0.87750000  0.72059000  0.98480000  1.0
  O  O111  1  0.86233000  0.27939000  0.01518000  1.0
  O  O112  1  0.92047000  0.49999000  1.00000000  1.0
