# generated using pymatgen
data_CuH14C14S2(NO3)2
_symmetry_space_group_name_H-M   'P 1'
_cell_length_a   8.66008000
_cell_length_b   9.89121654
_cell_length_c   12.17070007
_cell_angle_alpha   82.05830614
_cell_angle_beta   69.18378237
_cell_angle_gamma   67.14074341
_symmetry_Int_Tables_number   1
_chemical_formula_structural   CuH14C14S2(NO3)2
_chemical_formula_sum   'Cu2 H28 C28 S4 N4 O12'
_cell_volume   897.94236274
_cell_formula_units_Z   2
loop_
 _symmetry_equiv_pos_site_id
 _symmetry_equiv_pos_as_xyz
  1  'x, y, z'
loop_
 _atom_site_type_symbol
 _atom_site_label
 _atom_site_symmetry_multiplicity
 _atom_site_fract_x
 _atom_site_fract_y
 _atom_site_fract_z
 _atom_site_occupancy
  Cu  Cu0  1  0.45724000  0.75008000  0.58543000  1.0
  Cu  Cu1  1  0.54276000  0.24992000  0.41457000  1.0
  H  H2  1  0.66977000  0.91599000  0.53659000  1.0
  H  H3  1  0.29343000  0.58423000  0.53636000  1.0
  H  H4  1  0.33021000  0.08402000  0.46340000  1.0
  H  H5  1  0.70656000  0.41578000  0.46364000  1.0
  H  H6  1  0.96335000  0.67571000  0.44150000  1.0
  H  H7  1  0.09614000  0.82422000  0.44037000  1.0
  H  H8  1  0.03665000  0.32428000  0.55852000  1.0
  H  H9  1  0.90385000  0.17578000  0.55962000  1.0
  H  H10  1  0.84867000  0.82190000  0.36442000  1.0
  H  H11  1  0.28814000  0.67786000  0.36389000  1.0
  H  H12  1  0.15135000  0.17810000  0.63558000  1.0
  H  H13  1  0.71189000  0.32214000  0.63610000  1.0
  H  H14  1  0.74984000  0.62539000  0.67977000  1.0
  H  H15  1  0.07018000  0.87474000  0.67956000  1.0
  H  H16  1  0.25015000  0.37462000  0.32024000  1.0
  H  H17  1  0.92982000  0.12525000  0.32045000  1.0
  H  H18  1  0.84075000  0.43626000  0.82335000  1.0
  H  H19  1  0.83570000  0.06392000  0.82323000  1.0
  H  H20  1  0.15924000  0.56375000  0.17666000  1.0
  H  H21  1  0.16429000  0.93608000  0.17677000  1.0
  H  H22  1  0.34487000  0.36961000  0.89797000  1.0
  H  H23  1  0.25699000  0.13065000  0.89781000  1.0
  H  H24  1  0.65513000  0.63040000  0.10203000  1.0
  H  H25  1  0.74300000  0.86934000  0.10220000  1.0
  H  H26  1  0.28068000  0.55521000  0.74651000  1.0
  H  H27  1  0.47254000  0.94511000  0.74633000  1.0
  H  H28  1  0.71931000  0.44480000  0.25349000  1.0
  H  H29  1  0.52746000  0.05488000  0.25368000  1.0
  C  C30  1  0.77999000  0.63108000  0.38987000  1.0
  C  C31  1  0.33095000  0.86881000  0.38943000  1.0
  C  C32  1  0.22000000  0.36893000  0.61014000  1.0
  C  C33  1  0.66905000  0.13120000  0.61056000  1.0
  C  C34  1  0.83138000  0.73991000  0.43343000  1.0
  C  C35  1  0.23597000  0.76003000  0.43281000  1.0
  C  C36  1  0.16862000  0.26009000  0.56657000  1.0
  C  C37  1  0.76404000  0.23997000  0.56718000  1.0
  C  C38  1  0.66442000  0.56580000  0.73049000  1.0
  C  C39  1  0.10484000  0.93434000  0.73034000  1.0
  C  C40  1  0.33557000  0.43421000  0.26951000  1.0
  C  C41  1  0.89515000  0.06566000  0.26966000  1.0
  C  C42  1  0.71267000  0.46092000  0.81271000  1.0
  C  C43  1  0.97445000  0.03920000  0.81256000  1.0
  C  C44  1  0.28732000  0.53908000  0.18729000  1.0
  C  C45  1  0.02555000  0.96079000  0.18745000  1.0
  C  C46  1  0.59636000  0.38993000  0.87677000  1.0
  C  C47  1  0.02679000  0.11017000  0.87663000  1.0
  C  C48  1  0.40364000  0.61007000  0.12323000  1.0
  C  C49  1  0.97321000  0.88983000  0.12337000  1.0
  C  C50  1  0.43829000  0.42409000  0.85296000  1.0
  C  C51  1  0.20863000  0.07610000  0.85278000  1.0
  C  C52  1  0.56171000  0.57591000  0.14704000  1.0
  C  C53  1  0.79137000  0.92389000  0.14722000  1.0
  C  C54  1  0.40079000  0.52965000  0.76843000  1.0
  C  C55  1  0.33054000  0.97060000  0.76823000  1.0
  C  C56  1  0.59921000  0.47035000  0.23157000  1.0
  C  C57  1  0.66945000  0.02940000  0.23177000  1.0
  S  S58  1  0.63494000  0.25984000  0.98852000  1.0
  S  S59  1  0.87662000  0.24013000  0.98846000  1.0
  S  S60  1  0.36505000  0.74016000  0.01149000  1.0
  S  S61  1  0.12339000  0.75986000  0.01153000  1.0
  N  N62  1  0.51147000  0.60024000  0.70875000  1.0
  N  N63  1  0.27951000  0.89992000  0.70862000  1.0
  N  N64  1  0.48853000  0.39976000  0.29124000  1.0
  N  N65  1  0.72049000  0.10007000  0.29138000  1.0
  O  O66  1  0.64238000  0.60170000  0.45911000  1.0
  O  O67  1  0.39896000  0.89832000  0.45889000  1.0
  O  O68  1  0.35762000  0.39830000  0.54089000  1.0
  O  O69  1  0.60104000  0.10168000  0.54111000  1.0
  O  O70  1  0.87679000  0.56968000  0.29347000  1.0
  O  O71  1  0.33092000  0.92998000  0.29290000  1.0
  O  O72  1  0.12321000  0.43033000  0.70652000  1.0
  O  O73  1  0.66911000  0.07001000  0.70709000  1.0
  O  O74  1  0.71203000  0.80668000  0.54332000  1.0
  O  O75  1  0.24471000  0.69354000  0.54292000  1.0
  O  O76  1  0.28796000  0.19334000  0.45668000  1.0
  O  O77  1  0.75529000  0.30647000  0.45707000  1.0
