# generated using pymatgen
data_Cu2H11C12N2Cl3O2
_symmetry_space_group_name_H-M   'P 1'
_cell_length_a   7.62547000
_cell_length_b   8.86594000
_cell_length_c   11.88960000
_cell_angle_alpha   78.55470000
_cell_angle_beta   76.81130000
_cell_angle_gamma   66.67330000
_symmetry_Int_Tables_number   1
_chemical_formula_structural   Cu2H11C12N2Cl3O2
_chemical_formula_sum   'Cu4 H22 C24 N4 Cl6 O4'
_cell_volume   713.37712734
_cell_formula_units_Z   2
loop_
 _symmetry_equiv_pos_site_id
 _symmetry_equiv_pos_as_xyz
  1  'x, y, z'
loop_
 _atom_site_type_symbol
 _atom_site_label
 _atom_site_symmetry_multiplicity
 _atom_site_fract_x
 _atom_site_fract_y
 _atom_site_fract_z
 _atom_site_occupancy
  Cu  Cu0  1  0.43418000  0.01876000  0.15784000  1.0
  Cu  Cu1  1  0.56564000  0.98145000  0.84206000  1.0
  Cu  Cu2  1  0.19622000  0.02263000  0.38770000  1.0
  Cu  Cu3  1  0.80355000  0.97755000  0.61226000  1.0
  H  H4  1  0.48919000  0.51872000  0.25123000  1.0
  H  H5  1  0.51080000  0.48142000  0.74854000  1.0
  H  H6  1  0.84044000  0.45053000  0.16926000  1.0
  H  H7  1  0.15947000  0.54960000  0.83033000  1.0
  H  H8  1  0.02994000  0.17904000  0.08926000  1.0
  H  H9  1  0.97003000  0.82079000  0.91080000  1.0
  H  H10  1  0.85269000  0.99432000  0.08447000  1.0
  H  H11  1  0.14733000  0.00532000  0.91603000  1.0
  H  H12  1  0.26985000  0.54849000  0.40746000  1.0
  H  H13  1  0.72934000  0.45174000  0.59279000  1.0
  H  H14  1  0.26082000  0.51176000  0.61986000  1.0
  H  H15  1  0.73844000  0.48824000  0.38034000  1.0
  H  H16  1  0.24405000  0.24615000  0.73841000  1.0
  H  H17  1  0.75645000  0.75341000  0.26160000  1.0
  H  H18  1  0.22487000  0.03324000  0.63387000  1.0
  H  H19  1  0.77625000  0.96621000  0.36598000  1.0
  H  H20  1  0.04139000  0.63427000  0.10565000  1.0
  H  H21  1  0.95893000  0.36599000  0.89429000  1.0
  H  H22  1  0.17427000  0.42682000  0.07025000  1.0
  H  H23  1  0.82592000  0.57341000  0.92965000  1.0
  H  H24  1  0.30047000  0.55352000  0.08372000  1.0
  H  H25  1  0.69999000  0.44642000  0.91628000  1.0
  C  C26  1  0.28292000  0.31264000  0.27627000  1.0
  C  C27  1  0.71691000  0.68751000  0.72371000  1.0
  C  C28  1  0.49192000  0.28776000  0.21744000  1.0
  C  C29  1  0.50802000  0.71226000  0.78259000  1.0
  C  C30  1  0.57605000  0.40201000  0.21611000  1.0
  C  C31  1  0.42393000  0.59805000  0.78377000  1.0
  C  C32  1  0.77098000  0.36435000  0.16935000  1.0
  C  C33  1  0.22898000  0.63566000  0.83049000  1.0
  C  C34  1  0.87613000  0.21458000  0.12383000  1.0
  C  C35  1  0.12382000  0.78531000  0.87622000  1.0
  C  C36  1  0.78079000  0.11049000  0.12217000  1.0
  C  C37  1  0.21917000  0.88932000  0.87808000  1.0
  C  C38  1  0.26522000  0.30608000  0.40785000  1.0
  C  C39  1  0.73456000  0.69400000  0.59217000  1.0
  C  C40  1  0.26698000  0.43336000  0.45938000  1.0
  C  C41  1  0.73252000  0.56674000  0.54076000  1.0
  C  C42  1  0.26049000  0.41238000  0.57911000  1.0
  C  C43  1  0.73918000  0.58755000  0.42101000  1.0
  C  C44  1  0.24969000  0.26652000  0.64448000  1.0
  C  C45  1  0.75053000  0.73322000  0.35555000  1.0
  C  C46  1  0.24143000  0.14727000  0.58814000  1.0
  C  C47  1  0.75911000  0.85242000  0.41179000  1.0
  C  C48  1  0.17013000  0.52298000  0.11784000  1.0
  C  C49  1  0.83013000  0.47719000  0.88211000  1.0
  N  N50  1  0.24988000  0.16727000  0.47209000  1.0
  N  N51  1  0.75032000  0.83263000  0.52786000  1.0
  N  N52  1  0.59225000  0.14702000  0.16803000  1.0
  N  N53  1  0.40766000  0.85291000  0.83213000  1.0
  Cl  Cl54  1  0.66102000  0.81794000  0.05640000  1.0
  Cl  Cl55  1  0.33887000  0.18207000  0.94369000  1.0
  Cl  Cl56  1  0.24063000  0.86611000  0.24169000  1.0
  Cl  Cl57  1  0.75912000  0.13413000  0.75822000  1.0
  Cl  Cl58  1  0.19588000  0.82268000  0.53602000  1.0
  Cl  Cl59  1  0.80444000  0.17727000  0.46386000  1.0
  O  O60  1  0.23195000  0.18754000  0.25202000  1.0
  O  O61  1  0.76773000  0.81276000  0.74793000  1.0
  O  O62  1  0.15286000  0.47265000  0.24094000  1.0
  O  O63  1  0.84729000  0.52759000  0.75899000  1.0
