# generated using pymatgen
data_CdH12C14(NO)4
_symmetry_space_group_name_H-M   'P 1'
_cell_length_a   11.14790000
_cell_length_b   12.20245848
_cell_length_c   13.46500000
_cell_angle_alpha   91.48698013
_cell_angle_beta   90.03080000
_cell_angle_gamma   117.16484489
_symmetry_Int_Tables_number   1
_chemical_formula_structural   CdH12C14(NO)4
_chemical_formula_sum   'Cd4 H48 C56 N16 O16'
_cell_volume   1628.92218981
_cell_formula_units_Z   4
loop_
 _symmetry_equiv_pos_site_id
 _symmetry_equiv_pos_as_xyz
  1  'x, y, z'
loop_
 _atom_site_type_symbol
 _atom_site_label
 _atom_site_symmetry_multiplicity
 _atom_site_fract_x
 _atom_site_fract_y
 _atom_site_fract_z
 _atom_site_occupancy
  Cd  Cd0  1  0.54060000  0.44228000  0.61924000  1.0
  Cd  Cd1  1  0.09865000  0.55769000  0.88077000  1.0
  Cd  Cd2  1  0.45940000  0.55772000  0.38076000  1.0
  Cd  Cd3  1  0.90135000  0.44231000  0.11923000  1.0
  H  H4  1  0.74016000  0.73014000  0.60134000  1.0
  H  H5  1  0.01037000  0.26982000  0.89894000  1.0
  H  H6  1  0.25984000  0.26986000  0.39866000  1.0
  H  H7  1  0.98963000  0.73018000  0.10106000  1.0
  H  H8  1  0.24943000  0.45395000  0.66497000  1.0
  H  H9  1  0.79554000  0.54611000  0.83484000  1.0
  H  H10  1  0.75056000  0.54605000  0.33503000  1.0
  H  H11  1  0.20446000  0.45389000  0.16516000  1.0
  H  H12  1  0.00325000  0.31059000  0.67342000  1.0
  H  H13  1  0.69276000  0.68952000  0.82647000  1.0
  H  H14  1  0.99675000  0.68941000  0.32658000  1.0
  H  H15  1  0.30724000  0.31048000  0.17353000  1.0
  H  H16  1  0.34181000  0.16407000  0.61113000  1.0
  H  H17  1  0.17778000  0.83583000  0.88901000  1.0
  H  H18  1  0.65820000  0.83594000  0.38887000  1.0
  H  H19  1  0.82221000  0.16416000  0.11099000  1.0
  H  H20  1  0.64105000  0.26717000  0.92516000  1.0
  H  H21  1  0.37375000  0.73297000  0.57495000  1.0
  H  H22  1  0.35895000  0.73283000  0.07484000  1.0
  H  H23  1  0.62625000  0.26703000  0.42505000  1.0
  H  H24  1  0.71127000  0.16545000  0.91666000  1.0
  H  H25  1  0.54571000  0.83456000  0.58339000  1.0
  H  H26  1  0.28873000  0.83455000  0.08334000  1.0
  H  H27  1  0.45428000  0.16544000  0.41661000  1.0
  H  H28  1  0.07478000  0.57332000  0.60267000  1.0
  H  H29  1  0.50173000  0.42638000  0.89775000  1.0
  H  H30  1  0.92522000  0.42668000  0.39732000  1.0
  H  H31  1  0.49827000  0.57362000  0.10225000  1.0
  H  H32  1  0.82495000  0.43266000  0.59782000  1.0
  H  H33  1  0.39262000  0.56715000  0.90240000  1.0
  H  H34  1  0.17505000  0.56734000  0.40218000  1.0
  H  H35  1  0.60738000  0.43285000  0.09760000  1.0
  H  H36  1  0.68164000  0.15083000  0.72911000  1.0
  H  H37  1  0.53104000  0.84932000  0.77093000  1.0
  H  H38  1  0.31836000  0.84917000  0.27089000  1.0
  H  H39  1  0.46896000  0.15068000  0.22907000  1.0
  H  H40  1  0.52679000  0.10578000  0.78970000  1.0
  H  H41  1  0.42124000  0.89453000  0.71040000  1.0
  H  H42  1  0.47322000  0.89422000  0.21030000  1.0
  H  H43  1  0.57875000  0.10547000  0.28960000  1.0
  H  H44  1  0.92471000  0.08177000  0.64677000  1.0
  H  H45  1  0.84300000  0.91835000  0.85360000  1.0
  H  H46  1  0.07529000  0.91823000  0.35323000  1.0
  H  H47  1  0.15700000  0.08165000  0.14640000  1.0
  H  H48  1  0.15586000  0.80194000  0.60859000  1.0
  H  H49  1  0.35401000  0.19765000  0.89174000  1.0
  H  H50  1  0.84414000  0.19806000  0.39141000  1.0
  H  H51  1  0.64599000  0.80235000  0.10826000  1.0
  C  C52  1  0.95265000  0.78196000  0.60455000  1.0
  C  C53  1  0.17095000  0.21791000  0.89566000  1.0
  C  C54  1  0.04735000  0.21804000  0.39545000  1.0
  C  C55  1  0.82905000  0.78209000  0.10435000  1.0
  C  C56  1  0.81586000  0.69709000  0.60068000  1.0
  C  C57  1  0.11913000  0.30288000  0.89962000  1.0
  C  C58  1  0.18414000  0.30291000  0.39932000  1.0
  C  C59  1  0.88088000  0.69712000  0.10038000  1.0
  C  C60  1  0.21246000  0.35488000  0.65310000  1.0
  C  C61  1  0.85767000  0.64515000  0.84678000  1.0
  C  C62  1  0.78754000  0.64512000  0.34690000  1.0
  C  C63  1  0.14233000  0.35485000  0.15322000  1.0
  C  C64  1  0.07433000  0.27420000  0.65697000  1.0
  C  C65  1  0.80025000  0.72592000  0.84297000  1.0
  C  C66  1  0.92567000  0.72580000  0.34303000  1.0
  C  C67  1  0.19975000  0.27408000  0.15703000  1.0
  C  C68  1  0.12795000  0.10704000  0.62634000  1.0
  C  C69  1  0.02096000  0.89288000  0.87378000  1.0
  C  C70  1  0.87204000  0.89296000  0.37366000  1.0
  C  C71  1  0.97904000  0.10712000  0.12622000  1.0
  C  C72  1  0.60027000  0.27797000  0.71926000  1.0
  C  C73  1  0.32260000  0.72230000  0.78085000  1.0
  C  C74  1  0.39973000  0.72203000  0.28074000  1.0
  C  C75  1  0.67741000  0.27771000  0.21915000  1.0
  C  C76  1  0.26400000  0.19366000  0.62370000  1.0
  C  C77  1  0.07039000  0.80622000  0.87633000  1.0
  C  C78  1  0.73601000  0.80635000  0.37630000  1.0
  C  C79  1  0.92961000  0.19378000  0.12367000  1.0
  C  C80  1  0.69881000  0.23662000  0.87563000  1.0
  C  C81  1  0.46211000  0.76347000  0.62445000  1.0
  C  C82  1  0.30119000  0.76338000  0.12437000  1.0
  C  C83  1  0.53788000  0.23653000  0.37555000  1.0
  C  C84  1  0.00330000  0.61096000  0.59954000  1.0
  C  C85  1  0.39262000  0.38878000  0.90084000  1.0
  C  C86  1  0.99672000  0.38905000  0.40046000  1.0
  C  C87  1  0.60738000  0.61122000  0.09916000  1.0
  C  C88  1  0.86471000  0.53254000  0.59727000  1.0
  C  C89  1  0.33251000  0.46730000  0.90304000  1.0
  C  C90  1  0.13530000  0.46747000  0.40273000  1.0
  C  C91  1  0.66748000  0.53269000  0.09696000  1.0
  C  C92  1  0.62576000  0.18508000  0.77713000  1.0
  C  C93  1  0.44084000  0.81514000  0.72294000  1.0
  C  C94  1  0.37425000  0.81492000  0.22287000  1.0
  C  C95  1  0.55916000  0.18486000  0.27706000  1.0
  C  C96  1  0.03088000  0.14844000  0.64364000  1.0
  C  C97  1  0.88250000  0.85162000  0.85652000  1.0
  C  C98  1  0.96912000  0.85156000  0.35636000  1.0
  C  C99  1  0.11750000  0.14838000  0.14348000  1.0
  C  C100  1  0.04880000  0.73760000  0.60382000  1.0
  C  C101  1  0.31143000  0.26214000  0.89649000  1.0
  C  C102  1  0.95120000  0.26240000  0.39619000  1.0
  C  C103  1  0.68857000  0.73786000  0.10351000  1.0
  C  C104  1  0.83749000  0.34462000  0.86420000  1.0
  C  C105  1  0.49269000  0.65538000  0.63590000  1.0
  C  C106  1  0.16251000  0.65538000  0.13581000  1.0
  C  C107  1  0.50731000  0.34462000  0.36409000  1.0
  N  N108  1  0.77267000  0.57524000  0.59740000  1.0
  N  N109  1  0.19781000  0.42473000  0.90290000  1.0
  N  N110  1  0.22733000  0.42476000  0.40260000  1.0
  N  N111  1  0.80219000  0.57527000  0.09710000  1.0
  N  N112  1  0.10259000  0.98324000  0.61304000  1.0
  N  N113  1  0.11939000  0.01657000  0.88720000  1.0
  N  N114  1  0.89741000  0.01676000  0.38696000  1.0
  N  N115  1  0.88061000  0.98343000  0.11280000  1.0
  N  N116  1  0.30528000  0.31499000  0.63674000  1.0
  N  N117  1  0.99038000  0.68491000  0.86320000  1.0
  N  N118  1  0.69472000  0.68502000  0.36325000  1.0
  N  N119  1  0.00962000  0.31509000  0.13680000  1.0
  N  N120  1  0.97880000  0.90631000  0.61333000  1.0
  N  N121  1  0.07276000  0.09368000  0.88665000  1.0
  N  N122  1  0.02120000  0.09369000  0.38667000  1.0
  N  N123  1  0.92724000  0.90632000  0.11336000  1.0
  O  O124  1  0.89826000  0.40563000  0.94419000  1.0
  O  O125  1  0.49235000  0.59439000  0.55589000  1.0
  O  O126  1  0.10173000  0.59437000  0.05581000  1.0
  O  O127  1  0.50765000  0.40561000  0.44411000  1.0
  O  O128  1  0.60216000  0.37154000  0.76577000  1.0
  O  O129  1  0.23083000  0.62870000  0.73435000  1.0
  O  O130  1  0.39784000  0.62846000  0.23423000  1.0
  O  O131  1  0.76916000  0.37130000  0.26566000  1.0
  O  O132  1  0.57412000  0.25787000  0.62647000  1.0
  O  O133  1  0.31666000  0.74230000  0.87363000  1.0
  O  O134  1  0.42588000  0.74213000  0.37353000  1.0
  O  O135  1  0.68334000  0.25770000  0.12638000  1.0
  O  O136  1  0.89283000  0.37304000  0.78078000  1.0
  O  O137  1  0.51964000  0.62691000  0.71934000  1.0
  O  O138  1  0.10716000  0.62696000  0.21923000  1.0
  O  O139  1  0.48036000  0.37309000  0.28066000  1.0
