# generated using pymatgen
data_ZnH8(C7O3)2
_symmetry_space_group_name_H-M   'P 1'
_cell_length_a   6.15080000
_cell_length_b   10.85880000
_cell_length_c   34.73480765
_cell_angle_alpha   87.57050204
_cell_angle_beta   87.34861019
_cell_angle_gamma   83.21740000
_symmetry_Int_Tables_number   1
_chemical_formula_structural   ZnH8(C7O3)2
_chemical_formula_sum   'Zn4 H32 C56 O24'
_cell_volume   2299.65082561
_cell_formula_units_Z   4
loop_
 _symmetry_equiv_pos_site_id
 _symmetry_equiv_pos_as_xyz
  1  'x, y, z'
loop_
 _atom_site_type_symbol
 _atom_site_label
 _atom_site_symmetry_multiplicity
 _atom_site_fract_x
 _atom_site_fract_y
 _atom_site_fract_z
 _atom_site_occupancy
  Zn  Zn0  1  0.71883000  0.01752000  0.49271000  1.0
  Zn  Zn1  1  0.14932000  0.98701000  0.50295000  1.0
  Zn  Zn2  1  0.87159000  0.97886000  0.00749000  1.0
  Zn  Zn3  1  0.44139000  0.00924000  0.99705000  1.0
  H  H4  1  0.10871000  0.04537000  0.11372000  1.0
  H  H5  1  0.05517000  0.05153000  0.18478000  1.0
  H  H6  1  0.75295000  0.95942000  0.19594000  1.0
  H  H7  1  0.80152000  0.95625000  0.12518000  1.0
  H  H8  1  0.83583000  0.03803000  0.30416000  1.0
  H  H9  1  0.53348000  0.94525000  0.31529000  1.0
  H  H10  1  0.48000000  0.95157000  0.38635000  1.0
  H  H11  1  0.78736000  0.04141000  0.37493000  1.0
  H  H12  1  0.35237000  0.04279000  0.87026000  1.0
  H  H13  1  0.44333000  0.04369000  0.79963000  1.0
  H  H14  1  0.12873000  0.96513000  0.82283000  1.0
  H  H15  1  0.03551000  0.96439000  0.89307000  1.0
  H  H16  1  0.46539000  0.02875000  0.67752000  1.0
  H  H17  1  0.15162000  0.95104000  0.70021000  1.0
  H  H18  1  0.24079000  0.95222000  0.62949000  1.0
  H  H19  1  0.55693000  0.02985000  0.60720000  1.0
  H  H20  1  0.19855000  0.72185000  0.44739000  1.0
  H  H21  1  0.49055000  0.59588000  0.41162000  1.0
  H  H22  1  0.19911000  0.26546000  0.44563000  1.0
  H  H23  1  0.49105000  0.36505000  0.41072000  1.0
  H  H24  1  0.39139000  0.73072000  0.05463000  1.0
  H  H25  1  0.09960000  0.63085000  0.08951000  1.0
  H  H26  1  0.39107000  0.27447000  0.05233000  1.0
  H  H27  1  0.09957000  0.40011000  0.08832000  1.0
  H  H28  1  0.65106000  0.08658000  0.23652000  1.0
  H  H29  1  0.93740000  0.91048000  0.26359000  1.0
  H  H30  1  0.09227000  0.10600000  0.77625000  1.0
  H  H31  1  0.50295000  0.88805000  0.72386000  1.0
  H  H32  1  0.49608000  0.32057000  0.51235000  1.0
  H  H33  1  0.49672000  0.73543000  0.51495000  1.0
  H  H34  1  0.09344000  0.26102000  0.98508000  1.0
  H  H35  1  0.09452000  0.67574000  0.98787000  1.0
  C  C36  1  0.84742000  0.77438000  0.49293000  1.0
  C  C37  1  0.09135000  0.99920000  0.42757000  1.0
  C  C38  1  0.85247000  0.24338000  0.49169000  1.0
  C  C39  1  0.95148000  0.99317000  0.57179000  1.0
  C  C40  1  0.73801000  0.75302000  0.00857000  1.0
  C  C41  1  0.49790000  0.99806000  0.07249000  1.0
  C  C42  1  0.74245000  0.22205000  0.00695000  1.0
  C  C43  1  0.64022000  0.00208000  0.92826000  1.0
  C  C44  1  0.45861000  0.00018000  0.11497000  1.0
  C  C45  1  0.24826000  0.02597000  0.13215000  1.0
  C  C46  1  0.21882000  0.02913000  0.17205000  1.0
  C  C47  1  0.39911000  0.00653000  0.19614000  1.0
  C  C48  1  0.61011000  0.98102000  0.17836000  1.0
  C  C49  1  0.63883000  0.97774000  0.13859000  1.0
  C  C50  1  0.38113000  0.01223000  0.23826000  1.0
  C  C51  1  0.20745000  0.98474000  0.26184000  1.0
  C  C52  1  0.97865000  0.01632000  0.32174000  1.0
  C  C53  1  0.18958000  0.99052000  0.30396000  1.0
  C  C54  1  0.36989000  0.96781000  0.32803000  1.0
  C  C55  1  0.34048000  0.97107000  0.36792000  1.0
  C  C56  1  0.13024000  0.99709000  0.38510000  1.0
  C  C57  1  0.94995000  0.01974000  0.36150000  1.0
  C  C58  1  0.68819000  0.00341000  0.88601000  1.0
  C  C59  1  0.52176000  0.02513000  0.85947000  1.0
  C  C60  1  0.57276000  0.02636000  0.82009000  1.0
  C  C61  1  0.79235000  0.00711000  0.80594000  1.0
  C  C62  1  0.95833000  0.98517000  0.83299000  1.0
  C  C63  1  0.90718000  0.98288000  0.87230000  1.0
  C  C64  1  0.85622000  0.01395000  0.76484000  1.0
  C  C65  1  0.73902000  0.98012000  0.73526000  1.0
  C  C66  1  0.63560000  0.00895000  0.66723000  1.0
  C  C67  1  0.80235000  0.98716000  0.69414000  1.0
  C  C68  1  0.02168000  0.96822000  0.67984000  1.0
  C  C69  1  0.07165000  0.96961000  0.64043000  1.0
  C  C70  1  0.90447000  0.99124000  0.61404000  1.0
  C  C71  1  0.68569000  0.01141000  0.62789000  1.0
  C  C72  1  0.84604000  0.64026000  0.48780000  1.0
  C  C73  1  0.02502000  0.56760000  0.46785000  1.0
  C  C74  1  0.66701000  0.58459000  0.50356000  1.0
  C  C75  1  0.19566000  0.62209000  0.44710000  1.0
  C  C76  1  0.36039000  0.55105000  0.42690000  1.0
  C  C77  1  0.84793000  0.37943000  0.48694000  1.0
  C  C78  1  0.66729000  0.45265000  0.50300000  1.0
  C  C79  1  0.02559000  0.43565000  0.46739000  1.0
  C  C80  1  0.19625000  0.36561000  0.44612000  1.0
  C  C81  1  0.36056000  0.42170000  0.42637000  1.0
  C  C82  1  0.74229000  0.61699000  0.01320000  1.0
  C  C83  1  0.56456000  0.56071000  0.03269000  1.0
  C  C84  1  0.92276000  0.54378000  0.99707000  1.0
  C  C85  1  0.39403000  0.63060000  0.05403000  1.0
  C  C86  1  0.22978000  0.57435000  0.07375000  1.0
  C  C87  1  0.74373000  0.35619000  0.01209000  1.0
  C  C88  1  0.92290000  0.41187000  0.99640000  1.0
  C  C89  1  0.56487000  0.42879000  0.03209000  1.0
  C  C90  1  0.39416000  0.37418000  0.05276000  1.0
  C  C91  1  0.22970000  0.44503000  0.07307000  1.0
  O  O92  1  0.65755000  0.84441000  0.49327000  1.0
  O  O93  1  0.02600000  0.81806000  0.49732000  1.0
  O  O94  1  0.25912000  0.98773000  0.44916000  1.0
  O  O95  1  0.89276000  0.01129000  0.44021000  1.0
  O  O96  1  0.03202000  0.17602000  0.49682000  1.0
  O  O97  1  0.66397000  0.19815000  0.49132000  1.0
  O  O98  1  0.78803000  0.00755000  0.55029000  1.0
  O  O99  1  0.15368000  0.98037000  0.55886000  1.0
  O  O100  1  0.92645000  0.79822000  0.00905000  1.0
  O  O101  1  0.55849000  0.82042000  0.00343000  1.0
  O  O102  1  0.33049000  0.00930000  0.05083000  1.0
  O  O103  1  0.69663000  0.98610000  0.05992000  1.0
  O  O104  1  0.56403000  0.17837000  0.00243000  1.0
  O  O105  1  0.93235000  0.15208000  0.00675000  1.0
  O  O106  1  0.80333000  0.98807000  0.94985000  1.0
  O  O107  1  0.43786000  0.01501000  0.94110000  1.0
  O  O108  1  0.56204000  0.04527000  0.25588000  1.0
  O  O109  1  0.02636000  0.95187000  0.24423000  1.0
  O  O110  1  0.05632000  0.05573000  0.75538000  1.0
  O  O111  1  0.53894000  0.93830000  0.74472000  1.0
  O  O112  1  0.48907000  0.40841000  0.51960000  1.0
  O  O113  1  0.48890000  0.64604000  0.52090000  1.0
  O  O114  1  0.10122000  0.35040000  0.97912000  1.0
  O  O115  1  0.10110000  0.58804000  0.98053000  1.0
