# generated using pymatgen
data_ErH3C4O9
_symmetry_space_group_name_H-M   'P 1'
_cell_length_a   9.89351000
_cell_length_b   10.53670000
_cell_length_c   11.96830000
_cell_angle_alpha   72.87700000
_cell_angle_beta   90.00060000
_cell_angle_gamma   89.99920000
_symmetry_Int_Tables_number   1
_chemical_formula_structural   ErH3C4O9
_chemical_formula_sum   'Er4 H12 C16 O36'
_cell_volume   1192.33326264
_cell_formula_units_Z   4
loop_
 _symmetry_equiv_pos_site_id
 _symmetry_equiv_pos_as_xyz
  1  'x, y, z'
loop_
 _atom_site_type_symbol
 _atom_site_label
 _atom_site_symmetry_multiplicity
 _atom_site_fract_x
 _atom_site_fract_y
 _atom_site_fract_z
 _atom_site_occupancy
  Er  Er0  1  0.92941000  0.20597000  0.61543000  1.0
  Er  Er1  1  0.42942000  0.29403000  0.88456000  1.0
  Er  Er2  1  0.07059000  0.79404000  0.38455000  1.0
  Er  Er3  1  0.57058000  0.70596000  0.11544000  1.0
  H  H4  1  0.84015000  0.98243000  0.81381000  1.0
  H  H5  1  0.34014000  0.51759000  0.68620000  1.0
  H  H6  1  0.15988000  0.01757000  0.18615000  1.0
  H  H7  1  0.65987000  0.48241000  0.31385000  1.0
  H  H8  1  0.95004000  0.13205000  0.88753000  1.0
  H  H9  1  0.45003000  0.36797000  0.61248000  1.0
  H  H10  1  0.05000000  0.86792000  0.11247000  1.0
  H  H11  1  0.54999000  0.63206000  0.38753000  1.0
  H  H12  1  0.74308000  0.09173000  0.83764000  1.0
  H  H13  1  0.24309000  0.40829000  0.66236000  1.0
  H  H14  1  0.25694000  0.90825000  0.16237000  1.0
  H  H15  1  0.75693000  0.59174000  0.33763000  1.0
  C  C16  1  0.62442000  0.28366000  0.60653000  1.0
  C  C17  1  0.12442000  0.21635000  0.89348000  1.0
  C  C18  1  0.37558000  0.71634000  0.39349000  1.0
  C  C19  1  0.87558000  0.78365000  0.10652000  1.0
  C  C20  1  0.68373000  0.34457000  0.69973000  1.0
  C  C21  1  0.18375000  0.15544000  0.80028000  1.0
  C  C22  1  0.31625000  0.65542000  0.30028000  1.0
  C  C23  1  0.81626000  0.84457000  0.19971000  1.0
  C  C24  1  0.05942000  0.49616000  0.54249000  1.0
  C  C25  1  0.55942000  0.00383000  0.95750000  1.0
  C  C26  1  0.94058000  0.50384000  0.45748000  1.0
  C  C27  1  0.44059000  0.99617000  0.04251000  1.0
  C  C28  1  0.95958000  0.94680000  0.54712000  1.0
  C  C29  1  0.45958000  0.55319000  0.95289000  1.0
  C  C30  1  0.04037000  0.05321000  0.45287000  1.0
  C  C31  1  0.54039000  0.44680000  0.04712000  1.0
  O  O32  1  0.69629000  0.20771000  0.57050000  1.0
  O  O33  1  0.19629000  0.29231000  0.92949000  1.0
  O  O34  1  0.30370000  0.79229000  0.42951000  1.0
  O  O35  1  0.80370000  0.70769000  0.07051000  1.0
  O  O36  1  0.50136000  0.31478000  0.56775000  1.0
  O  O37  1  0.00137000  0.18523000  0.93225000  1.0
  O  O38  1  0.49864000  0.68524000  0.43225000  1.0
  O  O39  1  0.99866000  0.81474000  0.06776000  1.0
  O  O40  1  0.81078000  0.34375000  0.70506000  1.0
  O  O41  1  0.31078000  0.15626000  0.79493000  1.0
  O  O42  1  0.18922000  0.65625000  0.29492000  1.0
  O  O43  1  0.68921000  0.84374000  0.20508000  1.0
  O  O44  1  0.60182000  0.38527000  0.76224000  1.0
  O  O45  1  0.10181000  0.11474000  0.73776000  1.0
  O  O46  1  0.39819000  0.61474000  0.23778000  1.0
  O  O47  1  0.89821000  0.88526000  0.26222000  1.0
  O  O48  1  0.08844000  0.38080000  0.61013000  1.0
  O  O49  1  0.58844000  0.11919000  0.88986000  1.0
  O  O50  1  0.91156000  0.61920000  0.38984000  1.0
  O  O51  1  0.41156000  0.88080000  0.11014000  1.0
  O  O52  1  0.12029000  0.60186000  0.53871000  1.0
  O  O53  1  0.62028000  0.89813000  0.96128000  1.0
  O  O54  1  0.87970000  0.39815000  0.46127000  1.0
  O  O55  1  0.37971000  0.10185000  0.03873000  1.0
  O  O56  1  0.89950000  0.98716000  0.62361000  1.0
  O  O57  1  0.39948000  0.51282000  0.87641000  1.0
  O  O58  1  0.10050000  0.01283000  0.37641000  1.0
  O  O59  1  0.60052000  0.48717000  0.12359000  1.0
  O  O60  1  0.96117000  0.82973000  0.53926000  1.0
  O  O61  1  0.46116000  0.67026000  0.96076000  1.0
  O  O62  1  0.03874000  0.17029000  0.46070000  1.0
  O  O63  1  0.53880000  0.32972000  0.03927000  1.0
  O  O64  1  0.83678000  0.07580000  0.81191000  1.0
  O  O65  1  0.33677000  0.42421000  0.68808000  1.0
  O  O66  1  0.16325000  0.92419000  0.18809000  1.0
  O  O67  1  0.66324000  0.57581000  0.31193000  1.0
