# generated using pymatgen
data_Cd3H14(CO)20
_symmetry_space_group_name_H-M   'P 1'
_cell_length_a   7.96962000
_cell_length_b   13.31790000
_cell_length_c   13.36900000
_cell_angle_alpha   84.89450000
_cell_angle_beta   82.86980000
_cell_angle_gamma   86.05040000
_symmetry_Int_Tables_number   1
_chemical_formula_structural   Cd3H14(CO)20
_chemical_formula_sum   'Cd6 H28 C40 O40'
_cell_volume   1400.00436366
_cell_formula_units_Z   2
loop_
 _symmetry_equiv_pos_site_id
 _symmetry_equiv_pos_as_xyz
  1  'x, y, z'
loop_
 _atom_site_type_symbol
 _atom_site_label
 _atom_site_symmetry_multiplicity
 _atom_site_fract_x
 _atom_site_fract_y
 _atom_site_fract_z
 _atom_site_occupancy
  Cd  Cd0  1  0.15787000  0.01346000  0.10359000  1.0
  Cd  Cd1  1  0.84214000  0.98654000  0.89641000  1.0
  Cd  Cd2  1  0.39642000  0.71760000  0.54721000  1.0
  Cd  Cd3  1  0.60358000  0.28240000  0.45279000  1.0
  Cd  Cd4  1  0.18738000  0.50339000  0.25504000  1.0
  Cd  Cd5  1  0.81261000  0.49661000  0.74496000  1.0
  H  H6  1  0.56368000  0.10176000  0.12052000  1.0
  H  H7  1  0.43632000  0.89825000  0.87948000  1.0
  H  H8  1  0.43202000  0.28834000  0.10549000  1.0
  H  H9  1  0.56799000  0.71167000  0.89451000  1.0
  H  H10  1  0.22919000  0.13198000  0.26182000  1.0
  H  H11  1  0.77081000  0.86801000  0.73818000  1.0
  H  H12  1  0.02273000  0.14089000  0.25083000  1.0
  H  H13  1  0.97728000  0.85910000  0.74918000  1.0
  H  H14  1  0.32713000  0.84074000  0.04789000  1.0
  H  H15  1  0.67288000  0.15926000  0.95211000  1.0
  H  H16  1  0.24420000  0.80102000  0.15956000  1.0
  H  H17  1  0.75580000  0.19898000  0.84044000  1.0
  H  H18  1  0.57086000  0.87880000  0.62877000  1.0
  H  H19  1  0.42915000  0.12121000  0.37123000  1.0
  H  H20  1  0.73516000  0.80242000  0.61637000  1.0
  H  H21  1  0.26484000  0.19759000  0.38363000  1.0
  H  H22  1  0.03884000  0.32867000  0.33614000  1.0
  H  H23  1  0.96115000  0.67133000  0.66386000  1.0
  H  H24  1  0.89287000  0.39865000  0.29146000  1.0
  H  H25  1  0.10711000  0.60135000  0.70854000  1.0
  H  H26  1  0.92651000  0.84112000  0.14803000  1.0
  H  H27  1  0.07349000  0.15889000  0.85197000  1.0
  H  H28  1  0.84039000  0.94475000  0.49949000  1.0
  H  H29  1  0.15961000  0.05524000  0.50051000  1.0
  H  H30  1  0.33683000  0.54292000  0.89738000  1.0
  H  H31  1  0.66317000  0.45708000  0.10262000  1.0
  H  H32  1  0.39975000  0.19373000  0.79404000  1.0
  H  H33  1  0.60025000  0.80627000  0.20596000  1.0
  C  C34  1  0.77191000  0.02404000  0.15980000  1.0
  C  C35  1  0.22809000  0.97596000  0.84020000  1.0
  C  C36  1  0.06048000  0.70183000  0.27695000  1.0
  C  C37  1  0.93952000  0.29816000  0.72305000  1.0
  C  C38  1  0.00754000  0.76007000  0.48726000  1.0
  C  C39  1  0.99247000  0.23993000  0.51274000  1.0
  C  C40  1  0.75311000  0.09693000  0.36125000  1.0
  C  C41  1  0.24689000  0.90306000  0.63875000  1.0
  C  C42  1  0.83369000  0.95886000  0.24493000  1.0
  C  C43  1  0.16631000  0.04115000  0.75507000  1.0
  C  C44  1  0.91504000  0.86529000  0.22456000  1.0
  C  C45  1  0.08496000  0.13471000  0.77544000  1.0
  C  C46  1  0.97156000  0.80044000  0.30289000  1.0
  C  C47  1  0.02844000  0.19957000  0.69711000  1.0
  C  C48  1  0.94081000  0.82781000  0.40277000  1.0
  C  C49  1  0.05919000  0.17218000  0.59723000  1.0
  C  C50  1  0.86001000  0.92193000  0.42237000  1.0
  C  C51  1  0.14000000  0.07806000  0.57763000  1.0
  C  C52  1  0.80982000  0.98910000  0.34409000  1.0
  C  C53  1  0.19018000  0.01090000  0.65590000  1.0
  C  C54  1  0.37043000  0.19208000  0.99182000  1.0
  C  C55  1  0.62956000  0.80792000  0.00818000  1.0
  C  C56  1  0.31348000  0.41369000  0.05667000  1.0
  C  C57  1  0.68653000  0.58631000  0.94333000  1.0
  C  C58  1  0.43720000  0.53855000  0.69827000  1.0
  C  C59  1  0.56279000  0.46146000  0.30173000  1.0
  C  C60  1  0.44737000  0.32509000  0.63549000  1.0
  C  C61  1  0.55263000  0.67492000  0.36451000  1.0
  C  C62  1  0.36288000  0.28569000  0.92116000  1.0
  C  C63  1  0.63712000  0.71431000  0.07884000  1.0
  C  C64  1  0.34408000  0.38591000  0.95008000  1.0
  C  C65  1  0.65592000  0.61410000  0.04992000  1.0
  C  C66  1  0.35502000  0.46604000  0.87450000  1.0
  C  C67  1  0.64498000  0.53397000  0.12550000  1.0
  C  C68  1  0.39590000  0.44904000  0.77237000  1.0
  C  C69  1  0.60409000  0.55097000  0.22763000  1.0
  C  C70  1  0.40552000  0.34961000  0.74371000  1.0
  C  C71  1  0.59448000  0.65039000  0.25629000  1.0
  C  C72  1  0.38580000  0.26995000  0.81843000  1.0
  C  C73  1  0.61421000  0.73005000  0.18157000  1.0
  O  O74  1  0.86895000  0.04759000  0.08023000  1.0
  O  O75  1  0.13105000  0.95241000  0.91978000  1.0
  O  O76  1  0.61063000  0.05059000  0.17395000  1.0
  O  O77  1  0.38938000  0.94942000  0.82605000  1.0
  O  O78  1  0.19115000  0.70272000  0.21073000  1.0
  O  O79  1  0.80885000  0.29728000  0.78927000  1.0
  O  O80  1  0.99961000  0.62076000  0.31843000  1.0
  O  O81  1  0.00038000  0.37924000  0.68157000  1.0
  O  O82  1  0.15735000  0.72363000  0.46849000  1.0
  O  O83  1  0.84265000  0.27636000  0.53150000  1.0
  O  O84  1  0.91038000  0.74675000  0.56958000  1.0
  O  O85  1  0.08963000  0.25325000  0.43042000  1.0
  O  O86  1  0.63489000  0.11304000  0.43286000  1.0
  O  O87  1  0.36510000  0.88695000  0.56714000  1.0
  O  O88  1  0.82830000  0.16498000  0.30429000  1.0
  O  O89  1  0.17170000  0.83502000  0.69572000  1.0
  O  O90  1  0.27788000  0.12184000  0.98102000  1.0
  O  O91  1  0.72211000  0.87817000  0.01898000  1.0
  O  O92  1  0.48052000  0.18760000  0.05577000  1.0
  O  O93  1  0.51947000  0.81240000  0.94423000  1.0
  O  O94  1  0.37152000  0.35299000  0.12993000  1.0
  O  O95  1  0.62850000  0.64702000  0.87007000  1.0
  O  O96  1  0.23804000  0.49543000  0.07863000  1.0
  O  O97  1  0.76195000  0.50457000  0.92137000  1.0
  O  O98  1  0.31464000  0.59422000  0.66765000  1.0
  O  O99  1  0.68534000  0.40577000  0.33235000  1.0
  O  O100  1  0.59002000  0.56129000  0.67577000  1.0
  O  O101  1  0.40997000  0.43872000  0.32423000  1.0
  O  O102  1  0.48776000  0.39742000  0.57025000  1.0
  O  O103  1  0.51225000  0.60258000  0.42976000  1.0
  O  O104  1  0.44820000  0.23347000  0.61540000  1.0
  O  O105  1  0.55179000  0.76654000  0.38460000  1.0
  O  O106  1  0.13914000  0.12258000  0.21576000  1.0
  O  O107  1  0.86086000  0.87741000  0.78424000  1.0
  O  O108  1  0.28944000  0.86455000  0.11474000  1.0
  O  O109  1  0.71055000  0.13545000  0.88526000  1.0
  O  O110  1  0.64786000  0.83407000  0.66675000  1.0
  O  O111  1  0.35215000  0.16593000  0.33325000  1.0
  O  O112  1  0.01535000  0.37788000  0.27664000  1.0
  O  O113  1  0.98464000  0.62212000  0.72336000  1.0
