# generated using pymatgen
data_GdAgH8C18(NO2)4
_symmetry_space_group_name_H-M   'P 1'
_cell_length_a   8.55983000
_cell_length_b   17.67030000
_cell_length_c   24.94020000
_cell_angle_alpha   90.00000000
_cell_angle_beta   90.00000000
_cell_angle_gamma   89.99960000
_symmetry_Int_Tables_number   1
_chemical_formula_structural   GdAgH8C18(NO2)4
_chemical_formula_sum   'Gd8 Ag8 H64 C144 N32 O64'
_cell_volume   3772.32406624
_cell_formula_units_Z   8
loop_
 _symmetry_equiv_pos_site_id
 _symmetry_equiv_pos_as_xyz
  1  'x, y, z'
loop_
 _atom_site_type_symbol
 _atom_site_label
 _atom_site_symmetry_multiplicity
 _atom_site_fract_x
 _atom_site_fract_y
 _atom_site_fract_z
 _atom_site_occupancy
  Gd  Gd0  1  0.16402000  0.78365000  0.97491000  1.0
  Gd  Gd1  1  0.66402000  0.71635000  0.02509000  1.0
  Gd  Gd2  1  0.66402000  0.21635000  0.47491000  1.0
  Gd  Gd3  1  0.16403000  0.28365000  0.52509000  1.0
  Gd  Gd4  1  0.33598000  0.78365000  0.52509000  1.0
  Gd  Gd5  1  0.83598000  0.71635000  0.47491000  1.0
  Gd  Gd6  1  0.83598000  0.21635000  0.02509000  1.0
  Gd  Gd7  1  0.33598000  0.28365000  0.97491000  1.0
  Ag  Ag8  1  0.46098000  0.95462000  0.27299000  1.0
  Ag  Ag9  1  0.96098000  0.54538000  0.72701000  1.0
  Ag  Ag10  1  0.96097000  0.04538000  0.77299000  1.0
  Ag  Ag11  1  0.46098000  0.45462000  0.22701000  1.0
  Ag  Ag12  1  0.03902000  0.95462000  0.22701000  1.0
  Ag  Ag13  1  0.53902000  0.54538000  0.77300000  1.0
  Ag  Ag14  1  0.53901000  0.04538000  0.72700000  1.0
  Ag  Ag15  1  0.03902000  0.45462000  0.27299000  1.0
  H  H16  1  0.41243000  0.58530000  0.14592000  1.0
  H  H17  1  0.67010000  0.83633000  0.20825000  1.0
  H  H18  1  0.06400000  0.34569000  0.08955000  1.0
  H  H19  1  0.25897000  0.31259000  0.16458000  1.0
  H  H20  1  0.88986000  0.00302000  0.06227000  1.0
  H  H21  1  0.95120000  0.48687000  0.04321000  1.0
  H  H22  1  0.54798000  0.11455000  0.20768000  1.0
  H  H23  1  0.72080000  0.12240000  0.12955000  1.0
  H  H24  1  0.91243000  0.91469000  0.85408000  1.0
  H  H25  1  0.17009000  0.66367000  0.79175000  1.0
  H  H26  1  0.56400000  0.15431000  0.91045000  1.0
  H  H27  1  0.75897000  0.18740000  0.83542000  1.0
  H  H28  1  0.38987000  0.49698000  0.93773000  1.0
  H  H29  1  0.45120000  0.01313000  0.95679000  1.0
  H  H30  1  0.04798000  0.38545000  0.79233000  1.0
  H  H31  1  0.22081000  0.37760000  0.87045000  1.0
  H  H32  1  0.91244000  0.41469000  0.64592000  1.0
  H  H33  1  0.17009000  0.16367000  0.70825000  1.0
  H  H34  1  0.56401000  0.65431000  0.58955000  1.0
  H  H35  1  0.75898000  0.68741000  0.66458000  1.0
  H  H36  1  0.38986000  0.99697000  0.56227000  1.0
  H  H37  1  0.45121000  0.51313000  0.54321000  1.0
  H  H38  1  0.04798000  0.88545000  0.70768000  1.0
  H  H39  1  0.22080000  0.87760000  0.62955000  1.0
  H  H40  1  0.41244000  0.08530000  0.35408000  1.0
  H  H41  1  0.67009000  0.33633000  0.29174000  1.0
  H  H42  1  0.06401000  0.84569000  0.41045000  1.0
  H  H43  1  0.25897000  0.81259000  0.33542000  1.0
  H  H44  1  0.88987000  0.50302000  0.43773000  1.0
  H  H45  1  0.95121000  0.98687000  0.45679000  1.0
  H  H46  1  0.54798000  0.61455000  0.29232000  1.0
  H  H47  1  0.72081000  0.62240000  0.37045000  1.0
  H  H48  1  0.08757000  0.58531000  0.35408000  1.0
  H  H49  1  0.82991000  0.83633000  0.29175000  1.0
  H  H50  1  0.43600000  0.34569000  0.41045000  1.0
  H  H51  1  0.24103000  0.31259000  0.33542000  1.0
  H  H52  1  0.61014000  0.00302000  0.43773000  1.0
  H  H53  1  0.54880000  0.48687000  0.45679000  1.0
  H  H54  1  0.95202000  0.11454000  0.29232000  1.0
  H  H55  1  0.77919000  0.12240000  0.37045000  1.0
  H  H56  1  0.58756000  0.91470000  0.64592000  1.0
  H  H57  1  0.32990000  0.66367000  0.70825000  1.0
  H  H58  1  0.93599000  0.15431000  0.58955000  1.0
  H  H59  1  0.74102000  0.18741000  0.66458000  1.0
  H  H60  1  0.11014000  0.49698000  0.56227000  1.0
  H  H61  1  0.04880000  0.01313000  0.54321000  1.0
  H  H62  1  0.45201000  0.38545000  0.70768000  1.0
  H  H63  1  0.27919000  0.37760000  0.62955000  1.0
  H  H64  1  0.58757000  0.41470000  0.85408000  1.0
  H  H65  1  0.32991000  0.16367000  0.79175000  1.0
  H  H66  1  0.93599000  0.65431000  0.91045000  1.0
  H  H67  1  0.74102000  0.68741000  0.83542000  1.0
  H  H68  1  0.11013000  0.99697000  0.93773000  1.0
  H  H69  1  0.04880000  0.51313000  0.95679000  1.0
  H  H70  1  0.45202000  0.88545000  0.79232000  1.0
  H  H71  1  0.27919000  0.87760000  0.87045000  1.0
  H  H72  1  0.08756000  0.08531000  0.14592000  1.0
  H  H73  1  0.82992000  0.33633000  0.20825000  1.0
  H  H74  1  0.43599000  0.84569000  0.08955000  1.0
  H  H75  1  0.24102000  0.81259000  0.16458000  1.0
  H  H76  1  0.61014000  0.50303000  0.06227000  1.0
  H  H77  1  0.54879000  0.98687000  0.04321000  1.0
  H  H78  1  0.95203000  0.61454000  0.20767000  1.0
  H  H79  1  0.77920000  0.62240000  0.12955000  1.0
  C  C80  1  0.95024000  0.85552000  0.04736000  1.0
  C  C81  1  0.86509000  0.88954000  0.09361000  1.0
  C  C82  1  0.10511000  0.58136000  0.05745000  1.0
  C  C83  1  0.00979000  0.62691000  0.01827000  1.0
  C  C84  1  0.30735000  0.68566000  0.07578000  1.0
  C  C85  1  0.23867000  0.60879000  0.08552000  1.0
  C  C86  1  0.31324000  0.56309000  0.12349000  1.0
  C  C87  1  0.71669000  0.87242000  0.17655000  1.0
  C  C88  1  0.68612000  0.94995000  0.17582000  1.0
  C  C89  1  0.34498000  0.74126000  0.85980000  1.0
  C  C90  1  0.23676000  0.36889000  0.14893000  1.0
  C  C91  1  0.84218000  0.96803000  0.09434000  1.0
  C  C92  1  0.05471000  0.50679000  0.06401000  1.0
  C  C93  1  0.80705000  0.84226000  0.13529000  1.0
  C  C94  1  0.26124000  0.48904000  0.13024000  1.0
  C  C95  1  0.13906000  0.46019000  0.09827000  1.0
  C  C96  1  0.75267000  0.99769000  0.13614000  1.0
  C  C97  1  0.60610000  0.06483000  0.19155000  1.0
  C  C98  1  0.45023000  0.64447000  0.95263000  1.0
  C  C99  1  0.36509000  0.61046000  0.90639000  1.0
  C  C100  1  0.60511000  0.91863000  0.94255000  1.0
  C  C101  1  0.50979000  0.87309000  0.98173000  1.0
  C  C102  1  0.80734000  0.81434000  0.92422000  1.0
  C  C103  1  0.73866000  0.89121000  0.91448000  1.0
  C  C104  1  0.81324000  0.93690000  0.87651000  1.0
  C  C105  1  0.21668000  0.62757000  0.82345000  1.0
  C  C106  1  0.18612000  0.55005000  0.82418000  1.0
  C  C107  1  0.84499000  0.75874000  0.14020000  1.0
  C  C108  1  0.73676000  0.13111000  0.85107000  1.0
  C  C109  1  0.34218000  0.53197000  0.90566000  1.0
  C  C110  1  0.55470000  0.99321000  0.93599000  1.0
  C  C111  1  0.30704000  0.65774000  0.86471000  1.0
  C  C112  1  0.76124000  0.01096000  0.86976000  1.0
  C  C113  1  0.63906000  0.03981000  0.90173000  1.0
  C  C114  1  0.25267000  0.50231000  0.86386000  1.0
  C  C115  1  0.10610000  0.43516000  0.80845000  1.0
  C  C116  1  0.45024000  0.14447000  0.54736000  1.0
  C  C117  1  0.36509000  0.11046000  0.59361000  1.0
  C  C118  1  0.60512000  0.41864000  0.55745000  1.0
  C  C119  1  0.50980000  0.37309000  0.51827000  1.0
  C  C120  1  0.80735000  0.31434000  0.57578000  1.0
  C  C121  1  0.73867000  0.39121000  0.58552000  1.0
  C  C122  1  0.81325000  0.43691000  0.62349000  1.0
  C  C123  1  0.21668000  0.12758000  0.67655000  1.0
  C  C124  1  0.18612000  0.05005000  0.67582000  1.0
  C  C125  1  0.84498000  0.25874000  0.35980000  1.0
  C  C126  1  0.73676000  0.63111000  0.64892000  1.0
  C  C127  1  0.34218000  0.03197000  0.59434000  1.0
  C  C128  1  0.55471000  0.49321000  0.56401000  1.0
  C  C129  1  0.30705000  0.15774000  0.63529000  1.0
  C  C130  1  0.76124000  0.51096000  0.63024000  1.0
  C  C131  1  0.63907000  0.53981000  0.59827000  1.0
  C  C132  1  0.25267000  0.00231000  0.63614000  1.0
  C  C133  1  0.10610000  0.93517000  0.69155000  1.0
  C  C134  1  0.95024000  0.35552000  0.45263000  1.0
  C  C135  1  0.86509000  0.38954000  0.40639000  1.0
  C  C136  1  0.10511000  0.08136000  0.44255000  1.0
  C  C137  1  0.00980000  0.12691000  0.48173000  1.0
  C  C138  1  0.30734000  0.18566000  0.42422000  1.0
  C  C139  1  0.23867000  0.10879000  0.41448000  1.0
  C  C140  1  0.31325000  0.06309000  0.37652000  1.0
  C  C141  1  0.71669000  0.37243000  0.32345000  1.0
  C  C142  1  0.68613000  0.44995000  0.32418000  1.0
  C  C143  1  0.34499000  0.24126000  0.64019000  1.0
  C  C144  1  0.23676000  0.86889000  0.35107000  1.0
  C  C145  1  0.84218000  0.46803000  0.40566000  1.0
  C  C146  1  0.05471000  0.00679000  0.43599000  1.0
  C  C147  1  0.80704000  0.34226000  0.36471000  1.0
  C  C148  1  0.26125000  0.98904000  0.36977000  1.0
  C  C149  1  0.13907000  0.96019000  0.40173000  1.0
  C  C150  1  0.75267000  0.49769000  0.36386000  1.0
  C  C151  1  0.60610000  0.56483000  0.30844000  1.0
  C  C152  1  0.54976000  0.85552000  0.45264000  1.0
  C  C153  1  0.63491000  0.88954000  0.40639000  1.0
  C  C154  1  0.39489000  0.58137000  0.44255000  1.0
  C  C155  1  0.49021000  0.62691000  0.48173000  1.0
  C  C156  1  0.19266000  0.68566000  0.42422000  1.0
  C  C157  1  0.26134000  0.60879000  0.41448000  1.0
  C  C158  1  0.18676000  0.56310000  0.37651000  1.0
  C  C159  1  0.78332000  0.87242000  0.32345000  1.0
  C  C160  1  0.81388000  0.94995000  0.32418000  1.0
  C  C161  1  0.15501000  0.74126000  0.64020000  1.0
  C  C162  1  0.26324000  0.36889000  0.35108000  1.0
  C  C163  1  0.65782000  0.96803000  0.40566000  1.0
  C  C164  1  0.44530000  0.50679000  0.43599000  1.0
  C  C165  1  0.69295000  0.84226000  0.36471000  1.0
  C  C166  1  0.23876000  0.48905000  0.36976000  1.0
  C  C167  1  0.36094000  0.46019000  0.40173000  1.0
  C  C168  1  0.74733000  0.99769000  0.36386000  1.0
  C  C169  1  0.89390000  0.06483000  0.30845000  1.0
  C  C170  1  0.04977000  0.64447000  0.54736000  1.0
  C  C171  1  0.13491000  0.61046000  0.59361000  1.0
  C  C172  1  0.89488000  0.91864000  0.55745000  1.0
  C  C173  1  0.99020000  0.87310000  0.51827000  1.0
  C  C174  1  0.69266000  0.81434000  0.57577000  1.0
  C  C175  1  0.76133000  0.89121000  0.58552000  1.0
  C  C176  1  0.68675000  0.93691000  0.62348000  1.0
  C  C177  1  0.28331000  0.62758000  0.67655000  1.0
  C  C178  1  0.31387000  0.55005000  0.67582000  1.0
  C  C179  1  0.65501000  0.75874000  0.35980000  1.0
  C  C180  1  0.76323000  0.13112000  0.64893000  1.0
  C  C181  1  0.15782000  0.53197000  0.59434000  1.0
  C  C182  1  0.94529000  0.99322000  0.56401000  1.0
  C  C183  1  0.19295000  0.65774000  0.63529000  1.0
  C  C184  1  0.73875000  0.01096000  0.63023000  1.0
  C  C185  1  0.86093000  0.03982000  0.59827000  1.0
  C  C186  1  0.24733000  0.50231000  0.63614000  1.0
  C  C187  1  0.39389000  0.43516000  0.69156000  1.0
  C  C188  1  0.04976000  0.14447000  0.95264000  1.0
  C  C189  1  0.13490000  0.11046000  0.90639000  1.0
  C  C190  1  0.89489000  0.41864000  0.94255000  1.0
  C  C191  1  0.99020000  0.37309000  0.98173000  1.0
  C  C192  1  0.69266000  0.31434000  0.92422000  1.0
  C  C193  1  0.76134000  0.39121000  0.91448000  1.0
  C  C194  1  0.68675000  0.43691000  0.87651000  1.0
  C  C195  1  0.28331000  0.12757000  0.82345000  1.0
  C  C196  1  0.31387000  0.05005000  0.82418000  1.0
  C  C197  1  0.65501000  0.25874000  0.14020000  1.0
  C  C198  1  0.76324000  0.63112000  0.85108000  1.0
  C  C199  1  0.15782000  0.03197000  0.90566000  1.0
  C  C200  1  0.94529000  0.49322000  0.93599000  1.0
  C  C201  1  0.19295000  0.15774000  0.86471000  1.0
  C  C202  1  0.73876000  0.51096000  0.86977000  1.0
  C  C203  1  0.86094000  0.53981000  0.90173000  1.0
  C  C204  1  0.24732000  0.00231000  0.86386000  1.0
  C  C205  1  0.39389000  0.93517000  0.80844000  1.0
  C  C206  1  0.54976000  0.35553000  0.04736000  1.0
  C  C207  1  0.63491000  0.38954000  0.09361000  1.0
  C  C208  1  0.39488000  0.08137000  0.05745000  1.0
  C  C209  1  0.49020000  0.12691000  0.01827000  1.0
  C  C210  1  0.19266000  0.18566000  0.07578000  1.0
  C  C211  1  0.26133000  0.10879000  0.08552000  1.0
  C  C212  1  0.18676000  0.06310000  0.12349000  1.0
  C  C213  1  0.78332000  0.37243000  0.17655000  1.0
  C  C214  1  0.81388000  0.44995000  0.17582000  1.0
  C  C215  1  0.15501000  0.24126000  0.85981000  1.0
  C  C216  1  0.26324000  0.86889000  0.14893000  1.0
  C  C217  1  0.65782000  0.46803000  0.09434000  1.0
  C  C218  1  0.44529000  0.00679000  0.06401000  1.0
  C  C219  1  0.69295000  0.34226000  0.13529000  1.0
  C  C220  1  0.23876000  0.98904000  0.13024000  1.0
  C  C221  1  0.36093000  0.96019000  0.09827000  1.0
  C  C222  1  0.74733000  0.49769000  0.13614000  1.0
  C  C223  1  0.89391000  0.56483000  0.19155000  1.0
  N  N224  1  0.12852000  0.38425000  0.11084000  1.0
  N  N225  1  0.31659000  0.43080000  0.16270000  1.0
  N  N226  1  0.59398000  0.99362000  0.20952000  1.0
  N  N227  1  0.70012000  0.06986000  0.14840000  1.0
  N  N228  1  0.62852000  0.11574000  0.88916000  1.0
  N  N229  1  0.81659000  0.06920000  0.83730000  1.0
  N  N230  1  0.09398000  0.50638000  0.79048000  1.0
  N  N231  1  0.20012000  0.43013000  0.85160000  1.0
  N  N232  1  0.62852000  0.61575000  0.61084000  1.0
  N  N233  1  0.81659000  0.56920000  0.66270000  1.0
  N  N234  1  0.09398000  0.00638000  0.70952000  1.0
  N  N235  1  0.20012000  0.93013000  0.64840000  1.0
  N  N236  1  0.12852000  0.88425000  0.38916000  1.0
  N  N237  1  0.31660000  0.93080000  0.33730000  1.0
  N  N238  1  0.59398000  0.49362000  0.29048000  1.0
  N  N239  1  0.70012000  0.56986000  0.35159000  1.0
  N  N240  1  0.37149000  0.38426000  0.38916000  1.0
  N  N241  1  0.18341000  0.43080000  0.33730000  1.0
  N  N242  1  0.90602000  0.99362000  0.29048000  1.0
  N  N243  1  0.79988000  0.06986000  0.35160000  1.0
  N  N244  1  0.87148000  0.11575000  0.61084000  1.0
  N  N245  1  0.68340000  0.06921000  0.66270000  1.0
  N  N246  1  0.40601000  0.50638000  0.70952000  1.0
  N  N247  1  0.29987000  0.43014000  0.64841000  1.0
  N  N248  1  0.87148000  0.61575000  0.88916000  1.0
  N  N249  1  0.68341000  0.56921000  0.83730000  1.0
  N  N250  1  0.40601000  0.00638000  0.79048000  1.0
  N  N251  1  0.29988000  0.93013000  0.85160000  1.0
  N  N252  1  0.37148000  0.88425000  0.11084000  1.0
  N  N253  1  0.18340000  0.93080000  0.16270000  1.0
  N  N254  1  0.90603000  0.49362000  0.20952000  1.0
  N  N255  1  0.79989000  0.56986000  0.14840000  1.0
  O  O256  1  0.07690000  0.65913000  0.97844000  1.0
  O  O257  1  0.91072000  0.78913000  0.03078000  1.0
  O  O258  1  0.06165000  0.89085000  0.02478000  1.0
  O  O259  1  0.86331000  0.62584000  0.02491000  1.0
  O  O260  1  0.21970000  0.73992000  0.06121000  1.0
  O  O261  1  0.25431000  0.78688000  0.88622000  1.0
  O  O262  1  0.45017000  0.76087000  0.82832000  1.0
  O  O263  1  0.45438000  0.69235000  0.08286000  1.0
  O  O264  1  0.57690000  0.84087000  0.02156000  1.0
  O  O265  1  0.41072000  0.71086000  0.96922000  1.0
  O  O266  1  0.56165000  0.60915000  0.97522000  1.0
  O  O267  1  0.36331000  0.87416000  0.97509000  1.0
  O  O268  1  0.71970000  0.76008000  0.93879000  1.0
  O  O269  1  0.75431000  0.71312000  0.11378000  1.0
  O  O270  1  0.95018000  0.73913000  0.17168000  1.0
  O  O271  1  0.95437000  0.80764000  0.91715000  1.0
  O  O272  1  0.57690000  0.34087000  0.47844000  1.0
  O  O273  1  0.41072000  0.21086000  0.53078000  1.0
  O  O274  1  0.56165000  0.10915000  0.52478000  1.0
  O  O275  1  0.36332000  0.37416000  0.52491000  1.0
  O  O276  1  0.71970000  0.26008000  0.56121000  1.0
  O  O277  1  0.75431000  0.21312000  0.38622000  1.0
  O  O278  1  0.95017000  0.23913000  0.32832000  1.0
  O  O279  1  0.95438000  0.30764000  0.58285000  1.0
  O  O280  1  0.07690000  0.15913000  0.52156000  1.0
  O  O281  1  0.91072000  0.28913000  0.46922000  1.0
  O  O282  1  0.06165000  0.39085000  0.47522000  1.0
  O  O283  1  0.86331000  0.12584000  0.47509000  1.0
  O  O284  1  0.21969000  0.23992000  0.43879000  1.0
  O  O285  1  0.25431000  0.28688000  0.61378000  1.0
  O  O286  1  0.45017000  0.26087000  0.67168000  1.0
  O  O287  1  0.45438000  0.19236000  0.41715000  1.0
  O  O288  1  0.42311000  0.65913000  0.52156000  1.0
  O  O289  1  0.58928000  0.78913000  0.46922000  1.0
  O  O290  1  0.43835000  0.89085000  0.47522000  1.0
  O  O291  1  0.63669000  0.62584000  0.47509000  1.0
  O  O292  1  0.28030000  0.73992000  0.43879000  1.0
  O  O293  1  0.24569000  0.78688000  0.61378000  1.0
  O  O294  1  0.04983000  0.76087000  0.67168000  1.0
  O  O295  1  0.04563000  0.69236000  0.41714000  1.0
  O  O296  1  0.92310000  0.84087000  0.47844000  1.0
  O  O297  1  0.08929000  0.71086000  0.53078000  1.0
  O  O298  1  0.93835000  0.60915000  0.52478000  1.0
  O  O299  1  0.13668000  0.87416000  0.52491000  1.0
  O  O300  1  0.78030000  0.76009000  0.56121000  1.0
  O  O301  1  0.74569000  0.71312000  0.38622000  1.0
  O  O302  1  0.54982000  0.73913000  0.32832000  1.0
  O  O303  1  0.54562000  0.80765000  0.58285000  1.0
  O  O304  1  0.92310000  0.34087000  0.02156000  1.0
  O  O305  1  0.08928000  0.21087000  0.96922000  1.0
  O  O306  1  0.93834000  0.10915000  0.97522000  1.0
  O  O307  1  0.13669000  0.37416000  0.97510000  1.0
  O  O308  1  0.78031000  0.26008000  0.93879000  1.0
  O  O309  1  0.74569000  0.21312000  0.11378000  1.0
  O  O310  1  0.54983000  0.23913000  0.17168000  1.0
  O  O311  1  0.54562000  0.30764000  0.91715000  1.0
  O  O312  1  0.42310000  0.15913000  0.97844000  1.0
  O  O313  1  0.58928000  0.28914000  0.03078000  1.0
  O  O314  1  0.43834000  0.39085000  0.02478000  1.0
  O  O315  1  0.63669000  0.12584000  0.02491000  1.0
  O  O316  1  0.28030000  0.23992000  0.06121000  1.0
  O  O317  1  0.24569000  0.28688000  0.88622000  1.0
  O  O318  1  0.04983000  0.26087000  0.82832000  1.0
  O  O319  1  0.04562000  0.19236000  0.08286000  1.0
