# generated using pymatgen
data_Al6H78C86O33
_symmetry_space_group_name_H-M   'P 1'
_cell_length_a   12.44730000
_cell_length_b   12.52010000
_cell_length_c   26.75480000
_cell_angle_alpha   81.42950000
_cell_angle_beta   82.99880000
_cell_angle_gamma   63.49270000
_symmetry_Int_Tables_number   1
_chemical_formula_structural   Al6H78C86O33
_chemical_formula_sum   'Al6 H78 C86 O33'
_cell_volume   3682.30010493
_cell_formula_units_Z   1
loop_
 _symmetry_equiv_pos_site_id
 _symmetry_equiv_pos_as_xyz
  1  'x, y, z'
loop_
 _atom_site_type_symbol
 _atom_site_label
 _atom_site_symmetry_multiplicity
 _atom_site_fract_x
 _atom_site_fract_y
 _atom_site_fract_z
 _atom_site_occupancy
  Al  Al0  1  0.59540000  0.58596000  0.49213000  1.0
  Al  Al1  1  0.58469000  0.33205000  0.50425000  1.0
  Al  Al2  1  0.34999000  0.55513000  0.50532000  1.0
  Al  Al3  1  0.06745000  0.07456000  0.01837000  1.0
  Al  Al4  1  0.32128000  0.08649000  0.00659000  1.0
  Al  Al5  1  0.09662000  0.31905000  0.00332000  1.0
  H  H6  1  0.30344000  0.69146000  0.82016000  1.0
  H  H7  1  0.45572000  0.64142000  0.73004000  1.0
  H  H8  1  0.70215000  0.53082000  0.79408000  1.0
  H  H9  1  0.64959000  0.51558000  0.71560000  1.0
  H  H10  1  0.97803000  0.33658000  0.69116000  1.0
  H  H11  1  0.86184000  0.48069000  0.69960000  1.0
  H  H12  1  0.77740000  0.17972000  0.73503000  1.0
  H  H13  1  0.92918000  0.15417000  0.72544000  1.0
  H  H14  1  0.61569000  0.39423000  0.74063000  1.0
  H  H15  1  0.64024000  0.43318000  0.82040000  1.0
  H  H16  1  0.92979000  0.15037000  0.81260000  1.0
  H  H17  1  0.21420000  0.51035000  0.20608000  1.0
  H  H18  1  0.26318000  0.22493000  0.31441000  1.0
  H  H19  1  0.16001000  0.37756000  0.31028000  1.0
  H  H20  1  0.14746000  0.38430000  0.22367000  1.0
  H  H21  1  0.19524000  0.00538000  0.70537000  1.0
  H  H22  1  0.22881000  0.22742000  0.23037000  1.0
  H  H23  1  0.54419000  0.25278000  0.28500000  1.0
  H  H24  1  0.47519000  0.15526000  0.30207000  1.0
  H  H25  1  0.13779000  0.01257000  0.78794000  1.0
  H  H26  1  0.48041000  0.87048000  0.78303000  1.0
  H  H27  1  0.48001000  0.68016000  0.84764000  1.0
  H  H28  1  0.27718000  0.08214000  0.75291000  1.0
  H  H29  1  0.11788000  0.46248000  0.75755000  1.0
  H  H30  1  0.01392000  0.53065000  0.70943000  1.0
  H  H31  1  0.01092000  0.61383000  0.75810000  1.0
  H  H32  1  0.84359000  0.56148000  0.77823000  1.0
  H  H33  1  0.95096000  0.47954000  0.82307000  1.0
  H  H34  1  0.10253000  0.30525000  0.84593000  1.0
  H  H35  1  0.06929000  0.18000000  0.85374000  1.0
  H  H36  1  0.20926000  0.16666000  0.82485000  1.0
  H  H37  1  0.06164000  0.18780000  0.76101000  1.0
  H  H38  1  0.12149000  0.29228000  0.74872000  1.0
  H  H39  1  0.29000000  0.62926000  0.70591000  1.0
  H  H40  1  0.77440000  0.03485000  0.79478000  1.0
  H  H41  1  0.84808000  0.00253000  0.85182000  1.0
  H  H42  1  0.69062000  0.04904000  0.85395000  1.0
  H  H43  1  0.73793000  0.21615000  0.86918000  1.0
  H  H44  1  0.65622000  0.25235000  0.81467000  1.0
  H  H45  1  0.07449000  0.58429000  0.26441000  1.0
  H  H46  1  0.09389000  0.54718000  0.33083000  1.0
  H  H47  1  0.05274000  0.69600000  0.30298000  1.0
  H  H48  1  0.27132000  0.58710000  0.32312000  1.0
  H  H49  1  0.24383000  0.65225000  0.25974000  1.0
  H  H50  1  0.71505000  0.13519000  0.23691000  1.0
  H  H51  1  0.71330000  0.07465000  0.18105000  1.0
  H  H52  1  0.75718000  0.19122000  0.17688000  1.0
  H  H53  1  0.54648000  0.26874000  0.14965000  1.0
  H  H54  1  0.55949000  0.33813000  0.19974000  1.0
  H  H55  1  0.43602000  0.54076000  0.27904000  1.0
  H  H56  1  0.43817000  0.50587000  0.19175000  1.0
  H  H57  1  0.38705000  0.05589000  0.27947000  1.0
  H  H58  1  0.33043000  0.06335000  0.22043000  1.0
  H  H59  1  0.46405000  0.94048000  0.23989000  1.0
  H  H60  1  0.49673000  0.09317000  0.17215000  1.0
  H  H61  1  0.58211000  0.04207000  0.22553000  1.0
  H  H62  1  0.04436000  0.08392000  0.64629000  1.0
  H  H63  1  0.14893000  0.95644000  0.61646000  1.0
  H  H64  1  0.99542000  0.98535000  0.62602000  1.0
  H  H65  1  0.10959000  0.82265000  0.69257000  1.0
  H  H66  1  0.00939000  0.95367000  0.71932000  1.0
  H  H67  1  0.16571000  0.78794000  0.88223000  1.0
  H  H68  1  0.05965000  0.93971000  0.87810000  1.0
  H  H69  1  0.01261000  0.82521000  0.87734000  1.0
  H  H70  1  0.00934000  0.91658000  0.79172000  1.0
  H  H71  1  0.12760000  0.77227000  0.79342000  1.0
  H  H72  1  0.64265000  0.88872000  0.66515000  1.0
  H  H73  1  0.63308000  0.87786000  0.73236000  1.0
  H  H74  1  0.73474000  0.75320000  0.70039000  1.0
  H  H75  1  0.56842000  0.71094000  0.73410000  1.0
  H  H76  1  0.55986000  0.73886000  0.66769000  1.0
  H  H77  1  0.51013000  0.89465000  0.60673000  1.0
  H  H78  1  0.35437000  0.96253000  0.59817000  1.0
  H  H79  1  0.43200000  0.05257000  0.59406000  1.0
  H  H80  1  0.30480000  0.05971000  0.67583000  1.0
  H  H81  1  0.45324000  0.02792000  0.68267000  1.0
  H  H82  1  0.67891000  0.71239000  0.45042000  1.0
  H  H83  1  0.93512000  0.00087000  0.00023000  1.0
  C  C84  1  0.71937000  0.37299000  0.56690000  1.0
  C  C85  1  0.37287000  0.31294000  0.73281000  1.0
  C  C86  1  0.37787000  0.31950000  0.68226000  1.0
  C  C87  1  0.38155000  0.32880000  0.63581000  1.0
  C  C88  1  0.36331000  0.70260000  0.74178000  1.0
  C  C89  1  0.19588000  0.91844000  0.72051000  1.0
  C  C90  1  0.18092000  0.91848000  0.77947000  1.0
  C  C91  1  0.30428000  0.91278000  0.89330000  1.0
  C  C92  1  0.32589000  0.82278000  0.70497000  1.0
  C  C93  1  0.36252000  0.72574000  0.79665000  1.0
  C  C94  1  0.31025000  0.86253000  0.79918000  1.0
  C  C95  1  0.39986000  0.35891000  0.58260000  1.0
  C  C96  1  0.39391000  0.91244000  0.76535000  1.0
  C  C97  1  0.41721000  0.87706000  0.70943000  1.0
  C  C98  1  0.30769000  0.88807000  0.85067000  1.0
  C  C99  1  0.33700000  0.78446000  0.65533000  1.0
  C  C100  1  0.35356000  0.74074000  0.61576000  1.0
  C  C101  1  0.68353000  0.42858000  0.73894000  1.0
  C  C102  1  0.89832000  0.38601000  0.71560000  1.0
  C  C103  1  0.93391000  0.37101000  0.77094000  1.0
  C  C104  1  0.86845000  0.34017000  0.90350000  1.0
  C  C105  1  0.80214000  0.34102000  0.71276000  1.0
  C  C106  1  0.38558000  0.69151000  0.56805000  1.0
  C  C107  1  0.70827000  0.44159000  0.79220000  1.0
  C  C108  1  0.83472000  0.34453000  0.80663000  1.0
  C  C109  1  0.84318000  0.21927000  0.79895000  1.0
  C  C110  1  0.84088000  0.21448000  0.74165000  1.0
  C  C111  1  0.84985000  0.34601000  0.85931000  1.0
  C  C112  1  0.78304000  0.34195000  0.66036000  1.0
  C  C113  1  0.76397000  0.34772000  0.61630000  1.0
  C  C114  1  0.33463000  0.46346000  0.26690000  1.0
  C  C115  1  0.24376000  0.31288000  0.29303000  1.0
  C  C116  1  0.23182000  0.31012000  0.23666000  1.0
  C  C117  1  0.71783000  0.38748000  0.42284000  1.0
  C  C118  1  0.31055000  0.30662000  0.10881000  1.0
  C  C119  1  0.35004000  0.34200000  0.29884000  1.0
  C  C120  1  0.31113000  0.45776000  0.21119000  1.0
  C  C121  1  0.33761000  0.32535000  0.20372000  1.0
  C  C122  1  0.46420000  0.22770000  0.22164000  1.0
  C  C123  1  0.46655000  0.23830000  0.27864000  1.0
  C  C124  1  0.32419000  0.31790000  0.15168000  1.0
  C  C125  1  0.35923000  0.34818000  0.35170000  1.0
  C  C126  1  0.36937000  0.35254000  0.39593000  1.0
  C  C127  1  0.30364000  0.88048000  0.13525000  1.0
  C  C128  1  0.39561000  0.37196000  0.44335000  1.0
  C  C129  1  0.31414000  0.85044000  0.18082000  1.0
  C  C130  1  0.32462000  0.82308000  0.23085000  1.0
  C  C131  1  0.33359000  0.80387000  0.27711000  1.0
  C  C132  1  0.34475000  0.78009000  0.32720000  1.0
  C  C133  1  0.35598000  0.75546000  0.37299000  1.0
  C  C134  1  0.91501000  0.29734000  0.13860000  1.0
  C  C135  1  0.88594000  0.31264000  0.18338000  1.0
  C  C136  1  0.85503000  0.32666000  0.23255000  1.0
  C  C137  1  0.82818000  0.33722000  0.27807000  1.0
  C  C138  1  0.79766000  0.34993000  0.32736000  1.0
  C  C139  1  0.38336000  0.70517000  0.42438000  1.0
  C  C140  1  0.76882000  0.36218000  0.37240000  1.0
  C  C141  1  0.27306000  0.96184000  0.94124000  1.0
  C  C142  1  0.29388000  0.27306000  0.92733000  1.0
  C  C143  1  0.93417000  0.30306000  0.94823000  1.0
  C  C144  1  0.27911000  0.93781000  0.08442000  1.0
  C  C145  1  0.28432000  0.27806000  0.06364000  1.0
  C  C146  1  0.96344000  0.26881000  0.08807000  1.0
  C  C147  1  0.33134000  0.29947000  0.87596000  1.0
  C  C148  1  0.35088000  0.30608000  0.82982000  1.0
  C  C149  1  0.36575000  0.31082000  0.77929000  1.0
  C  C150  1  0.93437000  0.48802000  0.78290000  1.0
  C  C151  1  0.02432000  0.52499000  0.75012000  1.0
  C  C152  1  0.06130000  0.26561000  0.77577000  1.0
  C  C153  1  0.11304000  0.22760000  0.82795000  1.0
  C  C154  1  0.74388000  0.19338000  0.83043000  1.0
  C  C155  1  0.76555000  0.06280000  0.83276000  1.0
  C  C156  1  0.23981000  0.57971000  0.28756000  1.0
  C  C157  1  0.10848000  0.60140000  0.29693000  1.0
  C  C158  1  0.56499000  0.25385000  0.18995000  1.0
  C  C159  1  0.69401000  0.15783000  0.19680000  1.0
  C  C160  1  0.49066000  0.09812000  0.21323000  1.0
  C  C161  1  0.41264000  0.03808000  0.23968000  1.0
  C  C162  1  0.09252000  0.91574000  0.69510000  1.0
  C  C163  1  0.06960000  0.98886000  0.64306000  1.0
  C  C164  1  0.09893000  0.86113000  0.80604000  1.0
  C  C165  1  0.08406000  0.85331000  0.86386000  1.0
  C  C166  1  0.54958000  0.78159000  0.70222000  1.0
  C  C167  1  0.64447000  0.82875000  0.69975000  1.0
  C  C168  1  0.39748000  0.98942000  0.67114000  1.0
  C  C169  1  0.42516000  0.97280000  0.61467000  1.0
  O  O170  1  0.48887000  0.67207000  0.54791000  1.0
  O  O171  1  0.49770000  0.29909000  0.46061000  1.0
  O  O172  1  0.31814000  0.46460000  0.46410000  1.0
  O  O173  1  0.30595000  0.67373000  0.45039000  1.0
  O  O174  1  0.50857000  0.49030000  0.50032000  1.0
  O  O175  1  0.95533000  0.20006000  0.97086000  1.0
  O  O176  1  0.16556000  0.99296000  0.95882000  1.0
  O  O177  1  0.35551000  0.97379000  0.96163000  1.0
  O  O178  1  0.36541000  0.17430000  0.95066000  1.0
  O  O179  1  0.19038000  0.34605000  0.94393000  1.0
  O  O180  1  0.97387000  0.37495000  0.96022000  1.0
  O  O181  1  0.69986000  0.47437000  0.54308000  1.0
  O  O182  1  0.98299000  0.16679000  0.07717000  1.0
  O  O183  1  0.17983000  0.95889000  0.06843000  1.0
  O  O184  1  0.36032000  0.96743000  0.06094000  1.0
  O  O185  1  0.35435000  0.17476000  0.04907000  1.0
  O  O186  1  0.18922000  0.35486000  0.04174000  1.0
  O  O187  1  0.98547000  0.34984000  0.05943000  1.0
  O  O188  1  0.16277000  0.16078000  0.00951000  1.0
  O  O189  1  0.69761000  0.29194000  0.55136000  1.0
  O  O190  1  0.49602000  0.28719000  0.56008000  1.0
  O  O191  1  0.32164000  0.45916000  0.56317000  1.0
  O  O192  1  0.30673000  0.66896000  0.55010000  1.0
  O  O193  1  0.48208000  0.69131000  0.43864000  1.0
  O  O194  1  0.68960000  0.49118000  0.43446000  1.0
  O  O195  1  0.70168000  0.30227000  0.45114000  1.0
  O  O196  1  0.48207000  0.66210000  0.81319000  1.0
  O  O197  1  0.35261000  0.03712000  0.76940000  1.0
  O  O198  1  0.28653000  0.64566000  0.74077000  1.0
  O  O199  1  0.44962000  0.46797000  0.26505000  1.0
  O  O200  1  0.36838000  0.51328000  0.17546000  1.0
  O  O201  1  0.67336000  0.67445000  0.48421000  1.0
  O  O202  1  0.98459000  0.99079000  0.02736000  1.0
