# generated using pymatgen
data_AgH4C6N4O3
_symmetry_space_group_name_H-M   'P 1'
_cell_length_a   7.23508000
_cell_length_b   7.23510000
_cell_length_c   14.77550000
_cell_angle_alpha   87.81000000
_cell_angle_beta   87.81020000
_cell_angle_gamma   86.32750000
_symmetry_Int_Tables_number   1
_chemical_formula_structural   AgH4C6N4O3
_chemical_formula_sum   'Ag4 H16 C24 N16 O12'
_cell_volume   770.79792670
_cell_formula_units_Z   4
loop_
 _symmetry_equiv_pos_site_id
 _symmetry_equiv_pos_as_xyz
  1  'x, y, z'
loop_
 _atom_site_type_symbol
 _atom_site_label
 _atom_site_symmetry_multiplicity
 _atom_site_fract_x
 _atom_site_fract_y
 _atom_site_fract_z
 _atom_site_occupancy
  Ag  Ag0  1  0.45840000  0.34243000  0.38765000  1.0
  Ag  Ag1  1  0.65757000  0.54160000  0.11235000  1.0
  Ag  Ag2  1  0.54160000  0.65757000  0.61235000  1.0
  Ag  Ag3  1  0.34243000  0.45840000  0.88765000  1.0
  H  H4  1  0.12409000  0.16647000  0.51152000  1.0
  H  H5  1  0.83353000  0.87590000  0.98848000  1.0
  H  H6  1  0.87590000  0.83353000  0.48848000  1.0
  H  H7  1  0.16647000  0.12410000  0.01152000  1.0
  H  H8  1  0.77392000  0.16383000  0.50403000  1.0
  H  H9  1  0.83617000  0.22607000  0.99597000  1.0
  H  H10  1  0.22607000  0.83617000  0.49597000  1.0
  H  H11  1  0.16383000  0.77393000  0.00403000  1.0
  H  H12  1  0.77845000  0.57757000  0.30109000  1.0
  H  H13  1  0.42244000  0.22155000  0.19891000  1.0
  H  H14  1  0.22155000  0.42243000  0.69891000  1.0
  H  H15  1  0.57757000  0.77845000  0.80109000  1.0
  H  H16  1  0.94321000  0.84750000  0.29591000  1.0
  H  H17  1  0.15250000  0.05679000  0.20409000  1.0
  H  H18  1  0.05679000  0.15250000  0.70409000  1.0
  H  H19  1  0.84750000  0.94321000  0.79591000  1.0
  C  C20  1  0.04641000  0.25592000  0.46345000  1.0
  C  C21  1  0.74409000  0.95358000  0.03655000  1.0
  C  C22  1  0.95358000  0.74409000  0.53655000  1.0
  C  C23  1  0.25591000  0.04642000  0.96345000  1.0
  C  C24  1  0.85466000  0.25341000  0.45883000  1.0
  C  C25  1  0.74660000  0.14534000  0.04117000  1.0
  C  C26  1  0.14534000  0.74659000  0.54117000  1.0
  C  C27  1  0.25341000  0.85466000  0.95883000  1.0
  C  C28  1  0.85621000  0.48540000  0.34791000  1.0
  C  C29  1  0.51460000  0.14379000  0.15209000  1.0
  C  C30  1  0.14379000  0.51460000  0.65209000  1.0
  C  C31  1  0.48540000  0.85621000  0.84791000  1.0
  C  C32  1  0.04885000  0.49004000  0.35358000  1.0
  C  C33  1  0.50996000  0.95115000  0.14642000  1.0
  C  C34  1  0.95115000  0.50996000  0.64641000  1.0
  C  C35  1  0.49004000  0.04885000  0.85359000  1.0
  C  C36  1  0.15615000  0.62196000  0.29849000  1.0
  C  C37  1  0.37803000  0.84385000  0.20151000  1.0
  C  C38  1  0.84385000  0.37803000  0.70151000  1.0
  C  C39  1  0.62197000  0.15615000  0.79849000  1.0
  C  C40  1  0.08402000  0.80076000  0.27453000  1.0
  C  C41  1  0.19924000  0.91597000  0.22547000  1.0
  C  C42  1  0.91598000  0.19924000  0.72547000  1.0
  C  C43  1  0.80076000  0.08403000  0.77453000  1.0
  N  N44  1  0.14370000  0.37402000  0.41150000  1.0
  N  N45  1  0.62598000  0.85630000  0.08850000  1.0
  N  N46  1  0.85630000  0.62598000  0.58850000  1.0
  N  N47  1  0.37402000  0.14370000  0.91150000  1.0
  N  N48  1  0.76016000  0.36786000  0.40049000  1.0
  N  N49  1  0.63215000  0.23984000  0.09951000  1.0
  N  N50  1  0.23984000  0.63215000  0.59951000  1.0
  N  N51  1  0.36785000  0.76016000  0.90049000  1.0
  N  N52  1  0.33053000  0.56005000  0.27421000  1.0
  N  N53  1  0.43995000  0.66947000  0.22579000  1.0
  N  N54  1  0.66947000  0.43995000  0.72579000  1.0
  N  N55  1  0.56004000  0.33053000  0.77421000  1.0
  N  N56  1  0.54511000  0.90127000  0.39448000  1.0
  N  N57  1  0.09873000  0.45489000  0.10552000  1.0
  N  N58  1  0.45489000  0.09873000  0.60552000  1.0
  N  N59  1  0.90127000  0.54511000  0.89448000  1.0
  O  O60  1  0.54886000  0.73948000  0.42984000  1.0
  O  O61  1  0.26053000  0.45115000  0.07016000  1.0
  O  O62  1  0.45114000  0.26052000  0.57016000  1.0
  O  O63  1  0.73947000  0.54885000  0.92984000  1.0
  O  O64  1  0.68458000  0.95956000  0.35040000  1.0
  O  O65  1  0.04044000  0.31542000  0.14960000  1.0
  O  O66  1  0.31542000  0.04044000  0.64960000  1.0
  O  O67  1  0.95955000  0.68458000  0.85040000  1.0
  O  O68  1  0.39742000  0.00770000  0.40304000  1.0
  O  O69  1  0.99230000  0.60258000  0.09696000  1.0
  O  O70  1  0.60258000  0.99230000  0.59696000  1.0
  O  O71  1  0.00770000  0.39742000  0.90304000  1.0
