# generated using pymatgen
data_ZnH2C7(NO3)2
_symmetry_space_group_name_H-M   'P 1'
_cell_length_a   7.14479000
_cell_length_b   7.14480000
_cell_length_c   19.87010000
_cell_angle_alpha   90.00000000
_cell_angle_beta   90.00000000
_cell_angle_gamma   89.99990000
_symmetry_Int_Tables_number   1
_chemical_formula_structural   ZnH2C7(NO3)2
_chemical_formula_sum   'Zn4 H8 C28 N8 O24'
_cell_volume   1014.33076422
_cell_formula_units_Z   4
loop_
 _symmetry_equiv_pos_site_id
 _symmetry_equiv_pos_as_xyz
  1  'x, y, z'
loop_
 _atom_site_type_symbol
 _atom_site_label
 _atom_site_symmetry_multiplicity
 _atom_site_fract_x
 _atom_site_fract_y
 _atom_site_fract_z
 _atom_site_occupancy
  Zn  Zn0  1  0.50000000  0.50000000  0.72169000  1.0
  Zn  Zn1  1  0.00000000  0.00000000  0.22169000  1.0
  Zn  Zn2  1  0.00000000  0.00000000  0.77831000  1.0
  Zn  Zn3  1  0.50000000  0.50000000  0.27831000  1.0
  H  H4  1  0.78455000  0.21545000  0.54978000  1.0
  H  H5  1  0.21545000  0.78455000  0.54978000  1.0
  H  H6  1  0.28455000  0.28455000  0.04978000  1.0
  H  H7  1  0.71545000  0.71545000  0.04978000  1.0
  H  H8  1  0.28455000  0.28455000  0.95022000  1.0
  H  H9  1  0.71545000  0.71545000  0.95022000  1.0
  H  H10  1  0.78455000  0.21545000  0.45022000  1.0
  H  H11  1  0.21545000  0.78455000  0.45022000  1.0
  C  C12  1  0.76516000  0.23484000  0.68897000  1.0
  C  C13  1  0.23484000  0.76516000  0.68897000  1.0
  C  C14  1  0.26516000  0.26516000  0.18897000  1.0
  C  C15  1  0.73484000  0.73484000  0.18897000  1.0
  C  C16  1  0.26516000  0.26516000  0.81103000  1.0
  C  C17  1  0.73484000  0.73484000  0.81103000  1.0
  C  C18  1  0.76516000  0.23484000  0.31103000  1.0
  C  C19  1  0.23484000  0.76516000  0.31103000  1.0
  C  C20  1  0.88517000  0.11484000  0.64384000  1.0
  C  C21  1  0.11484000  0.88516000  0.64384000  1.0
  C  C22  1  0.38516000  0.38516000  0.14384000  1.0
  C  C23  1  0.61484000  0.61484000  0.14384000  1.0
  C  C24  1  0.38517000  0.38516000  0.85616000  1.0
  C  C25  1  0.61484000  0.61483000  0.85616000  1.0
  C  C26  1  0.88516000  0.11484000  0.35616000  1.0
  C  C27  1  0.11484000  0.88516000  0.35616000  1.0
  C  C28  1  0.88092000  0.11908000  0.57391000  1.0
  C  C29  1  0.11908000  0.88092000  0.57391000  1.0
  C  C30  1  0.38092000  0.38092000  0.07391000  1.0
  C  C31  1  0.61908000  0.61908000  0.07391000  1.0
  C  C32  1  0.38092000  0.38092000  0.92609000  1.0
  C  C33  1  0.61908000  0.61908000  0.92609000  1.0
  C  C34  1  0.88092000  0.11908000  0.42609000  1.0
  C  C35  1  0.11908000  0.88092000  0.42609000  1.0
  C  C36  1  0.00000000  0.00000000  0.53728000  1.0
  C  C37  1  0.50000000  0.50000000  0.03729000  1.0
  C  C38  1  0.50000000  0.50000000  0.96272000  1.0
  C  C39  1  0.00000000  0.00000000  0.46272000  1.0
  N  N40  1  0.00000000  0.00000000  0.67698000  1.0
  N  N41  1  0.50000000  0.50000000  0.17698000  1.0
  N  N42  1  0.50000000  0.50000000  0.82302000  1.0
  N  N43  1  0.00000000  0.00000000  0.32302000  1.0
  N  N44  1  0.40709000  0.40707000  0.50000000  1.0
  N  N45  1  0.59293000  0.59291000  0.50000000  1.0
  N  N46  1  0.09292000  0.90708000  0.00000000  1.0
  N  N47  1  0.90708000  0.09292000  0.00000000  1.0
  O  O48  1  0.65257000  0.34743000  0.65923000  1.0
  O  O49  1  0.34743000  0.65257000  0.65923000  1.0
  O  O50  1  0.15257000  0.15257000  0.15923000  1.0
  O  O51  1  0.84743000  0.84743000  0.15923000  1.0
  O  O52  1  0.15257000  0.15257000  0.84077000  1.0
  O  O53  1  0.84743000  0.84743000  0.84077000  1.0
  O  O54  1  0.65257000  0.34743000  0.34077000  1.0
  O  O55  1  0.34743000  0.65257000  0.34077000  1.0
  O  O56  1  0.78387000  0.21613000  0.75163000  1.0
  O  O57  1  0.21614000  0.78387000  0.75163000  1.0
  O  O58  1  0.28386000  0.28387000  0.25163000  1.0
  O  O59  1  0.71613000  0.71614000  0.25163000  1.0
  O  O60  1  0.28386000  0.28387000  0.74837000  1.0
  O  O61  1  0.71613000  0.71613000  0.74837000  1.0
  O  O62  1  0.78386000  0.21614000  0.24837000  1.0
  O  O63  1  0.21613000  0.78387000  0.24837000  1.0
  O  O64  1  0.25085000  0.47022000  0.50000000  1.0
  O  O65  1  0.74917000  0.52977000  0.50000000  1.0
  O  O66  1  0.02977000  0.75083000  0.00000000  1.0
  O  O67  1  0.97023000  0.24916000  0.00000000  1.0
  O  O68  1  0.75083000  0.02978000  1.00000000  1.0
  O  O69  1  0.24915000  0.97023000  0.00000000  1.0
  O  O70  1  0.52978000  0.74916000  0.50000000  1.0
  O  O71  1  0.47023000  0.25083000  0.50000000  1.0
