# generated using pymatgen
data_ErH14C11NO8
_symmetry_space_group_name_H-M   'P 1'
_cell_length_a   8.32345000
_cell_length_b   11.98210000
_cell_length_c   13.15830000
_cell_angle_alpha   90.00000000
_cell_angle_beta   90.00000000
_cell_angle_gamma   96.48910000
_symmetry_Int_Tables_number   1
_chemical_formula_structural   ErH14C11NO8
_chemical_formula_sum   'Er4 H56 C44 N4 O32'
_cell_volume   1303.90150038
_cell_formula_units_Z   4
loop_
 _symmetry_equiv_pos_site_id
 _symmetry_equiv_pos_as_xyz
  1  'x, y, z'
loop_
 _atom_site_type_symbol
 _atom_site_label
 _atom_site_symmetry_multiplicity
 _atom_site_fract_x
 _atom_site_fract_y
 _atom_site_fract_z
 _atom_site_occupancy
  Er  Er0  1  0.00466000  0.33584000  0.59514000  1.0
  Er  Er1  1  0.49534000  0.66416000  0.09514000  1.0
  Er  Er2  1  0.99534000  0.66416000  0.40486000  1.0
  Er  Er3  1  0.50466000  0.33584000  0.90486000  1.0
  H  H4  1  0.80435000  0.52003000  0.61446000  1.0
  H  H5  1  0.69565000  0.47996000  0.11446000  1.0
  H  H6  1  0.19565000  0.47997000  0.38554000  1.0
  H  H7  1  0.30435000  0.52003000  0.88554000  1.0
  H  H8  1  0.77992000  0.46616000  0.72648000  1.0
  H  H9  1  0.72008000  0.53384000  0.22648000  1.0
  H  H10  1  0.22008000  0.53384000  0.27352000  1.0
  H  H11  1  0.27992000  0.46616000  0.77352000  1.0
  H  H12  1  0.93413000  0.26469000  0.80654000  1.0
  H  H13  1  0.56587000  0.73531000  0.30654000  1.0
  H  H14  1  0.06587000  0.73531000  0.19346000  1.0
  H  H15  1  0.43413000  0.26469000  0.69346000  1.0
  H  H16  1  0.12529000  0.25708000  0.79747000  1.0
  H  H17  1  0.37471000  0.74292000  0.29747000  1.0
  H  H18  1  0.87471000  0.74292000  0.20253000  1.0
  H  H19  1  0.62529000  0.25708000  0.70253000  1.0
  H  H20  1  0.15887000  0.20252000  0.37993000  1.0
  H  H21  1  0.34113000  0.79748000  0.87993000  1.0
  H  H22  1  0.84113000  0.79747000  0.62007000  1.0
  H  H23  1  0.65887000  0.20252000  0.12007000  1.0
  H  H24  1  0.06829000  0.05201000  0.25364000  1.0
  H  H25  1  0.43171000  0.94800000  0.75364000  1.0
  H  H26  1  0.93171000  0.94800000  0.74636000  1.0
  H  H27  1  0.56829000  0.05201000  0.24637000  1.0
  H  H28  1  0.81450000  0.92638000  0.28701000  1.0
  H  H29  1  0.68551000  0.07362000  0.78701000  1.0
  H  H30  1  0.18551000  0.07362000  0.71299000  1.0
  H  H31  1  0.31449000  0.92638000  0.21299000  1.0
  H  H32  1  0.65372000  0.96058000  0.44544000  1.0
  H  H33  1  0.84628000  0.03942000  0.94544000  1.0
  H  H34  1  0.34628000  0.03942000  0.55456000  1.0
  H  H35  1  0.15372000  0.96058000  0.05456000  1.0
  H  H36  1  0.51791000  0.22910000  0.50049000  1.0
  H  H37  1  0.98209000  0.77090000  0.00049000  1.0
  H  H38  1  0.48208000  0.77090000  0.49951000  1.0
  H  H39  1  0.01791000  0.22910000  0.99951000  1.0
  H  H40  1  0.56780000  0.37203000  0.52705000  1.0
  H  H41  1  0.93220000  0.62797000  0.02705000  1.0
  H  H42  1  0.43220000  0.62797000  0.47295000  1.0
  H  H43  1  0.06780000  0.37203000  0.97295000  1.0
  H  H44  1  0.47745000  0.41969000  0.34778000  1.0
  H  H45  1  0.02255000  0.58031000  0.84778000  1.0
  H  H46  1  0.52255000  0.58031000  0.65222000  1.0
  H  H47  1  0.97745000  0.41969000  0.15222000  1.0
  H  H48  1  0.42766000  0.27474000  0.32426000  1.0
  H  H49  1  0.07234000  0.72526000  0.82426000  1.0
  H  H50  1  0.57234000  0.72526000  0.67574000  1.0
  H  H51  1  0.92766000  0.27474000  0.17574000  1.0
  H  H52  1  0.71832000  0.24280000  0.35437000  1.0
  H  H53  1  0.78168000  0.75720000  0.85437000  1.0
  H  H54  1  0.28168000  0.75720000  0.64563000  1.0
  H  H55  1  0.21832000  0.24280000  0.14563000  1.0
  H  H56  1  0.68820000  0.33252000  0.24949000  1.0
  H  H57  1  0.81179000  0.66748000  0.74949000  1.0
  H  H58  1  0.31179000  0.66748000  0.75051000  1.0
  H  H59  1  0.18820000  0.33252000  0.25051000  1.0
  C  C60  1  0.04781000  0.14692000  0.39189000  1.0
  C  C61  1  0.45219000  0.85308000  0.89189000  1.0
  C  C62  1  0.95220000  0.85308000  0.60811000  1.0
  C  C63  1  0.54780000  0.14692000  0.10812000  1.0
  C  C64  1  0.99763000  0.06297000  0.32177000  1.0
  C  C65  1  0.50237000  0.93703000  0.82178000  1.0
  C  C66  1  0.00237000  0.93703000  0.67823000  1.0
  C  C67  1  0.49763000  0.06297000  0.17823000  1.0
  C  C68  1  0.85516000  0.99300000  0.34029000  1.0
  C  C69  1  0.64484000  0.00700000  0.84030000  1.0
  C  C70  1  0.14484000  0.00700000  0.65970000  1.0
  C  C71  1  0.35516000  0.99300000  0.15971000  1.0
  C  C72  1  0.76770000  0.01048000  0.42787000  1.0
  C  C73  1  0.73230000  0.98952000  0.92787000  1.0
  C  C74  1  0.23230000  0.98952000  0.57213000  1.0
  C  C75  1  0.26770000  0.01048000  0.07213000  1.0
  C  C76  1  0.82510000  0.09753000  0.49327000  1.0
  C  C77  1  0.67490000  0.90247000  0.99327000  1.0
  C  C78  1  0.17490000  0.90247000  0.50673000  1.0
  C  C79  1  0.32510000  0.09753000  0.00673000  1.0
  C  C80  1  0.72774000  0.12258000  0.58531000  1.0
  C  C81  1  0.77227000  0.87742000  0.08531000  1.0
  C  C82  1  0.27227000  0.87742000  0.41469000  1.0
  C  C83  1  0.22774000  0.12258000  0.91469000  1.0
  C  C84  1  0.31719000  0.31937000  0.52039000  1.0
  C  C85  1  0.18281000  0.68063000  0.02039000  1.0
  C  C86  1  0.68281000  0.68063000  0.47961000  1.0
  C  C87  1  0.81718000  0.31937000  0.97961000  1.0
  C  C88  1  0.48591000  0.31304000  0.48121000  1.0
  C  C89  1  0.01409000  0.68696000  0.98121000  1.0
  C  C90  1  0.51409000  0.68696000  0.51879000  1.0
  C  C91  1  0.98591000  0.31304000  0.01879000  1.0
  C  C92  1  0.50917000  0.33579000  0.36774000  1.0
  C  C93  1  0.99083000  0.66421000  0.86774000  1.0
  C  C94  1  0.49083000  0.66422000  0.63226000  1.0
  C  C95  1  0.00917000  0.33579000  0.13226000  1.0
  C  C96  1  0.68308000  0.32510000  0.33260000  1.0
  C  C97  1  0.81692000  0.67490000  0.83260000  1.0
  C  C98  1  0.31692000  0.67490000  0.66740000  1.0
  C  C99  1  0.18308000  0.32510000  0.16740000  1.0
  C  C100  1  0.80106000  0.41700000  0.37826000  1.0
  C  C101  1  0.69894000  0.58300000  0.87826000  1.0
  C  C102  1  0.19894000  0.58300000  0.62174000  1.0
  C  C103  1  0.30106000  0.41700000  0.12174000  1.0
  N  N104  1  0.96351000  0.16550000  0.47628000  1.0
  N  N105  1  0.53649000  0.83450000  0.97628000  1.0
  N  N106  1  0.03649000  0.83450000  0.52372000  1.0
  N  N107  1  0.46351000  0.16550000  0.02372000  1.0
  O  O108  1  0.60724000  0.05752000  0.60993000  1.0
  O  O109  1  0.89276000  0.94248000  0.10993000  1.0
  O  O110  1  0.39276000  0.94247000  0.39007000  1.0
  O  O111  1  0.10724000  0.05752000  0.89007000  1.0
  O  O112  1  0.77717000  0.21636000  0.63174000  1.0
  O  O113  1  0.72283000  0.78364000  0.13174000  1.0
  O  O114  1  0.22283000  0.78364000  0.36826000  1.0
  O  O115  1  0.27717000  0.21635000  0.86826000  1.0
  O  O116  1  0.21612000  0.37175000  0.47097000  1.0
  O  O117  1  0.28388000  0.62824000  0.97097000  1.0
  O  O118  1  0.78388000  0.62825000  0.52903000  1.0
  O  O119  1  0.71612000  0.37175000  0.02903000  1.0
  O  O120  1  0.27246000  0.27097000  0.60404000  1.0
  O  O121  1  0.22754000  0.72903000  0.10404000  1.0
  O  O122  1  0.72754000  0.72903000  0.39596000  1.0
  O  O123  1  0.77246000  0.27097000  0.89596000  1.0
  O  O124  1  0.87929000  0.39813000  0.45774000  1.0
  O  O125  1  0.62071000  0.60187000  0.95774000  1.0
  O  O126  1  0.12071000  0.60186000  0.54226000  1.0
  O  O127  1  0.37929000  0.39813000  0.04227000  1.0
  O  O128  1  0.81390000  0.51382000  0.33599000  1.0
  O  O129  1  0.68610000  0.48618000  0.83599000  1.0
  O  O130  1  0.18610000  0.48618000  0.66401000  1.0
  O  O131  1  0.31390000  0.51382000  0.16401000  1.0
  O  O132  1  0.83143000  0.45779000  0.65851000  1.0
  O  O133  1  0.66857000  0.54221000  0.15851000  1.0
  O  O134  1  0.16857000  0.54221000  0.34149000  1.0
  O  O135  1  0.33143000  0.45778000  0.84149000  1.0
  O  O136  1  0.02879000  0.28058000  0.76084000  1.0
  O  O137  1  0.47121000  0.71943000  0.26084000  1.0
  O  O138  1  0.97121000  0.71942000  0.23916000  1.0
  O  O139  1  0.52879000  0.28057000  0.73916000  1.0
