# generated using pymatgen
data_ZnH7C5O7
_symmetry_space_group_name_H-M   'P 1'
_cell_length_a   6.71086000
_cell_length_b   7.58523000
_cell_length_c   16.56803702
_cell_angle_alpha   77.98856064
_cell_angle_beta   85.75229252
_cell_angle_gamma   88.09730000
_symmetry_Int_Tables_number   1
_chemical_formula_structural   ZnH7C5O7
_chemical_formula_sum   'Zn4 H28 C20 O28'
_cell_volume   822.50232211
_cell_formula_units_Z   4
loop_
 _symmetry_equiv_pos_site_id
 _symmetry_equiv_pos_as_xyz
  1  'x, y, z'
loop_
 _atom_site_type_symbol
 _atom_site_label
 _atom_site_symmetry_multiplicity
 _atom_site_fract_x
 _atom_site_fract_y
 _atom_site_fract_z
 _atom_site_occupancy
  Zn  Zn0  1  0.21768000  0.61156000  0.81454000  1.0
  Zn  Zn1  1  0.78231000  0.38845000  0.18546000  1.0
  Zn  Zn2  1  0.26251000  0.34233000  0.68220000  1.0
  Zn  Zn3  1  0.73749000  0.65766000  0.31780000  1.0
  H  H4  1  0.36088000  0.92651000  0.50694000  1.0
  H  H5  1  0.63911000  0.07347000  0.49306000  1.0
  H  H6  1  0.34251000  0.94369000  0.94030000  1.0
  H  H7  1  0.65748000  0.05631000  0.05970000  1.0
  H  H8  1  0.56068000  0.53744000  0.71075000  1.0
  H  H9  1  0.43932000  0.46255000  0.28925000  1.0
  H  H10  1  0.53863000  0.36572000  0.78981000  1.0
  H  H11  1  0.46137000  0.63429000  0.21019000  1.0
  H  H12  1  0.45351000  0.46218000  0.92405000  1.0
  H  H13  1  0.54648000  0.53782000  0.07596000  1.0
  H  H14  1  0.28011000  0.54440000  0.97554000  1.0
  H  H15  1  0.71988000  0.45561000  0.02446000  1.0
  H  H16  1  0.48161000  0.83206000  0.74444000  1.0
  H  H17  1  0.51839000  0.16794000  0.25556000  1.0
  H  H18  1  0.35500000  0.93125000  0.80475000  1.0
  H  H19  1  0.64499000  0.06875000  0.19525000  1.0
  H  H20  1  0.89356000  0.43483000  0.64421000  1.0
  H  H21  1  0.10646000  0.56517000  0.35578000  1.0
  H  H22  1  0.88314000  0.25803000  0.71115000  1.0
  H  H23  1  0.11688000  0.74196000  0.28884000  1.0
  H  H24  1  0.51034000  0.10086000  0.62163000  1.0
  H  H25  1  0.48968000  0.89912000  0.37838000  1.0
  H  H26  1  0.56193000  0.30565000  0.57709000  1.0
  H  H27  1  0.43811000  0.69433000  0.42292000  1.0
  H  H28  1  0.86548000  0.78167000  0.82939000  1.0
  H  H29  1  0.13452000  0.21833000  0.17061000  1.0
  H  H30  1  0.85360000  0.59304000  0.88933000  1.0
  H  H31  1  0.14640000  0.40696000  0.11067000  1.0
  C  C32  1  0.06742000  0.86039000  0.56213000  1.0
  C  C33  1  0.93258000  0.13963000  0.43787000  1.0
  C  C34  1  0.86241000  0.90243000  0.55912000  1.0
  C  C35  1  0.13759000  0.09757000  0.44087000  1.0
  C  C36  1  0.20213000  0.95780000  0.50292000  1.0
  C  C37  1  0.79786000  0.04220000  0.49708000  1.0
  C  C38  1  0.14524000  0.71567000  0.62901000  1.0
  C  C39  1  0.85475000  0.28433000  0.37099000  1.0
  C  C40  1  0.71144000  0.80122000  0.62105000  1.0
  C  C41  1  0.28857000  0.19876000  0.37895000  1.0
  C  C42  1  0.06481000  0.09416000  0.92117000  1.0
  C  C43  1  0.93518000  0.90585000  0.07883000  1.0
  C  C44  1  0.87235000  0.12714000  0.95512000  1.0
  C  C45  1  0.12764000  0.87286000  0.04488000  1.0
  C  C46  1  0.19185000  0.96681000  0.96613000  1.0
  C  C47  1  0.80813000  0.03319000  0.03387000  1.0
  C  C48  1  0.12729000  0.20137000  0.83778000  1.0
  C  C49  1  0.87271000  0.79864000  0.16222000  1.0
  C  C50  1  0.73387000  0.25914000  0.90509000  1.0
  C  C51  1  0.26613000  0.74086000  0.09491000  1.0
  O  O52  1  0.23992000  0.58500000  0.60469000  1.0
  O  O53  1  0.76008000  0.41499000  0.39532000  1.0
  O  O54  1  0.11027000  0.73499000  0.70282000  1.0
  O  O55  1  0.88973000  0.26501000  0.29718000  1.0
  O  O56  1  0.56619000  0.89268000  0.64741000  1.0
  O  O57  1  0.43380000  0.10730000  0.35259000  1.0
  O  O58  1  0.73150000  0.63154000  0.64478000  1.0
  O  O59  1  0.26851000  0.36844000  0.35521000  1.0
  O  O60  1  0.23868000  0.12908000  0.78647000  1.0
  O  O61  1  0.76130000  0.87092000  0.21353000  1.0
  O  O62  1  0.06246000  0.36226000  0.81708000  1.0
  O  O63  1  0.93753000  0.63774000  0.18292000  1.0
  O  O64  1  0.66396000  0.21604000  0.84337000  1.0
  O  O65  1  0.33603000  0.78397000  0.15663000  1.0
  O  O66  1  0.69074000  0.40618000  0.93021000  1.0
  O  O67  1  0.30926000  0.59382000  0.06979000  1.0
  O  O68  1  0.45888000  0.46090000  0.75057000  1.0
  O  O69  1  0.54111000  0.53910000  0.24943000  1.0
  O  O70  1  0.30518000  0.48455000  0.92750000  1.0
  O  O71  1  0.69480000  0.51547000  0.07250000  1.0
  O  O72  1  0.42561000  0.81349000  0.80349000  1.0
  O  O73  1  0.57439000  0.18652000  0.19650000  1.0
  O  O74  1  0.95255000  0.31101000  0.65804000  1.0
  O  O75  1  0.04747000  0.68899000  0.34195000  1.0
  O  O76  1  0.45424000  0.22907000  0.60583000  1.0
  O  O77  1  0.54580000  0.77093000  0.39418000  1.0
  O  O78  1  0.94172000  0.69788000  0.86892000  1.0
  O  O79  1  0.05827000  0.30213000  0.13108000  1.0
