# generated using pymatgen
data_Zn8H36C70Cl6O29
_symmetry_space_group_name_H-M   'P 1'
_cell_length_a   18.20220000
_cell_length_b   18.20947611
_cell_length_c   18.30710000
_cell_angle_alpha   60.44386941
_cell_angle_beta   60.58800000
_cell_angle_gamma   60.50526096
_symmetry_Int_Tables_number   1
_chemical_formula_structural   Zn8H36C70Cl6O29
_chemical_formula_sum   'Zn8 H36 C70 Cl6 O29'
_cell_volume   4340.34460622
_cell_formula_units_Z   1
loop_
 _symmetry_equiv_pos_site_id
 _symmetry_equiv_pos_as_xyz
  1  'x, y, z'
loop_
 _atom_site_type_symbol
 _atom_site_label
 _atom_site_symmetry_multiplicity
 _atom_site_fract_x
 _atom_site_fract_y
 _atom_site_fract_z
 _atom_site_occupancy
  Zn  Zn0  1  0.13645000  0.95278000  0.45903000  1.0
  Zn  Zn1  1  0.95853000  0.12744000  0.45851000  1.0
  Zn  Zn2  1  0.95504000  0.95799000  0.63107000  1.0
  Zn  Zn3  1  0.95832000  0.95276000  0.45903000  1.0
  Zn  Zn4  1  0.37036000  0.54838000  0.04190000  1.0
  Zn  Zn5  1  0.54316000  0.54423000  0.87151000  1.0
  Zn  Zn6  1  0.54293000  0.36887000  0.04287000  1.0
  Zn  Zn7  1  0.54049000  0.54381000  0.05122000  1.0
  H  H8  1  0.37855000  0.65362000  0.28065000  1.0
  H  H9  1  0.95778000  0.72256000  0.55718000  1.0
  H  H10  1  0.99441000  0.58201000  0.53840000  1.0
  H  H11  1  0.91243000  0.47398000  0.65577000  1.0
  H  H12  1  0.64185000  0.76708000  0.88198000  1.0
  H  H13  1  0.97836000  0.09799000  0.22447000  1.0
  H  H14  1  0.04955000  0.10686000  0.06685000  1.0
  H  H15  1  0.96300000  0.20968000  0.96146000  1.0
  H  H16  1  0.17708000  0.66761000  0.26308000  1.0
  H  H17  1  0.60137000  0.33557000  0.30176000  1.0
  H  H18  1  0.85593000  0.11267000  0.78734000  1.0
  H  H19  1  0.32427000  0.82419000  0.25060000  1.0
  H  H20  1  0.72515000  0.25893000  0.55639000  1.0
  H  H21  1  0.59725000  0.39206000  0.52383000  1.0
  H  H22  1  0.51002000  0.49067000  0.61808000  1.0
  H  H23  1  0.55031000  0.45356000  0.74478000  1.0
  H  H24  1  0.76515000  0.20822000  0.88451000  1.0
  H  H25  1  0.28127000  0.11862000  0.23771000  1.0
  H  H26  1  0.06742000  0.25183000  0.46574000  1.0
  H  H27  1  0.04161000  0.38102000  0.49674000  1.0
  H  H28  1  0.18687000  0.74661000  0.15540000  1.0
  H  H29  1  0.13272000  0.48264000  0.38940000  1.0
  H  H30  1  0.39503000  0.77170000  0.12945000  1.0
  H  H31  1  0.24827000  0.45408000  0.25212000  1.0
  H  H32  1  0.37346000  0.21899000  0.13220000  1.0
  H  H33  1  0.29865000  0.83065000  0.09636000  1.0
  H  H34  1  0.27098000  0.71841000  0.38730000  1.0
  H  H35  1  0.26405000  0.75352000  0.91155000  1.0
  H  H36  1  0.76652000  0.49869000  0.85668000  1.0
  H  H37  1  0.20926000  0.95307000  0.15103000  1.0
  H  H38  1  0.14874000  0.88598000  0.75776000  1.0
  H  H39  1  0.25901000  0.52511000  0.65660000  1.0
  H  H40  1  0.36623000  0.43689000  0.74189000  1.0
  H  H41  1  0.38579000  0.50764000  0.81302000  1.0
  H  H42  1  0.74374000  0.85824000  0.78385000  1.0
  H  H43  1  0.08060000  0.79094000  0.31073000  1.0
  C  C44  1  0.86587000  0.13276000  0.36140000  1.0
  C  C45  1  0.34150000  0.54743000  0.77343000  1.0
  C  C46  1  0.29443000  0.63898000  0.76543000  1.0
  C  C47  1  0.13626000  0.85149000  0.64372000  1.0
  C  C48  1  0.23550000  0.69165000  0.71290000  1.0
  C  C49  1  0.18819000  0.78367000  0.70673000  1.0
  C  C50  1  0.18832000  0.81707000  0.75963000  1.0
  C  C51  1  0.23940000  0.76382000  0.81745000  1.0
  C  C52  1  0.29823000  0.67797000  0.81476000  1.0
  C  C53  1  0.91862000  0.67853000  0.60565000  1.0
  C  C54  1  0.93902000  0.59963000  0.59556000  1.0
  C  C55  1  0.23996000  0.71315000  0.35245000  1.0
  C  C56  1  0.89269000  0.53909000  0.66021000  1.0
  C  C57  1  0.82343000  0.55970000  0.73384000  1.0
  C  C58  1  0.79350000  0.64485000  0.74229000  1.0
  C  C59  1  0.13959000  0.13832000  0.37723000  1.0
  C  C60  1  0.84638000  0.70307000  0.67910000  1.0
  C  C61  1  0.82534000  0.78123000  0.69632000  1.0
  C  C62  1  0.75604000  0.80012000  0.77102000  1.0
  C  C63  1  0.70006000  0.74784000  0.82724000  1.0
  C  C64  1  0.71633000  0.67298000  0.81206000  1.0
  C  C65  1  0.94023000  0.14211000  0.17869000  1.0
  C  C66  1  0.19707000  0.80914000  0.29489000  1.0
  C  C67  1  0.97995000  0.14675000  0.09102000  1.0
  C  C68  1  0.93136000  0.20419000  0.03137000  1.0
  C  C69  1  0.84307000  0.25534000  0.06057000  1.0
  C  C70  1  0.79734000  0.25141000  0.15137000  1.0
  C  C71  1  0.87515000  0.84644000  0.63701000  1.0
  C  C72  1  0.84966000  0.19392000  0.21052000  1.0
  C  C73  1  0.81038000  0.19044000  0.30091000  1.0
  C  C74  1  0.72272000  0.24134000  0.33195000  1.0
  C  C75  1  0.67069000  0.29652000  0.27546000  1.0
  C  C76  1  0.70627000  0.30093000  0.18769000  1.0
  C  C77  1  0.29749000  0.70218000  0.20004000  1.0
  C  C78  1  0.68719000  0.30070000  0.59824000  1.0
  C  C79  1  0.61565000  0.37572000  0.57984000  1.0
  C  C80  1  0.56636000  0.43117000  0.63299000  1.0
  C  C81  1  0.58862000  0.41015000  0.70451000  1.0
  C  C82  1  0.66151000  0.33295000  0.72613000  1.0
  C  C83  1  0.84726000  0.13959000  0.63791000  1.0
  C  C84  1  0.71278000  0.27703000  0.67100000  1.0
  C  C85  1  0.78498000  0.19822000  0.69411000  1.0
  C  C86  1  0.80169000  0.17383000  0.77063000  1.0
  C  C87  1  0.75098000  0.22745000  0.82498000  1.0
  C  C88  1  0.32224000  0.78843000  0.15404000  1.0
  C  C89  1  0.68369000  0.30654000  0.80253000  1.0
  C  C90  1  0.10744000  0.29546000  0.41869000  1.0
  C  C91  1  0.09286000  0.36814000  0.43579000  1.0
  C  C92  1  0.14404000  0.42559000  0.37524000  1.0
  C  C93  1  0.20918000  0.40944000  0.29837000  1.0
  C  C94  1  0.22656000  0.33492000  0.27855000  1.0
  C  C95  1  0.14099000  0.86829000  0.35401000  1.0
  C  C96  1  0.17425000  0.27620000  0.34031000  1.0
  C  C97  1  0.19471000  0.19887000  0.32213000  1.0
  C  C98  1  0.26618000  0.17867000  0.24908000  1.0
  C  C99  1  0.31285000  0.65615000  0.29075000  1.0
  C  C100  1  0.31753000  0.23536000  0.18953000  1.0
  C  C101  1  0.29732000  0.31307000  0.20216000  1.0
  C  C102  1  0.64473000  0.63038000  0.86791000  1.0
  C  C103  1  0.35475000  0.37013000  0.13486000  1.0
  C  C104  1  0.36244000  0.63179000  0.86317000  1.0
  C  C105  1  0.64028000  0.35888000  0.13803000  1.0
  C  C106  1  0.63595000  0.36231000  0.86113000  1.0
  C  C107  1  0.14204000  0.80183000  0.25786000  1.0
  C  C108  1  0.35810000  0.64131000  0.14311000  1.0
  C  C109  1  0.19817000  0.72666000  0.21704000  1.0
  C  C110  1  0.22435000  0.64659000  0.67558000  1.0
  C  C111  1  0.27751000  0.84058000  0.21909000  1.0
  C  C112  1  0.27081000  0.55702000  0.68505000  1.0
  C  C113  1  0.33020000  0.50771000  0.73381000  1.0
  Cl  Cl114  1  0.10064000  0.90704000  0.17612000  1.0
  Cl  Cl115  1  0.14608000  0.69948000  0.62186000  1.0
  Cl  Cl116  1  0.67385000  0.23775000  0.44153000  1.0
  Cl  Cl117  1  0.79231000  0.32685000  0.97929000  1.0
  Cl  Cl118  1  0.15465000  0.66574000  0.43972000  1.0
  Cl  Cl119  1  0.31932000  0.54137000  0.33850000  1.0
  O  O120  1  0.00490000  0.99630000  0.50078000  1.0
  O  O121  1  0.61083000  0.31894000  0.12306000  1.0
  O  O122  1  0.62121000  0.44620000  0.82328000  1.0
  O  O123  1  0.87290000  0.05047000  0.39714000  1.0
  O  O124  1  0.44209000  0.62061000  0.12223000  1.0
  O  O125  1  0.61543000  0.32052000  0.94486000  1.0
  O  O126  1  0.31944000  0.61741000  0.12080000  1.0
  O  O127  1  0.33475000  0.64586000  0.93709000  1.0
  O  O128  1  0.61530000  0.44252000  0.12217000  1.0
  O  O129  1  0.60723000  0.62621000  0.82736000  1.0
  O  O130  1  0.43835000  0.32864000  0.10995000  1.0
  O  O131  1  0.18111000  0.05503000  0.38792000  1.0
  O  O132  1  0.18094000  0.87451000  0.56125000  1.0
  O  O133  1  0.05512000  0.17525000  0.40661000  1.0
  O  O134  1  0.88202000  0.88424000  0.67530000  1.0
  O  O135  1  0.86585000  0.17625000  0.55370000  1.0
  O  O136  1  0.05748000  0.90040000  0.36784000  1.0
  O  O137  1  0.87969000  0.05660000  0.67896000  1.0
  O  O138  1  0.18346000  0.87780000  0.38522000  1.0
  O  O139  1  0.23089000  0.80186000  0.86969000  1.0
  O  O140  1  0.78649000  0.49428000  0.79841000  1.0
  O  O141  1  0.25449000  0.93472000  0.17649000  1.0
  O  O142  1  0.90477000  0.86159000  0.55321000  1.0
  O  O143  1  0.90111000  0.17209000  0.37009000  1.0
  O  O144  1  0.05280000  0.88436000  0.68066000  1.0
  O  O145  1  0.50058000  0.50058000  0.00243000  1.0
  O  O146  1  0.62511000  0.60562000  0.95196000  1.0
  O  O147  1  0.31608000  0.45484000  0.10678000  1.0
  O  O148  1  0.44169000  0.58402000  0.83100000  1.0
