# generated using pymatgen
data_CuH21C31(NO3)2
_symmetry_space_group_name_H-M   'P 1'
_cell_length_a   9.83691000
_cell_length_b   23.65230000
_cell_length_c   25.22930000
_cell_angle_alpha   89.99980000
_cell_angle_beta   89.99990000
_cell_angle_gamma   89.96700000
_symmetry_Int_Tables_number   1
_chemical_formula_structural   CuH21C31(NO3)2
_chemical_formula_sum   'Cu8 H168 C248 N16 O48'
_cell_volume   5869.98789595
_cell_formula_units_Z   8
loop_
 _symmetry_equiv_pos_site_id
 _symmetry_equiv_pos_as_xyz
  1  'x, y, z'
loop_
 _atom_site_type_symbol
 _atom_site_label
 _atom_site_symmetry_multiplicity
 _atom_site_fract_x
 _atom_site_fract_y
 _atom_site_fract_z
 _atom_site_occupancy
  Cu  Cu0  1  0.11662000  0.72403000  0.02305000  1.0
  Cu  Cu1  1  0.38254000  0.22397000  0.47690000  1.0
  Cu  Cu2  1  0.88338000  0.77597000  0.02305000  1.0
  Cu  Cu3  1  0.61747000  0.27603000  0.47689000  1.0
  Cu  Cu4  1  0.88259000  0.27604000  0.97689000  1.0
  Cu  Cu5  1  0.61746000  0.77603000  0.52310000  1.0
  Cu  Cu6  1  0.11741000  0.22396000  0.97689000  1.0
  Cu  Cu7  1  0.38253000  0.72397000  0.52310000  1.0
  H  H8  1  0.63637000  0.24586000  0.74283000  1.0
  H  H9  1  0.86364000  0.74585000  0.75717000  1.0
  H  H10  1  0.36363000  0.25414000  0.74283000  1.0
  H  H11  1  0.13637000  0.75415000  0.75717000  1.0
  H  H12  1  0.36363000  0.75413000  0.25717000  1.0
  H  H13  1  0.13636000  0.25416000  0.24282000  1.0
  H  H14  1  0.63637000  0.74587000  0.25717000  1.0
  H  H15  1  0.86363000  0.24584000  0.24282000  1.0
  H  H16  1  0.81517000  0.68686000  0.65471000  1.0
  H  H17  1  0.68471000  0.18689000  0.84531000  1.0
  H  H18  1  0.18482000  0.81314000  0.65471000  1.0
  H  H19  1  0.31530000  0.31311000  0.84531000  1.0
  H  H20  1  0.18482000  0.31315000  0.34529000  1.0
  H  H21  1  0.31573000  0.81310000  0.15498000  1.0
  H  H22  1  0.81519000  0.18685000  0.34529000  1.0
  H  H23  1  0.68428000  0.68690000  0.15498000  1.0
  H  H24  1  0.42225000  0.60796000  0.64537000  1.0
  H  H25  1  0.07776000  0.10789000  0.85458000  1.0
  H  H26  1  0.57775000  0.89204000  0.64537000  1.0
  H  H27  1  0.92224000  0.39211000  0.85458000  1.0
  H  H28  1  0.57768000  0.39207000  0.35460000  1.0
  H  H29  1  0.92269000  0.89215000  0.14550000  1.0
  H  H30  1  0.42231000  0.10794000  0.35461000  1.0
  H  H31  1  0.07731000  0.60785000  0.14550000  1.0
  H  H32  1  0.47785000  0.54792000  0.72355000  1.0
  H  H33  1  0.02221000  0.04789000  0.77640000  1.0
  H  H34  1  0.52215000  0.95207000  0.72355000  1.0
  H  H35  1  0.97778000  0.45211000  0.77640000  1.0
  H  H36  1  0.52209000  0.45208000  0.27642000  1.0
  H  H37  1  0.97810000  0.95220000  0.22375000  1.0
  H  H38  1  0.47790000  0.04793000  0.27642000  1.0
  H  H39  1  0.02190000  0.54780000  0.22375000  1.0
  H  H40  1  0.67535000  0.70238000  0.89180000  1.0
  H  H41  1  0.82460000  0.20251000  0.60813000  1.0
  H  H42  1  0.32465000  0.79762000  0.89180000  1.0
  H  H43  1  0.17541000  0.29750000  0.60813000  1.0
  H  H44  1  0.32471000  0.29745000  0.10815000  1.0
  H  H45  1  0.17543000  0.79749000  0.39186000  1.0
  H  H46  1  0.67529000  0.20254000  0.10815000  1.0
  H  H47  1  0.82457000  0.70251000  0.39186000  1.0
  H  H48  1  0.59225000  0.64295000  0.81621000  1.0
  H  H49  1  0.90761000  0.14309000  0.68366000  1.0
  H  H50  1  0.40775000  0.85705000  0.81621000  1.0
  H  H51  1  0.09239000  0.35691000  0.68366000  1.0
  H  H52  1  0.40767000  0.35687000  0.18365000  1.0
  H  H53  1  0.09244000  0.85694000  0.31634000  1.0
  H  H54  1  0.59233000  0.14313000  0.18364000  1.0
  H  H55  1  0.90756000  0.64306000  0.31635000  1.0
  H  H56  1  0.92684000  0.52797000  0.84042000  1.0
  H  H57  1  0.57303000  0.02824000  0.65937000  1.0
  H  H58  1  0.07315000  0.97203000  0.84042000  1.0
  H  H59  1  0.42697000  0.47176000  0.65937000  1.0
  H  H60  1  0.07290000  0.47181000  0.15935000  1.0
  H  H61  1  0.42701000  0.97177000  0.34066000  1.0
  H  H62  1  0.92709000  0.02819000  0.15935000  1.0
  H  H63  1  0.57298000  0.52823000  0.34066000  1.0
  H  H64  1  0.00901000  0.58798000  0.91503000  1.0
  H  H65  1  0.49126000  0.08821000  0.58471000  1.0
  H  H66  1  0.99099000  0.91202000  0.91503000  1.0
  H  H67  1  0.50874000  0.41179000  0.58471000  1.0
  H  H68  1  0.99118000  0.41184000  0.08472000  1.0
  H  H69  1  0.50883000  0.91176000  0.41532000  1.0
  H  H70  1  0.00882000  0.08816000  0.08472000  1.0
  H  H71  1  0.49116000  0.58824000  0.41532000  1.0
  H  H72  1  0.66499000  0.48809000  0.86484000  1.0
  H  H73  1  0.83500000  0.98810000  0.63513000  1.0
  H  H74  1  0.33502000  0.01190000  0.86484000  1.0
  H  H75  1  0.16500000  0.51191000  0.63512000  1.0
  H  H76  1  0.33498000  0.51190000  0.13511000  1.0
  H  H77  1  0.16497000  0.01194000  0.36490000  1.0
  H  H78  1  0.66501000  0.98810000  0.13511000  1.0
  H  H79  1  0.83503000  0.48806000  0.36490000  1.0
  H  H80  1  0.63631000  0.38375000  0.86612000  1.0
  H  H81  1  0.86369000  0.88374000  0.63388000  1.0
  H  H82  1  0.36370000  0.11625000  0.86612000  1.0
  H  H83  1  0.13631000  0.61627000  0.63387000  1.0
  H  H84  1  0.36367000  0.61625000  0.13388000  1.0
  H  H85  1  0.13628000  0.11632000  0.36614000  1.0
  H  H86  1  0.63633000  0.88375000  0.13388000  1.0
  H  H87  1  0.86372000  0.38368000  0.36614000  1.0
  H  H88  1  0.68320000  0.37870000  0.69652000  1.0
  H  H89  1  0.81680000  0.87875000  0.80346000  1.0
  H  H90  1  0.31680000  0.12131000  0.69652000  1.0
  H  H91  1  0.18319000  0.62125000  0.80345000  1.0
  H  H92  1  0.31681000  0.62124000  0.30345000  1.0
  H  H93  1  0.18318000  0.12125000  0.19654000  1.0
  H  H94  1  0.68319000  0.87876000  0.30346000  1.0
  H  H95  1  0.81681000  0.37875000  0.19654000  1.0
  H  H96  1  0.71398000  0.48249000  0.69477000  1.0
  H  H97  1  0.78600000  0.98254000  0.80521000  1.0
  H  H98  1  0.28601000  0.01751000  0.69477000  1.0
  H  H99  1  0.21398000  0.51746000  0.80521000  1.0
  H  H100  1  0.28600000  0.51746000  0.30520000  1.0
  H  H101  1  0.21399000  0.01745000  0.19482000  1.0
  H  H102  1  0.71399000  0.98254000  0.30520000  1.0
  H  H103  1  0.78600000  0.48255000  0.19483000  1.0
  H  H104  1  0.40332000  0.71270000  0.07530000  1.0
  H  H105  1  0.09619000  0.21258000  0.42469000  1.0
  H  H106  1  0.59668000  0.78730000  0.07530000  1.0
  H  H107  1  0.90382000  0.28742000  0.42468000  1.0
  H  H108  1  0.59637000  0.28739000  0.92469000  1.0
  H  H109  1  0.90381000  0.78742000  0.57531000  1.0
  H  H110  1  0.40364000  0.21261000  0.92469000  1.0
  H  H111  1  0.09619000  0.71258000  0.57531000  1.0
  H  H112  1  0.61349000  0.65620000  0.06446000  1.0
  H  H113  1  0.88616000  0.15613000  0.43554000  1.0
  H  H114  1  0.38652000  0.84380000  0.06446000  1.0
  H  H115  1  0.11385000  0.34388000  0.43554000  1.0
  H  H116  1  0.38621000  0.34389000  0.93556000  1.0
  H  H117  1  0.11384000  0.84387000  0.56446000  1.0
  H  H118  1  0.61380000  0.15611000  0.93557000  1.0
  H  H119  1  0.88616000  0.65613000  0.56446000  1.0
  H  H120  1  0.40662000  0.56324000  0.94031000  1.0
  H  H121  1  0.09316000  0.06319000  0.55970000  1.0
  H  H122  1  0.59337000  0.93676000  0.94032000  1.0
  H  H123  1  0.90684000  0.43682000  0.55970000  1.0
  H  H124  1  0.59308000  0.43682000  0.05968000  1.0
  H  H125  1  0.90684000  0.93682000  0.44030000  1.0
  H  H126  1  0.40691000  0.06318000  0.05968000  1.0
  H  H127  1  0.09316000  0.56318000  0.44030000  1.0
  H  H128  1  0.20789000  0.62762000  0.95428000  1.0
  H  H129  1  0.29179000  0.12754000  0.54573000  1.0
  H  H130  1  0.79211000  0.87238000  0.95428000  1.0
  H  H131  1  0.70821000  0.37246000  0.54573000  1.0
  H  H132  1  0.79188000  0.37242000  0.04570000  1.0
  H  H133  1  0.70822000  0.87246000  0.45427000  1.0
  H  H134  1  0.20812000  0.12758000  0.04570000  1.0
  H  H135  1  0.29179000  0.62754000  0.45427000  1.0
  H  H136  1  0.62822000  0.53357000  0.96267000  1.0
  H  H137  1  0.87178000  0.03354000  0.53735000  1.0
  H  H138  1  0.37177000  0.96643000  0.96268000  1.0
  H  H139  1  0.12823000  0.46647000  0.53736000  1.0
  H  H140  1  0.37163000  0.46649000  0.03734000  1.0
  H  H141  1  0.12823000  0.96647000  0.46264000  1.0
  H  H142  1  0.62836000  0.03351000  0.03735000  1.0
  H  H143  1  0.87177000  0.53354000  0.46265000  1.0
  H  H144  1  0.78202000  0.47108000  0.95824000  1.0
  H  H145  1  0.71796000  0.97105000  0.54179000  1.0
  H  H146  1  0.21798000  0.02891000  0.95825000  1.0
  H  H147  1  0.28204000  0.52895000  0.54179000  1.0
  H  H148  1  0.21792000  0.52891000  0.04174000  1.0
  H  H149  1  0.28204000  0.02895000  0.45821000  1.0
  H  H150  1  0.78207000  0.97108000  0.04175000  1.0
  H  H151  1  0.71796000  0.47105000  0.45821000  1.0
  H  H152  1  0.98744000  0.41511000  0.94261000  1.0
  H  H153  1  0.51271000  0.91512000  0.55740000  1.0
  H  H154  1  0.01256000  0.08489000  0.94261000  1.0
  H  H155  1  0.48729000  0.58488000  0.55740000  1.0
  H  H156  1  0.01257000  0.58490000  0.05738000  1.0
  H  H157  1  0.48729000  0.08488000  0.44260000  1.0
  H  H158  1  0.98743000  0.91509000  0.05738000  1.0
  H  H159  1  0.51271000  0.41512000  0.44260000  1.0
  H  H160  1  0.87247000  0.62615000  0.73294000  1.0
  H  H161  1  0.62742000  0.12622000  0.76709000  1.0
  H  H162  1  0.12752000  0.87385000  0.73295000  1.0
  H  H163  1  0.37258000  0.37379000  0.76709000  1.0
  H  H164  1  0.12747000  0.37382000  0.26705000  1.0
  H  H165  1  0.37282000  0.87398000  0.23316000  1.0
  H  H166  1  0.87253000  0.12618000  0.26705000  1.0
  H  H167  1  0.62719000  0.62602000  0.23316000  1.0
  H  H168  1  0.77850000  0.60127000  0.04883000  1.0
  H  H169  1  0.72132000  0.10121000  0.45116000  1.0
  H  H170  1  0.22149000  0.89872000  0.04884000  1.0
  H  H171  1  0.27868000  0.39879000  0.45116000  1.0
  H  H172  1  0.22148000  0.39875000  0.95115000  1.0
  H  H173  1  0.27868000  0.89879000  0.54884000  1.0
  H  H174  1  0.77851000  0.10124000  0.95116000  1.0
  H  H175  1  0.72132000  0.60121000  0.54884000  1.0
  C  C176  1  0.57981000  0.68540000  0.59763000  1.0
  C  C177  1  0.92017000  0.18540000  0.90235000  1.0
  C  C178  1  0.42018000  0.81460000  0.59763000  1.0
  C  C179  1  0.07984000  0.31460000  0.90236000  1.0
  C  C180  1  0.42019000  0.31462000  0.40236000  1.0
  C  C181  1  0.07974000  0.81477000  0.09788000  1.0
  C  C182  1  0.57982000  0.18539000  0.40236000  1.0
  C  C183  1  0.92026000  0.68523000  0.09788000  1.0
  C  C184  1  0.61667000  0.64967000  0.64428000  1.0
  C  C185  1  0.88329000  0.14968000  0.85571000  1.0
  C  C186  1  0.38332000  0.85032000  0.64428000  1.0
  C  C187  1  0.11670000  0.35032000  0.85571000  1.0
  C  C188  1  0.38330000  0.35033000  0.35572000  1.0
  C  C189  1  0.11703000  0.85030000  0.14452000  1.0
  C  C190  1  0.61670000  0.14967000  0.35571000  1.0
  C  C191  1  0.88297000  0.64970000  0.14452000  1.0
  C  C192  1  0.74331000  0.65540000  0.66921000  1.0
  C  C193  1  0.75661000  0.15543000  0.83081000  1.0
  C  C194  1  0.25668000  0.84460000  0.66921000  1.0
  C  C195  1  0.24339000  0.34457000  0.83081000  1.0
  C  C196  1  0.25666000  0.34460000  0.33079000  1.0
  C  C197  1  0.24372000  0.84456000  0.16943000  1.0
  C  C198  1  0.74334000  0.15540000  0.33079000  1.0
  C  C199  1  0.75628000  0.65544000  0.16943000  1.0
  C  C200  1  0.52178000  0.61067000  0.66396000  1.0
  C  C201  1  0.97820000  0.11065000  0.83601000  1.0
  C  C202  1  0.47821000  0.88932000  0.66396000  1.0
  C  C203  1  0.02180000  0.38935000  0.83601000  1.0
  C  C204  1  0.47816000  0.38933000  0.33602000  1.0
  C  C205  1  0.02219000  0.88941000  0.16413000  1.0
  C  C206  1  0.52184000  0.11067000  0.33602000  1.0
  C  C207  1  0.97781000  0.61059000  0.16413000  1.0
  C  C208  1  0.55277000  0.57723000  0.70751000  1.0
  C  C209  1  0.94725000  0.07724000  0.79244000  1.0
  C  C210  1  0.44723000  0.92276000  0.70751000  1.0
  C  C211  1  0.05275000  0.42277000  0.79244000  1.0
  C  C212  1  0.44719000  0.42274000  0.29244000  1.0
  C  C213  1  0.05296000  0.92281000  0.20771000  1.0
  C  C214  1  0.55281000  0.07726000  0.29244000  1.0
  C  C215  1  0.94704000  0.57719000  0.20771000  1.0
  C  C216  1  0.89965000  0.68577000  0.95100000  1.0
  C  C217  1  0.60025000  0.18593000  0.54872000  1.0
  C  C218  1  0.10035000  0.81423000  0.95100000  1.0
  C  C219  1  0.39976000  0.31406000  0.54872000  1.0
  C  C220  1  0.10027000  0.31406000  0.04874000  1.0
  C  C221  1  0.39976000  0.81405000  0.45128000  1.0
  C  C222  1  0.89973000  0.18594000  0.04874000  1.0
  C  C223  1  0.60023000  0.68595000  0.45128000  1.0
  C  C224  1  0.84811000  0.64912000  0.90732000  1.0
  C  C225  1  0.65198000  0.14930000  0.59248000  1.0
  C  C226  1  0.15189000  0.85088000  0.90732000  1.0
  C  C227  1  0.34803000  0.35070000  0.59248000  1.0
  C  C228  1  0.15198000  0.35070000  0.09249000  1.0
  C  C229  1  0.34806000  0.85069000  0.40752000  1.0
  C  C230  1  0.84801000  0.14930000  0.09249000  1.0
  C  C231  1  0.65194000  0.64930000  0.40752000  1.0
  C  C232  1  0.72981000  0.66435000  0.87980000  1.0
  C  C233  1  0.77014000  0.16450000  0.62009000  1.0
  C  C234  1  0.27019000  0.83565000  0.87980000  1.0
  C  C235  1  0.22987000  0.33550000  0.62009000  1.0
  C  C236  1  0.27019000  0.33548000  0.12008000  1.0
  C  C237  1  0.22988000  0.83550000  0.37992000  1.0
  C  C238  1  0.72981000  0.16452000  0.12008000  1.0
  C  C239  1  0.77012000  0.66450000  0.37993000  1.0
  C  C240  1  0.68350000  0.63119000  0.83813000  1.0
  C  C241  1  0.81641000  0.13130000  0.66175000  1.0
  C  C242  1  0.31650000  0.86881000  0.83814000  1.0
  C  C243  1  0.18360000  0.36870000  0.66175000  1.0
  C  C244  1  0.31644000  0.36869000  0.16174000  1.0
  C  C245  1  0.18358000  0.86874000  0.33829000  1.0
  C  C246  1  0.68355000  0.13131000  0.16174000  1.0
  C  C247  1  0.81642000  0.63126000  0.33829000  1.0
  C  C248  1  0.75478000  0.58211000  0.82356000  1.0
  C  C249  1  0.74519000  0.08224000  0.67633000  1.0
  C  C250  1  0.24522000  0.91789000  0.82356000  1.0
  C  C251  1  0.25481000  0.41776000  0.67633000  1.0
  C  C252  1  0.24517000  0.41777000  0.17631000  1.0
  C  C253  1  0.25482000  0.91780000  0.32377000  1.0
  C  C254  1  0.75482000  0.08223000  0.17631000  1.0
  C  C255  1  0.74518000  0.58220000  0.32377000  1.0
  C  C256  1  0.87152000  0.56605000  0.85172000  1.0
  C  C257  1  0.62851000  0.06625000  0.64813000  1.0
  C  C258  1  0.12848000  0.93396000  0.85172000  1.0
  C  C259  1  0.37150000  0.43375000  0.64813000  1.0
  C  C260  1  0.12845000  0.43378000  0.14811000  1.0
  C  C261  1  0.37151000  0.93378000  0.35194000  1.0
  C  C262  1  0.87154000  0.06622000  0.14811000  1.0
  C  C263  1  0.62848000  0.56622000  0.35194000  1.0
  C  C264  1  0.91776000  0.59966000  0.89316000  1.0
  C  C265  1  0.58239000  0.09985000  0.60664000  1.0
  C  C266  1  0.08224000  0.90035000  0.89317000  1.0
  C  C267  1  0.41762000  0.40015000  0.60664000  1.0
  C  C268  1  0.08234000  0.40017000  0.10664000  1.0
  C  C269  1  0.41768000  0.90014000  0.39339000  1.0
  C  C270  1  0.91765000  0.09983000  0.10664000  1.0
  C  C271  1  0.58232000  0.59985000  0.39340000  1.0
  C  C272  1  0.69255000  0.49262000  0.77972000  1.0
  C  C273  1  0.80739000  0.99269000  0.72025000  1.0
  C  C274  1  0.30745000  0.00738000  0.77971000  1.0
  C  C275  1  0.19261000  0.50731000  0.72024000  1.0
  C  C276  1  0.30735000  0.50731000  0.22023000  1.0
  C  C277  1  0.19266000  0.00736000  0.27980000  1.0
  C  C278  1  0.69264000  0.99269000  0.22023000  1.0
  C  C279  1  0.80735000  0.49264000  0.27980000  1.0
  C  C280  1  0.67027000  0.46396000  0.82811000  1.0
  C  C281  1  0.82969000  0.96398000  0.67187000  1.0
  C  C282  1  0.32974000  0.03604000  0.82811000  1.0
  C  C283  1  0.17032000  0.53602000  0.67187000  1.0
  C  C284  1  0.32966000  0.53601000  0.17185000  1.0
  C  C285  1  0.17033000  0.03606000  0.32817000  1.0
  C  C286  1  0.67034000  0.96399000  0.17186000  1.0
  C  C287  1  0.82968000  0.46394000  0.32817000  1.0
  C  C288  1  0.65421000  0.40581000  0.82883000  1.0
  C  C289  1  0.84576000  0.90581000  0.67116000  1.0
  C  C290  1  0.34580000  0.09419000  0.82883000  1.0
  C  C291  1  0.15423000  0.59419000  0.67116000  1.0
  C  C292  1  0.34575000  0.59417000  0.17116000  1.0
  C  C293  1  0.15420000  0.09422000  0.32886000  1.0
  C  C294  1  0.65424000  0.90583000  0.17116000  1.0
  C  C295  1  0.84580000  0.40578000  0.32886000  1.0
  C  C296  1  0.65916000  0.37416000  0.78165000  1.0
  C  C297  1  0.84083000  0.87417000  0.71834000  1.0
  C  C298  1  0.34085000  0.12584000  0.78165000  1.0
  C  C299  1  0.15917000  0.62583000  0.71834000  1.0
  C  C300  1  0.34083000  0.62581000  0.21834000  1.0
  C  C301  1  0.15915000  0.12584000  0.28167000  1.0
  C  C302  1  0.65917000  0.87419000  0.21834000  1.0
  C  C303  1  0.84085000  0.37415000  0.28167000  1.0
  C  C304  1  0.67943000  0.40267000  0.73336000  1.0
  C  C305  1  0.82055000  0.90271000  0.76661000  1.0
  C  C306  1  0.32057000  0.09733000  0.73336000  1.0
  C  C307  1  0.17944000  0.59729000  0.76661000  1.0
  C  C308  1  0.32054000  0.59728000  0.26661000  1.0
  C  C309  1  0.17944000  0.09730000  0.23340000  1.0
  C  C310  1  0.67945000  0.90272000  0.26661000  1.0
  C  C311  1  0.82057000  0.40270000  0.23340000  1.0
  C  C312  1  0.69637000  0.46087000  0.73228000  1.0
  C  C313  1  0.80357000  0.96093000  0.76769000  1.0
  C  C314  1  0.30363000  0.03913000  0.73228000  1.0
  C  C315  1  0.19642000  0.53908000  0.76768000  1.0
  C  C316  1  0.30356000  0.53907000  0.26767000  1.0
  C  C317  1  0.19645000  0.03908000  0.23234000  1.0
  C  C318  1  0.69644000  0.96093000  0.26768000  1.0
  C  C319  1  0.80355000  0.46092000  0.23234000  1.0
  C  C320  1  0.64454000  0.31230000  0.78502000  1.0
  C  C321  1  0.85544000  0.81230000  0.71498000  1.0
  C  C322  1  0.35546000  0.18770000  0.78502000  1.0
  C  C323  1  0.14457000  0.68770000  0.71498000  1.0
  C  C324  1  0.35545000  0.68767000  0.21499000  1.0
  C  C325  1  0.14455000  0.18772000  0.28502000  1.0
  C  C326  1  0.64455000  0.81233000  0.21499000  1.0
  C  C327  1  0.85544000  0.31228000  0.28502000  1.0
  C  C328  1  0.40946000  0.67975000  0.04515000  1.0
  C  C329  1  0.09011000  0.17965000  0.45485000  1.0
  C  C330  1  0.59054000  0.82024000  0.04515000  1.0
  C  C331  1  0.90989000  0.32035000  0.45485000  1.0
  C  C332  1  0.59023000  0.32032000  0.95484000  1.0
  C  C333  1  0.90989000  0.82035000  0.54515000  1.0
  C  C334  1  0.40977000  0.17968000  0.95485000  1.0
  C  C335  1  0.09011000  0.67965000  0.54515000  1.0
  C  C336  1  0.52569000  0.64695000  0.03960000  1.0
  C  C337  1  0.97399000  0.14687000  0.46039000  1.0
  C  C338  1  0.47431000  0.85304000  0.03960000  1.0
  C  C339  1  0.02602000  0.35313000  0.46039000  1.0
  C  C340  1  0.47405000  0.35312000  0.96040000  1.0
  C  C341  1  0.02602000  0.85313000  0.53961000  1.0
  C  C342  1  0.52596000  0.14688000  0.96040000  1.0
  C  C343  1  0.97399000  0.64687000  0.53961000  1.0
  C  C344  1  0.52826000  0.60305000  0.00175000  1.0
  C  C345  1  0.97149000  0.10298000  0.49826000  1.0
  C  C346  1  0.47174000  0.89695000  0.00175000  1.0
  C  C347  1  0.02852000  0.39702000  0.49826000  1.0
  C  C348  1  0.47153000  0.39701000  0.99826000  1.0
  C  C349  1  0.02852000  0.89702000  0.50175000  1.0
  C  C350  1  0.52847000  0.10298000  0.99826000  1.0
  C  C351  1  0.97149000  0.60298000  0.50175000  1.0
  C  C352  1  0.41105000  0.59642000  0.97034000  1.0
  C  C353  1  0.08869000  0.09637000  0.52967000  1.0
  C  C354  1  0.58894000  0.90357000  0.97035000  1.0
  C  C355  1  0.91131000  0.40363000  0.52967000  1.0
  C  C356  1  0.58872000  0.40363000  0.02966000  1.0
  C  C357  1  0.91131000  0.90363000  0.47033000  1.0
  C  C358  1  0.41128000  0.09637000  0.02967000  1.0
  C  C359  1  0.08869000  0.59637000  0.47033000  1.0
  C  C360  1  0.30010000  0.63179000  0.97791000  1.0
  C  C361  1  0.19958000  0.13172000  0.52211000  1.0
  C  C362  1  0.69990000  0.86821000  0.97791000  1.0
  C  C363  1  0.80043000  0.36828000  0.52211000  1.0
  C  C364  1  0.69966000  0.36825000  0.02209000  1.0
  C  C365  1  0.80043000  0.86828000  0.47789000  1.0
  C  C366  1  0.30034000  0.13174000  0.02210000  1.0
  C  C367  1  0.19957000  0.63172000  0.47789000  1.0
  C  C368  1  0.64299000  0.56543000  0.99356000  1.0
  C  C369  1  0.85687000  0.06536000  0.50646000  1.0
  C  C370  1  0.35700000  0.93457000  0.99356000  1.0
  C  C371  1  0.14314000  0.43464000  0.50646000  1.0
  C  C372  1  0.35686000  0.43464000  0.00645000  1.0
  C  C373  1  0.14314000  0.93464000  0.49354000  1.0
  C  C374  1  0.64313000  0.06536000  0.00646000  1.0
  C  C375  1  0.85687000  0.56537000  0.49354000  1.0
  C  C376  1  0.76365000  0.56814000  0.01924000  1.0
  C  C377  1  0.73621000  0.06809000  0.48076000  1.0
  C  C378  1  0.23635000  0.93186000  0.01925000  1.0
  C  C379  1  0.26379000  0.43191000  0.48077000  1.0
  C  C380  1  0.23625000  0.43190000  0.98075000  1.0
  C  C381  1  0.26379000  0.93191000  0.51923000  1.0
  C  C382  1  0.76375000  0.06810000  0.98075000  1.0
  C  C383  1  0.73621000  0.56809000  0.51923000  1.0
  C  C384  1  0.88079000  0.53238000  0.00956000  1.0
  C  C385  1  0.61913000  0.03237000  0.49045000  1.0
  C  C386  1  0.11921000  0.96761000  0.00956000  1.0
  C  C387  1  0.38088000  0.46764000  0.49045000  1.0
  C  C388  1  0.11912000  0.46763000  0.99043000  1.0
  C  C389  1  0.38087000  0.96763000  0.50955000  1.0
  C  C390  1  0.88088000  0.03237000  0.99043000  1.0
  C  C391  1  0.61913000  0.53237000  0.50955000  1.0
  C  C392  1  0.87731000  0.48437000  0.97643000  1.0
  C  C393  1  0.62267000  0.98436000  0.52359000  1.0
  C  C394  1  0.12269000  0.01562000  0.97643000  1.0
  C  C395  1  0.37733000  0.51564000  0.52359000  1.0
  C  C396  1  0.12261000  0.51563000  0.02357000  1.0
  C  C397  1  0.37733000  0.01564000  0.47641000  1.0
  C  C398  1  0.87739000  0.98436000  0.02357000  1.0
  C  C399  1  0.62267000  0.48436000  0.47641000  1.0
  C  C400  1  0.99358000  0.45293000  0.96706000  1.0
  C  C401  1  0.50644000  0.95293000  0.53294000  1.0
  C  C402  1  0.00642000  0.04706000  0.96706000  1.0
  C  C403  1  0.49356000  0.54707000  0.53294000  1.0
  C  C404  1  0.00634000  0.54708000  0.03294000  1.0
  C  C405  1  0.49356000  0.04707000  0.46706000  1.0
  C  C406  1  0.99366000  0.95292000  0.03294000  1.0
  C  C407  1  0.50644000  0.45293000  0.46706000  1.0
  C  C408  1  0.67943000  0.58299000  0.73236000  1.0
  C  C409  1  0.82057000  0.08305000  0.76758000  1.0
  C  C410  1  0.32057000  0.91700000  0.73236000  1.0
  C  C411  1  0.17944000  0.41695000  0.76759000  1.0
  C  C412  1  0.32054000  0.41695000  0.26756000  1.0
  C  C413  1  0.17963000  0.91699000  0.23258000  1.0
  C  C414  1  0.67946000  0.08305000  0.26757000  1.0
  C  C415  1  0.82038000  0.58301000  0.23258000  1.0
  C  C416  1  0.77437000  0.62224000  0.71314000  1.0
  C  C417  1  0.72560000  0.12229000  0.78685000  1.0
  C  C418  1  0.22563000  0.87776000  0.71314000  1.0
  C  C419  1  0.27440000  0.37771000  0.78685000  1.0
  C  C420  1  0.22562000  0.37773000  0.28683000  1.0
  C  C421  1  0.27468000  0.87778000  0.21334000  1.0
  C  C422  1  0.77439000  0.12227000  0.28683000  1.0
  C  C423  1  0.72532000  0.62222000  0.21334000  1.0
  N  N424  1  0.29739000  0.67252000  0.01511000  1.0
  N  N425  1  0.20220000  0.17243000  0.48489000  1.0
  N  N426  1  0.70260000  0.82748000  0.01511000  1.0
  N  N427  1  0.79781000  0.32757000  0.48489000  1.0
  N  N428  1  0.70231000  0.32755000  0.98487000  1.0
  N  N429  1  0.79781000  0.82757000  0.51511000  1.0
  N  N430  1  0.29769000  0.17245000  0.98487000  1.0
  N  N431  1  0.20220000  0.67243000  0.51511000  1.0
  N  N432  1  0.71020000  0.55103000  0.77859000  1.0
  N  N433  1  0.78978000  0.05113000  0.72132000  1.0
  N  N434  1  0.28980000  0.94897000  0.77859000  1.0
  N  N435  1  0.21021000  0.44887000  0.72132000  1.0
  N  N436  1  0.28974000  0.44887000  0.22130000  1.0
  N  N437  1  0.21036000  0.94893000  0.27879000  1.0
  N  N438  1  0.71026000  0.05113000  0.22130000  1.0
  N  N439  1  0.78963000  0.55107000  0.27879000  1.0
  O  O440  1  0.67368000  0.71283000  0.57438000  1.0
  O  O441  1  0.82630000  0.21285000  0.92562000  1.0
  O  O442  1  0.32631000  0.78717000  0.57438000  1.0
  O  O443  1  0.17371000  0.28714000  0.92562000  1.0
  O  O444  1  0.32634000  0.28718000  0.42562000  1.0
  O  O445  1  0.17305000  0.78702000  0.07445000  1.0
  O  O446  1  0.67367000  0.21283000  0.42562000  1.0
  O  O447  1  0.82694000  0.71298000  0.07445000  1.0
  O  O448  1  0.82897000  0.72957000  0.96213000  1.0
  O  O449  1  0.67090000  0.22973000  0.53775000  1.0
  O  O450  1  0.17103000  0.77043000  0.96213000  1.0
  O  O451  1  0.32911000  0.27027000  0.53775000  1.0
  O  O452  1  0.17093000  0.27023000  0.03776000  1.0
  O  O453  1  0.32910000  0.77026000  0.46226000  1.0
  O  O454  1  0.82907000  0.22977000  0.03776000  1.0
  O  O455  1  0.67090000  0.72974000  0.46226000  1.0
  O  O456  1  0.00977000  0.67113000  0.97366000  1.0
  O  O457  1  0.49033000  0.17114000  0.52614000  1.0
  O  O458  1  0.99024000  0.82887000  0.97366000  1.0
  O  O459  1  0.50968000  0.32885000  0.52614000  1.0
  O  O460  1  0.99032000  0.32887000  0.02616000  1.0
  O  O461  1  0.50968000  0.82885000  0.47386000  1.0
  O  O462  1  0.00967000  0.17113000  0.02616000  1.0
  O  O463  1  0.49032000  0.67115000  0.47386000  1.0
  O  O464  1  0.45386000  0.68438000  0.58497000  1.0
  O  O465  1  0.04614000  0.18437000  0.91500000  1.0
  O  O466  1  0.54613000  0.81562000  0.58497000  1.0
  O  O467  1  0.95387000  0.31563000  0.91500000  1.0
  O  O468  1  0.54615000  0.31563000  0.41502000  1.0
  O  O469  1  0.95390000  0.81615000  0.08501000  1.0
  O  O470  1  0.45386000  0.18437000  0.41502000  1.0
  O  O471  1  0.04610000  0.68385000  0.08501000  1.0
  O  O472  1  0.63303000  0.28528000  0.82622000  1.0
  O  O473  1  0.86693000  0.78526000  0.67378000  1.0
  O  O474  1  0.36698000  0.21472000  0.82622000  1.0
  O  O475  1  0.13307000  0.71474000  0.67378000  1.0
  O  O476  1  0.36700000  0.71470000  0.17378000  1.0
  O  O477  1  0.13306000  0.21475000  0.32622000  1.0
  O  O478  1  0.63300000  0.78530000  0.17379000  1.0
  O  O479  1  0.86693000  0.28525000  0.32621000  1.0
  O  O480  1  0.64374000  0.28655000  0.73624000  1.0
  O  O481  1  0.85625000  0.78655000  0.76376000  1.0
  O  O482  1  0.35626000  0.21345000  0.73624000  1.0
  O  O483  1  0.14374000  0.71345000  0.76376000  1.0
  O  O484  1  0.35624000  0.71344000  0.26376000  1.0
  O  O485  1  0.14375000  0.21346000  0.23623000  1.0
  O  O486  1  0.64376000  0.78656000  0.26377000  1.0
  O  O487  1  0.85625000  0.28654000  0.23623000  1.0
