# generated using pymatgen
data_CuH14C14(N2Cl)2
_symmetry_space_group_name_H-M   'P 1'
_cell_length_a   8.60694000
_cell_length_b   12.80310000
_cell_length_c   13.13130000
_cell_angle_alpha   90.00000000
_cell_angle_beta   92.75000000
_cell_angle_gamma   90.00000000
_symmetry_Int_Tables_number   1
_chemical_formula_structural   CuH14C14(N2Cl)2
_chemical_formula_sum   'Cu4 H56 C56 N16 Cl8'
_cell_volume   1445.34394993
_cell_formula_units_Z   4
loop_
 _symmetry_equiv_pos_site_id
 _symmetry_equiv_pos_as_xyz
  1  'x, y, z'
loop_
 _atom_site_type_symbol
 _atom_site_label
 _atom_site_symmetry_multiplicity
 _atom_site_fract_x
 _atom_site_fract_y
 _atom_site_fract_z
 _atom_site_occupancy
  Cu  Cu0  1  0.98655000  0.30360000  0.84020000  1.0
  Cu  Cu1  1  0.51345000  0.80355000  0.65980000  1.0
  Cu  Cu2  1  0.01345000  0.69644000  0.15981000  1.0
  Cu  Cu3  1  0.48655000  0.19640000  0.34019000  1.0
  H  H4  1  0.92459000  0.28279000  0.22547000  1.0
  H  H5  1  0.57524000  0.78275000  0.27449000  1.0
  H  H6  1  0.07522000  0.71725000  0.77449000  1.0
  H  H7  1  0.42460000  0.21722000  0.72547000  1.0
  H  H8  1  0.14190000  0.44223000  0.20187000  1.0
  H  H9  1  0.35799000  0.94221000  0.29814000  1.0
  H  H10  1  0.85797000  0.55779000  0.79815000  1.0
  H  H11  1  0.64193000  0.05778000  0.70187000  1.0
  H  H12  1  0.17227000  0.44944000  0.99558000  1.0
  H  H13  1  0.32782000  0.94948000  0.50445000  1.0
  H  H14  1  0.82782000  0.55051000  0.00446000  1.0
  H  H15  1  0.67229000  0.05057000  0.49558000  1.0
  H  H16  1  0.95405000  0.16335000  0.47100000  1.0
  H  H17  1  0.54603000  0.66341000  0.02903000  1.0
  H  H18  1  0.04603000  0.83657000  0.52904000  1.0
  H  H19  1  0.45407000  0.33664000  0.97100000  1.0
  H  H20  1  0.13624000  0.02157000  0.58434000  1.0
  H  H21  1  0.36376000  0.52163000  0.91577000  1.0
  H  H22  1  0.86372000  0.97834000  0.41579000  1.0
  H  H23  1  0.63627000  0.47841000  0.08433000  1.0
  H  H24  1  0.13531000  0.09894000  0.77823000  1.0
  H  H25  1  0.36465000  0.59891000  0.72185000  1.0
  H  H26  1  0.86464000  0.90109000  0.22186000  1.0
  H  H27  1  0.63529000  0.40107000  0.27823000  1.0
  H  H28  1  0.74769000  0.21113000  0.97812000  1.0
  H  H29  1  0.75232000  0.71114000  0.52183000  1.0
  H  H30  1  0.25231000  0.78886000  0.02183000  1.0
  H  H31  1  0.24769000  0.28887000  0.47812000  1.0
  H  H32  1  0.75957000  0.17930000  0.11077000  1.0
  H  H33  1  0.74041000  0.67929000  0.38919000  1.0
  H  H34  1  0.24040000  0.82070000  0.88919000  1.0
  H  H35  1  0.25957000  0.32069000  0.61077000  1.0
  H  H36  1  0.01357000  0.07566000  0.17463000  1.0
  H  H37  1  0.48641000  0.57567000  0.32536000  1.0
  H  H38  1  0.98641000  0.92433000  0.82535000  1.0
  H  H39  1  0.51356000  0.42434000  0.67463000  1.0
  H  H40  1  0.83771000  0.08488000  0.86205000  1.0
  H  H41  1  0.66228000  0.58489000  0.63794000  1.0
  H  H42  1  0.16228000  0.91511000  0.13793000  1.0
  H  H43  1  0.33770000  0.41512000  0.36205000  1.0
  H  H44  1  0.77868000  0.34673000  0.65559000  1.0
  H  H45  1  0.72135000  0.84675000  0.84439000  1.0
  H  H46  1  0.22136000  0.65326000  0.34438000  1.0
  H  H47  1  0.27867000  0.15328000  0.15560000  1.0
  H  H48  1  0.74942000  0.29415000  0.53075000  1.0
  H  H49  1  0.75063000  0.79418000  0.96923000  1.0
  H  H50  1  0.25064000  0.70582000  0.46923000  1.0
  H  H51  1  0.24941000  0.20585000  0.03076000  1.0
  H  H52  1  0.84924000  0.37670000  0.38769000  1.0
  H  H53  1  0.65079000  0.87672000  0.11229000  1.0
  H  H54  1  0.15081000  0.62329000  0.61229000  1.0
  H  H55  1  0.34923000  0.12331000  0.88769000  1.0
  H  H56  1  0.01861000  0.47102000  0.68737000  1.0
  H  H57  1  0.48139000  0.97102000  0.81261000  1.0
  H  H58  1  0.98141000  0.52898000  0.31261000  1.0
  H  H59  1  0.51860000  0.02899000  0.18737000  1.0
  C  C60  1  0.97342000  0.31602000  0.15796000  1.0
  C  C61  1  0.52647000  0.81600000  0.34202000  1.0
  C  C62  1  0.02646000  0.68400000  0.84203000  1.0
  C  C63  1  0.47344000  0.18398000  0.65796000  1.0
  C  C64  1  0.08207000  0.39450000  0.14439000  1.0
  C  C65  1  0.41786000  0.89448000  0.35561000  1.0
  C  C66  1  0.91785000  0.60551000  0.85562000  1.0
  C  C67  1  0.58209000  0.10551000  0.64439000  1.0
  C  C68  1  0.09990000  0.39881000  0.03913000  1.0
  C  C69  1  0.40014000  0.89884000  0.46088000  1.0
  C  C70  1  0.90013000  0.60116000  0.96089000  1.0
  C  C71  1  0.59992000  0.10120000  0.53913000  1.0
  C  C72  1  0.98791000  0.16104000  0.55170000  1.0
  C  C73  1  0.51215000  0.66108000  0.94834000  1.0
  C  C74  1  0.01213000  0.83891000  0.44835000  1.0
  C  C75  1  0.48793000  0.33895000  0.05170000  1.0
  C  C76  1  0.07871000  0.09138000  0.60955000  1.0
  C  C77  1  0.42130000  0.59140000  0.89052000  1.0
  C  C78  1  0.92128000  0.90858000  0.39054000  1.0
  C  C79  1  0.57873000  0.40862000  0.10954000  1.0
  C  C80  1  0.07832000  0.12969000  0.70929000  1.0
  C  C81  1  0.42167000  0.62969000  0.79077000  1.0
  C  C82  1  0.92167000  0.87031000  0.29078000  1.0
  C  C83  1  0.57832000  0.37031000  0.20928000  1.0
  C  C84  1  0.82695000  0.18943000  0.04254000  1.0
  C  C85  1  0.67305000  0.68943000  0.45742000  1.0
  C  C86  1  0.17304000  0.81056000  0.95742000  1.0
  C  C87  1  0.32695000  0.31057000  0.54255000  1.0
  C  C88  1  0.91608000  0.09121000  0.02045000  1.0
  C  C89  1  0.58392000  0.59121000  0.47953000  1.0
  C  C90  1  0.08392000  0.90878000  0.97952000  1.0
  C  C91  1  0.41607000  0.40879000  0.52046000  1.0
  C  C92  1  0.00715000  0.04258000  0.09788000  1.0
  C  C93  1  0.49285000  0.54258000  0.40210000  1.0
  C  C94  1  0.99284000  0.95741000  0.90209000  1.0
  C  C95  1  0.50714000  0.45742000  0.59789000  1.0
  C  C96  1  0.90941000  0.04777000  0.92258000  1.0
  C  C97  1  0.59058000  0.54777000  0.57741000  1.0
  C  C98  1  0.09058000  0.95222000  0.07740000  1.0
  C  C99  1  0.40941000  0.45223000  0.42258000  1.0
  C  C100  1  0.83726000  0.32376000  0.58673000  1.0
  C  C101  1  0.66277000  0.82378000  0.91325000  1.0
  C  C102  1  0.16279000  0.67622000  0.41325000  1.0
  C  C103  1  0.33725000  0.17624000  0.08674000  1.0
  C  C104  1  0.92362000  0.41423000  0.54230000  1.0
  C  C105  1  0.57640000  0.91424000  0.95768000  1.0
  C  C106  1  0.07642000  0.58576000  0.45768000  1.0
  C  C107  1  0.42360000  0.08577000  0.04231000  1.0
  C  C108  1  0.91531000  0.43123000  0.43687000  1.0
  C  C109  1  0.58472000  0.93125000  0.06312000  1.0
  C  C110  1  0.08474000  0.56876000  0.56311000  1.0
  C  C111  1  0.41529000  0.06877000  0.93687000  1.0
  C  C112  1  0.00941000  0.48376000  0.60516000  1.0
  C  C113  1  0.49060000  0.98376000  0.89482000  1.0
  C  C114  1  0.99062000  0.51624000  0.39482000  1.0
  C  C115  1  0.50939000  0.01625000  0.10516000  1.0
  N  N116  1  0.00920000  0.32674000  0.99078000  1.0
  N  N117  1  0.49088000  0.82678000  0.50922000  1.0
  N  N118  1  0.99087000  0.67322000  0.00923000  1.0
  N  N119  1  0.50921000  0.17326000  0.49077000  1.0
  N  N120  1  0.93011000  0.27805000  0.06462000  1.0
  N  N121  1  0.56988000  0.77805000  0.43535000  1.0
  N  N122  1  0.06987000  0.72194000  0.93535000  1.0
  N  N123  1  0.43012000  0.22195000  0.56462000  1.0
  N  N124  1  0.99094000  0.21693000  0.71304000  1.0
  N  N125  1  0.50908000  0.71691000  0.78698000  1.0
  N  N126  1  0.00910000  0.78309000  0.28698000  1.0
  N  N127  1  0.49092000  0.28308000  0.21304000  1.0
  N  N128  1  0.93701000  0.23521000  0.61564000  1.0
  N  N129  1  0.56305000  0.73523000  0.88437000  1.0
  N  N130  1  0.06305000  0.76478000  0.38437000  1.0
  N  N131  1  0.43700000  0.26479000  0.11564000  1.0
  Cl  Cl132  1  0.24015000  0.34601000  0.81999000  1.0
  Cl  Cl133  1  0.25982000  0.84583000  0.67994000  1.0
  Cl  Cl134  1  0.75982000  0.65417000  0.17995000  1.0
  Cl  Cl135  1  0.74015000  0.15401000  0.31998000  1.0
  Cl  Cl136  1  0.73159000  0.34645000  0.83295000  1.0
  Cl  Cl137  1  0.76841000  0.84643000  0.66705000  1.0
  Cl  Cl138  1  0.26841000  0.65356000  0.16704000  1.0
  Cl  Cl139  1  0.23158000  0.15356000  0.33295000  1.0
