# generated using pymatgen
data_AgH5C9S(NO)2
_symmetry_space_group_name_H-M   'P 1'
_cell_length_a   7.05199000
_cell_length_b   10.23570000
_cell_length_c   12.97560000
_cell_angle_alpha   89.99990000
_cell_angle_beta   89.99990000
_cell_angle_gamma   89.99930000
_symmetry_Int_Tables_number   1
_chemical_formula_structural   AgH5C9S(NO)2
_chemical_formula_sum   'Ag4 H20 C36 S4 N8 O8'
_cell_volume   936.60546037
_cell_formula_units_Z   4
loop_
 _symmetry_equiv_pos_site_id
 _symmetry_equiv_pos_as_xyz
  1  'x, y, z'
loop_
 _atom_site_type_symbol
 _atom_site_label
 _atom_site_symmetry_multiplicity
 _atom_site_fract_x
 _atom_site_fract_y
 _atom_site_fract_z
 _atom_site_occupancy
  Ag  Ag0  1  0.22667000  0.88353000  0.68151000  1.0
  Ag  Ag1  1  0.27333000  0.11648000  0.18150000  1.0
  Ag  Ag2  1  0.77334000  0.38352000  0.81850000  1.0
  Ag  Ag3  1  0.72667000  0.61648000  0.31849000  1.0
  H  H4  1  0.02608000  0.38997000  0.64189000  1.0
  H  H5  1  0.20468000  0.64195000  0.30249000  1.0
  H  H6  1  0.20614000  0.81408000  0.16610000  1.0
  H  H7  1  0.04367000  0.09996000  0.37495000  1.0
  H  H8  1  0.01561000  0.93986000  0.51748000  1.0
  H  H9  1  0.47392000  0.61004000  0.14187000  1.0
  H  H10  1  0.29532000  0.35805000  0.80249000  1.0
  H  H11  1  0.29386000  0.18592000  0.66610000  1.0
  H  H12  1  0.45631000  0.90005000  0.87496000  1.0
  H  H13  1  0.48439000  0.06014000  0.01748000  1.0
  H  H14  1  0.97391000  0.88996000  0.85813000  1.0
  H  H15  1  0.79531000  0.14195000  0.19751000  1.0
  H  H16  1  0.79384000  0.31408000  0.33390000  1.0
  H  H17  1  0.95632000  0.59995000  0.12505000  1.0
  H  H18  1  0.98441000  0.43986000  0.98253000  1.0
  H  H19  1  0.52608000  0.11003000  0.35812000  1.0
  H  H20  1  0.70467000  0.85805000  0.69751000  1.0
  H  H21  1  0.70614000  0.68591000  0.83390000  1.0
  H  H22  1  0.54367000  0.40004000  0.62505000  1.0
  H  H23  1  0.51560000  0.56013000  0.48252000  1.0
  C  C24  1  0.11499000  0.61046000  0.78216000  1.0
  C  C25  1  0.10315000  0.59919000  0.66598000  1.0
  C  C26  1  0.06049000  0.48662000  0.61189000  1.0
  C  C27  1  0.10566000  0.67958000  0.50458000  1.0
  C  C28  1  0.11201000  0.77633000  0.42200000  1.0
  C  C29  1  0.15980000  0.74136000  0.32049000  1.0
  C  C30  1  0.16511000  0.83750000  0.24503000  1.0
  C  C31  1  0.07472000  0.99697000  0.36170000  1.0
  C  C32  1  0.06416000  0.90730000  0.44168000  1.0
  C  C33  1  0.38501000  0.38953000  0.28215000  1.0
  C  C34  1  0.39684000  0.40082000  0.16597000  1.0
  C  C35  1  0.43951000  0.51340000  0.11188000  1.0
  C  C36  1  0.39436000  0.32044000  0.00457000  1.0
  C  C37  1  0.38800000  0.22368000  0.92199000  1.0
  C  C38  1  0.34020000  0.25864000  0.82049000  1.0
  C  C39  1  0.33488000  0.16250000  0.74503000  1.0
  C  C40  1  0.42527000  0.00304000  0.86170000  1.0
  C  C41  1  0.43584000  0.09270000  0.94168000  1.0
  C  C42  1  0.88500000  0.11046000  0.71784000  1.0
  C  C43  1  0.89684000  0.09918000  0.83403000  1.0
  C  C44  1  0.93952000  0.98660000  0.88812000  1.0
  C  C45  1  0.89436000  0.17956000  0.99543000  1.0
  C  C46  1  0.88799000  0.27632000  0.07801000  1.0
  C  C47  1  0.84019000  0.24136000  0.17951000  1.0
  C  C48  1  0.83487000  0.33749000  0.25497000  1.0
  C  C49  1  0.92527000  0.49695000  0.13830000  1.0
  C  C50  1  0.93584000  0.40729000  0.05832000  1.0
  C  C51  1  0.61500000  0.88955000  0.21784000  1.0
  C  C52  1  0.60316000  0.90081000  0.33402000  1.0
  C  C53  1  0.56049000  0.01339000  0.38811000  1.0
  C  C54  1  0.60564000  0.82042000  0.49542000  1.0
  C  C55  1  0.61201000  0.72367000  0.57800000  1.0
  C  C56  1  0.65981000  0.75864000  0.67951000  1.0
  C  C57  1  0.66512000  0.66250000  0.75497000  1.0
  C  C58  1  0.57473000  0.50304000  0.63830000  1.0
  C  C59  1  0.56416000  0.59270000  0.55832000  1.0
  S  S60  1  0.05393000  0.51648000  0.48297000  1.0
  S  S61  1  0.44609000  0.48353000  0.98296000  1.0
  S  S62  1  0.94608000  0.01647000  0.01704000  1.0
  S  S63  1  0.55391000  0.98352000  0.51704000  1.0
  N  N64  1  0.12954000  0.70641000  0.60379000  1.0
  N  N65  1  0.12729000  0.96436000  0.26485000  1.0
  N  N66  1  0.37046000  0.29360000  0.10378000  1.0
  N  N67  1  0.37270000  0.03564000  0.76486000  1.0
  N  N68  1  0.87046000  0.20640000  0.89622000  1.0
  N  N69  1  0.87270000  0.46435000  0.23515000  1.0
  N  N70  1  0.62954000  0.79360000  0.39621000  1.0
  N  N71  1  0.62730000  0.53564000  0.73514000  1.0
  O  O72  1  0.15653000  0.72060000  0.82049000  1.0
  O  O73  1  0.07974000  0.50649000  0.83221000  1.0
  O  O74  1  0.34350000  0.27940000  0.32048000  1.0
  O  O75  1  0.42026000  0.49352000  0.33221000  1.0
  O  O76  1  0.84349000  0.22060000  0.67952000  1.0
  O  O77  1  0.92024000  0.00648000  0.66779000  1.0
  O  O78  1  0.65654000  0.77941000  0.17951000  1.0
  O  O79  1  0.57975000  0.99352000  0.16779000  1.0
