# generated using pymatgen
data_MgH11C11(NO2)2
_symmetry_space_group_name_H-M   'P 1'
_cell_length_a   6.91434000
_cell_length_b   32.02910000
_cell_length_c   32.02970000
_cell_angle_alpha   119.50400000
_cell_angle_beta   94.13240000
_cell_angle_gamma   94.10170000
_symmetry_Int_Tables_number   1
_chemical_formula_structural   MgH11C11(NO2)2
_chemical_formula_sum   'Mg6 H66 C66 N12 O24'
_cell_volume   6110.42976043
_cell_formula_units_Z   6
loop_
 _symmetry_equiv_pos_site_id
 _symmetry_equiv_pos_as_xyz
  1  'x, y, z'
loop_
 _atom_site_type_symbol
 _atom_site_label
 _atom_site_symmetry_multiplicity
 _atom_site_fract_x
 _atom_site_fract_y
 _atom_site_fract_z
 _atom_site_occupancy
  Mg  Mg0  1  0.04572000  0.69929000  0.33227000  1.0
  Mg  Mg1  1  0.32222000  0.30115000  0.66736000  1.0
  Mg  Mg2  1  0.34666000  0.63303000  0.30068000  1.0
  Mg  Mg3  1  0.02096000  0.36635000  0.69883000  1.0
  Mg  Mg4  1  0.71374000  0.66776000  0.36700000  1.0
  Mg  Mg5  1  0.65485000  0.33255000  0.63361000  1.0
  H  H6  1  0.20645000  0.58018000  0.01940000  1.0
  H  H7  1  0.48892000  0.52142000  0.03153000  1.0
  H  H8  1  0.42785000  0.50419000  0.93375000  1.0
  H  H9  1  0.10014000  0.40128000  0.89391000  1.0
  H  H10  1  0.07909000  0.37588000  0.81013000  1.0
  H  H11  1  0.78901000  0.42813000  0.83520000  1.0
  H  H12  1  0.61546000  0.44939000  0.90651000  1.0
  H  H13  1  0.73952000  0.54865000  0.99660000  1.0
  H  H14  1  0.66836000  0.59774000  0.04903000  1.0
  H  H15  1  0.45417000  0.61785000  0.99594000  1.0
  H  H16  1  0.53992000  0.57213000  0.94418000  1.0
  H  H17  1  0.88566000  0.61282000  0.97959000  1.0
  H  H18  1  0.79142000  0.66041000  0.02814000  1.0
  H  H19  1  0.70035000  0.63005000  0.92092000  1.0
  H  H20  1  0.87051000  0.67905000  0.96342000  1.0
  H  H21  1  0.42495000  0.67074000  0.96705000  1.0
  H  H22  1  0.56210000  0.70945000  0.95234000  1.0
  H  H23  1  0.59596000  0.71879000  0.01196000  1.0
  H  H24  1  0.97765000  0.58646000  0.06755000  1.0
  H  H25  1  0.27221000  0.62974000  0.18546000  1.0
  H  H26  1  0.55871000  0.58250000  0.16868000  1.0
  H  H27  1  0.71404000  0.56592000  0.09655000  1.0
  H  H28  1  0.62636000  0.43922000  0.41989000  1.0
  H  H29  1  0.96757000  0.51007000  0.47853000  1.0
  H  H30  1  0.92434000  0.42964000  0.49586000  1.0
  H  H31  1  0.69888000  0.49270000  0.59870000  1.0
  H  H32  1  0.70354000  0.43430000  0.62405000  1.0
  H  H33  1  0.36133000  0.40713000  0.57178000  1.0
  H  H34  1  0.16654000  0.45730000  0.55067000  1.0
  H  H35  1  0.19115000  0.44785000  0.45144000  1.0
  H  H36  1  0.07162000  0.45124000  0.40232000  1.0
  H  H37  1  0.83679000  0.37808000  0.38212000  1.0
  H  H38  1  0.96801000  0.37198000  0.42782000  1.0
  H  H39  1  0.27327000  0.36667000  0.38715000  1.0
  H  H40  1  0.13142000  0.36756000  0.33954000  1.0
  H  H41  1  0.07105000  0.29078000  0.37000000  1.0
  H  H42  1  0.19192000  0.28420000  0.32093000  1.0
  H  H43  1  0.75479000  0.29626000  0.32940000  1.0
  H  H44  1  0.85305000  0.24279000  0.29064000  1.0
  H  H45  1  0.87751000  0.29305000  0.28130000  1.0
  H  H46  1  0.39200000  0.48108000  0.41329000  1.0
  H  H47  1  0.64338000  0.55575000  0.37001000  1.0
  H  H48  1  0.97675000  0.58599000  0.41726000  1.0
  H  H49  1  0.14915000  0.53045000  0.43374000  1.0
  H  H50  1  0.18644000  0.98077000  0.56103000  1.0
  H  H51  1  0.45609000  0.96846000  0.48997000  1.0
  H  H52  1  0.49394000  0.06628000  0.57048000  1.0
  H  H53  1  0.20633000  0.10617000  0.50738000  1.0
  H  H54  1  0.26949000  0.18988000  0.56566000  1.0
  H  H55  1  0.95417000  0.16469000  0.59294000  1.0
  H  H56  1  0.70914000  0.09340000  0.54293000  1.0
  H  H57  1  0.74216000  0.00336000  0.55204000  1.0
  H  H58  1  0.61867000  0.95097000  0.54875000  1.0
  H  H59  1  0.45800000  0.00412000  0.62202000  1.0
  H  H60  1  0.59533000  0.05585000  0.62799000  1.0
  H  H61  1  0.90582000  0.02045000  0.63325000  1.0
  H  H62  1  0.76323000  0.97194000  0.63235000  1.0
  H  H63  1  0.77947000  0.07920000  0.70919000  1.0
  H  H64  1  0.90715000  0.03672000  0.71571000  1.0
  H  H65  1  0.45798000  0.03317000  0.70381000  1.0
  H  H66  1  0.60998000  0.04786000  0.75722000  1.0
  H  H67  1  0.58408000  0.98825000  0.70696000  1.0
  H  H68  1  0.90951000  0.93238000  0.51918000  1.0
  H  H69  1  0.08648000  0.81444000  0.44442000  1.0
  H  H70  1  0.38954000  0.83134000  0.41408000  1.0
  H  H71  1  0.61699000  0.90338000  0.46973000  1.0
  C  C72  1  0.24808000  0.56918000  0.07836000  1.0
  C  C73  1  0.44412000  0.53868000  0.01059000  1.0
  C  C74  1  0.25228000  0.46088000  0.95030000  1.0
  C  C75  1  0.33145000  0.41502000  0.86338000  1.0
  C  C76  1  0.23596000  0.38718000  0.81620000  1.0
  C  C77  1  0.33380000  0.37333000  0.77530000  1.0
  C  C78  1  0.53967000  0.38899000  0.78256000  1.0
  C  C79  1  0.63241000  0.41706000  0.83039000  1.0
  C  C80  1  0.53465000  0.43006000  0.87043000  1.0
  C  C81  1  0.65823000  0.37725000  0.74283000  1.0
  C  C82  1  0.61996000  0.57099000  0.01081000  1.0
  C  C83  1  0.58032000  0.59777000  0.98320000  1.0
  C  C84  1  0.75735000  0.63283000  0.98951000  1.0
  C  C85  1  0.73098000  0.65783000  0.95953000  1.0
  C  C86  1  0.56971000  0.69092000  0.97346000  1.0
  C  C87  1  0.00301000  0.59783000  0.13644000  1.0
  C  C88  1  0.11570000  0.61943000  0.18155000  1.0
  C  C89  1  0.02846000  0.62961000  0.22363000  1.0
  C  C90  1  0.82187000  0.61605000  0.21837000  1.0
  C  C91  1  0.71426000  0.59342000  0.17227000  1.0
  C  C92  1  0.80142000  0.58447000  0.13179000  1.0
  C  C93  1  0.71120000  0.62438000  0.25865000  1.0
  C  C94  1  0.67972000  0.50907000  0.43060000  1.0
  C  C95  1  0.90566000  0.47185000  0.46129000  1.0
  C  C96  1  0.79124000  0.48943000  0.53908000  1.0
  C  C97  1  0.91682000  0.44849000  0.58498000  1.0
  C  C98  1  0.84922000  0.42912000  0.61279000  1.0
  C  C99  1  0.96093000  0.40206000  0.62661000  1.0
  C  C100  1  0.15113000  0.39365000  0.61093000  1.0
  C  C101  1  0.21585000  0.41343000  0.58289000  1.0
  C  C102  1  0.10503000  0.44052000  0.56996000  1.0
  C  C103  1  0.28138000  0.36564000  0.62266000  1.0
  C  C104  1  0.04950000  0.43975000  0.42904000  1.0
  C  C105  1  0.98294000  0.38536000  0.40219000  1.0
  C  C106  1  0.12498000  0.35653000  0.36713000  1.0
  C  C107  1  0.07369000  0.30155000  0.34219000  1.0
  C  C108  1  0.87924000  0.28243000  0.30917000  1.0
  C  C109  1  0.40632000  0.53859000  0.40195000  1.0
  C  C110  1  0.49724000  0.56216000  0.38039000  1.0
  C  C111  1  0.39950000  0.59408000  0.37030000  1.0
  C  C112  1  0.20637000  0.60232000  0.38385000  1.0
  C  C113  1  0.12153000  0.57875000  0.40638000  1.0
  C  C114  1  0.21799000  0.54725000  0.41530000  1.0
  C  C115  1  0.08711000  0.63427000  0.37555000  1.0
  C  C116  1  0.16903000  0.92166000  0.49108000  1.0
  C  C117  1  0.43262000  0.98946000  0.52821000  1.0
  C  C118  1  0.30157000  0.04978000  0.51066000  1.0
  C  C119  1  0.46840000  0.13659000  0.55159000  1.0
  C  C120  1  0.42028000  0.18378000  0.57090000  1.0
  C  C121  1  0.55908000  0.22465000  0.59790000  1.0
  C  C122  1  0.75771000  0.21737000  0.60631000  1.0
  C  C123  1  0.80245000  0.16952000  0.58662000  1.0
  C  C124  1  0.66450000  0.12951000  0.55962000  1.0
  C  C125  1  0.91592000  0.25710000  0.63431000  1.0
  C  C126  1  0.60852000  0.98920000  0.56023000  1.0
  C  C127  1  0.59681000  0.01684000  0.61464000  1.0
  C  C128  1  0.76771000  0.01056000  0.64339000  1.0
  C  C129  1  0.77145000  0.04060000  0.69839000  1.0
  C  C130  1  0.59629000  0.02674000  0.71757000  1.0
  C  C131  1  0.86627000  0.86349000  0.46160000  1.0
  C  C132  1  0.93386000  0.81838000  0.43802000  1.0
  C  C133  1  0.80451000  0.77635000  0.40604000  1.0
  C  C134  1  0.60316000  0.78162000  0.39775000  1.0
  C  C135  1  0.54155000  0.82771000  0.42134000  1.0
  C  C136  1  0.66924000  0.86814000  0.45291000  1.0
  C  C137  1  0.45232000  0.74135000  0.36575000  1.0
  N  N138  1  0.29111000  0.56628000  0.03547000  1.0
  N  N139  1  0.37561000  0.50116000  0.96103000  1.0
  N  N140  1  0.22135000  0.42481000  0.90127000  1.0
  N  N141  1  0.08044000  0.59058000  0.09403000  1.0
  N  N142  1  0.72533000  0.46908000  0.43356000  1.0
  N  N143  1  0.87421000  0.45982000  0.49877000  1.0
  N  N144  1  0.79675000  0.47657000  0.57519000  1.0
  N  N145  1  0.49085000  0.50337000  0.40914000  1.0
  N  N146  1  0.25473000  0.96465000  0.53101000  1.0
  N  N147  1  0.41386000  0.03903000  0.54025000  1.0
  N  N148  1  0.32020000  0.09876000  0.52352000  1.0
  N  N149  1  0.98598000  0.90592000  0.49684000  1.0
  O  O150  1  0.53169000  0.60748000  0.25091000  1.0
  O  O151  1  0.79965000  0.65014000  0.30228000  1.0
  O  O152  1  0.14025000  0.65227000  0.26664000  1.0
  O  O153  1  0.83946000  0.39324000  0.75075000  1.0
  O  O154  1  0.57417000  0.34947000  0.69894000  1.0
  O  O155  1  0.22852000  0.34671000  0.73164000  1.0
  O  O156  1  0.35188000  0.55485000  0.10027000  1.0
  O  O157  1  0.16499000  0.45596000  0.98004000  1.0
  O  O158  1  0.92443000  0.64342000  0.39245000  1.0
  O  O159  1  0.14973000  0.65218000  0.34983000  1.0
  O  O160  1  0.48847000  0.61449000  0.34770000  1.0
  O  O161  1  0.44654000  0.35750000  0.60662000  1.0
  O  O162  1  0.22505000  0.34961000  0.65049000  1.0
  O  O163  1  0.88216000  0.38499000  0.65319000  1.0
  O  O164  1  0.79796000  0.54527000  0.44494000  1.0
  O  O165  1  0.70849000  0.52405000  0.54395000  1.0
  O  O166  1  0.28046000  0.74907000  0.35659000  1.0
  O  O167  1  0.49740000  0.69773000  0.34780000  1.0
  O  O168  1  0.87341000  0.73334000  0.38560000  1.0
  O  O169  1  0.08929000  0.24919000  0.64237000  1.0
  O  O170  1  0.87554000  0.30099000  0.65038000  1.0
  O  O171  1  0.49734000  0.26830000  0.61492000  1.0
  O  O172  1  0.25088000  0.89974000  0.45483000  1.0
  O  O173  1  0.18430000  0.02005000  0.47602000  1.0
