# generated using pymatgen
data_CuH14C18S4(N3O2)2
_symmetry_space_group_name_H-M   'P 1'
_cell_length_a   9.49960000
_cell_length_b   10.42580000
_cell_length_c   12.05200000
_cell_angle_alpha   86.04480000
_cell_angle_beta   78.06790000
_cell_angle_gamma   67.97400000
_symmetry_Int_Tables_number   1
_chemical_formula_structural   CuH14C18S4(N3O2)2
_chemical_formula_sum   'Cu2 H28 C36 S8 N12 O8'
_cell_volume   1082.56539195
_cell_formula_units_Z   2
loop_
 _symmetry_equiv_pos_site_id
 _symmetry_equiv_pos_as_xyz
  1  'x, y, z'
loop_
 _atom_site_type_symbol
 _atom_site_label
 _atom_site_symmetry_multiplicity
 _atom_site_fract_x
 _atom_site_fract_y
 _atom_site_fract_z
 _atom_site_occupancy
  Cu  Cu0  1  0.56409000  0.09934000  0.13319000  1.0
  Cu  Cu1  1  0.43591000  0.90066000  0.86681000  1.0
  H  H2  1  0.29168000  0.02305000  0.27575000  1.0
  H  H3  1  0.70833000  0.97694000  0.72425000  1.0
  H  H4  1  0.64814000  0.26148000  0.32408000  1.0
  H  H5  1  0.35186000  0.73853000  0.67592000  1.0
  H  H6  1  0.63856000  0.33993000  0.51752000  1.0
  H  H7  1  0.36144000  0.66007000  0.48248000  1.0
  H  H8  1  0.46676000  0.29309000  0.68508000  1.0
  H  H9  1  0.53324000  0.70691000  0.31492000  1.0
  H  H10  1  0.29187000  0.17286000  0.66807000  1.0
  H  H11  1  0.70814000  0.82714000  0.33193000  1.0
  H  H12  1  0.20105000  0.98855000  0.58499000  1.0
  H  H13  1  0.79896000  0.01145000  0.41501000  1.0
  H  H14  1  0.13531000  0.98401000  0.45772000  1.0
  H  H15  1  0.86470000  0.01599000  0.54229000  1.0
  H  H16  1  0.80624000  0.56521000  0.00483000  1.0
  H  H17  1  0.19376000  0.43479000  0.99517000  1.0
  H  H18  1  0.93710000  0.39448000  0.03428000  1.0
  H  H19  1  0.06290000  0.60552000  0.96572000  1.0
  H  H20  1  0.51682000  0.72511000  0.12165000  1.0
  H  H21  1  0.48317000  0.27489000  0.87836000  1.0
  H  H22  1  0.23294000  0.79813000  0.18626000  1.0
  H  H23  1  0.76705000  0.20187000  0.81374000  1.0
  H  H24  1  0.10624000  0.62661000  0.22685000  1.0
  H  H25  1  0.89375000  0.37338000  0.77315000  1.0
  H  H26  1  0.26094000  0.37285000  0.20028000  1.0
  H  H27  1  0.73906000  0.62714000  0.79971000  1.0
  H  H28  1  0.83725000  0.21317000  0.06382000  1.0
  H  H29  1  0.16276000  0.78683000  0.93618000  1.0
  C  C30  1  0.33800000  0.07064000  0.32911000  1.0
  C  C31  1  0.66201000  0.92936000  0.67089000  1.0
  C  C32  1  0.46992000  0.17652000  0.38677000  1.0
  C  C33  1  0.53008000  0.82349000  0.61322000  1.0
  C  C34  1  0.56919000  0.24395000  0.39736000  1.0
  C  C35  1  0.43081000  0.75607000  0.60263000  1.0
  C  C36  1  0.56383000  0.28625000  0.50595000  1.0
  C  C37  1  0.43616000  0.71376000  0.49404000  1.0
  C  C38  1  0.46530000  0.26058000  0.60165000  1.0
  C  C39  1  0.53470000  0.73942000  0.39835000  1.0
  C  C40  1  0.36568000  0.19360000  0.59268000  1.0
  C  C41  1  0.63433000  0.80640000  0.40732000  1.0
  C  C42  1  0.36944000  0.15352000  0.48381000  1.0
  C  C43  1  0.63055000  0.84649000  0.51619000  1.0
  C  C44  1  0.16559000  0.04778000  0.51008000  1.0
  C  C45  1  0.83442000  0.95223000  0.48993000  1.0
  C  C46  1  0.95164000  0.27562000  0.43903000  1.0
  C  C47  1  0.04837000  0.72437000  0.56097000  1.0
  C  C48  1  0.89436000  0.42297000  0.28022000  1.0
  C  C49  1  0.10564000  0.57702000  0.71977000  1.0
  C  C50  1  0.82938000  0.48108000  0.06676000  1.0
  C  C51  1  0.17061000  0.51892000  0.93324000  1.0
  C  C52  1  0.54760000  0.50627000  0.12890000  1.0
  C  C53  1  0.45240000  0.49373000  0.87110000  1.0
  C  C54  1  0.46325000  0.64819000  0.14162000  1.0
  C  C55  1  0.53674000  0.35181000  0.85838000  1.0
  C  C56  1  0.30363000  0.68802000  0.17870000  1.0
  C  C57  1  0.69637000  0.31197000  0.82130000  1.0
  C  C58  1  0.23179000  0.59026000  0.20143000  1.0
  C  C59  1  0.76821000  0.40973000  0.79857000  1.0
  C  C60  1  0.31619000  0.44868000  0.18709000  1.0
  C  C61  1  0.68381000  0.55131000  0.81291000  1.0
  C  C62  1  0.47636000  0.40737000  0.14979000  1.0
  C  C63  1  0.52364000  0.59263000  0.85022000  1.0
  C  C64  1  0.72442000  0.29399000  0.09045000  1.0
  C  C65  1  0.27558000  0.70601000  0.90956000  1.0
  S  S66  1  0.72928000  0.87469000  0.01340000  1.0
  S  S67  1  0.27072000  0.12531000  0.98661000  1.0
  S  S68  1  0.99371000  0.19820000  0.56730000  1.0
  S  S69  1  0.00630000  0.80179000  0.43269000  1.0
  S  S70  1  0.89419000  0.45393000  0.42097000  1.0
  S  S71  1  0.10582000  0.54606000  0.57902000  1.0
  S  S72  1  0.85190000  0.56159000  0.18873000  1.0
  S  S73  1  0.14810000  0.43841000  0.81127000  1.0
  N  N74  1  0.44743000  0.12173000  0.29226000  1.0
  N  N75  1  0.55257000  0.87828000  0.70774000  1.0
  N  N76  1  0.28794000  0.08582000  0.44395000  1.0
  N  N77  1  0.71206000  0.91418000  0.55604000  1.0
  N  N78  1  0.96435000  0.20739000  0.34724000  1.0
  N  N79  1  0.03566000  0.79260000  0.65275000  1.0
  N  N80  1  0.93309000  0.29093000  0.25631000  1.0
  N  N81  1  0.06692000  0.70906000  0.74369000  1.0
  N  N82  1  0.70488000  0.43025000  0.09209000  1.0
  N  N83  1  0.29511000  0.56975000  0.90791000  1.0
  N  N84  1  0.59069000  0.27655000  0.12369000  1.0
  N  N85  1  0.40932000  0.72345000  0.87631000  1.0
  O  O86  1  0.67696000  0.82034000  0.92646000  1.0
  O  O87  1  0.32304000  0.17966000  0.07353000  1.0
  O  O88  1  0.88482000  0.78492000  0.02831000  1.0
  O  O89  1  0.11517000  0.21507000  0.97170000  1.0
  O  O90  1  0.71825000  0.02323000  0.98783000  1.0
  O  O91  1  0.28175000  0.97676000  0.01217000  1.0
  O  O92  1  0.61357000  0.89468000  0.12660000  1.0
  O  O93  1  0.38643000  0.10532000  0.87340000  1.0
