# generated using pymatgen
data_ZnH14C22(NO2)3
_symmetry_space_group_name_H-M   'P 1'
_cell_length_a   9.72261000
_cell_length_b   10.87290000
_cell_length_c   19.25150000
_cell_angle_alpha   91.61340000
_cell_angle_beta   90.20240000
_cell_angle_gamma   94.54790000
_symmetry_Int_Tables_number   1
_chemical_formula_structural   ZnH14C22(NO2)3
_chemical_formula_sum   'Zn2 H28 C44 N6 O12'
_cell_volume   2027.88712161
_cell_formula_units_Z   2
loop_
 _symmetry_equiv_pos_site_id
 _symmetry_equiv_pos_as_xyz
  1  'x, y, z'
loop_
 _atom_site_type_symbol
 _atom_site_label
 _atom_site_symmetry_multiplicity
 _atom_site_fract_x
 _atom_site_fract_y
 _atom_site_fract_z
 _atom_site_occupancy
  Zn  Zn0  1  0.63819000  0.50488000  0.49902000  1.0
  Zn  Zn1  1  0.34675000  0.51331000  0.49413000  1.0
  H  H2  1  0.70959000  0.57051000  0.28093000  1.0
  H  H3  1  0.32681000  0.37318000  0.71032000  1.0
  H  H4  1  0.34003000  0.34537000  0.83885000  1.0
  H  H5  1  0.28735000  0.95233000  0.61142000  1.0
  H  H6  1  0.33843000  0.71432000  0.32994000  1.0
  H  H7  1  0.06552000  0.47214000  0.67181000  1.0
  H  H8  1  0.99754000  0.39620000  0.78778000  1.0
  H  H9  1  0.77718000  0.26612000  0.80205000  1.0
  H  H10  1  0.62527000  0.21108000  0.69888000  1.0
  H  H11  1  0.68988000  0.28986000  0.58378000  1.0
  H  H12  1  0.85859000  0.64673000  0.76835000  1.0
  H  H13  1  0.62880000  0.93996000  0.50436000  1.0
  H  H14  1  0.00534000  0.82814000  0.72879000  1.0
  H  H15  1  0.90205000  0.98855000  0.65913000  1.0
  H  H16  1  0.65188000  0.96416000  0.62923000  1.0
  H  H17  1  0.50699000  0.78007000  0.66635000  1.0
  H  H18  1  0.67438000  0.19445000  0.39627000  1.0
  H  H19  1  0.73189000  0.26657000  0.27768000  1.0
  H  H20  1  0.56160000  0.22664000  0.18117000  1.0
  H  H21  1  0.33201000  0.11803000  0.20442000  1.0
  H  H22  1  0.27488000  0.04509000  0.32281000  1.0
  H  H23  1  0.89077000  0.49125000  0.45937000  1.0
  H  H24  1  0.13341000  0.37472000  0.56025000  1.0
  H  H25  1  0.08381000  0.59952000  0.48643000  1.0
  H  H26  1  0.72092000  0.56202000  0.15070000  1.0
  H  H27  1  0.29342000  0.42435000  0.14155000  1.0
  H  H28  1  0.28195000  0.43869000  0.27156000  1.0
  H  H29  1  0.66395000  0.63865000  0.85269000  1.0
  C  C30  1  0.55092000  0.74424000  0.48908000  1.0
  C  C31  1  0.50518000  0.48888000  0.85335000  1.0
  C  C32  1  0.44299000  0.06070000  0.43658000  1.0
  C  C33  1  0.49118000  0.50262000  0.36126000  1.0
  C  C34  1  0.42256000  0.12877000  0.49495000  1.0
  C  C35  1  0.45037000  0.92571000  0.44005000  1.0
  C  C36  1  0.54874000  0.87898000  0.47848000  1.0
  C  C37  1  0.92221000  0.43697000  0.55263000  1.0
  C  C38  1  0.07371000  0.44654000  0.53916000  1.0
  C  C39  1  0.43507000  0.26808000  0.49548000  1.0
  C  C40  1  0.48322000  0.52045000  0.63178000  1.0
  C  C41  1  0.49567000  0.50371000  0.28357000  1.0
  C  C42  1  0.61909000  0.53973000  0.24967000  1.0
  C  C43  1  0.62543000  0.53493000  0.17761000  1.0
  C  C44  1  0.50840000  0.49103000  0.13837000  1.0
  C  C45  1  0.38361000  0.45810000  0.17231000  1.0
  C  C46  1  0.37724000  0.46581000  0.24441000  1.0
  C  C47  1  0.39200000  0.07741000  0.56458000  1.0
  C  C48  1  0.34650000  0.84270000  0.39907000  1.0
  C  C49  1  0.88007000  0.38867000  0.62018000  1.0
  C  C50  1  0.96848000  0.41561000  0.67781000  1.0
  C  C51  1  0.93036000  0.37301000  0.74306000  1.0
  C  C52  1  0.51670000  0.47348000  0.92842000  1.0
  C  C53  1  0.80650000  0.30004000  0.75096000  1.0
  C  C54  1  0.72082000  0.26945000  0.69357000  1.0
  C  C55  1  0.75653000  0.31412000  0.62846000  1.0
  C  C56  1  0.67263000  0.70089000  0.72034000  1.0
  C  C57  1  0.81352000  0.71616000  0.73752000  1.0
  C  C58  1  0.89597000  0.81810000  0.71495000  1.0
  C  C59  1  0.83852000  0.90756000  0.67574000  1.0
  C  C60  1  0.69834000  0.89338000  0.65843000  1.0
  C  C61  1  0.61653000  0.79035000  0.67989000  1.0
  C  C62  1  0.47185000  0.11393000  0.36711000  1.0
  C  C63  1  0.51757000  0.47587000  0.06268000  1.0
  C  C64  1  0.60018000  0.17702000  0.35392000  1.0
  C  C65  1  0.63210000  0.21702000  0.28723000  1.0
  C  C66  1  0.53660000  0.19482000  0.23317000  1.0
  C  C67  1  0.40788000  0.13379000  0.24624000  1.0
  C  C68  1  0.37543000  0.09290000  0.31272000  1.0
  C  C69  1  0.59132000  0.57945000  0.82097000  1.0
  C  C70  1  0.58380000  0.59772000  0.74940000  1.0
  C  C71  1  0.48748000  0.52055000  0.70971000  1.0
  C  C72  1  0.39919000  0.43188000  0.74244000  1.0
  C  C73  1  0.40704000  0.41541000  0.81356000  1.0
  N  N74  1  0.41898000  0.40113000  0.02898000  1.0
  N  N75  1  0.41781000  0.40164000  0.96063000  1.0
  N  N76  1  0.63225000  0.52263000  0.96186000  1.0
  N  N77  1  0.63138000  0.52522000  0.03021000  1.0
  N  N78  1  0.83944000  0.46646000  0.50396000  1.0
  N  N79  1  0.13943000  0.52996000  0.50408000  1.0
  O  O80  1  0.66556000  0.69651000  0.49023000  1.0
  O  O81  1  0.29634000  0.97958000  0.56343000  1.0
  O  O82  1  0.22172000  0.84001000  0.40664000  1.0
  O  O83  1  0.40925000  0.77368000  0.35079000  1.0
  O  O84  1  0.43163000  0.68833000  0.49754000  1.0
  O  O85  1  0.60540000  0.49939000  0.39333000  1.0
  O  O86  1  0.37215000  0.50466000  0.38888000  1.0
  O  O87  1  0.55646000  0.31955000  0.49924000  1.0
  O  O88  1  0.32367000  0.32098000  0.49324000  1.0
  O  O89  1  0.59924000  0.53027000  0.60139000  1.0
  O  O90  1  0.36547000  0.50519000  0.60235000  1.0
  O  O91  1  0.44391000  0.12230000  0.61870000  1.0
