# generated using pymatgen
data_ZnH10C18(NO)4
_symmetry_space_group_name_H-M   'P 1'
_cell_length_a   7.60055000
_cell_length_b   10.15810000
_cell_length_c   24.12210000
_cell_angle_alpha   89.99990000
_cell_angle_beta   95.62710000
_cell_angle_gamma   89.99970000
_symmetry_Int_Tables_number   1
_chemical_formula_structural   ZnH10C18(NO)4
_chemical_formula_sum   'Zn4 H40 C72 N16 O16'
_cell_volume   1853.42386967
_cell_formula_units_Z   4
loop_
 _symmetry_equiv_pos_site_id
 _symmetry_equiv_pos_as_xyz
  1  'x, y, z'
loop_
 _atom_site_type_symbol
 _atom_site_label
 _atom_site_symmetry_multiplicity
 _atom_site_fract_x
 _atom_site_fract_y
 _atom_site_fract_z
 _atom_site_occupancy
  Zn  Zn0  1  0.70934000  0.90669000  0.84839000  1.0
  Zn  Zn1  1  0.79067000  0.40669000  0.65161000  1.0
  Zn  Zn2  1  0.29066000  0.09331000  0.15161000  1.0
  Zn  Zn3  1  0.20934000  0.59331000  0.34840000  1.0
  H  H4  1  0.44208000  0.53912000  0.70238000  1.0
  H  H5  1  0.05793000  0.03912000  0.79761000  1.0
  H  H6  1  0.55793000  0.46088000  0.29762000  1.0
  H  H7  1  0.94207000  0.96088000  0.20239000  1.0
  H  H8  1  0.41195000  0.73094000  0.76863000  1.0
  H  H9  1  0.08806000  0.23094000  0.73137000  1.0
  H  H10  1  0.58806000  0.26906000  0.23137000  1.0
  H  H11  1  0.91194000  0.76906000  0.26864000  1.0
  H  H12  1  0.46339000  0.66368000  0.87478000  1.0
  H  H13  1  0.03663000  0.16368000  0.62522000  1.0
  H  H14  1  0.53661000  0.33632000  0.12522000  1.0
  H  H15  1  0.96337000  0.83632000  0.37478000  1.0
  H  H16  1  0.36955000  0.55798000  0.96010000  1.0
  H  H17  1  0.13047000  0.05798000  0.53990000  1.0
  H  H18  1  0.63045000  0.44201000  0.03990000  1.0
  H  H19  1  0.86953000  0.94201000  0.46011000  1.0
  H  H20  1  0.47146000  0.65437000  0.05395000  1.0
  H  H21  1  0.02858000  0.15436000  0.44606000  1.0
  H  H22  1  0.52854000  0.34563000  0.94606000  1.0
  H  H23  1  0.97142000  0.84562000  0.55395000  1.0
  H  H24  1  0.62792000  0.84146000  0.10910000  1.0
  H  H25  1  0.87209000  0.34143000  0.39090000  1.0
  H  H26  1  0.37205000  0.15857000  0.89091000  1.0
  H  H27  1  0.12793000  0.65857000  0.60910000  1.0
  H  H28  1  0.78967000  0.05196000  0.10868000  1.0
  H  H29  1  0.71033000  0.55193000  0.39132000  1.0
  H  H30  1  0.21032000  0.94806000  0.89132000  1.0
  H  H31  1  0.28969000  0.44806000  0.60868000  1.0
  H  H32  1  0.92723000  0.22892000  0.05619000  1.0
  H  H33  1  0.57276000  0.72889000  0.44380000  1.0
  H  H34  1  0.07277000  0.77110000  0.94380000  1.0
  H  H35  1  0.42724000  0.27111000  0.55620000  1.0
  H  H36  1  0.99333000  0.32123000  0.96269000  1.0
  H  H37  1  0.50663000  0.82120000  0.53730000  1.0
  H  H38  1  0.00665000  0.67878000  0.03730000  1.0
  H  H39  1  0.49335000  0.17878000  0.46271000  1.0
  H  H40  1  0.89885000  0.19327000  0.87656000  1.0
  H  H41  1  0.60113000  0.69325000  0.62343000  1.0
  H  H42  1  0.10113000  0.80672000  0.12343000  1.0
  H  H43  1  0.39887000  0.30673000  0.37657000  1.0
  C  C44  1  0.98798000  0.71638000  0.83380000  1.0
  C  C45  1  0.51206000  0.21637000  0.66620000  1.0
  C  C46  1  0.01204000  0.28364000  0.16620000  1.0
  C  C47  1  0.48796000  0.78362000  0.33380000  1.0
  C  C48  1  0.84434000  0.68184000  0.78758000  1.0
  C  C49  1  0.65567000  0.18183000  0.71242000  1.0
  C  C50  1  0.15567000  0.31817000  0.21242000  1.0
  C  C51  1  0.34433000  0.81815000  0.28758000  1.0
  C  C52  1  0.86363000  0.59884000  0.74182000  1.0
  C  C53  1  0.63639000  0.09883000  0.75817000  1.0
  C  C54  1  0.13638000  0.40118000  0.25817000  1.0
  C  C55  1  0.36361000  0.90115000  0.24182000  1.0
  C  C56  1  0.03596000  0.57620000  0.71579000  1.0
  C  C57  1  0.46406000  0.07618000  0.78420000  1.0
  C  C58  1  0.96405000  0.42381000  0.28420000  1.0
  C  C59  1  0.53595000  0.92378000  0.21579000  1.0
  C  C60  1  0.55681000  0.58594000  0.72483000  1.0
  C  C61  1  0.94321000  0.08593000  0.77517000  1.0
  C  C62  1  0.44320000  0.41406000  0.27517000  1.0
  C  C63  1  0.05678000  0.91406000  0.22483000  1.0
  C  C64  1  0.53983000  0.68674000  0.76319000  1.0
  C  C65  1  0.96018000  0.18673000  0.73681000  1.0
  C  C66  1  0.46018000  0.31326000  0.23681000  1.0
  C  C67  1  0.03981000  0.81327000  0.26319000  1.0
  C  C68  1  0.50660000  0.70364000  0.91580000  1.0
  C  C69  1  0.99343000  0.20364000  0.58420000  1.0
  C  C70  1  0.49340000  0.29636000  0.08420000  1.0
  C  C71  1  0.00657000  0.79636000  0.41580000  1.0
  C  C72  1  0.45469000  0.64424000  0.96421000  1.0
  C  C73  1  0.04534000  0.14423000  0.53580000  1.0
  C  C74  1  0.54531000  0.35577000  0.03580000  1.0
  C  C75  1  0.95467000  0.85576000  0.46421000  1.0
  C  C76  1  0.50965000  0.69822000  0.01562000  1.0
  C  C77  1  0.99039000  0.19821000  0.48438000  1.0
  C  C78  1  0.49035000  0.30179000  0.98438000  1.0
  C  C79  1  0.00962000  0.80178000  0.51562000  1.0
  C  C80  1  0.61020000  0.81535000  0.01875000  1.0
  C  C81  1  0.88982000  0.31534000  0.48126000  1.0
  C  C82  1  0.38978000  0.18466000  0.98126000  1.0
  C  C83  1  0.11019000  0.68465000  0.51875000  1.0
  C  C84  1  0.66260000  0.88273000  0.06983000  1.0
  C  C85  1  0.83742000  0.38271000  0.43017000  1.0
  C  C86  1  0.33739000  0.11729000  0.93018000  1.0
  C  C87  1  0.16259000  0.61729000  0.56983000  1.0
  C  C88  1  0.75205000  0.99949000  0.06995000  1.0
  C  C89  1  0.74795000  0.49947000  0.43005000  1.0
  C  C90  1  0.24794000  0.00053000  0.93006000  1.0
  C  C91  1  0.25205000  0.50053000  0.56995000  1.0
  C  C92  1  0.79738000  0.05700000  0.01900000  1.0
  C  C93  1  0.70262000  0.55698000  0.48099000  1.0
  C  C94  1  0.20260000  0.94301000  0.98100000  1.0
  C  C95  1  0.29738000  0.44301000  0.51901000  1.0
  C  C96  1  0.88785000  0.17838000  0.01702000  1.0
  C  C97  1  0.61214000  0.67836000  0.48298000  1.0
  C  C98  1  0.11214000  0.82163000  0.98298000  1.0
  C  C99  1  0.38786000  0.32164000  0.51703000  1.0
  C  C100  1  0.92379000  0.22816000  0.96598000  1.0
  C  C101  1  0.57619000  0.72813000  0.53401000  1.0
  C  C102  1  0.07619000  0.77185000  0.03401000  1.0
  C  C103  1  0.42380000  0.27185000  0.46599000  1.0
  C  C104  1  0.87016000  0.15687000  0.91727000  1.0
  C  C105  1  0.62982000  0.65686000  0.58273000  1.0
  C  C106  1  0.12982000  0.84313000  0.08273000  1.0
  C  C107  1  0.37018000  0.34313000  0.41727000  1.0
  C  C108  1  0.74880000  0.99228000  0.96764000  1.0
  C  C109  1  0.75121000  0.49227000  0.53236000  1.0
  C  C110  1  0.25119000  0.00772000  0.03236000  1.0
  C  C111  1  0.24880000  0.50772000  0.46764000  1.0
  C  C112  1  0.65417000  0.86935000  0.96750000  1.0
  C  C113  1  0.84585000  0.36934000  0.53250000  1.0
  C  C114  1  0.34581000  0.13066000  0.03250000  1.0
  C  C115  1  0.15416000  0.63065000  0.46750000  1.0
  N  N116  1  0.68348000  0.73050000  0.79459000  1.0
  N  N117  1  0.81654000  0.23050000  0.70540000  1.0
  N  N118  1  0.31653000  0.26950000  0.20541000  1.0
  N  N119  1  0.18346000  0.76949000  0.29459000  1.0
  N  N120  1  0.71856000  0.54780000  0.71353000  1.0
  N  N121  1  0.78146000  0.04779000  0.78647000  1.0
  N  N122  1  0.28145000  0.45221000  0.28647000  1.0
  N  N123  1  0.21853000  0.95219000  0.21353000  1.0
  N  N124  1  0.60639000  0.81142000  0.91771000  1.0
  N  N125  1  0.89363000  0.31141000  0.58229000  1.0
  N  N126  1  0.39360000  0.18859000  0.08229000  1.0
  N  N127  1  0.10638000  0.68859000  0.41771000  1.0
  N  N128  1  0.78493000  0.04261000  0.91790000  1.0
  N  N129  1  0.71508000  0.54260000  0.58210000  1.0
  N  N130  1  0.21506000  0.95739000  0.08210000  1.0
  N  N131  1  0.28494000  0.45739000  0.41790000  1.0
  O  O132  1  0.96712000  0.82928000  0.85679000  1.0
  O  O133  1  0.53289000  0.32928000  0.64321000  1.0
  O  O134  1  0.03288000  0.17074000  0.14321000  1.0
  O  O135  1  0.46712000  0.67073000  0.35679000  1.0
  O  O136  1  0.10188000  0.63199000  0.84836000  1.0
  O  O137  1  0.39817000  0.13196000  0.65162000  1.0
  O  O138  1  0.89814000  0.36804000  0.15163000  1.0
  O  O139  1  0.60185000  0.86803000  0.34836000  1.0
  O  O140  1  0.15289000  0.66175000  0.72412000  1.0
  O  O141  1  0.34710000  0.16174000  0.77586000  1.0
  O  O142  1  0.84710000  0.33827000  0.27587000  1.0
  O  O143  1  0.65287000  0.83823000  0.22413000  1.0
  O  O144  1  0.03786000  0.47563000  0.68343000  1.0
  O  O145  1  0.46215000  0.97564000  0.81657000  1.0
  O  O146  1  0.96215000  0.52436000  0.31657000  1.0
  O  O147  1  0.53784000  0.02434000  0.18343000  1.0
