# generated using pymatgen
data_AlH4C9NO5F2
_symmetry_space_group_name_H-M   'P 1'
_cell_length_a   6.70550000
_cell_length_b   8.85965000
_cell_length_c   16.88560000
_cell_angle_alpha   96.46420000
_cell_angle_beta   95.66650000
_cell_angle_gamma   104.71750000
_symmetry_Int_Tables_number   1
_chemical_formula_structural   AlH4C9NO5F2
_chemical_formula_sum   'Al2 H8 C18 N2 O10 F4'
_cell_volume   955.56439804
_cell_formula_units_Z   2
loop_
 _symmetry_equiv_pos_site_id
 _symmetry_equiv_pos_as_xyz
  1  'x, y, z'
loop_
 _atom_site_type_symbol
 _atom_site_label
 _atom_site_symmetry_multiplicity
 _atom_site_fract_x
 _atom_site_fract_y
 _atom_site_fract_z
 _atom_site_occupancy
  Al  Al0  1  0.00000000  0.50000000  0.50000000  1.0
  Al  Al1  1  0.50000000  0.50001000  0.50000000  1.0
  H  H2  1  0.17341000  0.31971000  0.43604000  1.0
  H  H3  1  0.82662000  0.68029000  0.56397000  1.0
  H  H4  1  0.63027000  0.48132000  0.73175000  1.0
  H  H5  1  0.69932000  0.48249000  0.88025000  1.0
  H  H6  1  0.07014000  0.50170000  0.90054000  1.0
  H  H7  1  0.92982000  0.49824000  0.09944000  1.0
  H  H8  1  0.30066000  0.51750000  0.11976000  1.0
  H  H9  1  0.36976000  0.51873000  0.26826000  1.0
  C  C10  1  0.66000000  0.21957000  0.49735000  1.0
  C  C11  1  0.70916000  0.50272000  0.35663000  1.0
  C  C12  1  0.34001000  0.78044000  0.50265000  1.0
  C  C13  1  0.29086000  0.49730000  0.64337000  1.0
  C  C14  1  0.31553000  0.49235000  0.73193000  1.0
  C  C15  1  0.50971000  0.48590000  0.76980000  1.0
  C  C16  1  0.54833000  0.48663000  0.85185000  1.0
  C  C17  1  0.38937000  0.49370000  0.89961000  1.0
  C  C18  1  0.19348000  0.49740000  0.86366000  1.0
  C  C19  1  0.15985000  0.49692000  0.78118000  1.0
  C  C20  1  0.80651000  0.50257000  0.13634000  1.0
  C  C21  1  0.61060000  0.50626000  0.10039000  1.0
  C  C22  1  0.45165000  0.51335000  0.14816000  1.0
  C  C23  1  0.49031000  0.51412000  0.23020000  1.0
  C  C24  1  0.68448000  0.50766000  0.26807000  1.0
  C  C25  1  0.84016000  0.50307000  0.21882000  1.0
  C  C26  1  0.59825000  0.04639000  0.50084000  1.0
  C  C27  1  0.40174000  0.95360000  0.49914000  1.0
  N  N28  1  0.40936000  0.49722000  0.98394000  1.0
  N  N29  1  0.59059000  0.50272000  0.01606000  1.0
  O  O30  1  0.85413000  0.28381000  0.50515000  1.0
  O  O31  1  0.55425000  0.51807000  0.39176000  1.0
  O  O32  1  0.48573000  0.71451000  0.51336000  1.0
  O  O33  1  0.12382000  0.51963000  0.61023000  1.0
  O  O34  1  0.14587000  0.71619000  0.49485000  1.0
  O  O35  1  0.44577000  0.48195000  0.60824000  1.0
  O  O36  1  0.51428000  0.28550000  0.48663000  1.0
  O  O37  1  0.87620000  0.48038000  0.38977000  1.0
  O  O38  1  0.21604000  0.42796000  0.46250000  1.0
  O  O39  1  0.78397000  0.57205000  0.53750000  1.0
  F  F40  1  0.96736000  0.50059000  0.74957000  1.0
  F  F41  1  0.03263000  0.49939000  0.25041000  1.0
  F  F42  1  0.76030000  0.98278000  0.50697000  1.0
  F  F43  1  0.23968000  0.01721000  0.49302000  1.0
