# generated using pymatgen
data_CoH19C19N4O5
_symmetry_space_group_name_H-M   'P 1'
_cell_length_a   7.35167000
_cell_length_b   16.52650000
_cell_length_c   17.00260000
_cell_angle_alpha   90.00000000
_cell_angle_beta   96.67920000
_cell_angle_gamma   89.99980000
_symmetry_Int_Tables_number   1
_chemical_formula_structural   CoH19C19N4O5
_chemical_formula_sum   'Co4 H76 C76 N16 O20'
_cell_volume   2051.75073975
_cell_formula_units_Z   4
loop_
 _symmetry_equiv_pos_site_id
 _symmetry_equiv_pos_as_xyz
  1  'x, y, z'
loop_
 _atom_site_type_symbol
 _atom_site_label
 _atom_site_symmetry_multiplicity
 _atom_site_fract_x
 _atom_site_fract_y
 _atom_site_fract_z
 _atom_site_occupancy
  Co  Co0  1  0.43423000  0.79918000  0.80927000  1.0
  Co  Co1  1  0.06578000  0.29918000  0.69073000  1.0
  Co  Co2  1  0.56578000  0.20082000  0.19073000  1.0
  Co  Co3  1  0.93422000  0.70082000  0.30927000  1.0
  H  H4  1  0.81343000  0.47347000  0.45747000  1.0
  H  H5  1  0.92948000  0.56647000  0.44062000  1.0
  H  H6  1  0.72999000  0.63476000  0.66262000  1.0
  H  H7  1  0.21357000  0.70581000  0.53591000  1.0
  H  H8  1  0.59382000  0.56659000  0.41741000  1.0
  H  H9  1  0.59027000  0.02614000  0.63392000  1.0
  H  H10  1  0.63734000  0.03680000  0.53466000  1.0
  H  H11  1  0.83714000  0.99512000  0.74103000  1.0
  H  H12  1  0.93699000  0.09160000  0.72814000  1.0
  H  H13  1  0.39336000  0.15158000  0.47550000  1.0
  H  H14  1  0.55210000  0.98663000  0.79807000  1.0
  H  H15  1  0.08014000  0.22788000  0.51763000  1.0
  H  H16  1  0.97822000  0.05506000  0.58738000  1.0
  H  H17  1  0.88586000  0.95794000  0.60133000  1.0
  H  H18  1  0.74965000  0.17618000  0.55938000  1.0
  H  H19  1  0.74376000  0.16646000  0.66214000  1.0
  H  H20  1  0.28282000  0.10222000  0.75010000  1.0
  H  H21  1  0.48406000  0.22549000  0.71525000  1.0
  H  H22  1  0.04642000  0.86859000  0.73758000  1.0
  H  H23  1  0.68657000  0.97347000  0.04253000  1.0
  H  H24  1  0.57052000  0.06647000  0.05938000  1.0
  H  H25  1  0.77000000  0.13476000  0.83738000  1.0
  H  H26  1  0.28643000  0.20582000  0.96410000  1.0
  H  H27  1  0.90618000  0.06659000  0.08259000  1.0
  H  H28  1  0.90974000  0.52614000  0.86608000  1.0
  H  H29  1  0.86265000  0.53680000  0.96534000  1.0
  H  H30  1  0.66286000  0.49512000  0.75898000  1.0
  H  H31  1  0.56301000  0.59159000  0.77186000  1.0
  H  H32  1  0.10664000  0.65158000  0.02449000  1.0
  H  H33  1  0.94791000  0.48663000  0.70192000  1.0
  H  H34  1  0.41986000  0.72788000  0.98237000  1.0
  H  H35  1  0.52178000  0.55506000  0.91263000  1.0
  H  H36  1  0.61415000  0.45794000  0.89867000  1.0
  H  H37  1  0.75035000  0.67619000  0.94062000  1.0
  H  H38  1  0.75624000  0.66646000  0.83786000  1.0
  H  H39  1  0.21719000  0.60221000  0.74990000  1.0
  H  H40  1  0.01594000  0.72549000  0.78475000  1.0
  H  H41  1  0.45357000  0.36859000  0.76243000  1.0
  H  H42  1  0.18658000  0.52653000  0.54253000  1.0
  H  H43  1  0.07052000  0.43353000  0.55938000  1.0
  H  H44  1  0.27001000  0.36523000  0.33738000  1.0
  H  H45  1  0.78644000  0.29418000  0.46409000  1.0
  H  H46  1  0.40619000  0.43340000  0.58259000  1.0
  H  H47  1  0.40974000  0.97387000  0.36607000  1.0
  H  H48  1  0.36266000  0.96321000  0.46534000  1.0
  H  H49  1  0.16286000  0.00488000  0.25897000  1.0
  H  H50  1  0.06301000  0.90841000  0.27186000  1.0
  H  H51  1  0.60663000  0.84842000  0.52450000  1.0
  H  H52  1  0.44790000  0.01337000  0.20192000  1.0
  H  H53  1  0.91986000  0.77212000  0.48237000  1.0
  H  H54  1  0.02178000  0.94495000  0.41262000  1.0
  H  H55  1  0.11415000  0.04207000  0.39866000  1.0
  H  H56  1  0.25035000  0.82382000  0.44062000  1.0
  H  H57  1  0.25624000  0.83354000  0.33786000  1.0
  H  H58  1  0.71719000  0.89779000  0.24989000  1.0
  H  H59  1  0.51595000  0.77451000  0.28475000  1.0
  H  H60  1  0.95357000  0.13141000  0.26242000  1.0
  H  H61  1  0.31342000  0.02653000  0.95747000  1.0
  H  H62  1  0.42948000  0.93353000  0.94062000  1.0
  H  H63  1  0.22999000  0.86523000  0.16262000  1.0
  H  H64  1  0.71356000  0.79418000  0.03591000  1.0
  H  H65  1  0.09381000  0.93340000  0.91741000  1.0
  H  H66  1  0.09026000  0.47387000  0.13392000  1.0
  H  H67  1  0.13734000  0.46320000  0.03466000  1.0
  H  H68  1  0.33714000  0.50488000  0.24103000  1.0
  H  H69  1  0.43700000  0.40841000  0.22814000  1.0
  H  H70  1  0.89336000  0.34842000  0.97550000  1.0
  H  H71  1  0.05210000  0.51337000  0.29808000  1.0
  H  H72  1  0.58014000  0.27212000  0.01763000  1.0
  H  H73  1  0.47822000  0.44494000  0.08737000  1.0
  H  H74  1  0.38585000  0.54206000  0.10133000  1.0
  H  H75  1  0.24965000  0.32382000  0.05938000  1.0
  H  H76  1  0.24376000  0.33354000  0.16214000  1.0
  H  H77  1  0.78282000  0.39779000  0.25010000  1.0
  H  H78  1  0.98405000  0.27451000  0.21525000  1.0
  H  H79  1  0.54642000  0.63141000  0.23758000  1.0
  C  C80  1  0.67942000  0.59415000  0.54195000  1.0
  C  C81  1  0.90954000  0.51941000  0.48457000  1.0
  C  C82  1  0.63323000  0.63466000  0.60908000  1.0
  C  C83  1  0.34490000  0.67540000  0.53707000  1.0
  C  C84  1  0.39351000  0.63728000  0.46918000  1.0
  C  C85  1  0.26553000  0.64089000  0.39348000  1.0
  C  C86  1  0.56096000  0.59614000  0.47120000  1.0
  C  C87  1  0.46605000  0.67486000  0.60688000  1.0
  C  C88  1  0.41801000  0.71860000  0.67821000  1.0
  C  C89  1  0.68497000  0.05414000  0.59613000  1.0
  C  C90  1  0.93436000  0.02835000  0.70859000  1.0
  C  C91  1  0.36253000  0.17655000  0.53135000  1.0
  C  C92  1  0.40853000  0.97973000  0.77609000  1.0
  C  C93  1  0.20911000  0.21426000  0.55270000  1.0
  C  C94  1  0.87928000  0.02177000  0.61918000  1.0
  C  C95  1  0.67716000  0.14627000  0.60435000  1.0
  C  C96  1  0.27734000  0.03675000  0.75282000  1.0
  C  C97  1  0.41355000  0.21548000  0.65644000  1.0
  C  C98  1  0.15077000  0.91501000  0.74559000  1.0
  C  C99  1  0.82058000  0.09416000  0.95805000  1.0
  C  C100  1  0.59046000  0.01941000  0.01543000  1.0
  C  C101  1  0.86677000  0.13466000  0.89092000  1.0
  C  C102  1  0.15510000  0.17540000  0.96293000  1.0
  C  C103  1  0.10649000  0.13728000  0.03082000  1.0
  C  C104  1  0.23447000  0.14089000  0.10651000  1.0
  C  C105  1  0.93904000  0.09614000  0.02880000  1.0
  C  C106  1  0.03394000  0.17486000  0.89312000  1.0
  C  C107  1  0.08198000  0.21860000  0.82180000  1.0
  C  C108  1  0.81503000  0.55414000  0.90388000  1.0
  C  C109  1  0.56564000  0.52834000  0.79141000  1.0
  C  C110  1  0.13747000  0.67655000  0.96865000  1.0
  C  C111  1  0.09147000  0.47972000  0.72390000  1.0
  C  C112  1  0.29088000  0.71426000  0.94730000  1.0
  C  C113  1  0.62072000  0.52177000  0.88083000  1.0
  C  C114  1  0.82284000  0.64627000  0.89565000  1.0
  C  C115  1  0.22267000  0.53675000  0.74719000  1.0
  C  C116  1  0.08645000  0.71548000  0.84356000  1.0
  C  C117  1  0.34923000  0.41501000  0.75441000  1.0
  C  C118  1  0.32058000  0.40584000  0.45805000  1.0
  C  C119  1  0.09047000  0.48058000  0.51543000  1.0
  C  C120  1  0.36678000  0.36533000  0.39092000  1.0
  C  C121  1  0.65511000  0.32460000  0.46293000  1.0
  C  C122  1  0.60650000  0.36271000  0.53083000  1.0
  C  C123  1  0.73448000  0.35911000  0.60652000  1.0
  C  C124  1  0.43905000  0.40386000  0.52880000  1.0
  C  C125  1  0.53396000  0.32513000  0.39312000  1.0
  C  C126  1  0.58199000  0.28140000  0.32180000  1.0
  C  C127  1  0.31503000  0.94586000  0.40387000  1.0
  C  C128  1  0.06564000  0.97166000  0.29141000  1.0
  C  C129  1  0.63747000  0.82345000  0.46866000  1.0
  C  C130  1  0.59147000  0.02028000  0.22390000  1.0
  C  C131  1  0.79088000  0.78574000  0.44731000  1.0
  C  C132  1  0.12073000  0.97823000  0.38082000  1.0
  C  C133  1  0.32284000  0.85374000  0.39565000  1.0
  C  C134  1  0.72266000  0.96325000  0.24718000  1.0
  C  C135  1  0.58645000  0.78452000  0.34356000  1.0
  C  C136  1  0.84922000  0.08499000  0.25441000  1.0
  C  C137  1  0.17942000  0.90584000  0.04195000  1.0
  C  C138  1  0.40953000  0.98058000  0.98457000  1.0
  C  C139  1  0.13322000  0.86533000  0.10907000  1.0
  C  C140  1  0.84489000  0.82460000  0.03707000  1.0
  C  C141  1  0.89351000  0.86271000  0.96918000  1.0
  C  C142  1  0.76553000  0.85911000  0.89348000  1.0
  C  C143  1  0.06095000  0.90386000  0.97120000  1.0
  C  C144  1  0.96605000  0.82513000  0.10688000  1.0
  C  C145  1  0.91801000  0.78140000  0.17821000  1.0
  C  C146  1  0.18497000  0.44586000  0.09613000  1.0
  C  C147  1  0.43436000  0.47166000  0.20859000  1.0
  C  C148  1  0.86253000  0.32345000  0.03135000  1.0
  C  C149  1  0.90853000  0.52028000  0.27610000  1.0
  C  C150  1  0.70912000  0.28574000  0.05270000  1.0
  C  C151  1  0.37927000  0.47823000  0.11918000  1.0
  C  C152  1  0.17716000  0.35373000  0.10435000  1.0
  C  C153  1  0.77734000  0.46325000  0.25281000  1.0
  C  C154  1  0.91354000  0.28452000  0.15644000  1.0
  C  C155  1  0.65077000  0.58499000  0.24559000  1.0
  N  N156  1  0.24242000  0.23813000  0.63115000  1.0
  N  N157  1  0.32748000  0.90389000  0.77124000  1.0
  N  N158  1  0.11526000  0.99467000  0.73386000  1.0
  N  N159  1  0.49055000  0.17789000  0.59765000  1.0
  N  N160  1  0.25758000  0.73813000  0.86885000  1.0
  N  N161  1  0.17252000  0.40389000  0.72876000  1.0
  N  N162  1  0.38475000  0.49467000  0.76614000  1.0
  N  N163  1  0.00945000  0.67789000  0.90234000  1.0
  N  N164  1  0.75758000  0.76187000  0.36885000  1.0
  N  N165  1  0.67252000  0.09611000  0.22876000  1.0
  N  N166  1  0.88474000  0.00533000  0.26614000  1.0
  N  N167  1  0.50945000  0.82211000  0.40235000  1.0
  N  N168  1  0.74242000  0.26187000  0.13115000  1.0
  N  N169  1  0.82748000  0.59611000  0.27124000  1.0
  N  N170  1  0.61526000  0.50533000  0.23386000  1.0
  N  N171  1  0.99055000  0.32211000  0.09765000  1.0
  O  O172  1  0.84335000  0.55493000  0.55240000  1.0
  O  O173  1  0.11464000  0.68063000  0.39989000  1.0
  O  O174  1  0.25835000  0.74384000  0.68328000  1.0
  O  O175  1  0.30523000  0.60869000  0.33119000  1.0
  O  O176  1  0.55010000  0.72998000  0.73535000  1.0
  O  O177  1  0.65665000  0.05493000  0.94760000  1.0
  O  O178  1  0.38536000  0.18063000  0.10011000  1.0
  O  O179  1  0.24165000  0.24384000  0.81672000  1.0
  O  O180  1  0.19477000  0.10868000  0.16881000  1.0
  O  O181  1  0.94990000  0.22998000  0.76464000  1.0
  O  O182  1  0.15665000  0.44506000  0.44760000  1.0
  O  O183  1  0.88537000  0.31937000  0.60011000  1.0
  O  O184  1  0.74166000  0.25615000  0.31672000  1.0
  O  O185  1  0.69479000  0.39132000  0.66881000  1.0
  O  O186  1  0.44990000  0.27002000  0.26464000  1.0
  O  O187  1  0.34334000  0.94507000  0.05240000  1.0
  O  O188  1  0.61464000  0.81937000  0.89989000  1.0
  O  O189  1  0.75835000  0.75616000  0.18328000  1.0
  O  O190  1  0.80522000  0.89131000  0.83119000  1.0
  O  O191  1  0.05010000  0.77002000  0.23536000  1.0
