# generated using pymatgen
data_CoH18C28SN2O5
_symmetry_space_group_name_H-M   'P 1'
_cell_length_a   13.03030000
_cell_length_b   19.72850000
_cell_length_c   22.13290000
_cell_angle_alpha   89.99990000
_cell_angle_beta   89.99990000
_cell_angle_gamma   100.12500000
_symmetry_Int_Tables_number   1
_chemical_formula_structural   CoH18C28SN2O5
_chemical_formula_sum   'Co8 H144 C224 S8 N16 O40'
_cell_volume   5601.05875949
_cell_formula_units_Z   8
loop_
 _symmetry_equiv_pos_site_id
 _symmetry_equiv_pos_as_xyz
  1  'x, y, z'
loop_
 _atom_site_type_symbol
 _atom_site_label
 _atom_site_symmetry_multiplicity
 _atom_site_fract_x
 _atom_site_fract_y
 _atom_site_fract_z
 _atom_site_occupancy
  Co  Co0  1  0.54906000  0.42078000  0.55003000  1.0
  Co  Co1  1  0.95094000  0.57922000  0.05003000  1.0
  Co  Co2  1  0.45094000  0.57922000  0.44997000  1.0
  Co  Co3  1  0.04906000  0.42078000  0.94997000  1.0
  Co  Co4  1  0.54059000  0.93257000  0.54945000  1.0
  Co  Co5  1  0.95941000  0.06743000  0.04945000  1.0
  Co  Co6  1  0.45941000  0.06743000  0.45055000  1.0
  Co  Co7  1  0.04059000  0.93257000  0.95055000  1.0
  H  H8  1  0.70897000  0.93044000  0.45627000  1.0
  H  H9  1  0.79103000  0.06956000  0.95627000  1.0
  H  H10  1  0.29102000  0.06956000  0.54373000  1.0
  H  H11  1  0.20897000  0.93044000  0.04373000  1.0
  H  H12  1  0.88171000  0.99695000  0.43063000  1.0
  H  H13  1  0.61829000  0.00305000  0.93063000  1.0
  H  H14  1  0.11829000  0.00305000  0.56937000  1.0
  H  H15  1  0.38170000  0.99695000  0.06937000  1.0
  H  H16  1  0.86952000  0.10875000  0.59829000  1.0
  H  H17  1  0.63048000  0.89125000  0.09829000  1.0
  H  H18  1  0.13048000  0.89125000  0.40171000  1.0
  H  H19  1  0.36952000  0.10875000  0.90171000  1.0
  H  H20  1  0.69755000  0.03515000  0.61740000  1.0
  H  H21  1  0.80245000  0.96485000  0.11740000  1.0
  H  H22  1  0.30245000  0.96485000  0.38261000  1.0
  H  H23  1  0.19755000  0.03516000  0.88260000  1.0
  H  H24  1  0.01573000  0.07384000  0.40283000  1.0
  H  H25  1  0.48427000  0.92616000  0.90283000  1.0
  H  H26  1  0.98426000  0.92616000  0.59717000  1.0
  H  H27  1  0.51573000  0.07383000  0.09717000  1.0
  H  H28  1  0.19296000  0.15903000  0.40372000  1.0
  H  H29  1  0.30704000  0.84096000  0.90372000  1.0
  H  H30  1  0.80703000  0.84096000  0.59628000  1.0
  H  H31  1  0.69296000  0.15903000  0.09628000  1.0
  H  H32  1  0.34817000  0.21297000  0.43666000  1.0
  H  H33  1  0.15183000  0.78703000  0.93666000  1.0
  H  H34  1  0.65182000  0.78703000  0.56333000  1.0
  H  H35  1  0.84817000  0.21296000  0.06333000  1.0
  H  H36  1  0.49322000  0.30739000  0.46053000  1.0
  H  H37  1  0.00678000  0.69261000  0.96053000  1.0
  H  H38  1  0.50677000  0.69261000  0.53947000  1.0
  H  H39  1  0.99321000  0.30739000  0.03947000  1.0
  H  H40  1  0.34598000  0.36251000  0.61358000  1.0
  H  H41  1  0.15400000  0.63749000  0.11357000  1.0
  H  H42  1  0.65401000  0.63749000  0.38642000  1.0
  H  H43  1  0.84598000  0.36251000  0.88643000  1.0
  H  H44  1  0.18989000  0.27217000  0.59561000  1.0
  H  H45  1  0.31010000  0.72782000  0.09561000  1.0
  H  H46  1  0.81010000  0.72782000  0.40439000  1.0
  H  H47  1  0.68989000  0.27217000  0.90439000  1.0
  H  H48  1  0.75304000  0.48313000  0.48860000  1.0
  H  H49  1  0.74697000  0.51688000  0.98860000  1.0
  H  H50  1  0.24697000  0.51688000  0.51140000  1.0
  H  H51  1  0.25304000  0.48313000  0.01140000  1.0
  H  H52  1  0.89754000  0.58158000  0.50242000  1.0
  H  H53  1  0.60246000  0.41842000  0.00242000  1.0
  H  H54  1  0.10246000  0.41843000  0.49758000  1.0
  H  H55  1  0.39755000  0.58158000  0.99758000  1.0
  H  H56  1  0.73922000  0.63339000  0.66340000  1.0
  H  H57  1  0.76079000  0.36662000  0.16341000  1.0
  H  H58  1  0.26078000  0.36662000  0.33659000  1.0
  H  H59  1  0.23923000  0.63339000  0.83660000  1.0
  H  H60  1  0.60280000  0.53240000  0.64301000  1.0
  H  H61  1  0.89720000  0.46761000  0.14302000  1.0
  H  H62  1  0.39720000  0.46761000  0.35698000  1.0
  H  H63  1  0.10281000  0.53240000  0.85699000  1.0
  H  H64  1  0.87044000  0.71047000  0.68604000  1.0
  H  H65  1  0.62956000  0.28953000  0.18604000  1.0
  H  H66  1  0.12956000  0.28954000  0.31396000  1.0
  H  H67  1  0.37045000  0.71047000  0.81396000  1.0
  H  H68  1  0.04192000  0.80088000  0.68660000  1.0
  H  H69  1  0.45809000  0.19912000  0.18660000  1.0
  H  H70  1  0.95809000  0.19912000  0.31340000  1.0
  H  H71  1  0.54192000  0.80088000  0.81340000  1.0
  H  H72  1  0.17779000  0.87961000  0.65531000  1.0
  H  H73  1  0.32221000  0.12039000  0.15532000  1.0
  H  H74  1  0.82221000  0.12039000  0.34469000  1.0
  H  H75  1  0.67779000  0.87961000  0.84469000  1.0
  H  H76  1  0.35193000  0.94571000  0.62931000  1.0
  H  H77  1  0.14807000  0.05429000  0.12931000  1.0
  H  H78  1  0.64807000  0.05429000  0.37069000  1.0
  H  H79  1  0.85194000  0.94571000  0.87069000  1.0
  H  H80  1  0.39244000  0.81078000  0.49201000  1.0
  H  H81  1  0.10756000  0.18922000  0.99201000  1.0
  H  H82  1  0.60756000  0.18922000  0.50799000  1.0
  H  H83  1  0.89244000  0.81078000  0.00800000  1.0
  H  H84  1  0.22232000  0.73774000  0.51161000  1.0
  H  H85  1  0.27769000  0.26226000  0.01161000  1.0
  H  H86  1  0.77769000  0.26226000  0.48839000  1.0
  H  H87  1  0.72231000  0.73774000  0.98839000  1.0
  H  H88  1  0.97035000  0.75388000  0.84971000  1.0
  H  H89  1  0.52965000  0.24612000  0.34971000  1.0
  H  H90  1  0.02965000  0.24612000  0.15029000  1.0
  H  H91  1  0.47035000  0.75388000  0.65029000  1.0
  H  H92  1  0.97559000  0.63945000  0.80169000  1.0
  H  H93  1  0.52441000  0.36055000  0.30169000  1.0
  H  H94  1  0.02441000  0.36055000  0.19831000  1.0
  H  H95  1  0.47559000  0.63945000  0.69831000  1.0
  H  H96  1  0.27163000  0.72352000  0.72064000  1.0
  H  H97  1  0.22837000  0.27648000  0.22063000  1.0
  H  H98  1  0.72837000  0.27648000  0.27937000  1.0
  H  H99  1  0.77163000  0.72353000  0.77937000  1.0
  H  H100  1  0.26138000  0.83815000  0.76515000  1.0
  H  H101  1  0.23862000  0.16185000  0.26515000  1.0
  H  H102  1  0.73862000  0.16186000  0.23485000  1.0
  H  H103  1  0.76138000  0.83815000  0.73485000  1.0
  H  H104  1  0.22801000  0.51272000  0.76164000  1.0
  H  H105  1  0.27200000  0.48728000  0.26164000  1.0
  H  H106  1  0.77200000  0.48729000  0.23836000  1.0
  H  H107  1  0.72801000  0.51272000  0.73836000  1.0
  H  H108  1  0.35944000  0.47440000  0.69224000  1.0
  H  H109  1  0.14057000  0.52561000  0.19224000  1.0
  H  H110  1  0.64057000  0.52561000  0.30775000  1.0
  H  H111  1  0.85944000  0.47440000  0.80776000  1.0
  H  H112  1  0.31318000  0.62990000  0.56372000  1.0
  H  H113  1  0.18682000  0.37010000  0.06372000  1.0
  H  H114  1  0.68682000  0.37011000  0.43627000  1.0
  H  H115  1  0.81318000  0.62990000  0.93628000  1.0
  H  H116  1  0.18068000  0.66707000  0.63216000  1.0
  H  H117  1  0.31932000  0.33293000  0.13216000  1.0
  H  H118  1  0.81932000  0.33294000  0.36784000  1.0
  H  H119  1  0.68068000  0.66707000  0.86784000  1.0
  H  H120  1  0.03510000  0.03121000  0.81012000  1.0
  H  H121  1  0.46491000  0.96878000  0.31012000  1.0
  H  H122  1  0.96491000  0.96878000  0.18988000  1.0
  H  H123  1  0.53509000  0.03121000  0.68988000  1.0
  H  H124  1  0.02385000  0.08973000  0.71007000  1.0
  H  H125  1  0.47615000  0.91027000  0.21007000  1.0
  H  H126  1  0.97615000  0.91027000  0.28993000  1.0
  H  H127  1  0.52385000  0.08973000  0.78993000  1.0
  H  H128  1  0.92899000  0.26208000  0.80065000  1.0
  H  H129  1  0.57100000  0.73792000  0.30065000  1.0
  H  H130  1  0.07101000  0.73792000  0.19935000  1.0
  H  H131  1  0.42899000  0.26208000  0.69935000  1.0
  H  H132  1  0.93757000  0.20314000  0.89958000  1.0
  H  H133  1  0.56243000  0.79686000  0.39957000  1.0
  H  H134  1  0.06243000  0.79686000  0.10043000  1.0
  H  H135  1  0.43757000  0.20314000  0.60043000  1.0
  H  H136  1  0.99453000  0.28538000  0.60230000  1.0
  H  H137  1  0.50547000  0.71462000  0.10230000  1.0
  H  H138  1  0.00547000  0.71462000  0.39770000  1.0
  H  H139  1  0.49454000  0.28538000  0.89770000  1.0
  H  H140  1  0.85856000  0.34598000  0.55737000  1.0
  H  H141  1  0.64144000  0.65402000  0.05736000  1.0
  H  H142  1  0.14144000  0.65402000  0.44263000  1.0
  H  H143  1  0.35856000  0.34598000  0.94263000  1.0
  H  H144  1  0.64629000  0.26630000  0.69889000  1.0
  H  H145  1  0.85372000  0.73370000  0.19889000  1.0
  H  H146  1  0.35372000  0.73370000  0.30111000  1.0
  H  H147  1  0.14629000  0.26630000  0.80110000  1.0
  H  H148  1  0.77753000  0.20222000  0.74180000  1.0
  H  H149  1  0.72247000  0.79777000  0.24179000  1.0
  H  H150  1  0.22247000  0.79777000  0.25821000  1.0
  H  H151  1  0.27753000  0.20222000  0.75820000  1.0
  C  C152  1  0.74702000  0.97089000  0.48628000  1.0
  C  C153  1  0.75298000  0.02911000  0.98628000  1.0
  C  C154  1  0.25297000  0.02911000  0.51372000  1.0
  C  C155  1  0.24702000  0.97089000  0.01372000  1.0
  C  C156  1  0.84381000  0.00853000  0.47224000  1.0
  C  C157  1  0.65619000  0.99147000  0.97224000  1.0
  C  C158  1  0.15618000  0.99147000  0.52776000  1.0
  C  C159  1  0.34381000  0.00853000  0.02776000  1.0
  C  C160  1  0.89208000  0.06035000  0.51179000  1.0
  C  C161  1  0.60792000  0.93964000  0.01179000  1.0
  C  C162  1  0.10791000  0.93965000  0.48821000  1.0
  C  C163  1  0.39208000  0.06035000  0.98821000  1.0
  C  C164  1  0.83755000  0.06960000  0.56528000  1.0
  C  C165  1  0.66245000  0.93040000  0.06529000  1.0
  C  C166  1  0.16244000  0.93040000  0.43472000  1.0
  C  C167  1  0.33755000  0.06960000  0.93472000  1.0
  C  C168  1  0.74059000  0.02960000  0.57604000  1.0
  C  C169  1  0.75941000  0.97040000  0.07604000  1.0
  C  C170  1  0.25941000  0.97040000  0.42396000  1.0
  C  C171  1  0.24059000  0.02960000  0.92396000  1.0
  C  C172  1  0.99259000  0.10123000  0.49687000  1.0
  C  C173  1  0.50741000  0.89877000  0.99687000  1.0
  C  C174  1  0.00740000  0.89877000  0.50313000  1.0
  C  C175  1  0.49259000  0.10123000  0.00313000  1.0
  C  C176  1  0.04597000  0.10367000  0.44229000  1.0
  C  C177  1  0.45403000  0.89632000  0.94229000  1.0
  C  C178  1  0.95402000  0.89632000  0.55771000  1.0
  C  C179  1  0.54597000  0.10367000  0.05771000  1.0
  C  C180  1  0.14162000  0.14942000  0.44270000  1.0
  C  C181  1  0.35838000  0.85058000  0.94270000  1.0
  C  C182  1  0.85837000  0.85058000  0.55730000  1.0
  C  C183  1  0.64162000  0.14941000  0.05730000  1.0
  C  C184  1  0.16313000  0.18291000  0.49772000  1.0
  C  C185  1  0.33687000  0.81708000  0.99772000  1.0
  C  C186  1  0.83686000  0.81708000  0.50228000  1.0
  C  C187  1  0.66313000  0.18291000  0.00228000  1.0
  C  C188  1  0.25278000  0.23493000  0.51301000  1.0
  C  C189  1  0.24722000  0.76507000  0.01301000  1.0
  C  C190  1  0.74722000  0.76507000  0.48699000  1.0
  C  C191  1  0.75278000  0.23493000  0.98699000  1.0
  C  C192  1  0.34149000  0.24557000  0.47559000  1.0
  C  C193  1  0.15851000  0.75443000  0.97558000  1.0
  C  C194  1  0.65850000  0.75443000  0.52441000  1.0
  C  C195  1  0.84149000  0.24556000  0.02442000  1.0
  C  C196  1  0.42431000  0.29752000  0.48926000  1.0
  C  C197  1  0.07569000  0.70248000  0.98926000  1.0
  C  C198  1  0.57568000  0.70248000  0.51074000  1.0
  C  C199  1  0.92431000  0.29752000  0.01074000  1.0
  C  C200  1  0.34213000  0.32797000  0.57490000  1.0
  C  C201  1  0.15786000  0.67202000  0.07491000  1.0
  C  C202  1  0.65787000  0.67202000  0.42509000  1.0
  C  C203  1  0.84213000  0.32797000  0.92510000  1.0
  C  C204  1  0.25555000  0.27747000  0.56431000  1.0
  C  C205  1  0.24445000  0.72253000  0.06431000  1.0
  C  C206  1  0.74445000  0.72253000  0.43569000  1.0
  C  C207  1  0.75555000  0.27747000  0.93569000  1.0
  C  C208  1  0.75260000  0.51818000  0.52660000  1.0
  C  C209  1  0.74740000  0.48183000  0.02660000  1.0
  C  C210  1  0.24740000  0.48183000  0.47340000  1.0
  C  C211  1  0.25260000  0.51818000  0.97340000  1.0
  C  C212  1  0.83347000  0.57341000  0.53481000  1.0
  C  C213  1  0.66654000  0.42660000  0.03482000  1.0
  C  C214  1  0.16654000  0.42660000  0.46519000  1.0
  C  C215  1  0.33347000  0.57341000  0.96519000  1.0
  C  C216  1  0.83243000  0.61715000  0.58497000  1.0
  C  C217  1  0.66758000  0.38286000  0.08498000  1.0
  C  C218  1  0.16757000  0.38286000  0.41502000  1.0
  C  C219  1  0.33243000  0.61715000  0.91503000  1.0
  C  C220  1  0.74639000  0.60161000  0.62408000  1.0
  C  C221  1  0.75361000  0.39840000  0.12409000  1.0
  C  C222  1  0.25361000  0.39840000  0.37591000  1.0
  C  C223  1  0.24639000  0.60161000  0.87592000  1.0
  C  C224  1  0.66915000  0.54545000  0.61266000  1.0
  C  C225  1  0.83085000  0.45456000  0.11267000  1.0
  C  C226  1  0.33085000  0.45456000  0.38733000  1.0
  C  C227  1  0.16915000  0.54545000  0.88734000  1.0
  C  C228  1  0.91557000  0.67447000  0.59825000  1.0
  C  C229  1  0.58444000  0.32554000  0.09825000  1.0
  C  C230  1  0.08443000  0.32554000  0.40175000  1.0
  C  C231  1  0.41557000  0.67447000  0.90175000  1.0
  C  C232  1  0.92678000  0.71609000  0.64937000  1.0
  C  C233  1  0.57322000  0.28391000  0.14937000  1.0
  C  C234  1  0.07322000  0.28391000  0.35063000  1.0
  C  C235  1  0.42679000  0.71609000  0.85063000  1.0
  C  C236  1  0.01883000  0.76537000  0.64943000  1.0
  C  C237  1  0.48118000  0.23464000  0.14943000  1.0
  C  C238  1  0.98117000  0.23464000  0.35057000  1.0
  C  C239  1  0.51883000  0.76537000  0.85057000  1.0
  C  C240  1  0.07989000  0.76231000  0.59838000  1.0
  C  C241  1  0.42011000  0.23770000  0.09838000  1.0
  C  C242  1  0.92011000  0.23770000  0.40162000  1.0
  C  C243  1  0.57990000  0.76231000  0.90162000  1.0
  C  C244  1  0.18157000  0.80267000  0.58483000  1.0
  C  C245  1  0.31843000  0.19733000  0.08483000  1.0
  C  C246  1  0.81843000  0.19733000  0.41517000  1.0
  C  C247  1  0.68157000  0.80267000  0.91517000  1.0
  C  C248  1  0.22199000  0.86200000  0.61849000  1.0
  C  C249  1  0.27801000  0.13800000  0.11849000  1.0
  C  C250  1  0.77801000  0.13800000  0.38151000  1.0
  C  C251  1  0.72199000  0.86200000  0.88151000  1.0
  C  C252  1  0.31928000  0.89942000  0.60412000  1.0
  C  C253  1  0.18072000  0.10058000  0.10412000  1.0
  C  C254  1  0.68072000  0.10058000  0.39588000  1.0
  C  C255  1  0.81928000  0.89942000  0.89588000  1.0
  C  C256  1  0.34182000  0.82461000  0.52740000  1.0
  C  C257  1  0.15819000  0.17539000  0.02740000  1.0
  C  C258  1  0.65819000  0.17539000  0.47260000  1.0
  C  C259  1  0.84181000  0.82461000  0.97260000  1.0
  C  C260  1  0.24553000  0.78407000  0.53868000  1.0
  C  C261  1  0.25447000  0.21593000  0.03868000  1.0
  C  C262  1  0.75447000  0.21593000  0.46132000  1.0
  C  C263  1  0.74553000  0.78407000  0.96132000  1.0
  C  C264  1  0.11184000  0.87176000  0.83953000  1.0
  C  C265  1  0.38817000  0.12825000  0.33953000  1.0
  C  C266  1  0.88816000  0.12825000  0.16047000  1.0
  C  C267  1  0.61183000  0.87175000  0.66047000  1.0
  C  C268  1  0.11534000  0.80343000  0.81003000  1.0
  C  C269  1  0.38466000  0.19657000  0.31003000  1.0
  C  C270  1  0.88465000  0.19657000  0.18997000  1.0
  C  C271  1  0.61534000  0.80343000  0.68996000  1.0
  C  C272  1  0.03496000  0.74701000  0.82034000  1.0
  C  C273  1  0.46504000  0.25300000  0.32034000  1.0
  C  C274  1  0.96504000  0.25300000  0.17966000  1.0
  C  C275  1  0.53496000  0.74700000  0.67966000  1.0
  C  C276  1  0.03765000  0.68345000  0.79414000  1.0
  C  C277  1  0.46234000  0.31656000  0.29414000  1.0
  C  C278  1  0.96234000  0.31656000  0.20586000  1.0
  C  C279  1  0.53765000  0.68344000  0.70586000  1.0
  C  C280  1  0.12341000  0.67483000  0.75862000  1.0
  C  C281  1  0.37659000  0.32517000  0.25863000  1.0
  C  C282  1  0.87659000  0.32517000  0.24137000  1.0
  C  C283  1  0.62341000  0.67483000  0.74138000  1.0
  C  C284  1  0.20488000  0.73008000  0.74821000  1.0
  C  C285  1  0.29512000  0.26992000  0.24821000  1.0
  C  C286  1  0.79512000  0.26992000  0.25179000  1.0
  C  C287  1  0.70488000  0.73008000  0.75179000  1.0
  C  C288  1  0.19926000  0.79427000  0.77337000  1.0
  C  C289  1  0.30074000  0.20574000  0.27338000  1.0
  C  C290  1  0.80074000  0.20574000  0.22662000  1.0
  C  C291  1  0.69926000  0.79427000  0.72662000  1.0
  C  C292  1  0.19876000  0.59238000  0.70072000  1.0
  C  C293  1  0.30124000  0.40763000  0.20072000  1.0
  C  C294  1  0.80124000  0.40763000  0.29928000  1.0
  C  C295  1  0.69876000  0.59238000  0.79928000  1.0
  C  C296  1  0.24769000  0.53794000  0.71832000  1.0
  C  C297  1  0.25231000  0.46206000  0.21832000  1.0
  C  C298  1  0.75231000  0.46206000  0.28167000  1.0
  C  C299  1  0.74770000  0.53795000  0.78168000  1.0
  C  C300  1  0.32014000  0.51675000  0.67975000  1.0
  C  C301  1  0.17987000  0.48326000  0.17974000  1.0
  C  C302  1  0.67987000  0.48326000  0.32025000  1.0
  C  C303  1  0.82014000  0.51675000  0.82025000  1.0
  C  C304  1  0.34477000  0.54999000  0.62422000  1.0
  C  C305  1  0.15523000  0.45002000  0.12422000  1.0
  C  C306  1  0.65523000  0.45002000  0.37577000  1.0
  C  C307  1  0.84478000  0.54999000  0.87578000  1.0
  C  C308  1  0.29528000  0.60489000  0.60740000  1.0
  C  C309  1  0.20472000  0.39512000  0.10739000  1.0
  C  C310  1  0.70472000  0.39512000  0.39260000  1.0
  C  C311  1  0.79528000  0.60489000  0.89260000  1.0
  C  C312  1  0.22150000  0.62577000  0.64535000  1.0
  C  C313  1  0.27850000  0.37424000  0.14535000  1.0
  C  C314  1  0.77850000  0.37424000  0.35465000  1.0
  C  C315  1  0.72151000  0.62577000  0.85465000  1.0
  C  C316  1  0.42107000  0.52531000  0.58307000  1.0
  C  C317  1  0.07893000  0.47469000  0.08307000  1.0
  C  C318  1  0.57893000  0.47470000  0.41692000  1.0
  C  C319  1  0.92107000  0.52531000  0.91693000  1.0
  C  C320  1  0.98508000  0.07696000  0.91935000  1.0
  C  C321  1  0.51492000  0.92304000  0.41935000  1.0
  C  C322  1  0.01492000  0.92304000  0.08066000  1.0
  C  C323  1  0.48508000  0.07696000  0.58066000  1.0
  C  C324  1  0.98424000  0.11311000  0.86068000  1.0
  C  C325  1  0.51576000  0.88689000  0.36068000  1.0
  C  C326  1  0.01576000  0.88689000  0.13933000  1.0
  C  C327  1  0.48424000  0.11311000  0.63933000  1.0
  C  C328  1  0.01048000  0.08126000  0.80750000  1.0
  C  C329  1  0.48952000  0.91874000  0.30749000  1.0
  C  C330  1  0.98952000  0.91874000  0.19251000  1.0
  C  C331  1  0.51048000  0.08126000  0.69251000  1.0
  C  C332  1  0.00456000  0.11342000  0.75210000  1.0
  C  C333  1  0.49544000  0.88657000  0.25210000  1.0
  C  C334  1  0.99544000  0.88658000  0.24790000  1.0
  C  C335  1  0.50456000  0.11342000  0.74790000  1.0
  C  C336  1  0.97242000  0.17738000  0.74980000  1.0
  C  C337  1  0.52758000  0.82261000  0.24980000  1.0
  C  C338  1  0.02758000  0.82262000  0.25020000  1.0
  C  C339  1  0.47242000  0.17738000  0.75020000  1.0
  C  C340  1  0.94928000  0.21087000  0.80256000  1.0
  C  C341  1  0.55072000  0.78913000  0.30256000  1.0
  C  C342  1  0.05072000  0.78913000  0.19744000  1.0
  C  C343  1  0.44928000  0.21087000  0.69744000  1.0
  C  C344  1  0.95516000  0.17821000  0.85783000  1.0
  C  C345  1  0.54484000  0.82179000  0.35784000  1.0
  C  C346  1  0.04485000  0.82179000  0.14217000  1.0
  C  C347  1  0.45515000  0.17821000  0.64217000  1.0
  C  C348  1  0.89447000  0.24123000  0.67467000  1.0
  C  C349  1  0.60553000  0.75877000  0.17466000  1.0
  C  C350  1  0.10553000  0.75876000  0.32533000  1.0
  C  C351  1  0.39447000  0.24123000  0.82533000  1.0
  C  C352  1  0.91777000  0.28161000  0.62283000  1.0
  C  C353  1  0.58223000  0.71839000  0.12283000  1.0
  C  C354  1  0.08223000  0.71839000  0.37717000  1.0
  C  C355  1  0.41777000  0.28161000  0.87717000  1.0
  C  C356  1  0.84220000  0.31475000  0.59802000  1.0
  C  C357  1  0.65780000  0.68525000  0.09802000  1.0
  C  C358  1  0.15780000  0.68525000  0.40198000  1.0
  C  C359  1  0.34220000  0.31475000  0.90198000  1.0
  C  C360  1  0.74397000  0.30965000  0.62529000  1.0
  C  C361  1  0.75603000  0.69035000  0.12528000  1.0
  C  C362  1  0.25603000  0.69035000  0.37471000  1.0
  C  C363  1  0.24397000  0.30965000  0.87471000  1.0
  C  C364  1  0.72257000  0.27012000  0.67778000  1.0
  C  C365  1  0.77743000  0.72988000  0.17777000  1.0
  C  C366  1  0.27743000  0.72988000  0.32223000  1.0
  C  C367  1  0.22257000  0.27012000  0.82222000  1.0
  C  C368  1  0.79641000  0.23464000  0.70214000  1.0
  C  C369  1  0.70359000  0.76536000  0.20214000  1.0
  C  C370  1  0.20359000  0.76535000  0.29786000  1.0
  C  C371  1  0.29641000  0.23464000  0.79786000  1.0
  C  C372  1  0.66535000  0.34644000  0.59770000  1.0
  C  C373  1  0.83465000  0.65356000  0.09770000  1.0
  C  C374  1  0.33465000  0.65356000  0.40230000  1.0
  C  C375  1  0.16535000  0.34644000  0.90230000  1.0
  S  S376  1  0.06350000  0.15627000  0.54876000  1.0
  S  S377  1  0.43650000  0.84372000  0.04876000  1.0
  S  S378  1  0.93650000  0.84372000  0.45124000  1.0
  S  S379  1  0.56350000  0.15627000  0.95124000  1.0
  S  S380  1  0.02008000  0.69821000  0.55001000  1.0
  S  S381  1  0.47992000  0.30179000  0.05002000  1.0
  S  S382  1  0.97992000  0.30179000  0.44999000  1.0
  S  S383  1  0.52009000  0.69821000  0.94999000  1.0
  N  N384  1  0.69395000  0.98129000  0.53687000  1.0
  N  N385  1  0.80605000  0.01871000  0.03687000  1.0
  N  N386  1  0.30605000  0.01871000  0.46313000  1.0
  N  N387  1  0.19395000  0.98129000  0.96313000  1.0
  N  N388  1  0.42546000  0.33906000  0.53771000  1.0
  N  N389  1  0.07454000  0.66094000  0.03771000  1.0
  N  N390  1  0.57454000  0.66094000  0.46229000  1.0
  N  N391  1  0.92546000  0.33906000  0.96229000  1.0
  N  N392  1  0.67066000  0.50373000  0.56449000  1.0
  N  N393  1  0.82934000  0.49627000  0.06449000  1.0
  N  N394  1  0.32934000  0.49627000  0.43551000  1.0
  N  N395  1  0.17066000  0.50373000  0.93551000  1.0
  N  N396  1  0.37886000  0.88223000  0.55882000  1.0
  N  N397  1  0.12114000  0.11777000  0.05883000  1.0
  N  N398  1  0.62114000  0.11777000  0.44117000  1.0
  N  N399  1  0.87886000  0.88223000  0.94117000  1.0
  O  O400  1  0.12222000  0.60829000  0.73902000  1.0
  O  O401  1  0.37778000  0.39171000  0.23902000  1.0
  O  O402  1  0.87778000  0.39171000  0.26098000  1.0
  O  O403  1  0.62222000  0.60829000  0.76099000  1.0
  O  O404  1  0.97254000  0.20662000  0.69304000  1.0
  O  O405  1  0.52745000  0.79337000  0.19304000  1.0
  O  O406  1  0.02746000  0.79337000  0.30696000  1.0
  O  O407  1  0.47255000  0.20662000  0.80696000  1.0
  O  O408  1  0.15290000  0.92704000  0.81556000  1.0
  O  O409  1  0.34710000  0.07296000  0.31556000  1.0
  O  O410  1  0.84710000  0.07296000  0.18444000  1.0
  O  O411  1  0.65290000  0.92704000  0.68444000  1.0
  O  O412  1  0.06178000  0.86426000  0.89082000  1.0
  O  O413  1  0.43822000  0.13574000  0.39082000  1.0
  O  O414  1  0.93822000  0.13574000  0.10918000  1.0
  O  O415  1  0.56178000  0.86425000  0.60918000  1.0
  O  O416  1  0.44869000  0.46824000  0.59684000  1.0
  O  O417  1  0.05131000  0.53176000  0.09685000  1.0
  O  O418  1  0.55130000  0.53176000  0.40314000  1.0
  O  O419  1  0.94870000  0.46825000  0.90316000  1.0
  O  O420  1  0.45531000  0.56187000  0.53767000  1.0
  O  O421  1  0.04468000  0.43813000  0.03767000  1.0
  O  O422  1  0.54469000  0.43814000  0.46233000  1.0
  O  O423  1  0.95530000  0.56187000  0.96233000  1.0
  O  O424  1  0.00004000  0.01491000  0.91816000  1.0
  O  O425  1  0.49995000  0.98508000  0.41815000  1.0
  O  O426  1  0.99996000  0.98509000  0.08185000  1.0
  O  O427  1  0.50005000  0.01492000  0.58185000  1.0
  O  O428  1  0.96721000  0.10899000  0.96737000  1.0
  O  O429  1  0.53279000  0.89101000  0.46736000  1.0
  O  O430  1  0.03279000  0.89101000  0.03264000  1.0
  O  O431  1  0.46721000  0.10898000  0.53264000  1.0
  O  O432  1  0.67158000  0.35966000  0.54087000  1.0
  O  O433  1  0.82841000  0.64034000  0.04086000  1.0
  O  O434  1  0.32841000  0.64034000  0.45913000  1.0
  O  O435  1  0.17159000  0.35966000  0.95913000  1.0
  O  O436  1  0.59480000  0.36617000  0.62978000  1.0
  O  O437  1  0.90520000  0.63383000  0.12978000  1.0
  O  O438  1  0.40520000  0.63384000  0.37022000  1.0
  O  O439  1  0.09480000  0.36617000  0.87022000  1.0
