# generated using pymatgen
data_CuH11Pt(C2N)7
_symmetry_space_group_name_H-M   'P 1'
_cell_length_a   10.63600000
_cell_length_b   10.64220000
_cell_length_c   14.89000000
_cell_angle_alpha   74.36280000
_cell_angle_beta   74.35330000
_cell_angle_gamma   80.38430000
_symmetry_Int_Tables_number   1
_chemical_formula_structural   CuH11Pt(C2N)7
_chemical_formula_sum   'Cu4 H44 Pt4 C56 N28'
_cell_volume   1554.77133375
_cell_formula_units_Z   4
loop_
 _symmetry_equiv_pos_site_id
 _symmetry_equiv_pos_as_xyz
  1  'x, y, z'
loop_
 _atom_site_type_symbol
 _atom_site_label
 _atom_site_symmetry_multiplicity
 _atom_site_fract_x
 _atom_site_fract_y
 _atom_site_fract_z
 _atom_site_occupancy
  Cu  Cu0  1  0.69050000  0.21880000  0.59035000  1.0
  Cu  Cu1  1  0.78115000  0.30947000  0.90961000  1.0
  Cu  Cu2  1  0.30951000  0.78120000  0.40965000  1.0
  Cu  Cu3  1  0.21884000  0.69053000  0.09039000  1.0
  H  H4  1  0.76249000  0.46941000  0.61602000  1.0
  H  H5  1  0.53039000  0.23743000  0.88396000  1.0
  H  H6  1  0.23752000  0.53059000  0.38398000  1.0
  H  H7  1  0.46960000  0.76256000  0.11605000  1.0
  H  H8  1  0.96715000  0.54025000  0.63360000  1.0
  H  H9  1  0.45953000  0.03286000  0.86639000  1.0
  H  H10  1  0.03286000  0.45976000  0.36639000  1.0
  H  H11  1  0.54046000  0.96713000  0.13362000  1.0
  H  H12  1  0.16610000  0.37707000  0.63896000  1.0
  H  H13  1  0.62281000  0.83402000  0.86105000  1.0
  H  H14  1  0.83391000  0.62294000  0.36104000  1.0
  H  H15  1  0.37718000  0.16597000  0.13895000  1.0
  H  H16  1  0.15181000  0.14759000  0.63464000  1.0
  H  H17  1  0.85241000  0.84833000  0.86537000  1.0
  H  H18  1  0.84820000  0.85241000  0.36536000  1.0
  H  H19  1  0.14759000  0.15167000  0.13462000  1.0
  H  H20  1  0.11459000  0.95505000  0.64553000  1.0
  H  H21  1  0.04499000  0.88552000  0.85449000  1.0
  H  H22  1  0.88542000  0.04496000  0.35448000  1.0
  H  H23  1  0.95501000  0.11448000  0.14550000  1.0
  H  H24  1  0.05964000  0.74032000  0.64049000  1.0
  H  H25  1  0.25986000  0.94042000  0.85952000  1.0
  H  H26  1  0.94037000  0.25969000  0.35951000  1.0
  H  H27  1  0.74013000  0.05959000  0.14047000  1.0
  H  H28  1  0.83600000  0.72644000  0.61418000  1.0
  H  H29  1  0.27374000  0.16396000  0.88583000  1.0
  H  H30  1  0.16401000  0.27356000  0.38583000  1.0
  H  H31  1  0.72626000  0.83605000  0.11417000  1.0
  H  H32  1  0.68333000  0.92629000  0.59394000  1.0
  H  H33  1  0.07379000  0.31656000  0.90605000  1.0
  H  H34  1  0.31668000  0.07370000  0.40606000  1.0
  H  H35  1  0.92620000  0.68344000  0.09395000  1.0
  H  H36  1  0.59334000  0.10815000  0.49444000  1.0
  H  H37  1  0.89186000  0.40663000  0.00554000  1.0
  H  H38  1  0.40667000  0.89185000  0.50556000  1.0
  H  H39  1  0.10813000  0.59336000  0.99446000  1.0
  H  H40  1  0.48470000  0.22166000  0.53450000  1.0
  H  H41  1  0.77828000  0.51519000  0.96550000  1.0
  H  H42  1  0.51531000  0.77834000  0.46550000  1.0
  H  H43  1  0.22171000  0.48481000  0.03450000  1.0
  H  H44  1  0.50022000  0.07527000  0.60580000  1.0
  H  H45  1  0.92476000  0.49970000  0.89419000  1.0
  H  H46  1  0.49979000  0.92472000  0.39420000  1.0
  H  H47  1  0.07523000  0.50029000  0.10581000  1.0
  Pt  Pt48  1  0.30092000  0.49565000  0.75320000  1.0
  Pt  Pt49  1  0.50438000  0.69903000  0.74681000  1.0
  Pt  Pt50  1  0.69908000  0.50435000  0.24681000  1.0
  Pt  Pt51  1  0.49562000  0.30097000  0.25319000  1.0
  C  C52  1  0.45554000  0.38538000  0.69759000  1.0
  C  C53  1  0.61460000  0.54440000  0.80240000  1.0
  C  C54  1  0.54446000  0.61462000  0.30241000  1.0
  C  C55  1  0.38540000  0.45560000  0.19760000  1.0
  C  C56  1  0.31636000  0.39896000  0.88439000  1.0
  C  C57  1  0.60109000  0.68358000  0.61559000  1.0
  C  C58  1  0.68363000  0.60104000  0.11561000  1.0
  C  C59  1  0.39892000  0.31643000  0.38441000  1.0
  C  C60  1  0.14518000  0.60237000  0.81235000  1.0
  C  C61  1  0.39768000  0.85476000  0.68768000  1.0
  C  C62  1  0.85483000  0.39762000  0.18765000  1.0
  C  C63  1  0.60232000  0.14525000  0.31232000  1.0
  C  C64  1  0.28442000  0.59456000  0.62304000  1.0
  C  C65  1  0.40545000  0.71556000  0.87697000  1.0
  C  C66  1  0.71557000  0.40544000  0.37695000  1.0
  C  C67  1  0.59455000  0.28443000  0.12303000  1.0
  C  C68  1  0.84974000  0.40105000  0.62280000  1.0
  C  C69  1  0.59880000  0.15024000  0.87718000  1.0
  C  C70  1  0.15027000  0.59895000  0.37720000  1.0
  C  C71  1  0.40119000  0.84976000  0.12282000  1.0
  C  C72  1  0.96417000  0.43946000  0.63150000  1.0
  C  C73  1  0.56037000  0.03586000  0.86849000  1.0
  C  C74  1  0.03584000  0.56055000  0.36849000  1.0
  C  C75  1  0.43962000  0.96414000  0.13153000  1.0
  C  C76  1  0.07425000  0.34838000  0.63545000  1.0
  C  C77  1  0.65150000  0.92582000  0.86456000  1.0
  C  C78  1  0.92575000  0.65162000  0.36455000  1.0
  C  C79  1  0.34849000  0.07417000  0.13545000  1.0
  C  C80  1  0.06641000  0.22005000  0.63294000  1.0
  C  C81  1  0.77990000  0.93367000  0.86707000  1.0
  C  C82  1  0.93359000  0.77996000  0.36706000  1.0
  C  C83  1  0.22009000  0.06633000  0.13293000  1.0
  C  C84  1  0.94810000  0.18709000  0.62607000  1.0
  C  C85  1  0.81286000  0.05192000  0.87394000  1.0
  C  C86  1  0.05190000  0.81291000  0.37393000  1.0
  C  C87  1  0.18713000  0.94808000  0.12606000  1.0
  C  C88  1  0.92671000  0.05579000  0.62302000  1.0
  C  C89  1  0.94422000  0.07330000  0.87699000  1.0
  C  C90  1  0.07329000  0.94421000  0.37698000  1.0
  C  C91  1  0.05577000  0.92671000  0.12301000  1.0
  C  C92  1  0.01919000  0.94651000  0.63472000  1.0
  C  C93  1  0.05355000  0.98086000  0.86530000  1.0
  C  C94  1  0.98082000  0.05350000  0.36528000  1.0
  C  C95  1  0.94644000  0.01914000  0.13469000  1.0
  C  C96  1  0.98801000  0.82577000  0.63212000  1.0
  C  C97  1  0.17437000  0.01201000  0.86789000  1.0
  C  C98  1  0.01200000  0.17423000  0.36788000  1.0
  C  C99  1  0.82563000  0.98799000  0.13211000  1.0
  C  C100  1  0.86601000  0.81742000  0.61765000  1.0
  C  C101  1  0.18272000  0.13396000  0.88236000  1.0
  C  C102  1  0.13400000  0.18258000  0.38235000  1.0
  C  C103  1  0.81727000  0.86605000  0.11764000  1.0
  C  C104  1  0.77885000  0.93031000  0.60591000  1.0
  C  C105  1  0.06977000  0.22107000  0.89410000  1.0
  C  C106  1  0.22116000  0.06969000  0.39410000  1.0
  C  C107  1  0.93022000  0.77893000  0.10590000  1.0
  N  N108  1  0.54895000  0.32072000  0.66653000  1.0
  N  N109  1  0.67921000  0.45099000  0.83345000  1.0
  N  N110  1  0.45105000  0.67928000  0.33347000  1.0
  N  N111  1  0.32078000  0.54901000  0.16655000  1.0
  N  N112  1  0.32218000  0.34331000  0.96311000  1.0
  N  N113  1  0.65672000  0.67779000  0.53687000  1.0
  N  N114  1  0.67781000  0.65669000  0.03689000  1.0
  N  N115  1  0.34330000  0.32222000  0.46312000  1.0
  N  N116  1  0.05318000  0.66230000  0.85129000  1.0
  N  N117  1  0.33778000  0.94675000  0.64874000  1.0
  N  N118  1  0.94682000  0.33769000  0.14872000  1.0
  N  N119  1  0.66222000  0.05326000  0.35125000  1.0
  N  N120  1  0.27413000  0.65647000  0.54689000  1.0
  N  N121  1  0.34355000  0.72589000  0.95312000  1.0
  N  N122  1  0.72588000  0.34352000  0.45311000  1.0
  N  N123  1  0.65645000  0.27410000  0.04687000  1.0
  N  N124  1  0.84280000  0.27776000  0.62028000  1.0
  N  N125  1  0.72215000  0.15719000  0.87970000  1.0
  N  N126  1  0.15721000  0.72225000  0.37972000  1.0
  N  N127  1  0.27784000  0.84281000  0.12030000  1.0
  N  N128  1  0.80799000  0.04685000  0.60845000  1.0
  N  N129  1  0.95317000  0.19197000  0.89155000  1.0
  N  N130  1  0.19201000  0.95315000  0.39155000  1.0
  N  N131  1  0.04683000  0.80803000  0.10845000  1.0
  N  N132  1  0.55271000  0.14508000  0.55418000  1.0
  N  N133  1  0.85492000  0.44722000  0.94580000  1.0
  N  N134  1  0.44730000  0.85492000  0.44581000  1.0
  N  N135  1  0.14507000  0.55278000  0.05421000  1.0
