# generated using pymatgen
data_CdH2C2N3Cl
_symmetry_space_group_name_H-M   'P 1'
_cell_length_a   8.16060000
_cell_length_b   8.16061000
_cell_length_c   11.83500000
_cell_angle_alpha   91.85090000
_cell_angle_beta   91.85100000
_cell_angle_gamma   114.98100000
_symmetry_Int_Tables_number   1
_chemical_formula_structural   CdH2C2N3Cl
_chemical_formula_sum   'Cd6 H12 C12 N18 Cl6'
_cell_volume   713.13226239
_cell_formula_units_Z   6
loop_
 _symmetry_equiv_pos_site_id
 _symmetry_equiv_pos_as_xyz
  1  'x, y, z'
loop_
 _atom_site_type_symbol
 _atom_site_label
 _atom_site_symmetry_multiplicity
 _atom_site_fract_x
 _atom_site_fract_y
 _atom_site_fract_z
 _atom_site_occupancy
  Cd  Cd0  1  0.37333000  0.62667000  0.25000000  1.0
  Cd  Cd1  1  0.62667000  0.37333000  0.75000000  1.0
  Cd  Cd2  1  0.55865000  0.12913000  0.35569000  1.0
  Cd  Cd3  1  0.87088000  0.44135000  0.14431000  1.0
  Cd  Cd4  1  0.44135000  0.87087000  0.64431000  1.0
  Cd  Cd5  1  0.12912000  0.55865000  0.85569000  1.0
  H  H6  1  0.27334000  0.40393000  0.51115000  1.0
  H  H7  1  0.59607000  0.72666000  0.98885000  1.0
  H  H8  1  0.72666000  0.59607000  0.48885000  1.0
  H  H9  1  0.40393000  0.27334000  0.01115000  1.0
  H  H10  1  0.91204000  0.19256000  0.55851000  1.0
  H  H11  1  0.80744000  0.08796000  0.94149000  1.0
  H  H12  1  0.08796000  0.80744000  0.44149000  1.0
  H  H13  1  0.19256000  0.91204000  0.05851000  1.0
  H  H14  1  0.14205000  0.15891000  0.29806000  1.0
  H  H15  1  0.84109000  0.85795000  0.20194000  1.0
  H  H16  1  0.85796000  0.84109000  0.70194000  1.0
  H  H17  1  0.15892000  0.14205000  0.79806000  1.0
  C  C18  1  0.14884000  0.37326000  0.46191000  1.0
  C  C19  1  0.62674000  0.85116000  0.03809000  1.0
  C  C20  1  0.85115000  0.62674000  0.53809000  1.0
  C  C21  1  0.37326000  0.14884000  0.96191000  1.0
  C  C22  1  0.97037000  0.26892000  0.48580000  1.0
  C  C23  1  0.73107000  0.02963000  0.01420000  1.0
  C  C24  1  0.02963000  0.73108000  0.51420000  1.0
  C  C25  1  0.26892000  0.97037000  0.98580000  1.0
  C  C26  1  0.12478000  0.02358000  0.27376000  1.0
  C  C27  1  0.97642000  0.87522000  0.22624000  1.0
  C  C28  1  0.87522000  0.97642000  0.72624000  1.0
  C  C29  1  0.02358000  0.12478000  0.77376000  1.0
  N  N30  1  0.20048000  0.79952000  0.25000000  1.0
  N  N31  1  0.79952000  0.20048000  0.75000000  1.0
  N  N32  1  0.26108000  0.97191000  0.28771000  1.0
  N  N33  1  0.02809000  0.73892000  0.21229000  1.0
  N  N34  1  0.73892000  0.02809000  0.71229000  1.0
  N  N35  1  0.97191000  0.26108000  0.78771000  1.0
  N  N36  1  0.86621000  0.27268000  0.39556000  1.0
  N  N37  1  0.72731000  0.13379000  0.10444000  1.0
  N  N38  1  0.13379000  0.72732000  0.60444000  1.0
  N  N39  1  0.27268000  0.86621000  0.89556000  1.0
  N  N40  1  0.14669000  0.43502000  0.35730000  1.0
  N  N41  1  0.56498000  0.85331000  0.14271000  1.0
  N  N42  1  0.85331000  0.56498000  0.64270000  1.0
  N  N43  1  0.43503000  0.14669000  0.85729000  1.0
  N  N44  1  0.97450000  0.37315000  0.31849000  1.0
  N  N45  1  0.62685000  0.02550000  0.18151000  1.0
  N  N46  1  0.02550000  0.62685000  0.68151000  1.0
  N  N47  1  0.37315000  0.97450000  0.81849000  1.0
  Cl  Cl48  1  0.55265000  0.81721000  0.44253000  1.0
  Cl  Cl49  1  0.18280000  0.44736000  0.05747000  1.0
  Cl  Cl50  1  0.44735000  0.18279000  0.55747000  1.0
  Cl  Cl51  1  0.81721000  0.55265000  0.94253000  1.0
  Cl  Cl52  1  0.57094000  0.42907000  0.25000000  1.0
  Cl  Cl53  1  0.42907000  0.57094000  0.75000000  1.0
