# generated using pymatgen
data_ZnH13C21N2O5
_symmetry_space_group_name_H-M   'P 1'
_cell_length_a   11.28390000
_cell_length_b   11.28390000
_cell_length_c   15.31090000
_cell_angle_alpha   94.42590000
_cell_angle_beta   94.42440000
_cell_angle_gamma   92.06230000
_symmetry_Int_Tables_number   1
_chemical_formula_structural   ZnH13C21N2O5
_chemical_formula_sum   'Zn4 H52 C84 N8 O20'
_cell_volume   1936.15068949
_cell_formula_units_Z   4
loop_
 _symmetry_equiv_pos_site_id
 _symmetry_equiv_pos_as_xyz
  1  'x, y, z'
loop_
 _atom_site_type_symbol
 _atom_site_label
 _atom_site_symmetry_multiplicity
 _atom_site_fract_x
 _atom_site_fract_y
 _atom_site_fract_z
 _atom_site_occupancy
  Zn  Zn0  1  0.90982000  0.33048000  0.66575000  1.0
  Zn  Zn1  1  0.66952000  0.09019000  0.83427000  1.0
  Zn  Zn2  1  0.09019000  0.66951000  0.33424000  1.0
  Zn  Zn3  1  0.33048000  0.90980000  0.16572000  1.0
  H  H4  1  0.05410000  0.94589000  0.25000000  1.0
  H  H5  1  0.94589000  0.05412000  0.75000000  1.0
  H  H6  1  0.01898000  0.06190000  0.12002000  1.0
  H  H7  1  0.93809000  0.98103000  0.37998000  1.0
  H  H8  1  0.98103000  0.93810000  0.87997000  1.0
  H  H9  1  0.06191000  0.01898000  0.62002000  1.0
  H  H10  1  0.74754000  0.25247000  0.25001000  1.0
  H  H11  1  0.25247000  0.74753000  0.74999000  1.0
  H  H12  1  0.03625000  0.34863000  0.18844000  1.0
  H  H13  1  0.65137000  0.96377000  0.31158000  1.0
  H  H14  1  0.96375000  0.65137000  0.81156000  1.0
  H  H15  1  0.34864000  0.03622000  0.68841000  1.0
  H  H16  1  0.18886000  0.46496000  0.11626000  1.0
  H  H17  1  0.53505000  0.81113000  0.38374000  1.0
  H  H18  1  0.81112000  0.53505000  0.88373000  1.0
  H  H19  1  0.46496000  0.18886000  0.61625000  1.0
  H  H20  1  0.17669000  0.46049000  0.95160000  1.0
  H  H21  1  0.53952000  0.82331000  0.54841000  1.0
  H  H22  1  0.82329000  0.53951000  0.04840000  1.0
  H  H23  1  0.46051000  0.17669000  0.45159000  1.0
  H  H24  1  0.14275000  0.23290000  0.59935000  1.0
  H  H25  1  0.76711000  0.85728000  0.90068000  1.0
  H  H26  1  0.85730000  0.76711000  0.40067000  1.0
  H  H27  1  0.23287000  0.14268000  0.09934000  1.0
  H  H28  1  0.32888000  0.32222000  0.54884000  1.0
  H  H29  1  0.67780000  0.67115000  0.95120000  1.0
  H  H30  1  0.67116000  0.67783000  0.45121000  1.0
  H  H31  1  0.32215000  0.32885000  0.04883000  1.0
  H  H32  1  0.33863000  0.54359000  0.52951000  1.0
  H  H33  1  0.45643000  0.66138000  0.97050000  1.0
  H  H34  1  0.66139000  0.45645000  0.47053000  1.0
  H  H35  1  0.54352000  0.33864000  0.02950000  1.0
  H  H36  1  0.16714000  0.66244000  0.56440000  1.0
  H  H37  1  0.33757000  0.83285000  0.93558000  1.0
  H  H38  1  0.83286000  0.33758000  0.43560000  1.0
  H  H39  1  0.66240000  0.16717000  0.06439000  1.0
  H  H40  1  0.00972000  0.74696000  0.58324000  1.0
  H  H41  1  0.25303000  0.99024000  0.91675000  1.0
  H  H42  1  0.99027000  0.25304000  0.41677000  1.0
  H  H43  1  0.74695000  0.00977000  0.08324000  1.0
  H  H44  1  0.83183000  0.84488000  0.63450000  1.0
  H  H45  1  0.15509000  0.16815000  0.86551000  1.0
  H  H46  1  0.16815000  0.15509000  0.36552000  1.0
  H  H47  1  0.84492000  0.83189000  0.13448000  1.0
  H  H48  1  0.67615000  0.72546000  0.70043000  1.0
  H  H49  1  0.27452000  0.32383000  0.79959000  1.0
  H  H50  1  0.32383000  0.27450000  0.29957000  1.0
  H  H51  1  0.72551000  0.67619000  0.20041000  1.0
  H  H52  1  0.70855000  0.50504000  0.71262000  1.0
  H  H53  1  0.49494000  0.29144000  0.78738000  1.0
  H  H54  1  0.29144000  0.49492000  0.28736000  1.0
  H  H55  1  0.50509000  0.70854000  0.21261000  1.0
  C  C56  1  0.98701000  0.01299000  0.25000000  1.0
  C  C57  1  0.01298000  0.98702000  0.74999000  1.0
  C  C58  1  0.96896000  0.07968000  0.17736000  1.0
  C  C59  1  0.92033000  0.03105000  0.32264000  1.0
  C  C60  1  0.03104000  0.92033000  0.82263000  1.0
  C  C61  1  0.07967000  0.96896000  0.67735000  1.0
  C  C62  1  0.88252000  0.16513000  0.17842000  1.0
  C  C63  1  0.83487000  0.11748000  0.32158000  1.0
  C  C64  1  0.11747000  0.83486000  0.82156000  1.0
  C  C65  1  0.16512000  0.88252000  0.67842000  1.0
  C  C66  1  0.81455000  0.18547000  0.25001000  1.0
  C  C67  1  0.18545000  0.81452000  0.74998000  1.0
  C  C68  1  0.94339000  0.28297000  0.06566000  1.0
  C  C69  1  0.71703000  0.05662000  0.43435000  1.0
  C  C70  1  0.05661000  0.71702000  0.93433000  1.0
  C  C71  1  0.28297000  0.94337000  0.56564000  1.0
  C  C72  1  0.03502000  0.34673000  0.11722000  1.0
  C  C73  1  0.65327000  0.96499000  0.38279000  1.0
  C  C74  1  0.96497000  0.65327000  0.88278000  1.0
  C  C75  1  0.34675000  0.03500000  0.61719000  1.0
  C  C76  1  0.12001000  0.41041000  0.07637000  1.0
  C  C77  1  0.58960000  0.87999000  0.42363000  1.0
  C  C78  1  0.87998000  0.58961000  0.92362000  1.0
  C  C79  1  0.41042000  0.11999000  0.57636000  1.0
  C  C80  1  0.01669000  0.35395000  0.83537000  1.0
  C  C81  1  0.64606000  0.98332000  0.66464000  1.0
  C  C82  1  0.98332000  0.64604000  0.16462000  1.0
  C  C83  1  0.35395000  0.01667000  0.33536000  1.0
  C  C84  1  0.11318000  0.40912000  0.98513000  1.0
  C  C85  1  0.59089000  0.88682000  0.51488000  1.0
  C  C86  1  0.88681000  0.59088000  0.01487000  1.0
  C  C87  1  0.40913000  0.11319000  0.48511000  1.0
  C  C88  1  0.02081000  0.34549000  0.93332000  1.0
  C  C89  1  0.65452000  0.97920000  0.56669000  1.0
  C  C90  1  0.97919000  0.65450000  0.06667000  1.0
  C  C91  1  0.34549000  0.02081000  0.43331000  1.0
  C  C92  1  0.93406000  0.28078000  0.97376000  1.0
  C  C93  1  0.71921000  0.06596000  0.52625000  1.0
  C  C94  1  0.06595000  0.71921000  0.02623000  1.0
  C  C95  1  0.28080000  0.93404000  0.47374000  1.0
  C  C96  1  0.83343000  0.20744000  0.92372000  1.0
  C  C97  1  0.79254000  0.16661000  0.57630000  1.0
  C  C98  1  0.16657000  0.79254000  0.07627000  1.0
  C  C99  1  0.20745000  0.83341000  0.42370000  1.0
  C  C100  1  0.15229000  0.32795000  0.59152000  1.0
  C  C101  1  0.67205000  0.84773000  0.90850000  1.0
  C  C102  1  0.84775000  0.67207000  0.40850000  1.0
  C  C103  1  0.32792000  0.15225000  0.09150000  1.0
  C  C104  1  0.25582000  0.37874000  0.56364000  1.0
  C  C105  1  0.62128000  0.74420000  0.93639000  1.0
  C  C106  1  0.74422000  0.62130000  0.43640000  1.0
  C  C107  1  0.37868000  0.25580000  0.06362000  1.0
  C  C108  1  0.26078000  0.50036000  0.55334000  1.0
  C  C109  1  0.49966000  0.73924000  0.94668000  1.0
  C  C110  1  0.73925000  0.49968000  0.44669000  1.0
  C  C111  1  0.50030000  0.26078000  0.05334000  1.0
  C  C112  1  0.16351000  0.56756000  0.57247000  1.0
  C  C113  1  0.43244000  0.83649000  0.92754000  1.0
  C  C114  1  0.83649000  0.43245000  0.42755000  1.0
  C  C115  1  0.56753000  0.16353000  0.07246000  1.0
  C  C116  1  0.06322000  0.51103000  0.60144000  1.0
  C  C117  1  0.48897000  0.93677000  0.89856000  1.0
  C  C118  1  0.93677000  0.48897000  0.39856000  1.0
  C  C119  1  0.51102000  0.06324000  0.10144000  1.0
  C  C120  1  0.95697000  0.57560000  0.62575000  1.0
  C  C121  1  0.42440000  0.04301000  0.87426000  1.0
  C  C122  1  0.04302000  0.42440000  0.37425000  1.0
  C  C123  1  0.57559000  0.95700000  0.12574000  1.0
  C  C124  1  0.94343000  0.69627000  0.61434000  1.0
  C  C125  1  0.30372000  0.05655000  0.88567000  1.0
  C  C126  1  0.05657000  0.30373000  0.38568000  1.0
  C  C127  1  0.69627000  0.94346000  0.11433000  1.0
  C  C128  1  0.84277000  0.75078000  0.64237000  1.0
  C  C129  1  0.24920000  0.15722000  0.85764000  1.0
  C  C130  1  0.15722000  0.24919000  0.35764000  1.0
  C  C131  1  0.75081000  0.84281000  0.14235000  1.0
  C  C132  1  0.75600000  0.68372000  0.67922000  1.0
  C  C133  1  0.31625000  0.24399000  0.82079000  1.0
  C  C134  1  0.24399000  0.31623000  0.32078000  1.0
  C  C135  1  0.68376000  0.75602000  0.17920000  1.0
  C  C136  1  0.77387000  0.56314000  0.68608000  1.0
  C  C137  1  0.43683000  0.22612000  0.81392000  1.0
  C  C138  1  0.22613000  0.43682000  0.31391000  1.0
  C  C139  1  0.56317000  0.77388000  0.18607000  1.0
  N  N140  1  0.87197000  0.51106000  0.66077000  1.0
  N  N141  1  0.48893000  0.12802000  0.83922000  1.0
  N  N142  1  0.12803000  0.48892000  0.33922000  1.0
  N  N143  1  0.51108000  0.87198000  0.16077000  1.0
  N  N144  1  0.05879000  0.39252000  0.60959000  1.0
  N  N145  1  0.60748000  0.94122000  0.89042000  1.0
  N  N146  1  0.94123000  0.60748000  0.39042000  1.0
  N  N147  1  0.39251000  0.05877000  0.10958000  1.0
  O  O148  1  0.09726000  0.41163000  0.80362000  1.0
  O  O149  1  0.58838000  0.90274000  0.69638000  1.0
  O  O150  1  0.90273000  0.58836000  0.19637000  1.0
  O  O151  1  0.41165000  0.09726000  0.30363000  1.0
  O  O152  1  0.92553000  0.29957000  0.79003000  1.0
  O  O153  1  0.70043000  0.07448000  0.70999000  1.0
  O  O154  1  0.07448000  0.70041000  0.20996000  1.0
  O  O155  1  0.29959000  0.92551000  0.29001000  1.0
  O  O156  1  0.73347000  0.25356000  0.90581000  1.0
  O  O157  1  0.74643000  0.26656000  0.59421000  1.0
  O  O158  1  0.26652000  0.74643000  0.09417000  1.0
  O  O159  1  0.25355000  0.73344000  0.40579000  1.0
  O  O160  1  0.84879000  0.09762000  0.90416000  1.0
  O  O161  1  0.90236000  0.15125000  0.59586000  1.0
  O  O162  1  0.15121000  0.90236000  0.09585000  1.0
  O  O163  1  0.09764000  0.84878000  0.40414000  1.0
  O  O164  1  0.85252000  0.22573000  0.10458000  1.0
  O  O165  1  0.77427000  0.14749000  0.39543000  1.0
  O  O166  1  0.14748000  0.77425000  0.89541000  1.0
  O  O167  1  0.22573000  0.85251000  0.60457000  1.0
