# generated using pymatgen
data_AgH12C18(NO)3
_symmetry_space_group_name_H-M   'P 1'
_cell_length_a   8.14827000
_cell_length_b   10.85700000
_cell_length_c   17.98590000
_cell_angle_alpha   76.42000000
_cell_angle_beta   89.99940000
_cell_angle_gamma   89.99920000
_symmetry_Int_Tables_number   1
_chemical_formula_structural   AgH12C18(NO)3
_chemical_formula_sum   'Ag4 H48 C72 N12 O12'
_cell_volume   1546.65307801
_cell_formula_units_Z   4
loop_
 _symmetry_equiv_pos_site_id
 _symmetry_equiv_pos_as_xyz
  1  'x, y, z'
loop_
 _atom_site_type_symbol
 _atom_site_label
 _atom_site_symmetry_multiplicity
 _atom_site_fract_x
 _atom_site_fract_y
 _atom_site_fract_z
 _atom_site_occupancy
  Ag  Ag0  1  0.10258000  0.49157000  0.65451000  1.0
  Ag  Ag1  1  0.60258000  0.50844000  0.84549000  1.0
  Ag  Ag2  1  0.89741000  0.50843000  0.34549000  1.0
  Ag  Ag3  1  0.39742000  0.49156000  0.15451000  1.0
  H  H4  1  0.29498000  0.33724000  0.40932000  1.0
  H  H5  1  0.79499000  0.66275000  0.09068000  1.0
  H  H6  1  0.70502000  0.66276000  0.59068000  1.0
  H  H7  1  0.20501000  0.33725000  0.90932000  1.0
  H  H8  1  0.43574000  0.53081000  0.34048000  1.0
  H  H9  1  0.93574000  0.46917000  0.15952000  1.0
  H  H10  1  0.56426000  0.46919000  0.65952000  1.0
  H  H11  1  0.06426000  0.53082000  0.84048000  1.0
  H  H12  1  0.51257000  0.76057000  0.33420000  1.0
  H  H13  1  0.01257000  0.23942000  0.16580000  1.0
  H  H14  1  0.48743000  0.23943000  0.66580000  1.0
  H  H15  1  0.98743000  0.76059000  0.83420000  1.0
  H  H16  1  0.50793000  0.94321000  0.39437000  1.0
  H  H17  1  0.00793000  0.05678000  0.10562000  1.0
  H  H18  1  0.49207000  0.05679000  0.60563000  1.0
  H  H19  1  0.99208000  0.94322000  0.89438000  1.0
  H  H20  1  0.37589000  0.92349000  0.52212000  1.0
  H  H21  1  0.87588000  0.07650000  0.97788000  1.0
  H  H22  1  0.62411000  0.07651000  0.47788000  1.0
  H  H23  1  0.12412000  0.92350000  0.02212000  1.0
  H  H24  1  0.24109000  0.72084000  0.58815000  1.0
  H  H25  1  0.74109000  0.27916000  0.91185000  1.0
  H  H26  1  0.75890000  0.27916000  0.41185000  1.0
  H  H27  1  0.25891000  0.72084000  0.08815000  1.0
  H  H28  1  0.21203000  0.17908000  0.47499000  1.0
  H  H29  1  0.71203000  0.82091000  0.02502000  1.0
  H  H30  1  0.78797000  0.82092000  0.52501000  1.0
  H  H31  1  0.28797000  0.17908000  0.97498000  1.0
  H  H32  1  0.07258000  0.98905000  0.55284000  1.0
  H  H33  1  0.57259000  0.01095000  0.94716000  1.0
  H  H34  1  0.92742000  0.01095000  0.44716000  1.0
  H  H35  1  0.42742000  0.98905000  0.05284000  1.0
  H  H36  1  0.89279000  0.89234000  0.66546000  1.0
  H  H37  1  0.39279000  0.10767000  0.83454000  1.0
  H  H38  1  0.10721000  0.10766000  0.33454000  1.0
  H  H39  1  0.60722000  0.89233000  0.16546000  1.0
  H  H40  1  0.74454000  0.91651000  0.78028000  1.0
  H  H41  1  0.24454000  0.08349000  0.71972000  1.0
  H  H42  1  0.25546000  0.08349000  0.21972000  1.0
  H  H43  1  0.75547000  0.91651000  0.28027000  1.0
  H  H44  1  0.73892000  0.12578000  0.81605000  1.0
  H  H45  1  0.23891000  0.87423000  0.68396000  1.0
  H  H46  1  0.26109000  0.87422000  0.18395000  1.0
  H  H47  1  0.76109000  0.12578000  0.31604000  1.0
  H  H48  1  0.88255000  0.31209000  0.73520000  1.0
  H  H49  1  0.38255000  0.68791000  0.76481000  1.0
  H  H50  1  0.11745000  0.68791000  0.26480000  1.0
  H  H51  1  0.61744000  0.31209000  0.23519000  1.0
  C  C52  1  0.21848000  0.41742000  0.50444000  1.0
  C  C53  1  0.71849000  0.58258000  0.99556000  1.0
  C  C54  1  0.78152000  0.58258000  0.49556000  1.0
  C  C55  1  0.28151000  0.41742000  0.00444000  1.0
  C  C56  1  0.29600000  0.42012000  0.43338000  1.0
  C  C57  1  0.79600000  0.57987000  0.06661000  1.0
  C  C58  1  0.70400000  0.57988000  0.56662000  1.0
  C  C59  1  0.20400000  0.42013000  0.93338000  1.0
  C  C60  1  0.37460000  0.52846000  0.39474000  1.0
  C  C61  1  0.87461000  0.47153000  0.10526000  1.0
  C  C62  1  0.62540000  0.47154000  0.60526000  1.0
  C  C63  1  0.12539000  0.52847000  0.89474000  1.0
  C  C64  1  0.37743000  0.63656000  0.42594000  1.0
  C  C65  1  0.87742000  0.36343000  0.07406000  1.0
  C  C66  1  0.62257000  0.36344000  0.57406000  1.0
  C  C67  1  0.12258000  0.63657000  0.92594000  1.0
  C  C68  1  0.45366000  0.75241000  0.38960000  1.0
  C  C69  1  0.95366000  0.24758000  0.11039000  1.0
  C  C70  1  0.54634000  0.24759000  0.61040000  1.0
  C  C71  1  0.04635000  0.75242000  0.88960000  1.0
  C  C72  1  0.45144000  0.85389000  0.42354000  1.0
  C  C73  1  0.95144000  0.14609000  0.07646000  1.0
  C  C74  1  0.54856000  0.14611000  0.57646000  1.0
  C  C75  1  0.04857000  0.85390000  0.92354000  1.0
  C  C76  1  0.37550000  0.84281000  0.49565000  1.0
  C  C77  1  0.87550000  0.15718000  0.00434000  1.0
  C  C78  1  0.62450000  0.15719000  0.50435000  1.0
  C  C79  1  0.12451000  0.84281000  0.99566000  1.0
  C  C80  1  0.30044000  0.73138000  0.53255000  1.0
  C  C81  1  0.80043000  0.26861000  0.96745000  1.0
  C  C82  1  0.69956000  0.26862000  0.46745000  1.0
  C  C83  1  0.19957000  0.73139000  0.03255000  1.0
  C  C84  1  0.29826000  0.62632000  0.49822000  1.0
  C  C85  1  0.79826000  0.37368000  0.00178000  1.0
  C  C86  1  0.70174000  0.37369000  0.50178000  1.0
  C  C87  1  0.20174000  0.62632000  0.99822000  1.0
  C  C88  1  0.13252000  0.30194000  0.54837000  1.0
  C  C89  1  0.63253000  0.69806000  0.95164000  1.0
  C  C90  1  0.86747000  0.69806000  0.45163000  1.0
  C  C91  1  0.36747000  0.30194000  0.04836000  1.0
  C  C92  1  0.14184000  0.18553000  0.52533000  1.0
  C  C93  1  0.64184000  0.81446000  0.97467000  1.0
  C  C94  1  0.85816000  0.81447000  0.47467000  1.0
  C  C95  1  0.35816000  0.18553000  0.02533000  1.0
  C  C96  1  0.06425000  0.08021000  0.56830000  1.0
  C  C97  1  0.56426000  0.91979000  0.93171000  1.0
  C  C98  1  0.93574000  0.91979000  0.43170000  1.0
  C  C99  1  0.43574000  0.08020000  0.06830000  1.0
  C  C100  1  0.97351000  0.08849000  0.63396000  1.0
  C  C101  1  0.47351000  0.91152000  0.86604000  1.0
  C  C102  1  0.02649000  0.91152000  0.36604000  1.0
  C  C103  1  0.52649000  0.08848000  0.13396000  1.0
  C  C104  1  0.89055000  0.98391000  0.68056000  1.0
  C  C105  1  0.39055000  0.01610000  0.81945000  1.0
  C  C106  1  0.10945000  0.01609000  0.31944000  1.0
  C  C107  1  0.60946000  0.98391000  0.18055000  1.0
  C  C108  1  0.80859000  0.99760000  0.74519000  1.0
  C  C109  1  0.30859000  0.00240000  0.75481000  1.0
  C  C110  1  0.19141000  0.00240000  0.25481000  1.0
  C  C111  1  0.69142000  0.99760000  0.24519000  1.0
  C  C112  1  0.80608000  0.11603000  0.76527000  1.0
  C  C113  1  0.30607000  0.88397000  0.73473000  1.0
  C  C114  1  0.19392000  0.88397000  0.23473000  1.0
  C  C115  1  0.69393000  0.11603000  0.26527000  1.0
  C  C116  1  0.88455000  0.22005000  0.72062000  1.0
  C  C117  1  0.38455000  0.77995000  0.77939000  1.0
  C  C118  1  0.11544000  0.77995000  0.27938000  1.0
  C  C119  1  0.61545000  0.22005000  0.22061000  1.0
  C  C120  1  0.97033000  0.20864000  0.65398000  1.0
  C  C121  1  0.47033000  0.79136000  0.84602000  1.0
  C  C122  1  0.02967000  0.79136000  0.34602000  1.0
  C  C123  1  0.52967000  0.20864000  0.15398000  1.0
  N  N124  1  0.85042000  0.63302000  0.72175000  1.0
  N  N125  1  0.35041000  0.36698000  0.77826000  1.0
  N  N126  1  0.14959000  0.36698000  0.27825000  1.0
  N  N127  1  0.64958000  0.63302000  0.22174000  1.0
  N  N128  1  0.22211000  0.51759000  0.53523000  1.0
  N  N129  1  0.72211000  0.48240000  0.96477000  1.0
  N  N130  1  0.77789000  0.48241000  0.46477000  1.0
  N  N131  1  0.27789000  0.51759000  0.03523000  1.0
  N  N132  1  0.04983000  0.31145000  0.61076000  1.0
  N  N133  1  0.54984000  0.68855000  0.88924000  1.0
  N  N134  1  0.95016000  0.68855000  0.38924000  1.0
  N  N135  1  0.45016000  0.31145000  0.11076000  1.0
  O  O136  1  0.97382000  0.67109000  0.67809000  1.0
  O  O137  1  0.47381000  0.32891000  0.82192000  1.0
  O  O138  1  0.02619000  0.32891000  0.32191000  1.0
  O  O139  1  0.52619000  0.67109000  0.17808000  1.0
  O  O140  1  0.84548000  0.51740000  0.75903000  1.0
  O  O141  1  0.34548000  0.48260000  0.74097000  1.0
  O  O142  1  0.15452000  0.48260000  0.24097000  1.0
  O  O143  1  0.65452000  0.51740000  0.25903000  1.0
  O  O144  1  0.73664000  0.70816000  0.72700000  1.0
  O  O145  1  0.23664000  0.29184000  0.77301000  1.0
  O  O146  1  0.26336000  0.29184000  0.27301000  1.0
  O  O147  1  0.76336000  0.70816000  0.22699000  1.0
