# generated using pymatgen
data_Zn4H7C44S10N4Cl5(O4F)4
_symmetry_space_group_name_H-M   'P 1'
_cell_length_a   11.47500000
_cell_length_b   12.74950000
_cell_length_c   26.13570000
_cell_angle_alpha   90.28270000
_cell_angle_beta   88.88920000
_cell_angle_gamma   90.00280000
_symmetry_Int_Tables_number   1
_chemical_formula_structural   Zn4H7C44S10N4Cl5(O4F)4
_chemical_formula_sum   'Zn4 H7 C44 S10 N4 Cl5 O16 F4'
_cell_volume   3822.90120628
_cell_formula_units_Z   1
loop_
 _symmetry_equiv_pos_site_id
 _symmetry_equiv_pos_as_xyz
  1  'x, y, z'
loop_
 _atom_site_type_symbol
 _atom_site_label
 _atom_site_symmetry_multiplicity
 _atom_site_fract_x
 _atom_site_fract_y
 _atom_site_fract_z
 _atom_site_occupancy
  Zn  Zn0  1  0.61995000  0.50123000  0.49812000  1.0
  Zn  Zn1  1  0.37777000  0.49826000  0.49946000  1.0
  Zn  Zn2  1  0.38003000  0.50340000  0.01057000  1.0
  Zn  Zn3  1  0.62188000  0.50033000  0.01128000  1.0
  H  H4  1  0.16308000  0.60676000  0.55728000  1.0
  H  H5  1  0.31365000  0.85827000  0.49732000  1.0
  H  H6  1  0.70217000  0.49956000  0.85884000  1.0
  H  H7  1  0.29945000  0.49927000  0.65111000  1.0
  H  H8  1  0.68645000  0.50316000  0.18527000  1.0
  H  H9  1  0.83605000  0.60721000  0.95266000  1.0
  H  H10  1  0.68615000  0.86054000  0.01191000  1.0
  C  C11  1  0.49670000  0.70481000  0.50047000  1.0
  C  C12  1  0.49971000  0.50150000  0.59928000  1.0
  C  C13  1  0.49888000  0.29493000  0.49939000  1.0
  C  C14  1  0.49361000  0.50058000  0.39881000  1.0
  C  C15  1  0.50255000  0.70695000  0.00914000  1.0
  C  C16  1  0.50139000  0.50221000  0.91057000  1.0
  C  C17  1  0.50015000  0.29698000  0.01007000  1.0
  C  C18  1  0.50595000  0.50373000  0.11088000  1.0
  C  C19  1  0.87597000  0.44582000  0.46763000  1.0
  C  C20  1  0.12569000  0.55425000  0.52901000  1.0
  C  C21  1  0.00658000  0.53684000  0.51858000  1.0
  C  C22  1  0.99488000  0.46361000  0.47862000  1.0
  C  C23  1  0.59634000  0.11076000  0.50218000  1.0
  C  C24  1  0.40265000  0.88710000  0.49908000  1.0
  C  C25  1  0.50235000  0.17942000  0.50013000  1.0
  C  C26  1  0.49761000  0.82051000  0.50083000  1.0
  C  C27  1  0.43837000  0.99316000  0.49957000  1.0
  C  C28  1  0.56020000  0.00466000  0.50180000  1.0
  C  C29  1  0.42372000  0.50263000  0.81919000  1.0
  C  C30  1  0.63000000  0.50121000  0.83251000  1.0
  C  C31  1  0.65086000  0.50163000  0.78085000  1.0
  C  C32  1  0.55977000  0.50224000  0.74472000  1.0
  C  C33  1  0.57794000  0.50248000  0.69069000  1.0
  C  C34  1  0.37164000  0.50090000  0.67743000  1.0
  C  C35  1  0.35078000  0.50153000  0.72909000  1.0
  C  C36  1  0.44195000  0.50221000  0.76517000  1.0
  C  C37  1  0.51503000  0.50218000  0.85319000  1.0
  C  C38  1  0.48659000  0.50180000  0.65672000  1.0
  C  C39  1  0.39965000  0.50072000  0.30917000  1.0
  C  C40  1  0.59687000  0.50273000  0.19958000  1.0
  C  C41  1  0.49288000  0.50086000  0.34243000  1.0
  C  C42  1  0.50272000  0.50316000  0.16734000  1.0
  C  C43  1  0.55958000  0.50198000  0.25142000  1.0
  C  C44  1  0.43738000  0.50157000  0.25732000  1.0
  C  C45  1  0.12449000  0.44804000  0.04150000  1.0
  C  C46  1  0.87376000  0.55515000  0.98079000  1.0
  C  C47  1  0.99306000  0.53793000  0.99088000  1.0
  C  C48  1  0.00541000  0.46529000  0.03069000  1.0
  C  C49  1  0.40325000  0.11263000  0.00681000  1.0
  C  C50  1  0.59713000  0.88924000  0.01009000  1.0
  C  C51  1  0.49712000  0.18147000  0.00901000  1.0
  C  C52  1  0.50215000  0.82262000  0.00846000  1.0
  C  C53  1  0.56140000  0.99528000  0.00945000  1.0
  C  C54  1  0.43956000  0.00662000  0.00720000  1.0
  S  S55  1  0.87062000  0.57647000  0.53959000  1.0
  S  S56  1  0.12883000  0.42205000  0.45735000  1.0
  S  S57  1  0.36955000  0.11334000  0.49804000  1.0
  S  S58  1  0.63070000  0.88571000  0.50303000  1.0
  S  S59  1  0.62680000  0.50203000  0.30991000  1.0
  S  S60  1  0.36846000  0.50268000  0.19947000  1.0
  S  S61  1  0.12871000  0.57768000  0.96973000  1.0
  S  S62  1  0.87170000  0.42381000  0.05216000  1.0
  S  S63  1  0.63000000  0.11558000  0.01120000  1.0
  S  S64  1  0.36908000  0.88768000  0.00605000  1.0
  N  N65  1  0.80248000  0.50068000  0.49714000  1.0
  N  N66  1  0.19718000  0.49794000  0.49932000  1.0
  N  N67  1  0.19749000  0.50270000  0.01194000  1.0
  N  N68  1  0.80265000  0.49927000  0.01057000  1.0
  Cl  Cl69  1  0.83023000  0.36347000  0.42122000  1.0
  Cl  Cl70  1  0.74050000  0.14412000  0.50524000  1.0
  Cl  Cl71  1  0.25456000  0.50030000  0.32571000  1.0
  Cl  Cl72  1  0.17086000  0.36671000  0.08781000  1.0
  Cl  Cl73  1  0.25900000  0.14561000  0.00373000  1.0
  O  O74  1  0.59641000  0.65986000  0.50073000  1.0
  O  O75  1  0.39770000  0.65978000  0.49982000  1.0
  O  O76  1  0.40298000  0.49938000  0.57583000  1.0
  O  O77  1  0.60034000  0.50318000  0.57847000  1.0
  O  O78  1  0.39761000  0.33645000  0.49861000  1.0
  O  O79  1  0.59583000  0.34360000  0.49951000  1.0
  O  O80  1  0.59334000  0.50451000  0.41958000  1.0
  O  O81  1  0.39519000  0.49646000  0.42207000  1.0
  O  O82  1  0.40265000  0.66249000  0.00846000  1.0
  O  O83  1  0.60129000  0.66150000  0.01049000  1.0
  O  O84  1  0.59750000  0.49958000  0.93445000  1.0
  O  O85  1  0.40029000  0.50468000  0.93096000  1.0
  O  O86  1  0.60112000  0.33896000  0.01224000  1.0
  O  O87  1  0.40314000  0.34528000  0.00881000  1.0
  O  O88  1  0.40809000  0.50700000  0.08857000  1.0
  O  O89  1  0.60644000  0.50081000  0.08920000  1.0
  F  F90  1  0.23776000  0.50110000  0.74574000  1.0
  F  F91  1  0.31239000  0.50340000  0.83686000  1.0
  F  F92  1  0.76391000  0.50078000  0.76422000  1.0
  F  F93  1  0.68922000  0.50342000  0.67296000  1.0
