# generated using pymatgen
data_AgH40C31SN2O11F3
_symmetry_space_group_name_H-M   'P 1'
_cell_length_a   8.56001000
_cell_length_b   14.78550000
_cell_length_c   14.96420000
_cell_angle_alpha   98.01450000
_cell_angle_beta   97.07240000
_cell_angle_gamma   91.95700000
_symmetry_Int_Tables_number   1
_chemical_formula_structural   AgH40C31SN2O11F3
_chemical_formula_sum   'Ag2 H80 C62 S2 N4 O22 F6'
_cell_volume   1858.62230761
_cell_formula_units_Z   2
loop_
 _symmetry_equiv_pos_site_id
 _symmetry_equiv_pos_as_xyz
  1  'x, y, z'
loop_
 _atom_site_type_symbol
 _atom_site_label
 _atom_site_symmetry_multiplicity
 _atom_site_fract_x
 _atom_site_fract_y
 _atom_site_fract_z
 _atom_site_occupancy
  Ag  Ag0  1  0.16603000  0.03189000  0.89791000  1.0
  Ag  Ag1  1  0.83397000  0.96811000  0.10209000  1.0
  H  H2  1  0.60183000  0.93039000  0.46649000  1.0
  H  H3  1  0.39817000  0.06961000  0.53351000  1.0
  H  H4  1  0.87484000  0.17374000  0.43745000  1.0
  H  H5  1  0.12515000  0.82626000  0.56255000  1.0
  H  H6  1  0.66521000  0.19942000  0.35340000  1.0
  H  H7  1  0.33479000  0.80058000  0.64660000  1.0
  H  H8  1  0.59522000  0.90486000  0.32178000  1.0
  H  H9  1  0.40478000  0.09514000  0.67822000  1.0
  H  H10  1  0.74240000  0.93395000  0.70350000  1.0
  H  H11  1  0.25760000  0.06605000  0.29650000  1.0
  H  H12  1  0.63154000  0.87072000  0.60464000  1.0
  H  H13  1  0.36846000  0.12928000  0.39536000  1.0
  H  H14  1  0.73587000  0.73260000  0.65433000  1.0
  H  H15  1  0.26413000  0.26740000  0.34567000  1.0
  H  H16  1  0.85035000  0.79945000  0.75130000  1.0
  H  H17  1  0.14964000  0.20055000  0.24870000  1.0
  H  H18  1  0.09807000  0.74765000  0.69642000  1.0
  H  H19  1  0.90193000  0.25235000  0.30358000  1.0
  H  H20  1  0.97326000  0.65481000  0.71352000  1.0
  H  H21  1  0.02674000  0.34519000  0.28648000  1.0
  H  H22  1  0.09278000  0.58585000  0.48988000  1.0
  H  H23  1  0.90722000  0.41415000  0.51012000  1.0
  H  H24  1  0.09290000  0.55071000  0.60026000  1.0
  H  H25  1  0.90709000  0.44929000  0.39974000  1.0
  H  H26  1  0.22174000  0.64432000  0.58608000  1.0
  H  H27  1  0.77826000  0.35568000  0.41392000  1.0
  H  H28  1  0.17715000  0.16276000  0.60320000  1.0
  H  H29  1  0.82285000  0.83724000  0.39680000  1.0
  H  H30  1  0.06111000  0.24370000  0.55095000  1.0
  H  H31  1  0.93889000  0.75630000  0.44905000  1.0
  H  H32  1  0.12785000  0.29661000  0.80825000  1.0
  H  H33  1  0.87215000  0.70339000  0.19175000  1.0
  H  H34  1  0.26765000  0.25298000  0.73673000  1.0
  H  H35  1  0.73235000  0.74702000  0.26326000  1.0
  H  H36  1  0.20697000  0.37066000  0.63496000  1.0
  H  H37  1  0.79303000  0.62934000  0.36504000  1.0
  H  H38  1  0.27475000  0.41896000  0.74978000  1.0
  H  H39  1  0.72525000  0.58104000  0.25022000  1.0
  H  H40  1  0.89733000  0.50703000  0.77844000  1.0
  H  H41  1  0.10267000  0.49297000  0.22156000  1.0
  H  H42  1  0.08066000  0.48339000  0.83943000  1.0
  H  H43  1  0.91934000  0.51661000  0.16057000  1.0
  H  H44  1  0.92622000  0.39540000  0.80890000  1.0
  H  H45  1  0.07378000  0.60460000  0.19110000  1.0
  H  H46  1  0.31446000  0.88405000  0.12199000  1.0
  H  H47  1  0.68554000  0.11595000  0.87801000  1.0
  H  H48  1  0.50772000  0.86430000  0.09563000  1.0
  H  H49  1  0.49228000  0.13570000  0.90437000  1.0
  H  H50  1  0.21625000  0.77252000  0.21429000  1.0
  H  H51  1  0.78375000  0.22748000  0.78571000  1.0
  H  H52  1  0.31006000  0.86438000  0.29482000  1.0
  H  H53  1  0.68994000  0.13562000  0.70518000  1.0
  H  H54  1  0.26559000  0.71651000  0.35642000  1.0
  H  H55  1  0.73442000  0.28349000  0.64359000  1.0
  H  H56  1  0.40640000  0.66638000  0.28775000  1.0
  H  H57  1  0.59360000  0.33362000  0.71225000  1.0
  H  H58  1  0.64689000  0.74283000  0.49933000  1.0
  H  H59  1  0.35311000  0.25717000  0.50067000  1.0
  H  H60  1  0.56227000  0.64353000  0.42478000  1.0
  H  H61  1  0.43773000  0.35647000  0.57522000  1.0
  H  H62  1  0.44455000  0.70618000  0.50015000  1.0
  H  H63  1  0.55546000  0.29382000  0.49985000  1.0
  H  H64  1  0.56821000  0.22239000  0.12547000  1.0
  H  H65  1  0.43179000  0.77760000  0.87452000  1.0
  H  H66  1  0.39054000  0.23514000  0.17537000  1.0
  H  H67  1  0.60946000  0.76486000  0.82463000  1.0
  H  H68  1  0.67666000  0.42867000  0.26247000  1.0
  H  H69  1  0.32334000  0.57133000  0.73753000  1.0
  H  H70  1  0.55672000  0.38544000  0.15803000  1.0
  H  H71  1  0.44328000  0.61456000  0.84196000  1.0
  H  H72  1  0.40415000  0.49269000  0.24018000  1.0
  H  H73  1  0.59586000  0.50730000  0.75982000  1.0
  H  H74  1  0.32150000  0.38250000  0.24973000  1.0
  H  H75  1  0.67850000  0.61750000  0.75027000  1.0
  H  H76  1  0.36636000  0.50336000  0.47987000  1.0
  H  H77  1  0.63365000  0.49664000  0.52013000  1.0
  H  H78  1  0.22828000  0.43435000  0.39636000  1.0
  H  H79  1  0.77172000  0.56565000  0.60364000  1.0
  H  H80  1  0.28911000  0.54701000  0.37848000  1.0
  H  H81  1  0.71089000  0.45299000  0.62152000  1.0
  C  C82  1  0.13352000  0.71321000  0.96640000  1.0
  C  C83  1  0.86648000  0.28679000  0.03360000  1.0
  C  C84  1  0.98942000  0.04403000  0.69639000  1.0
  C  C85  1  0.01057000  0.95598000  0.30361000  1.0
  C  C86  1  0.90091000  0.04837000  0.61077000  1.0
  C  C87  1  0.09909000  0.95163000  0.38923000  1.0
  C  C88  1  0.78006000  0.98028000  0.57714000  1.0
  C  C89  1  0.21993000  0.01973000  0.42286000  1.0
  C  C90  1  0.69531000  0.98296000  0.49227000  1.0
  C  C91  1  0.30468000  0.01705000  0.50773000  1.0
  C  C92  1  0.72745000  0.05206000  0.44036000  1.0
  C  C93  1  0.27254000  0.94794000  0.55964000  1.0
  C  C94  1  0.84520000  0.12033000  0.47657000  1.0
  C  C95  1  0.15480000  0.87967000  0.52343000  1.0
  C  C96  1  0.93355000  0.11938000  0.56071000  1.0
  C  C97  1  0.06644000  0.88062000  0.43929000  1.0
  C  C98  1  0.39677000  0.05145000  0.08730000  1.0
  C  C99  1  0.60323000  0.94855000  0.91270000  1.0
  C  C100  1  0.47998000  0.05246000  0.17512000  1.0
  C  C101  1  0.52002000  0.94754000  0.82488000  1.0
  C  C102  1  0.54159000  0.13634000  0.22698000  1.0
  C  C103  1  0.45841000  0.86366000  0.77302000  1.0
  C  C104  1  0.62202000  0.13454000  0.31307000  1.0
  C  C105  1  0.37798000  0.86547000  0.68693000  1.0
  C  C106  1  0.64154000  0.05223000  0.34891000  1.0
  C  C107  1  0.35846000  0.94777000  0.65109000  1.0
  C  C108  1  0.57923000  0.96994000  0.29643000  1.0
  C  C109  1  0.42077000  0.03006000  0.70356000  1.0
  C  C110  1  0.49932000  0.96848000  0.20961000  1.0
  C  C111  1  0.50068000  0.03152000  0.79039000  1.0
  C  C112  1  0.74699000  0.90557000  0.63148000  1.0
  C  C113  1  0.25301000  0.09444000  0.36852000  1.0
  C  C114  1  0.84975000  0.77112000  0.67903000  1.0
  C  C115  1  0.15025000  0.22888000  0.32097000  1.0
  C  C116  1  0.98499000  0.70924000  0.67059000  1.0
  C  C117  1  0.01501000  0.29076000  0.32941000  1.0
  C  C118  1  0.10442000  0.60970000  0.56325000  1.0
  C  C119  1  0.89558000  0.39030000  0.43675000  1.0
  C  C120  1  0.05995000  0.19248000  0.59773000  1.0
  C  C121  1  0.94005000  0.80752000  0.40227000  1.0
  C  C122  1  0.15526000  0.28765000  0.73779000  1.0
  C  C123  1  0.84474000  0.71235000  0.26221000  1.0
  C  C124  1  0.17567000  0.37966000  0.70455000  1.0
  C  C125  1  0.82433000  0.62034000  0.29545000  1.0
  C  C126  1  0.98360000  0.45471000  0.78655000  1.0
  C  C127  1  0.01640000  0.54529000  0.21345000  1.0
  C  C128  1  0.43762000  0.87879000  0.15247000  1.0
  C  C129  1  0.56238000  0.12121000  0.84753000  1.0
  C  C130  1  0.32815000  0.79676000  0.25709000  1.0
  C  C131  1  0.67185000  0.20324000  0.74291000  1.0
  C  C132  1  0.37085000  0.73147000  0.32394000  1.0
  C  C133  1  0.62915000  0.26853000  0.67607000  1.0
  C  C134  1  0.53897000  0.71274000  0.45698000  1.0
  C  C135  1  0.46103000  0.28726000  0.54302000  1.0
  C  C136  1  0.51807000  0.22522000  0.19044000  1.0
  C  C137  1  0.48193000  0.77478000  0.80956000  1.0
  C  C138  1  0.56959000  0.38666000  0.23251000  1.0
  C  C139  1  0.43041000  0.61334000  0.76749000  1.0
  C  C140  1  0.42792000  0.42910000  0.27000000  1.0
  C  C141  1  0.57208000  0.57090000  0.73000000  1.0
  C  C142  1  0.32837000  0.48523000  0.40663000  1.0
  C  C143  1  0.67164000  0.51477000  0.59337000  1.0
  S  S144  1  0.02947000  0.81894000  0.94585000  1.0
  S  S145  1  0.97053000  0.18106000  0.05415000  1.0
  N  N146  1  0.06081000  0.03677000  0.76619000  1.0
  N  N147  1  0.93919000  0.96323000  0.23381000  1.0
  N  N148  1  0.32891000  0.04875000  0.01446000  1.0
  N  N149  1  0.67108000  0.95125000  0.98554000  1.0
  O  O150  1  0.86925000  0.84287000  0.62554000  1.0
  O  O151  1  0.13075000  0.15713000  0.37446000  1.0
  O  O152  1  0.98128000  0.67081000  0.57723000  1.0
  O  O153  1  0.01872000  0.32919000  0.42277000  1.0
  O  O154  1  0.02777000  0.23082000  0.68638000  1.0
  O  O155  1  0.97223000  0.76918000  0.31362000  1.0
  O  O156  1  0.03835000  0.43170000  0.70049000  1.0
  O  O157  1  0.96165000  0.56830000  0.29951000  1.0
  O  O158  1  0.45202000  0.80332000  0.20155000  1.0
  O  O159  1  0.54797000  0.19668000  0.79845000  1.0
  O  O160  1  0.49779000  0.77115000  0.39057000  1.0
  O  O161  1  0.50222000  0.22885000  0.60943000  1.0
  O  O162  1  0.59536000  0.29728000  0.25542000  1.0
  O  O163  1  0.40464000  0.70272000  0.74458000  1.0
  O  O164  1  0.46049000  0.44926000  0.36646000  1.0
  O  O165  1  0.53951000  0.55073000  0.63354000  1.0
  O  O166  1  0.11474000  0.85430000  0.87789000  1.0
  O  O167  1  0.88528000  0.14570000  0.12211000  1.0
  O  O168  1  0.86831000  0.78432000  0.91386000  1.0
  O  O169  1  0.13170000  0.21568000  0.08614000  1.0
  O  O170  1  0.05440000  0.87499000  0.03585000  1.0
  O  O171  1  0.94560000  0.12501000  0.96415000  1.0
  F  F172  1  0.28968000  0.73169000  0.99626000  1.0
  F  F173  1  0.71032000  0.26830000  0.00374000  1.0
  F  F174  1  0.12247000  0.65241000  0.88843000  1.0
  F  F175  1  0.87754000  0.34759000  0.11157000  1.0
  F  F176  1  0.07030000  0.67111000  0.02991000  1.0
  F  F177  1  0.92970000  0.32889000  0.97009000  1.0
