# generated using pymatgen
data_LiH8C4BrO
_symmetry_space_group_name_H-M   'P 1'
_cell_length_a   7.60990000
_cell_length_b   11.46900000
_cell_length_c   14.34300000
_cell_angle_alpha   90.00000000
_cell_angle_beta   90.00040000
_cell_angle_gamma   89.99980000
_symmetry_Int_Tables_number   1
_chemical_formula_structural   LiH8C4BrO
_chemical_formula_sum   'Li8 H64 C32 Br8 O8'
_cell_volume   1251.82753785
_cell_formula_units_Z   8
loop_
 _symmetry_equiv_pos_site_id
 _symmetry_equiv_pos_as_xyz
  1  'x, y, z'
loop_
 _atom_site_type_symbol
 _atom_site_label
 _atom_site_symmetry_multiplicity
 _atom_site_fract_x
 _atom_site_fract_y
 _atom_site_fract_z
 _atom_site_occupancy
  Li  Li0  1  0.41040000  0.91365000  0.06910000  1.0
  Li  Li1  1  0.91040000  0.58635000  0.43090000  1.0
  Li  Li2  1  0.58962000  0.58635000  0.56910000  1.0
  Li  Li3  1  0.08961000  0.91366000  0.93090000  1.0
  Li  Li4  1  0.58960000  0.08635000  0.93090000  1.0
  Li  Li5  1  0.08960000  0.41365000  0.56910000  1.0
  Li  Li6  1  0.41038000  0.41365000  0.43090000  1.0
  Li  Li7  1  0.91039000  0.08634000  0.06910000  1.0
  H  H8  1  0.61680000  0.76193000  0.25426000  1.0
  H  H9  1  0.11680000  0.73807000  0.24574000  1.0
  H  H10  1  0.38321000  0.73807000  0.75426000  1.0
  H  H11  1  0.88320000  0.76193000  0.74575000  1.0
  H  H12  1  0.38320000  0.23807000  0.74574000  1.0
  H  H13  1  0.88321000  0.26193000  0.75426000  1.0
  H  H14  1  0.61679000  0.26193000  0.24574000  1.0
  H  H15  1  0.11679000  0.23807000  0.25425000  1.0
  H  H16  1  0.73994000  0.84750000  0.17120000  1.0
  H  H17  1  0.23994000  0.65250000  0.32880000  1.0
  H  H18  1  0.26006000  0.65250000  0.67120000  1.0
  H  H19  1  0.76006000  0.84750000  0.82880000  1.0
  H  H20  1  0.26006000  0.15250000  0.82880000  1.0
  H  H21  1  0.76006000  0.34750000  0.67120000  1.0
  H  H22  1  0.73994000  0.34750000  0.32880000  1.0
  H  H23  1  0.23994000  0.15250000  0.17120000  1.0
  H  H24  1  0.83455000  0.62058000  0.20682000  1.0
  H  H25  1  0.33455000  0.87942000  0.29318000  1.0
  H  H26  1  0.16546000  0.87942000  0.70682000  1.0
  H  H27  1  0.66546000  0.62057000  0.79319000  1.0
  H  H28  1  0.16545000  0.37942000  0.79318000  1.0
  H  H29  1  0.66546000  0.12058000  0.70682000  1.0
  H  H30  1  0.83455000  0.12058000  0.29318000  1.0
  H  H31  1  0.33454000  0.37943000  0.20682000  1.0
  H  H32  1  0.83669000  0.67460000  0.09011000  1.0
  H  H33  1  0.33669000  0.82539000  0.40989000  1.0
  H  H34  1  0.16331000  0.82539000  0.59011000  1.0
  H  H35  1  0.66332000  0.67460000  0.90989000  1.0
  H  H36  1  0.16331000  0.32540000  0.90989000  1.0
  H  H37  1  0.66331000  0.17461000  0.59011000  1.0
  H  H38  1  0.83669000  0.17460000  0.40989000  1.0
  H  H39  1  0.33668000  0.32540000  0.09011000  1.0
  H  H40  1  0.62922000  0.51657000  0.06868000  1.0
  H  H41  1  0.12921000  0.98343000  0.43132000  1.0
  H  H42  1  0.37079000  0.98343000  0.56868000  1.0
  H  H43  1  0.87080000  0.51658000  0.93133000  1.0
  H  H44  1  0.37079000  0.48343000  0.93132000  1.0
  H  H45  1  0.87079000  0.01657000  0.56868000  1.0
  H  H46  1  0.62921000  0.01657000  0.43132000  1.0
  H  H47  1  0.12920000  0.48343000  0.06867000  1.0
  H  H48  1  0.56118000  0.52371000  0.18700000  1.0
  H  H49  1  0.06118000  0.97629000  0.31300000  1.0
  H  H50  1  0.43882000  0.97629000  0.68700000  1.0
  H  H51  1  0.93883000  0.52372000  0.81301000  1.0
  H  H52  1  0.43882000  0.47629000  0.81300000  1.0
  H  H53  1  0.93882000  0.02371000  0.68700000  1.0
  H  H54  1  0.56118000  0.02371000  0.31300000  1.0
  H  H55  1  0.06116000  0.47629000  0.18699000  1.0
  H  H56  1  0.41386000  0.65878000  0.02568000  1.0
  H  H57  1  0.91386000  0.84122000  0.47432000  1.0
  H  H58  1  0.58614000  0.84122000  0.52568000  1.0
  H  H59  1  0.08615000  0.65879000  0.97432000  1.0
  H  H60  1  0.58614000  0.34122000  0.97432000  1.0
  H  H61  1  0.08614000  0.15878000  0.52568000  1.0
  H  H62  1  0.41386000  0.15878000  0.47431000  1.0
  H  H63  1  0.91385000  0.34121000  0.02568000  1.0
  H  H64  1  0.32825000  0.64349000  0.14115000  1.0
  H  H65  1  0.82825000  0.85652000  0.35885000  1.0
  H  H66  1  0.67175000  0.85652000  0.64115000  1.0
  H  H67  1  0.17176000  0.64349000  0.85886000  1.0
  H  H68  1  0.67175000  0.35652000  0.85886000  1.0
  H  H69  1  0.17175000  0.14348000  0.64115000  1.0
  H  H70  1  0.32825000  0.14348000  0.35885000  1.0
  H  H71  1  0.82824000  0.35651000  0.14114000  1.0
  C  C72  1  0.66162000  0.76832000  0.18133000  1.0
  C  C73  1  0.16161000  0.73168000  0.31867000  1.0
  C  C74  1  0.33839000  0.73168000  0.68133000  1.0
  C  C75  1  0.83839000  0.76832000  0.81867000  1.0
  C  C76  1  0.33839000  0.23168000  0.81867000  1.0
  C  C77  1  0.83839000  0.26832000  0.68133000  1.0
  C  C78  1  0.66161000  0.26832000  0.31867000  1.0
  C  C79  1  0.16161000  0.23169000  0.18133000  1.0
  C  C80  1  0.75296000  0.65687000  0.15089000  1.0
  C  C81  1  0.25295000  0.84313000  0.34911000  1.0
  C  C82  1  0.24705000  0.84313000  0.65089000  1.0
  C  C83  1  0.74705000  0.65687000  0.84913000  1.0
  C  C84  1  0.24705000  0.34313000  0.84911000  1.0
  C  C85  1  0.74705000  0.15687000  0.65088000  1.0
  C  C86  1  0.75295000  0.15687000  0.34911000  1.0
  C  C87  1  0.25294000  0.34313000  0.15088000  1.0
  C  C88  1  0.59797000  0.57627000  0.12610000  1.0
  C  C89  1  0.09796000  0.92372000  0.37390000  1.0
  C  C90  1  0.40204000  0.92372000  0.62610000  1.0
  C  C91  1  0.90205000  0.57628000  0.87390000  1.0
  C  C92  1  0.40204000  0.42372000  0.87390000  1.0
  C  C93  1  0.90204000  0.07628000  0.62610000  1.0
  C  C94  1  0.59796000  0.07627000  0.37389000  1.0
  C  C95  1  0.09795000  0.42372000  0.12610000  1.0
  C  C96  1  0.44789000  0.66027000  0.10019000  1.0
  C  C97  1  0.94789000  0.83973000  0.39981000  1.0
  C  C98  1  0.55211000  0.83973000  0.60019000  1.0
  C  C99  1  0.05212000  0.66028000  0.89982000  1.0
  C  C100  1  0.55211000  0.33973000  0.89981000  1.0
  C  C101  1  0.05211000  0.16027000  0.60019000  1.0
  C  C102  1  0.44789000  0.16027000  0.39981000  1.0
  C  C103  1  0.94788000  0.33972000  0.10018000  1.0
  Br  Br104  1  0.08820000  0.91106000  0.10711000  1.0
  Br  Br105  1  0.58819000  0.58894000  0.39289000  1.0
  Br  Br106  1  0.91183000  0.58895000  0.60711000  1.0
  Br  Br107  1  0.41181000  0.91106000  0.89289000  1.0
  Br  Br108  1  0.91180000  0.08895000  0.89289000  1.0
  Br  Br109  1  0.41181000  0.41106000  0.60711000  1.0
  Br  Br110  1  0.08817000  0.41105000  0.39289000  1.0
  Br  Br111  1  0.58819000  0.08894000  0.10711000  1.0
  O  O112  1  0.51029000  0.77698000  0.12037000  1.0
  O  O113  1  0.01028000  0.72302000  0.37963000  1.0
  O  O114  1  0.48972000  0.72302000  0.62037000  1.0
  O  O115  1  0.98972000  0.77699000  0.87963000  1.0
  O  O116  1  0.48972000  0.22302000  0.87963000  1.0
  O  O117  1  0.98972000  0.27698000  0.62037000  1.0
  O  O118  1  0.51028000  0.27698000  0.37963000  1.0
  O  O119  1  0.01028000  0.22301000  0.12037000  1.0
