# generated using pymatgen
data_CdH34C28N4O5
_symmetry_space_group_name_H-M   'P 1'
_cell_length_a   6.18505000
_cell_length_b   8.62434000
_cell_length_c   26.35100000
_cell_angle_alpha   92.43610000
_cell_angle_beta   90.00000000
_cell_angle_gamma   111.01300000
_symmetry_Int_Tables_number   1
_chemical_formula_structural   CdH34C28N4O5
_chemical_formula_sum   'Cd2 H68 C56 N8 O10'
_cell_volume   1310.77881343
_cell_formula_units_Z   2
loop_
 _symmetry_equiv_pos_site_id
 _symmetry_equiv_pos_as_xyz
  1  'x, y, z'
loop_
 _atom_site_type_symbol
 _atom_site_label
 _atom_site_symmetry_multiplicity
 _atom_site_fract_x
 _atom_site_fract_y
 _atom_site_fract_z
 _atom_site_occupancy
  Cd  Cd0  1  0.64810000  0.99977000  0.74998000  1.0
  Cd  Cd1  1  0.35190000  0.00023000  0.25002000  1.0
  H  H2  1  0.09248000  0.95567000  0.72279000  1.0
  H  H3  1  0.13643000  0.04357000  0.77716000  1.0
  H  H4  1  0.90751000  0.04432000  0.27721000  1.0
  H  H5  1  0.86357000  0.95642000  0.22284000  1.0
  H  H6  1  0.78036000  0.80258000  0.83342000  1.0
  H  H7  1  0.97761000  0.19699000  0.66653000  1.0
  H  H8  1  0.21963000  0.19743000  0.16658000  1.0
  H  H9  1  0.02238000  0.80301000  0.33347000  1.0
  H  H10  1  0.20718000  0.36376000  0.87187000  1.0
  H  H11  1  0.84413000  0.63640000  0.62833000  1.0
  H  H12  1  0.79281000  0.63623000  0.12813000  1.0
  H  H13  1  0.15586000  0.36360000  0.37167000  1.0
  H  H14  1  0.98315000  0.41746000  0.80062000  1.0
  H  H15  1  0.56595000  0.58233000  0.69947000  1.0
  H  H16  1  0.01685000  0.58255000  0.19937000  1.0
  H  H17  1  0.43405000  0.41767000  0.30053000  1.0
  H  H18  1  0.17201000  0.67226000  0.74927000  1.0
  H  H19  1  0.49931000  0.32711000  0.75065000  1.0
  H  H20  1  0.82800000  0.32776000  0.25072000  1.0
  H  H21  1  0.50069000  0.67289000  0.24936000  1.0
  H  H22  1  0.74238000  0.46373000  0.88685000  1.0
  H  H23  1  0.27868000  0.53632000  0.61317000  1.0
  H  H24  1  0.25761000  0.53627000  0.11315000  1.0
  H  H25  1  0.72132000  0.46368000  0.38683000  1.0
  H  H26  1  0.81393000  0.67469000  0.90734000  1.0
  H  H27  1  0.13943000  0.32538000  0.59264000  1.0
  H  H28  1  0.18608000  0.32531000  0.09266000  1.0
  H  H29  1  0.86057000  0.67462000  0.40736000  1.0
  H  H30  1  0.83986000  0.57487000  0.99461000  1.0
  H  H31  1  0.26492000  0.42495000  0.50544000  1.0
  H  H32  1  0.16016000  0.42515000  0.00539000  1.0
  H  H33  1  0.73509000  0.57504000  0.49456000  1.0
  H  H34  1  0.76196000  0.37151000  0.96527000  1.0
  H  H35  1  0.39052000  0.62840000  0.53472000  1.0
  H  H36  1  0.23806000  0.62850000  0.03473000  1.0
  H  H37  1  0.60949000  0.37159000  0.46529000  1.0
  H  H38  1  0.32380000  0.63434000  0.94213000  1.0
  H  H39  1  0.68941000  0.36613000  0.55790000  1.0
  H  H40  1  0.67623000  0.36567000  0.05787000  1.0
  H  H41  1  0.31060000  0.63386000  0.44210000  1.0
  H  H42  1  0.57976000  0.73426000  0.97999000  1.0
  H  H43  1  0.84510000  0.26580000  0.52008000  1.0
  H  H44  1  0.42027000  0.26575000  0.02001000  1.0
  H  H45  1  0.15491000  0.73418000  0.47992000  1.0
  H  H46  1  0.18098000  0.76575000  0.59480000  1.0
  H  H47  1  0.41480000  0.23416000  0.90512000  1.0
  H  H48  1  0.81903000  0.23424000  0.40520000  1.0
  H  H49  1  0.58520000  0.76584000  0.09488000  1.0
  H  H50  1  0.44991000  0.90445000  0.57448000  1.0
  H  H51  1  0.54550000  0.09578000  0.92544000  1.0
  H  H52  1  0.55010000  0.09555000  0.42551000  1.0
  H  H53  1  0.45449000  0.90422000  0.07456000  1.0
  H  H54  1  0.08006000  0.00439000  0.62957000  1.0
  H  H55  1  0.07558000  0.99497000  0.87043000  1.0
  H  H56  1  0.91994000  0.99560000  0.37042000  1.0
  H  H57  1  0.92441000  0.00504000  0.12957000  1.0
  H  H58  1  0.34779000  0.14565000  0.60816000  1.0
  H  H59  1  0.20260000  0.85414000  0.89193000  1.0
  H  H60  1  0.65220000  0.85434000  0.39183000  1.0
  H  H61  1  0.79739000  0.14586000  0.10807000  1.0
  H  H62  1  0.76119000  0.87706000  0.57410000  1.0
  H  H63  1  0.88291000  0.12163000  0.92575000  1.0
  H  H64  1  0.23879000  0.12292000  0.42590000  1.0
  H  H65  1  0.11707000  0.87836000  0.07425000  1.0
  H  H66  1  0.42351000  0.14684000  0.51193000  1.0
  H  H67  1  0.27806000  0.85426000  0.98825000  1.0
  H  H68  1  0.57647000  0.85314000  0.48807000  1.0
  H  H69  1  0.72193000  0.14575000  0.01175000  1.0
  C  C70  1  0.60424000  0.71359000  0.82735000  1.0
  C  C71  1  0.89054000  0.28601000  0.67262000  1.0
  C  C72  1  0.39575000  0.28642000  0.17266000  1.0
  C  C73  1  0.10946000  0.71399000  0.32738000  1.0
  C  C74  1  0.51479000  0.57865000  0.85838000  1.0
  C  C75  1  0.93633000  0.42116000  0.64165000  1.0
  C  C76  1  0.48519000  0.42135000  0.14162000  1.0
  C  C77  1  0.06366000  0.57883000  0.35835000  1.0
  C  C78  1  0.28649000  0.47052000  0.84859000  1.0
  C  C79  1  0.81641000  0.52941000  0.65152000  1.0
  C  C80  1  0.71348000  0.52948000  0.15140000  1.0
  C  C81  1  0.18358000  0.47059000  0.34848000  1.0
  C  C82  1  0.15999000  0.50135000  0.80897000  1.0
  C  C83  1  0.65880000  0.49842000  0.69108000  1.0
  C  C84  1  0.84001000  0.49867000  0.19102000  1.0
  C  C85  1  0.34120000  0.50158000  0.30892000  1.0
  C  C86  1  0.26334000  0.64019000  0.78021000  1.0
  C  C87  1  0.62291000  0.35934000  0.71975000  1.0
  C  C88  1  0.73668000  0.35984000  0.21979000  1.0
  C  C89  1  0.37709000  0.64065000  0.28025000  1.0
  C  C90  1  0.66632000  0.55595000  0.90009000  1.0
  C  C91  1  0.11044000  0.44406000  0.59991000  1.0
  C  C92  1  0.33368000  0.44405000  0.09990000  1.0
  C  C93  1  0.88955000  0.55593000  0.40009000  1.0
  C  C94  1  0.69145000  0.46028000  0.98326000  1.0
  C  C95  1  0.23121000  0.53961000  0.51675000  1.0
  C  C96  1  0.30857000  0.53973000  0.01674000  1.0
  C  C97  1  0.76880000  0.46038000  0.48325000  1.0
  C  C98  1  0.44230000  0.61253000  0.96966000  1.0
  C  C99  1  0.82966000  0.38767000  0.53036000  1.0
  C  C100  1  0.55772000  0.38749000  0.03034000  1.0
  C  C101  1  0.17034000  0.61232000  0.46964000  1.0
  C  C102  1  0.42416000  0.88889000  0.65524000  1.0
  C  C103  1  0.53471000  0.11091000  0.84469000  1.0
  C  C104  1  0.57585000  0.11111000  0.34476000  1.0
  C  C105  1  0.46528000  0.88910000  0.15531000  1.0
  C  C106  1  0.31762000  0.88763000  0.60351000  1.0
  C  C107  1  0.42972000  0.11230000  0.89644000  1.0
  C  C108  1  0.68238000  0.11237000  0.39649000  1.0
  C  C109  1  0.57029000  0.88770000  0.10356000  1.0
  C  C110  1  0.21176000  0.02291000  0.60020000  1.0
  C  C111  1  0.18888000  0.97680000  0.89983000  1.0
  C  C112  1  0.78824000  0.97709000  0.39979000  1.0
  C  C113  1  0.81111000  0.02321000  0.10017000  1.0
  C  C114  1  0.10309000  0.01479000  0.54872000  1.0
  C  C115  1  0.08829000  0.98504000  0.95129000  1.0
  C  C116  1  0.89693000  0.98522000  0.45128000  1.0
  C  C117  1  0.91170000  0.01496000  0.04871000  1.0
  C  C118  1  0.86483000  0.93024000  0.54124000  1.0
  C  C119  1  0.93376000  0.06894000  0.95868000  1.0
  C  C120  1  0.13518000  0.06976000  0.45876000  1.0
  C  C121  1  0.06623000  0.93106000  0.04133000  1.0
  C  C122  1  0.23685000  0.08346000  0.50678000  1.0
  C  C123  1  0.15422000  0.91721000  0.99331000  1.0
  C  C124  1  0.76315000  0.91653000  0.49321000  1.0
  C  C125  1  0.84577000  0.08278000  0.00669000  1.0
  N  N126  1  0.48267000  0.74409000  0.78933000  1.0
  N  N127  1  0.73830000  0.25542000  0.71061000  1.0
  N  N128  1  0.51735000  0.25593000  0.21067000  1.0
  N  N129  1  0.26170000  0.74457000  0.28939000  1.0
  N  N130  1  0.54076000  0.49594000  0.94641000  1.0
  N  N131  1  0.04485000  0.50413000  0.55360000  1.0
  N  N132  1  0.45926000  0.50407000  0.05359000  1.0
  N  N133  1  0.95516000  0.49586000  0.44640000  1.0
  O  O134  1  0.30773000  0.90216000  0.69447000  1.0
  O  O135  1  0.40489000  0.09736000  0.80547000  1.0
  O  O136  1  0.69226000  0.09783000  0.30553000  1.0
  O  O137  1  0.59510000  0.90265000  0.19454000  1.0
  O  O138  1  0.62563000  0.88267000  0.65891000  1.0
  O  O139  1  0.74247000  0.11717000  0.84100000  1.0
  O  O140  1  0.37437000  0.11734000  0.34109000  1.0
  O  O141  1  0.25751000  0.88284000  0.15900000  1.0
  O  O142  1  0.01605000  0.99946000  0.74999000  1.0
  O  O143  1  0.98394000  0.00053000  0.25001000  1.0
