# generated using pymatgen
data_Al2H17C34O10F
_symmetry_space_group_name_H-M   'P 1'
_cell_length_a   6.65719000
_cell_length_b   17.15070000
_cell_length_c   19.34010000
_cell_angle_alpha   71.00290000
_cell_angle_beta   89.81440000
_cell_angle_gamma   89.50400000
_symmetry_Int_Tables_number   1
_chemical_formula_structural   Al2H17C34O10F
_chemical_formula_sum   'Al4 H34 C68 O20 F2'
_cell_volume   2087.81894898
_cell_formula_units_Z   2
loop_
 _symmetry_equiv_pos_site_id
 _symmetry_equiv_pos_as_xyz
  1  'x, y, z'
loop_
 _atom_site_type_symbol
 _atom_site_label
 _atom_site_symmetry_multiplicity
 _atom_site_fract_x
 _atom_site_fract_y
 _atom_site_fract_z
 _atom_site_occupancy
  Al  Al0  1  0.09894000  0.49743000  0.50119000  1.0
  Al  Al1  1  0.59865000  0.50142000  0.49878000  1.0
  Al  Al2  1  0.63525000  0.00178000  0.99840000  1.0
  Al  Al3  1  0.13556000  0.99814000  0.00116000  1.0
  H  H4  1  0.95139000  0.53706000  0.29931000  1.0
  H  H5  1  0.03092000  0.51504000  0.18254000  1.0
  H  H6  1  0.03541000  0.63400000  0.06585000  1.0
  H  H7  1  0.96743000  0.77469000  0.06649000  1.0
  H  H8  1  0.72093000  0.98785000  0.32458000  1.0
  H  H9  1  0.74765000  0.72604000  0.43657000  1.0
  H  H10  1  0.13801000  0.57969000  0.67891000  1.0
  H  H11  1  0.56286000  0.68621000  0.59762000  1.0
  H  H12  1  0.41733000  0.79852000  0.63856000  1.0
  H  H13  1  0.43125000  0.88467000  0.71916000  1.0
  H  H14  1  0.59737000  0.91961000  0.82089000  1.0
  H  H15  1  0.17340000  0.81380000  0.90165000  1.0
  H  H16  1  0.32024000  0.70219000  0.85992000  1.0
  H  H17  1  0.30583000  0.61577000  0.77959000  1.0
  H  H18  1  0.66858000  0.18447000  0.09630000  1.0
  H  H19  1  0.09164000  0.08401000  0.17751000  1.0
  H  H20  1  0.92855000  0.12009000  0.27970000  1.0
  H  H21  1  0.91922000  0.20484000  0.36162000  1.0
  H  H22  1  0.06778000  0.31564000  0.40273000  1.0
  H  H23  1  0.64291000  0.41739000  0.32049000  1.0
  H  H24  1  0.80719000  0.38081000  0.21867000  1.0
  H  H25  1  0.81738000  0.29529000  0.13745000  1.0
  H  H26  1  0.16052000  0.13012000  0.56991000  1.0
  H  H27  1  0.47094000  0.46254000  0.69714000  1.0
  H  H28  1  0.56781000  0.48584000  0.81148000  1.0
  H  H29  1  0.57426000  0.36872000  0.92959000  1.0
  H  H30  1  0.48870000  0.22855000  0.93257000  1.0
  H  H31  1  0.26278000  0.03644000  0.80240000  1.0
  H  H32  1  0.16642000  0.01308000  0.68802000  1.0
  H  H33  1  0.24570000  0.27032000  0.56695000  1.0
  H  H34  1  0.34030000  0.60694000  0.46112000  1.0
  H  H35  1  0.84378000  0.39394000  0.54399000  1.0
  H  H36  1  0.39387000  0.89332000  0.04214000  1.0
  H  H37  1  0.88972000  0.10696000  0.96036000  1.0
  C  C38  1  0.35291000  0.41898000  0.41749000  1.0
  C  C39  1  0.35322000  0.38519000  0.61325000  1.0
  C  C40  1  0.84796000  0.58072000  0.58206000  1.0
  C  C41  1  0.85069000  0.61354000  0.38651000  1.0
  C  C42  1  0.95271000  0.58921000  0.24867000  1.0
  C  C43  1  0.99722000  0.57704000  0.18355000  1.0
  C  C44  1  0.00108000  0.64469000  0.11726000  1.0
  C  C45  1  0.96243000  0.72333000  0.11760000  1.0
  C  C46  1  0.91696000  0.73893000  0.18420000  1.0
  C  C47  1  0.90974000  0.67002000  0.25119000  1.0
  C  C48  1  0.87789000  0.81915000  0.18617000  1.0
  C  C49  1  0.82994000  0.83304000  0.25207000  1.0
  C  C50  1  0.81473000  0.76384000  0.31902000  1.0
  C  C51  1  0.85723000  0.68432000  0.31653000  1.0
  C  C52  1  0.79669000  0.91287000  0.25843000  1.0
  C  C53  1  0.74624000  0.92592000  0.32244000  1.0
  C  C54  1  0.72877000  0.85605000  0.38578000  1.0
  C  C55  1  0.76218000  0.77735000  0.38590000  1.0
  C  C56  1  0.01522000  0.62171000  0.68029000  1.0
  C  C57  1  0.85006000  0.62878000  0.63392000  1.0
  C  C58  1  0.69052000  0.68250000  0.63383000  1.0
  C  C59  1  0.69684000  0.73285000  0.67824000  1.0
  C  C60  1  0.86374000  0.72506000  0.72663000  1.0
  C  C61  1  0.02280000  0.66766000  0.72834000  1.0
  C  C62  1  0.54258000  0.79246000  0.67627000  1.0
  C  C63  1  0.55037000  0.84001000  0.72068000  1.0
  C  C64  1  0.71293000  0.83199000  0.77114000  1.0
  C  C65  1  0.87193000  0.77457000  0.77287000  1.0
  C  C66  1  0.03893000  0.76687000  0.82119000  1.0
  C  C67  1  0.19391000  0.70768000  0.82276000  1.0
  C  C68  1  0.18613000  0.66007000  0.77840000  1.0
  C  C69  1  0.72019000  0.87764000  0.81945000  1.0
  C  C70  1  0.88518000  0.87051000  0.86594000  1.0
  C  C71  1  0.04518000  0.81709000  0.86574000  1.0
  C  C72  1  0.54081000  0.18249000  0.13232000  1.0
  C  C73  1  0.37992000  0.13054000  0.13234000  1.0
  C  C74  1  0.21558000  0.12462000  0.17907000  1.0
  C  C75  1  0.21086000  0.16989000  0.22779000  1.0
  C  C76  1  0.37102000  0.22572000  0.22605000  1.0
  C  C77  1  0.53659000  0.23248000  0.17706000  1.0
  C  C78  1  0.04946000  0.16299000  0.27871000  1.0
  C  C79  1  0.04410000  0.20987000  0.32375000  1.0
  C  C80  1  0.19968000  0.26790000  0.32180000  1.0
  C  C81  1  0.36532000  0.27469000  0.27279000  1.0
  C  C82  1  0.52521000  0.33074000  0.27087000  1.0
  C  C83  1  0.68668000  0.33760000  0.22000000  1.0
  C  C84  1  0.69227000  0.29044000  0.17518000  1.0
  C  C85  1  0.19509000  0.31804000  0.36641000  1.0
  C  C86  1  0.35528000  0.37050000  0.36600000  1.0
  C  C87  1  0.51960000  0.37635000  0.31927000  1.0
  C  C88  1  0.47281000  0.41115000  0.74834000  1.0
  C  C89  1  0.52710000  0.42409000  0.81215000  1.0
  C  C90  1  0.53193000  0.35749000  0.87920000  1.0
  C  C91  1  0.48380000  0.27921000  0.88091000  1.0
  C  C92  1  0.42737000  0.26287000  0.81573000  1.0
  C  C93  1  0.42081000  0.33064000  0.74781000  1.0
  C  C94  1  0.37359000  0.18362000  0.81578000  1.0
  C  C95  1  0.31317000  0.16831000  0.75172000  1.0
  C  C96  1  0.30684000  0.23604000  0.68379000  1.0
  C  C97  1  0.36032000  0.31533000  0.68376000  1.0
  C  C98  1  0.26119000  0.08779000  0.75118000  1.0
  C  C99  1  0.20726000  0.07480000  0.68736000  1.0
  C  C100  1  0.20266000  0.14139000  0.62029000  1.0
  C  C101  1  0.25062000  0.21968000  0.61861000  1.0
  C  C102  1  0.38077000  0.11356000  0.88615000  1.0
  C  C103  1  0.38178000  0.08226000  0.08062000  1.0
  C  C104  1  0.88358000  0.88836000  0.11468000  1.0
  C  C105  1  0.88649000  0.91837000  0.91803000  1.0
  O  O106  1  0.52063000  0.41351000  0.58444000  1.0
  O  O107  1  0.18186000  0.43273000  0.44134000  1.0
  O  O108  1  0.01894000  0.58461000  0.41449000  1.0
  O  O109  1  0.18084000  0.41051000  0.58703000  1.0
  O  O110  1  0.01811000  0.55947000  0.56352000  1.0
  O  O111  1  0.52221000  0.44106000  0.43487000  1.0
  O  O112  1  0.34616000  0.54952000  0.49146000  1.0
  O  O113  1  0.67723000  0.56656000  0.55893000  1.0
  O  O114  1  0.67890000  0.58904000  0.41303000  1.0
  O  O115  1  0.84802000  0.44928000  0.50899000  1.0
  O  O116  1  0.21202000  0.06060000  0.06325000  1.0
  O  O117  1  0.55326000  0.08822000  0.91213000  1.0
  O  O118  1  0.71598000  0.94002000  0.93585000  1.0
  O  O119  1  0.55237000  0.06826000  0.05673000  1.0
  O  O120  1  0.71537000  0.91381000  0.08477000  1.0
  O  O121  1  0.21334000  0.08518000  0.91482000  1.0
  O  O122  1  0.38781000  0.94960000  0.00909000  1.0
  O  O123  1  0.05565000  0.91244000  0.08837000  1.0
  O  O124  1  0.05665000  0.93188000  0.94197000  1.0
  O  O125  1  0.88595000  0.04959000  0.99089000  1.0
  F  F126  1  0.67747000  0.86986000  0.44916000  1.0
  F  F127  1  0.81918000  0.98007000  0.19774000  1.0
