# generated using pymatgen
data_Mn2As2H8C12S5N2
_symmetry_space_group_name_H-M   'P 1'
_cell_length_a   11.81170000
_cell_length_b   12.35200000
_cell_length_c   12.36820000
_cell_angle_alpha   112.27000000
_cell_angle_beta   90.00000000
_cell_angle_gamma   90.00000000
_symmetry_Int_Tables_number   1
_chemical_formula_structural   Mn2As2H8C12S5N2
_chemical_formula_sum   'Mn8 As8 H32 C48 S20 N8'
_cell_volume   1669.89655475
_cell_formula_units_Z   4
loop_
 _symmetry_equiv_pos_site_id
 _symmetry_equiv_pos_as_xyz
  1  'x, y, z'
loop_
 _atom_site_type_symbol
 _atom_site_label
 _atom_site_symmetry_multiplicity
 _atom_site_fract_x
 _atom_site_fract_y
 _atom_site_fract_z
 _atom_site_occupancy
  Mn  Mn0  1  0.79256000  0.27710000  0.13875000  1.0
  Mn  Mn1  1  0.29256000  0.22289000  0.86125000  1.0
  Mn  Mn2  1  0.20743000  0.72289000  0.86126000  1.0
  Mn  Mn3  1  0.70744000  0.77710000  0.13875000  1.0
  Mn  Mn4  1  0.65445000  0.01215000  0.00417000  1.0
  Mn  Mn5  1  0.15445000  0.48785000  0.99583000  1.0
  Mn  Mn6  1  0.34555000  0.98785000  0.99583000  1.0
  Mn  Mn7  1  0.84556000  0.51215000  0.00417000  1.0
  As  As8  1  0.20079000  0.25740000  0.12226000  1.0
  As  As9  1  0.70081000  0.24259000  0.87774000  1.0
  As  As10  1  0.79920000  0.74259000  0.87774000  1.0
  As  As11  1  0.29920000  0.75740000  0.12227000  1.0
  As  As12  1  0.49952000  0.25512000  0.12697000  1.0
  As  As13  1  0.99954000  0.24488000  0.87303000  1.0
  As  As14  1  0.50046000  0.74488000  0.87303000  1.0
  As  As15  1  0.00047000  0.75512000  0.12697000  1.0
  H  H16  1  0.98828000  0.08258000  0.10913000  1.0
  H  H17  1  0.48828000  0.41741000  0.89088000  1.0
  H  H18  1  0.01171000  0.91741000  0.89088000  1.0
  H  H19  1  0.51172000  0.58259000  0.10912000  1.0
  H  H20  1  0.11837000  0.03051000  0.23965000  1.0
  H  H21  1  0.61838000  0.46948000  0.76036000  1.0
  H  H22  1  0.88163000  0.96949000  0.76036000  1.0
  H  H23  1  0.38163000  0.53051000  0.23964000  1.0
  H  H24  1  0.12282000  0.15735000  0.45503000  1.0
  H  H25  1  0.62282000  0.34265000  0.54497000  1.0
  H  H26  1  0.87719000  0.84266000  0.54497000  1.0
  H  H27  1  0.37718000  0.65735000  0.45502000  1.0
  H  H28  1  0.04385000  0.33162000  0.62078000  1.0
  H  H29  1  0.54384000  0.16838000  0.37922000  1.0
  H  H30  1  0.95616000  0.66838000  0.37923000  1.0
  H  H31  1  0.45616000  0.83163000  0.62078000  1.0
  H  H32  1  0.91028000  0.49736000  0.68982000  1.0
  H  H33  1  0.41028000  0.00265000  0.31018000  1.0
  H  H34  1  0.08972000  0.50265000  0.31018000  1.0
  H  H35  1  0.58972000  0.99736000  0.68982000  1.0
  H  H36  1  0.75943000  0.61991000  0.64336000  1.0
  H  H37  1  0.25943000  0.88009000  0.35664000  1.0
  H  H38  1  0.24057000  0.38009000  0.35665000  1.0
  H  H39  1  0.74057000  0.11991000  0.64335000  1.0
  H  H40  1  0.64978000  0.66154000  0.49244000  1.0
  H  H41  1  0.14978000  0.83845000  0.50756000  1.0
  H  H42  1  0.35022000  0.33846000  0.50756000  1.0
  H  H43  1  0.85022000  0.16154000  0.49244000  1.0
  H  H44  1  0.67490000  0.53136000  0.28038000  1.0
  H  H45  1  0.17489000  0.96864000  0.71961000  1.0
  H  H46  1  0.32510000  0.46864000  0.71962000  1.0
  H  H47  1  0.82510000  0.03137000  0.28038000  1.0
  C  C48  1  0.99220000  0.13701000  0.20214000  1.0
  C  C49  1  0.49220000  0.36298000  0.79787000  1.0
  C  C50  1  0.00780000  0.86299000  0.79787000  1.0
  C  C51  1  0.50780000  0.63701000  0.20213000  1.0
  C  C52  1  0.06507000  0.10784000  0.27712000  1.0
  C  C53  1  0.56507000  0.39215000  0.72288000  1.0
  C  C54  1  0.93494000  0.89215000  0.72288000  1.0
  C  C55  1  0.43494000  0.60785000  0.27712000  1.0
  C  C56  1  0.06744000  0.17774000  0.39466000  1.0
  C  C57  1  0.56744000  0.32226000  0.60534000  1.0
  C  C58  1  0.93257000  0.82226000  0.60535000  1.0
  C  C59  1  0.43257000  0.67774000  0.39465000  1.0
  C  C60  1  0.99586000  0.27666000  0.43758000  1.0
  C  C61  1  0.49585000  0.22334000  0.56242000  1.0
  C  C62  1  0.00415000  0.72334000  0.56242000  1.0
  C  C63  1  0.50415000  0.77667000  0.43758000  1.0
  C  C64  1  0.92533000  0.29958000  0.35557000  1.0
  C  C65  1  0.42532000  0.20042000  0.64443000  1.0
  C  C66  1  0.07468000  0.70042000  0.64443000  1.0
  C  C67  1  0.57467000  0.79959000  0.35557000  1.0
  C  C68  1  0.98945000  0.35053000  0.55864000  1.0
  C  C69  1  0.48945000  0.14948000  0.44136000  1.0
  C  C70  1  0.01055000  0.64948000  0.44137000  1.0
  C  C71  1  0.51055000  0.85053000  0.55863000  1.0
  C  C72  1  0.91544000  0.44231000  0.59699000  1.0
  C  C73  1  0.41544000  0.05769000  0.40301000  1.0
  C  C74  1  0.08456000  0.55769000  0.40301000  1.0
  C  C75  1  0.58456000  0.94232000  0.59699000  1.0
  C  C76  1  0.84441000  0.46879000  0.51669000  1.0
  C  C77  1  0.34440000  0.03121000  0.48330000  1.0
  C  C78  1  0.15559000  0.53121000  0.48331000  1.0
  C  C79  1  0.65559000  0.96880000  0.51669000  1.0
  C  C80  1  0.85108000  0.39902000  0.39533000  1.0
  C  C81  1  0.35107000  0.10098000  0.60467000  1.0
  C  C82  1  0.14893000  0.60098000  0.60468000  1.0
  C  C83  1  0.64892000  0.89903000  0.39532000  1.0
  C  C84  1  0.76829000  0.56385000  0.55121000  1.0
  C  C85  1  0.26828000  0.93615000  0.44878000  1.0
  C  C86  1  0.23172000  0.43616000  0.44879000  1.0
  C  C87  1  0.73172000  0.06385000  0.55121000  1.0
  C  C88  1  0.70717000  0.58728000  0.46738000  1.0
  C  C89  1  0.20717000  0.91272000  0.53262000  1.0
  C  C90  1  0.29283000  0.41272000  0.53263000  1.0
  C  C91  1  0.79284000  0.08728000  0.46738000  1.0
  C  C92  1  0.72106000  0.51499000  0.34905000  1.0
  C  C93  1  0.22105000  0.98501000  0.65094000  1.0
  C  C94  1  0.27895000  0.48501000  0.65095000  1.0
  C  C95  1  0.77895000  0.01499000  0.34906000  1.0
  S  S96  1  0.34894000  0.17354000  0.19485000  1.0
  S  S97  1  0.84894000  0.32646000  0.80516000  1.0
  S  S98  1  0.65106000  0.82645000  0.80516000  1.0
  S  S99  1  0.15106000  0.67354000  0.19485000  1.0
  S  S100  1  0.18549000  0.10219000  0.95030000  1.0
  S  S101  1  0.68549000  0.39780000  0.04970000  1.0
  S  S102  1  0.81451000  0.89781000  0.04970000  1.0
  S  S103  1  0.31451000  0.60219000  0.95030000  1.0
  S  S104  1  0.30401000  0.37723000  0.06002000  1.0
  S  S105  1  0.80402000  0.12276000  0.93999000  1.0
  S  S106  1  0.69598000  0.62276000  0.93999000  1.0
  S  S107  1  0.19598000  0.87723000  0.06002000  1.0
  S  S108  1  0.64107000  0.17212000  0.19760000  1.0
  S  S109  1  0.14108000  0.32789000  0.80240000  1.0
  S  S110  1  0.35892000  0.82788000  0.80240000  1.0
  S  S111  1  0.85892000  0.67212000  0.19760000  1.0
  S  S112  1  0.49462000  0.11776000  0.94119000  1.0
  S  S113  1  0.99463000  0.38223000  0.05880000  1.0
  S  S114  1  0.50537000  0.88223000  0.05880000  1.0
  S  S115  1  0.00538000  0.61777000  0.94120000  1.0
  N  N116  1  0.92375000  0.22993000  0.23982000  1.0
  N  N117  1  0.42374000  0.27007000  0.76018000  1.0
  N  N118  1  0.07626000  0.77007000  0.76018000  1.0
  N  N119  1  0.57625000  0.72994000  0.23981000  1.0
  N  N120  1  0.78991000  0.42258000  0.31375000  1.0
  N  N121  1  0.28991000  0.07742000  0.68624000  1.0
  N  N122  1  0.21009000  0.57742000  0.68625000  1.0
  N  N123  1  0.71009000  0.92259000  0.31375000  1.0
