# generated using pymatgen
data_CuH9(C2N3)3
_symmetry_space_group_name_H-M   'P 1'
_cell_length_a   7.86910000
_cell_length_b   10.19860000
_cell_length_c   11.78400000
_cell_angle_alpha   90.00000000
_cell_angle_beta   89.99980000
_cell_angle_gamma   101.15000000
_symmetry_Int_Tables_number   1
_chemical_formula_structural   CuH9(C2N3)3
_chemical_formula_sum   'Cu4 H36 C24 N36'
_cell_volume   927.85984809
_cell_formula_units_Z   4
loop_
 _symmetry_equiv_pos_site_id
 _symmetry_equiv_pos_as_xyz
  1  'x, y, z'
loop_
 _atom_site_type_symbol
 _atom_site_label
 _atom_site_symmetry_multiplicity
 _atom_site_fract_x
 _atom_site_fract_y
 _atom_site_fract_z
 _atom_site_occupancy
  Cu  Cu0  1  0.91688000  0.99068000  0.83611000  1.0
  Cu  Cu1  1  0.58312000  0.50932000  0.33611000  1.0
  Cu  Cu2  1  0.08312000  0.00932000  0.16389000  1.0
  Cu  Cu3  1  0.41688000  0.49068000  0.66389000  1.0
  H  H4  1  0.46014000  0.84833000  0.66626000  1.0
  H  H5  1  0.03986000  0.65167000  0.16626000  1.0
  H  H6  1  0.53986000  0.15167000  0.33374000  1.0
  H  H7  1  0.96014000  0.34833000  0.83374000  1.0
  H  H8  1  0.83463000  0.97128000  0.59762000  1.0
  H  H9  1  0.66537000  0.52872000  0.09762000  1.0
  H  H10  1  0.16537000  0.02872000  0.40238000  1.0
  H  H11  1  0.33463000  0.47128000  0.90238000  1.0
  H  H12  1  0.47797000  0.08822000  0.73450000  1.0
  H  H13  1  0.02203000  0.41178000  0.23450000  1.0
  H  H14  1  0.52203000  0.91178000  0.26550000  1.0
  H  H15  1  0.97797000  0.58822000  0.76550000  1.0
  H  H16  1  0.52119000  0.96953000  0.83529000  1.0
  H  H17  1  0.97881000  0.53046000  0.33529000  1.0
  H  H18  1  0.47881000  0.03046000  0.16471000  1.0
  H  H19  1  0.02119000  0.46954000  0.66471000  1.0
  H  H20  1  0.64873000  0.27348000  0.84842000  1.0
  H  H21  1  0.85127000  0.22652000  0.34842000  1.0
  H  H22  1  0.35127000  0.72651000  0.15158000  1.0
  H  H23  1  0.14873000  0.77349000  0.65158000  1.0
  H  H24  1  0.46768000  0.18407000  0.92051000  1.0
  H  H25  1  0.03232000  0.31593000  0.42051000  1.0
  H  H26  1  0.53232000  0.81593000  0.07949000  1.0
  H  H27  1  0.96768000  0.68407000  0.57949000  1.0
  H  H28  1  0.59195000  0.78899000  0.56439000  1.0
  H  H29  1  0.90806000  0.71101000  0.06440000  1.0
  H  H30  1  0.40805000  0.21101000  0.43560000  1.0
  H  H31  1  0.09194000  0.28899000  0.93561000  1.0
  H  H32  1  0.64425000  0.03338000  0.56906000  1.0
  H  H33  1  0.85575000  0.46662000  0.06906000  1.0
  H  H34  1  0.35575000  0.96662000  0.43094000  1.0
  H  H35  1  0.14425000  0.53338000  0.93094000  1.0
  H  H36  1  0.79546000  0.15170000  0.71130000  1.0
  H  H37  1  0.70454000  0.34830000  0.21130000  1.0
  H  H38  1  0.20454000  0.84830000  0.28870000  1.0
  H  H39  1  0.29546000  0.65170000  0.78870000  1.0
  C  C40  1  0.70474000  0.15161000  0.98601000  1.0
  C  C41  1  0.79526000  0.34839000  0.48601000  1.0
  C  C42  1  0.29526000  0.84839000  0.01399000  1.0
  C  C43  1  0.20474000  0.65161000  0.51399000  1.0
  C  C44  1  0.59618000  0.17600000  0.88782000  1.0
  C  C45  1  0.90382000  0.32400000  0.38782000  1.0
  C  C46  1  0.40382000  0.82400000  0.11218000  1.0
  C  C47  1  0.09618000  0.67600000  0.61218000  1.0
  C  C48  1  0.57270000  0.06726000  0.79731000  1.0
  C  C49  1  0.92730000  0.43274000  0.29731000  1.0
  C  C50  1  0.42730000  0.93274000  0.20269000  1.0
  C  C51  1  0.07270000  0.56726000  0.70269000  1.0
  C  C52  1  0.70672000  0.97799000  0.63182000  1.0
  C  C53  1  0.79328000  0.52201000  0.13182000  1.0
  C  C54  1  0.29328000  0.02201000  0.36818000  1.0
  C  C55  1  0.20672000  0.47799000  0.86818000  1.0
  C  C56  1  0.59461000  0.83982000  0.64676000  1.0
  C  C57  1  0.90540000  0.66018000  0.14676000  1.0
  C  C58  1  0.40539000  0.16018000  0.35324000  1.0
  C  C59  1  0.09460000  0.33982000  0.85324000  1.0
  C  C60  1  0.65528000  0.75733000  0.73636000  1.0
  C  C61  1  0.84472000  0.74267000  0.23636000  1.0
  C  C62  1  0.34472000  0.24267000  0.26364000  1.0
  C  C63  1  0.15528000  0.25733000  0.76364000  1.0
  N  N64  1  0.83002000  0.07847000  0.98324000  1.0
  N  N65  1  0.66998000  0.42153000  0.48324000  1.0
  N  N66  1  0.16998000  0.92153000  0.01676000  1.0
  N  N67  1  0.33002000  0.57847000  0.51676000  1.0
  N  N68  1  0.89275000  0.08422000  0.08989000  1.0
  N  N69  1  0.60725000  0.41578000  0.58989000  1.0
  N  N70  1  0.10725000  0.91578000  0.91011000  1.0
  N  N71  1  0.39275000  0.58422000  0.41010000  1.0
  N  N72  1  0.69119000  0.20051000  0.09118000  1.0
  N  N73  1  0.80881000  0.29949000  0.59118000  1.0
  N  N74  1  0.30881000  0.79949000  0.90882000  1.0
  N  N75  1  0.19119000  0.70051000  0.40882000  1.0
  N  N76  1  0.81057000  0.15650000  0.15419000  1.0
  N  N77  1  0.68942000  0.34350000  0.65419000  1.0
  N  N78  1  0.18943000  0.84350000  0.84581000  1.0
  N  N79  1  0.31057000  0.65650000  0.34581000  1.0
  N  N80  1  0.73515000  0.05786000  0.73773000  1.0
  N  N81  1  0.76485000  0.44214000  0.23773000  1.0
  N  N82  1  0.26485000  0.94214000  0.26227000  1.0
  N  N83  1  0.23515000  0.55786000  0.76227000  1.0
  N  N84  1  0.77077000  0.80279000  0.81784000  1.0
  N  N85  1  0.72923000  0.69721000  0.31784000  1.0
  N  N86  1  0.22923000  0.19721000  0.18216000  1.0
  N  N87  1  0.27077000  0.30279000  0.68216000  1.0
  N  N88  1  0.59634000  0.62587000  0.75262000  1.0
  N  N89  1  0.90367000  0.87413000  0.25262000  1.0
  N  N90  1  0.40367000  0.37412000  0.24738000  1.0
  N  N91  1  0.09634000  0.12588000  0.74738000  1.0
  N  N92  1  0.67559000  0.59130000  0.84712000  1.0
  N  N93  1  0.82441000  0.90870000  0.34712000  1.0
  N  N94  1  0.32441000  0.40870000  0.15288000  1.0
  N  N95  1  0.17559000  0.09130000  0.65288000  1.0
  N  N96  1  0.78059000  0.69727000  0.88589000  1.0
  N  N97  1  0.71941000  0.80273000  0.38589000  1.0
  N  N98  1  0.21941000  0.30273000  0.11411000  1.0
  N  N99  1  0.28059000  0.19727000  0.61411000  1.0
