# generated using pymatgen
data_Zn2H40C65(NO7)4
_symmetry_space_group_name_H-M   'P 1'
_cell_length_a   9.97692000
_cell_length_b   10.91800000
_cell_length_c   27.96540000
_cell_angle_alpha   87.58100000
_cell_angle_beta   89.46870000
_cell_angle_gamma   86.99090000
_symmetry_Int_Tables_number   1
_chemical_formula_structural   Zn2H40C65(NO7)4
_chemical_formula_sum   'Zn2 H40 C65 N4 O28'
_cell_volume   3039.22854677
_cell_formula_units_Z   1
loop_
 _symmetry_equiv_pos_site_id
 _symmetry_equiv_pos_as_xyz
  1  'x, y, z'
loop_
 _atom_site_type_symbol
 _atom_site_label
 _atom_site_symmetry_multiplicity
 _atom_site_fract_x
 _atom_site_fract_y
 _atom_site_fract_z
 _atom_site_occupancy
  Zn  Zn0  1  0.63822000  0.48778000  0.49932000  1.0
  Zn  Zn1  1  0.34694000  0.50599000  0.50172000  1.0
  H  H2  1  0.66571000  0.59997000  0.34039000  1.0
  H  H3  1  0.63854000  0.60796000  0.25160000  1.0
  H  H4  1  0.33782000  0.67621000  0.74014000  1.0
  H  H5  1  0.52204000  0.82183000  0.87712000  1.0
  H  H6  1  0.48800000  0.82049000  0.96490000  1.0
  H  H7  1  0.45420000  0.81544000  0.03266000  1.0
  H  H8  1  0.33622000  0.36356000  0.35522000  1.0
  H  H9  1  0.31012000  0.36822000  0.26652000  1.0
  H  H10  1  0.42288000  0.20501000  0.96346000  1.0
  H  H11  1  0.66061000  0.42411000  0.64746000  1.0
  H  H12  1  0.47785000  0.19406000  0.03349000  1.0
  H  H13  1  0.27082000  0.90223000  0.46640000  1.0
  H  H14  1  0.76067000  0.08471000  0.55006000  1.0
  H  H15  1  0.80373000  0.87619000  0.48041000  1.0
  H  H16  1  0.86850000  0.58415000  0.39656000  1.0
  H  H17  1  0.82017000  0.71065000  0.43306000  1.0
  H  H18  1  0.06079000  0.75381000  0.44578000  1.0
  H  H19  1  0.66216000  0.19612000  0.17037000  1.0
  H  H20  1  0.72051000  0.16135000  0.11063000  1.0
  H  H21  1  0.65839000  0.04229000  0.15023000  1.0
  H  H22  1  0.49558000  0.18318000  0.80575000  1.0
  H  H23  1  0.50691000  0.04067000  0.84042000  1.0
  H  H24  1  0.62527000  0.15559000  0.85005000  1.0
  H  H25  1  0.80731000  0.33530000  0.79217000  1.0
  H  H26  1  0.32453000  0.27270000  0.42508000  1.0
  H  H27  1  0.14840000  0.25680000  0.42085000  1.0
  H  H28  1  0.26169000  0.14509000  0.39438000  1.0
  H  H29  1  0.99789000  0.01772000  0.48912000  1.0
  H  H30  1  0.96890000  0.15182000  0.52347000  1.0
  H  H31  1  0.99777000  0.16650000  0.46010000  1.0
  H  H32  1  0.90129000  0.72313000  0.58451000  1.0
  H  H33  1  0.19933000  0.21329000  0.56119000  1.0
  H  H34  1  0.05192000  0.23821000  0.59853000  1.0
  H  H35  1  0.21525000  0.25882000  0.62194000  1.0
  H  H36  1  0.86205000  0.40318000  0.65601000  1.0
  H  H37  1  0.19747000  0.52368000  0.34665000  1.0
  H  H38  1  0.42211000  0.00936000  0.12297000  1.0
  H  H39  1  0.46738000  0.79378000  0.60154000  1.0
  H  H40  1  0.31739000  0.88689000  0.61193000  1.0
  H  H41  1  0.30982000  0.75073000  0.57805000  1.0
  C  C42  1  0.47599000  0.73219000  0.48667000  1.0
  C  C43  1  0.51248000  0.48242000  0.40691000  1.0
  C  C44  1  0.47994000  0.26539000  0.50230000  1.0
  C  C45  1  0.49852000  0.54169000  0.59063000  1.0
  C  C46  1  0.43679000  0.60652000  0.17882000  1.0
  C  C47  1  0.47347000  0.37781000  0.18022000  1.0
  C  C48  1  0.38610000  0.42080000  0.28279000  1.0
  C  C49  1  0.40084000  0.41836000  0.33229000  1.0
  C  C50  1  0.58757000  0.55003000  0.32402000  1.0
  C  C51  1  0.57276000  0.55410000  0.27449000  1.0
  C  C52  1  0.47225000  0.48940000  0.25407000  1.0
  C  C53  1  0.45437000  0.49752000  0.10127000  1.0
  C  C54  1  0.44817000  0.60827000  0.12623000  1.0
  C  C55  1  0.45085000  0.72118000  0.10096000  1.0
  C  C56  1  0.46954000  0.38228000  0.12732000  1.0
  C  C57  1  0.50112000  0.48306000  0.35339000  1.0
  C  C58  1  0.50137000  0.55952000  0.64340000  1.0
  C  C59  1  0.46575000  0.62436000  0.97259000  1.0
  C  C60  1  0.44685000  0.39834000  0.97248000  1.0
  C  C61  1  0.46137000  0.51382000  0.94743000  1.0
  C  C62  1  0.48476000  0.73465000  0.94666000  1.0
  C  C63  1  0.50270000  0.73684000  0.89727000  1.0
  C  C64  1  0.49678000  0.63014000  0.87212000  1.0
  C  C65  1  0.47218000  0.51676000  0.89638000  1.0
  C  C66  1  0.45873000  0.40908000  0.86975000  1.0
  C  C67  1  0.44738000  0.42363000  0.81724000  1.0
  C  C68  1  0.52102000  0.63847000  0.82007000  1.0
  C  C69  1  0.41006000  0.61979000  0.72018000  1.0
  C  C70  1  0.41281000  0.63681000  0.66994000  1.0
  C  C71  1  0.59373000  0.48258000  0.66850000  1.0
  C  C72  1  0.60159000  0.47346000  0.71841000  1.0
  C  C73  1  0.50120000  0.54030000  0.74418000  1.0
  C  C74  1  0.45354000  0.61947000  0.02481000  1.0
  C  C75  1  0.45217000  0.50332000  0.05004000  1.0
  C  C76  1  0.45270000  0.39213000  0.02491000  1.0
  C  C77  1  0.45182000  0.72561000  0.05090000  1.0
  C  C78  1  0.48328000  0.27510000  0.10107000  1.0
  C  C79  1  0.43511000  0.29490000  0.94604000  1.0
  C  C80  1  0.44251000  0.29686000  0.89550000  1.0
  C  C81  1  0.46832000  0.28119000  0.05110000  1.0
  C  C82  1  0.59197000  0.92814000  0.49791000  1.0
  C  C83  1  0.47731000  0.86797000  0.48710000  1.0
  C  C84  1  0.36206000  0.94355000  0.47736000  1.0
  C  C85  1  0.36077000  0.07132000  0.48020000  1.0
  C  C86  1  0.47618000  0.13160000  0.49408000  1.0
  C  C87  1  0.59043000  0.05433000  0.50128000  1.0
  C  C88  1  0.73739000  0.05479000  0.51399000  1.0
  C  C89  1  0.73892000  0.90586000  0.51007000  1.0
  C  C90  1  0.05209000  0.56591000  0.47375000  1.0
  C  C91  1  0.07263000  0.44441000  0.54077000  1.0
  C  C92  1  0.93021000  0.43743000  0.54250000  1.0
  C  C93  1  0.91547000  0.54893000  0.47265000  1.0
  C  C94  1  0.89213000  0.63250000  0.42873000  1.0
  C  C95  1  0.04709000  0.66187000  0.43277000  1.0
  C  C96  1  0.64875000  0.13984000  0.13947000  1.0
  C  C97  1  0.52103000  0.13945000  0.84066000  1.0
  C  C98  1  0.71851000  0.40129000  0.73749000  1.0
  C  C99  1  0.24590000  0.20614000  0.42459000  1.0
  C  C100  1  0.95135000  0.11175000  0.48867000  1.0
  C  C101  1  0.76961000  0.83174000  0.55532000  1.0
  C  C102  1  0.15317000  0.26722000  0.58982000  1.0
  C  C103  1  0.86625000  0.38021000  0.58690000  1.0
  C  C104  1  0.13752000  0.64489000  0.38950000  1.0
  C  C105  1  0.47958000  0.83933000  0.12385000  1.0
  C  C106  1  0.35846000  0.79286000  0.60770000  1.0
  N  N107  1  0.46149000  0.49160000  0.20271000  1.0
  N  N108  1  0.49347000  0.53324000  0.79562000  1.0
  N  N109  1  0.13532000  0.51134000  0.50576000  1.0
  N  N110  1  0.85036000  0.48621000  0.50665000  1.0
  O  O111  1  0.58943000  0.67440000  0.49214000  1.0
  O  O112  1  0.36243000  0.68561000  0.48237000  1.0
  O  O113  1  0.62790000  0.49546000  0.42445000  1.0
  O  O114  1  0.40370000  0.46869000  0.43034000  1.0
  O  O115  1  0.59441000  0.31048000  0.49846000  1.0
  O  O116  1  0.37026000  0.32274000  0.51341000  1.0
  O  O117  1  0.60993000  0.51036000  0.57108000  1.0
  O  O118  1  0.38460000  0.55116000  0.57060000  1.0
  O  O119  1  0.40633000  0.69898000  0.20092000  1.0
  O  O120  1  0.56049000  0.73120000  0.79894000  1.0
  O  O121  1  0.48511000  0.28177000  0.20484000  1.0
  O  O122  1  0.39809000  0.34836000  0.79189000  1.0
  O  O123  1  0.51298000  0.15959000  0.12080000  1.0
  O  O124  1  0.43199000  0.18392000  0.87787000  1.0
  O  O125  1  0.81435000  0.36212000  0.71289000  1.0
  O  O126  1  0.72091000  0.37960000  0.78575000  1.0
  O  O127  1  0.24131000  0.13463000  0.46890000  1.0
  O  O128  1  0.81217000  0.11404000  0.47832000  1.0
  O  O129  1  0.70017000  0.83112000  0.59152000  1.0
  O  O130  1  0.89014000  0.76572000  0.55307000  1.0
  O  O131  1  0.15420000  0.39580000  0.57476000  1.0
  O  O132  1  0.79853000  0.29046000  0.58664000  1.0
  O  O133  1  0.90006000  0.44033000  0.62536000  1.0
  O  O134  1  0.20905000  0.72267000  0.37261000  1.0
  O  O135  1  0.12779000  0.53193000  0.37168000  1.0
  O  O136  1  0.58616000  0.85215000  0.14374000  1.0
  O  O137  1  0.38690000  0.93053000  0.11344000  1.0
  O  O138  1  0.32924000  0.72843000  0.65261000  1.0
