# generated using pymatgen
data_Mn2H8W(C7N6)2
_symmetry_space_group_name_H-M   'P 1'
_cell_length_a   9.74495000
_cell_length_b   9.87221000
_cell_length_c   10.78940000
_cell_angle_alpha   94.78040000
_cell_angle_beta   103.93300000
_cell_angle_gamma   102.87700000
_symmetry_Int_Tables_number   1
_chemical_formula_structural   Mn2H8W(C7N6)2
_chemical_formula_sum   'Mn4 H16 W2 C28 N24'
_cell_volume   971.75986055
_cell_formula_units_Z   2
loop_
 _symmetry_equiv_pos_site_id
 _symmetry_equiv_pos_as_xyz
  1  'x, y, z'
loop_
 _atom_site_type_symbol
 _atom_site_label
 _atom_site_symmetry_multiplicity
 _atom_site_fract_x
 _atom_site_fract_y
 _atom_site_fract_z
 _atom_site_occupancy
  Mn  Mn0  1  0.64491000  0.28239000  0.80221000  1.0
  Mn  Mn1  1  0.35508000  0.71761000  0.19779000  1.0
  Mn  Mn2  1  0.89219000  0.75707000  0.53341000  1.0
  Mn  Mn3  1  0.10781000  0.24293000  0.46659000  1.0
  H  H4  1  0.93526000  0.40461000  0.69708000  1.0
  H  H5  1  0.06473000  0.59539000  0.30292000  1.0
  H  H6  1  0.92099000  0.27716000  0.05870000  1.0
  H  H7  1  0.07901000  0.72284000  0.94129000  1.0
  H  H8  1  0.21985000  0.44572000  0.84970000  1.0
  H  H9  1  0.78014000  0.55428000  0.15030000  1.0
  H  H10  1  0.19005000  0.35919000  0.05930000  1.0
  H  H11  1  0.80995000  0.64081000  0.94069000  1.0
  H  H12  1  0.16793000  0.93727000  0.44067000  1.0
  H  H13  1  0.83208000  0.06273000  0.55933000  1.0
  H  H14  1  0.71428000  0.83228000  0.26000000  1.0
  H  H15  1  0.28572000  0.16772000  0.74000000  1.0
  H  H16  1  0.12197000  0.01274000  0.19388000  1.0
  H  H17  1  0.87804000  0.98727000  0.80613000  1.0
  H  H18  1  0.84324000  0.92983000  0.09602000  1.0
  H  H19  1  0.15677000  0.07017000  0.90398000  1.0
  W  W20  1  0.56875000  0.26656000  0.28705000  1.0
  W  W21  1  0.43125000  0.73344000  0.71295000  1.0
  C  C22  1  0.63247000  0.26077000  0.49132000  1.0
  C  C23  1  0.36753000  0.73923000  0.50868000  1.0
  C  C24  1  0.72193000  0.45998000  0.37367000  1.0
  C  C25  1  0.27806000  0.54002000  0.62633000  1.0
  C  C26  1  0.62459000  0.27612000  0.10655000  1.0
  C  C27  1  0.37541000  0.72388000  0.89344000  1.0
  C  C28  1  0.48123000  0.44093000  0.23365000  1.0
  C  C29  1  0.51877000  0.55908000  0.76634000  1.0
  C  C30  1  0.52533000  0.04265000  0.27024000  1.0
  C  C31  1  0.47467000  0.95736000  0.72976000  1.0
  C  C32  1  0.39174000  0.25158000  0.37054000  1.0
  C  C33  1  0.60826000  0.74844000  0.62947000  1.0
  C  C34  1  0.78377000  0.23009000  0.32219000  1.0
  C  C35  1  0.21623000  0.76991000  0.67781000  1.0
  C  C36  1  0.37218000  0.17241000  0.13667000  1.0
  C  C37  1  0.62782000  0.82759000  0.86334000  1.0
  C  C38  1  0.97469000  0.38452000  0.79481000  1.0
  C  C39  1  0.02530000  0.61547000  0.20519000  1.0
  C  C40  1  0.96149000  0.31637000  0.97999000  1.0
  C  C41  1  0.03850000  0.68362000  0.02000000  1.0
  C  C42  1  0.11556000  0.40423000  0.86831000  1.0
  C  C43  1  0.88443000  0.59576000  0.13168000  1.0
  C  C44  1  0.06680000  0.92887000  0.36814000  1.0
  C  C45  1  0.93320000  0.07113000  0.63187000  1.0
  C  C46  1  0.83163000  0.87000000  0.27762000  1.0
  C  C47  1  0.16839000  0.13000000  0.72238000  1.0
  C  C48  1  0.04573000  0.96567000  0.24597000  1.0
  C  C49  1  0.95428000  0.03434000  0.75403000  1.0
  N  N50  1  0.66482000  0.26633000  0.60399000  1.0
  N  N51  1  0.33518000  0.73366000  0.39601000  1.0
  N  N52  1  0.81205000  0.56164000  0.42791000  1.0
  N  N53  1  0.18795000  0.43837000  0.57209000  1.0
  N  N54  1  0.64487000  0.27709000  0.00361000  1.0
  N  N55  1  0.35513000  0.72291000  0.99639000  1.0
  N  N56  1  0.43268000  0.53722000  0.20863000  1.0
  N  N57  1  0.56733000  0.46278000  0.79137000  1.0
  N  N58  1  0.49345000  0.91926000  0.25231000  1.0
  N  N59  1  0.50654000  0.08074000  0.74769000  1.0
  N  N60  1  0.28688000  0.23982000  0.40832000  1.0
  N  N61  1  0.71313000  0.76019000  0.59168000  1.0
  N  N62  1  0.90548000  0.22225000  0.34998000  1.0
  N  N63  1  0.09452000  0.77775000  0.65003000  1.0
  N  N64  1  0.26142000  0.11701000  0.06087000  1.0
  N  N65  1  0.73858000  0.88299000  0.93914000  1.0
  N  N66  1  0.87937000  0.33001000  0.86560000  1.0
  N  N67  1  0.12062000  0.66998000  0.13440000  1.0
  N  N68  1  0.10450000  0.36083000  0.98443000  1.0
  N  N69  1  0.89550000  0.63917000  0.01556000  1.0
  N  N70  1  0.93170000  0.86903000  0.38670000  1.0
  N  N71  1  0.06831000  0.13097000  0.61330000  1.0
  N  N72  1  0.89739000  0.92812000  0.19169000  1.0
  N  N73  1  0.10262000  0.07188000  0.80831000  1.0
