# generated using pymatgen
data_CuH19C12S(NO2)2
_symmetry_space_group_name_H-M   'P 1'
_cell_length_a   8.23766000
_cell_length_b   8.45262000
_cell_length_c   10.70760000
_cell_angle_alpha   84.83270000
_cell_angle_beta   83.55790000
_cell_angle_gamma   85.92970000
_symmetry_Int_Tables_number   1
_chemical_formula_structural   CuH19C12S(NO2)2
_chemical_formula_sum   'Cu2 H38 C24 S2 N4 O8'
_cell_volume   736.45232092
_cell_formula_units_Z   2
loop_
 _symmetry_equiv_pos_site_id
 _symmetry_equiv_pos_as_xyz
  1  'x, y, z'
loop_
 _atom_site_type_symbol
 _atom_site_label
 _atom_site_symmetry_multiplicity
 _atom_site_fract_x
 _atom_site_fract_y
 _atom_site_fract_z
 _atom_site_occupancy
  Cu  Cu0  1  0.04583000  0.03281000  0.87701000  1.0
  Cu  Cu1  1  0.95414000  0.96718000  0.12307000  1.0
  H  H2  1  0.92284000  0.50292000  0.89994000  1.0
  H  H3  1  0.07714000  0.49707000  0.10006000  1.0
  H  H4  1  0.74789000  0.52876000  0.01285000  1.0
  H  H5  1  0.25210000  0.47126000  0.98715000  1.0
  H  H6  1  0.74275000  0.60247000  0.85000000  1.0
  H  H7  1  0.25723000  0.39752000  0.15001000  1.0
  H  H8  1  0.49986000  0.72180000  0.95015000  1.0
  H  H9  1  0.50012000  0.27818000  0.04983000  1.0
  H  H10  1  0.43145000  0.66680000  0.11246000  1.0
  H  H11  1  0.56854000  0.33320000  0.88754000  1.0
  H  H12  1  0.52409000  0.84961000  0.06917000  1.0
  H  H13  1  0.47591000  0.15038000  0.93081000  1.0
  H  H14  1  0.16911000  0.29711000  0.39617000  1.0
  H  H15  1  0.83090000  0.70290000  0.60382000  1.0
  H  H16  1  0.97049000  0.45005000  0.58990000  1.0
  H  H17  1  0.02954000  0.54997000  0.41010000  1.0
  H  H18  1  0.12024000  0.43231000  0.69856000  1.0
  H  H19  1  0.87978000  0.56768000  0.30146000  1.0
  H  H20  1  0.93465000  0.33708000  0.73782000  1.0
  H  H21  1  0.06535000  0.66293000  0.26217000  1.0
  H  H22  1  0.28670000  0.03616000  0.27267000  1.0
  H  H23  1  0.71331000  0.96385000  0.72732000  1.0
  H  H24  1  0.42590000  0.92519000  0.36761000  1.0
  H  H25  1  0.57410000  0.07481000  0.63239000  1.0
  H  H26  1  0.23247000  0.85311000  0.35123000  1.0
  H  H27  1  0.76753000  0.14689000  0.64876000  1.0
  H  H28  1  0.19259000  0.74134000  0.55219000  1.0
  H  H29  1  0.80741000  0.25866000  0.44781000  1.0
  H  H30  1  0.13915000  0.78033000  0.71193000  1.0
  H  H31  1  0.86086000  0.21968000  0.28807000  1.0
  H  H32  1  0.48630000  0.81529000  0.57275000  1.0
  H  H33  1  0.51370000  0.18470000  0.42726000  1.0
  H  H34  1  0.42309000  0.83782000  0.73493000  1.0
  H  H35  1  0.57691000  0.16219000  0.26507000  1.0
  H  H36  1  0.44235000  0.34852000  0.58004000  1.0
  H  H37  1  0.55765000  0.65146000  0.42000000  1.0
  H  H38  1  0.31192000  0.50435000  0.52135000  1.0
  H  H39  1  0.68808000  0.49562000  0.47868000  1.0
  C  C40  1  0.88042000  0.73967000  0.95713000  1.0
  C  C41  1  0.11958000  0.26033000  0.04286000  1.0
  C  C42  1  0.81781000  0.58358000  0.92912000  1.0
  C  C43  1  0.18218000  0.41643000  0.07088000  1.0
  C  C44  1  0.10241000  0.22297000  0.60147000  1.0
  C  C45  1  0.89760000  0.77703000  0.39853000  1.0
  C  C46  1  0.16498000  0.20665000  0.47478000  1.0
  C  C47  1  0.83503000  0.79335000  0.52521000  1.0
  C  C48  1  0.22005000  0.04794000  0.46872000  1.0
  C  C49  1  0.77996000  0.95207000  0.53127000  1.0
  C  C50  1  0.02784000  0.36837000  0.65999000  1.0
  C  C51  1  0.97217000  0.63163000  0.34000000  1.0
  C  C52  1  0.29591000  0.96054000  0.36038000  1.0
  C  C53  1  0.70409000  0.03946000  0.63962000  1.0
  C  C54  1  0.22279000  0.81035000  0.62764000  1.0
  C  C55  1  0.77721000  0.18966000  0.37236000  1.0
  C  C56  1  0.40082000  0.77504000  0.65368000  1.0
  C  C57  1  0.59919000  0.22496000  0.34632000  1.0
  C  C58  1  0.27851000  0.85010000  0.02156000  1.0
  C  C59  1  0.72148000  0.14989000  0.97845000  1.0
  C  C60  1  0.44344000  0.76534000  0.03901000  1.0
  C  C61  1  0.55656000  0.23465000  0.96097000  1.0
  C  C62  1  0.43384000  0.47699000  0.55261000  1.0
  C  C63  1  0.56616000  0.52299000  0.44742000  1.0
  S  S64  1  0.44769000  0.56698000  0.69873000  1.0
  S  S65  1  0.55230000  0.43302000  0.30129000  1.0
  N  N66  1  0.18909000  0.97721000  0.58775000  1.0
  N  N67  1  0.81092000  0.02280000  0.41224000  1.0
  N  N68  1  0.11772000  0.08202000  0.67010000  1.0
  N  N69  1  0.88229000  0.91799000  0.32989000  1.0
  O  O70  1  0.94291000  0.82613000  0.86251000  1.0
  O  O71  1  0.05708000  0.17390000  0.13747000  1.0
  O  O72  1  0.13299000  0.23053000  0.92776000  1.0
  O  O73  1  0.86702000  0.76945000  0.07222000  1.0
  O  O74  1  0.25889000  0.91570000  0.91193000  1.0
  O  O75  1  0.74107000  0.08429000  0.08806000  1.0
  O  O76  1  0.82523000  0.14908000  0.88108000  1.0
  O  O77  1  0.17480000  0.85092000  0.11892000  1.0
