# generated using pymatgen
data_H3PbC7NO4
_symmetry_space_group_name_H-M   'P 1'
_cell_length_a   4.53163000
_cell_length_b   11.70860000
_cell_length_c   14.24160000
_cell_angle_alpha   90.15980000
_cell_angle_beta   90.00140000
_cell_angle_gamma   89.99720000
_symmetry_Int_Tables_number   1
_chemical_formula_structural   H3PbC7NO4
_chemical_formula_sum   'H12 Pb4 C28 N4 O16'
_cell_volume   755.64272694
_cell_formula_units_Z   4
loop_
 _symmetry_equiv_pos_site_id
 _symmetry_equiv_pos_as_xyz
  1  'x, y, z'
loop_
 _atom_site_type_symbol
 _atom_site_label
 _atom_site_symmetry_multiplicity
 _atom_site_fract_x
 _atom_site_fract_y
 _atom_site_fract_z
 _atom_site_occupancy
  H  H0  1  0.75208000  0.96188000  0.01444000  1.0
  H  H1  1  0.25184000  0.03814000  0.48556000  1.0
  H  H2  1  0.24822000  0.03814000  0.98555000  1.0
  H  H3  1  0.74802000  0.96187000  0.51447000  1.0
  H  H4  1  0.96049000  0.00124000  0.17243000  1.0
  H  H5  1  0.46036000  0.99879000  0.32758000  1.0
  H  H6  1  0.03943000  0.99885000  0.82760000  1.0
  H  H7  1  0.53951000  0.00122000  0.67244000  1.0
  H  H8  1  0.88474000  0.85625000  0.30079000  1.0
  H  H9  1  0.38447000  0.14377000  0.19920000  1.0
  H  H10  1  0.11548000  0.14377000  0.69920000  1.0
  H  H11  1  0.61524000  0.85622000  0.80081000  1.0
  Pb  Pb12  1  0.98406000  0.39067000  0.14048000  1.0
  Pb  Pb13  1  0.48368000  0.60931000  0.35950000  1.0
  Pb  Pb14  1  0.01616000  0.60930000  0.85952000  1.0
  Pb  Pb15  1  0.51624000  0.39070000  0.64048000  1.0
  C  C16  1  0.52024000  0.72604000  0.13222000  1.0
  C  C17  1  0.02010000  0.27401000  0.36778000  1.0
  C  C18  1  0.48008000  0.27396000  0.86776000  1.0
  C  C19  1  0.97964000  0.72597000  0.63223000  1.0
  C  C20  1  0.55750000  0.80086000  0.05625000  1.0
  C  C21  1  0.05733000  0.19918000  0.44375000  1.0
  C  C22  1  0.44286000  0.19915000  0.94373000  1.0
  C  C23  1  0.94241000  0.80080000  0.55627000  1.0
  C  C24  1  0.71843000  0.90114000  0.07110000  1.0
  C  C25  1  0.21825000  0.09889000  0.42890000  1.0
  C  C26  1  0.28184000  0.09888000  0.92889000  1.0
  C  C27  1  0.78157000  0.90111000  0.57112000  1.0
  C  C28  1  0.83693000  0.92309000  0.15940000  1.0
  C  C29  1  0.33677000  0.07694000  0.34060000  1.0
  C  C30  1  0.16319000  0.07696000  0.84060000  1.0
  C  C31  1  0.66306000  0.92306000  0.65942000  1.0
  C  C32  1  0.79218000  0.84385000  0.23087000  1.0
  C  C33  1  0.29200000  0.15617000  0.26913000  1.0
  C  C34  1  0.20803000  0.15617000  0.76912000  1.0
  C  C35  1  0.70776000  0.84381000  0.73089000  1.0
  C  C36  1  0.34447000  0.61684000  0.12356000  1.0
  C  C37  1  0.84442000  0.38324000  0.37642000  1.0
  C  C38  1  0.65564000  0.38321000  0.87642000  1.0
  C  C39  1  0.15537000  0.61675000  0.62358000  1.0
  C  C40  1  0.43050000  0.77506000  0.96098000  1.0
  C  C41  1  0.93036000  0.22495000  0.53902000  1.0
  C  C42  1  0.56991000  0.22489000  0.03900000  1.0
  C  C43  1  0.06933000  0.77502000  0.46099000  1.0
  N  N44  1  0.63660000  0.74786000  0.21741000  1.0
  N  N45  1  0.13646000  0.25218000  0.28259000  1.0
  N  N46  1  0.36369000  0.25214000  0.78256000  1.0
  N  N47  1  0.86331000  0.74780000  0.71743000  1.0
  O  O48  1  0.15647000  0.60589000  0.05913000  1.0
  O  O49  1  0.65647000  0.39424000  0.44087000  1.0
  O  O50  1  0.84345000  0.39425000  0.94090000  1.0
  O  O51  1  0.34337000  0.60579000  0.55914000  1.0
  O  O52  1  0.39587000  0.53935000  0.18566000  1.0
  O  O53  1  0.89583000  0.46070000  0.31430000  1.0
  O  O54  1  0.60423000  0.46066000  0.81429000  1.0
  O  O55  1  0.10396000  0.53928000  0.68568000  1.0
  O  O56  1  0.55652000  0.69629000  0.91194000  1.0
  O  O57  1  0.05652000  0.30363000  0.58811000  1.0
  O  O58  1  0.44378000  0.30357000  0.08811000  1.0
  O  O59  1  0.94328000  0.69624000  0.41196000  1.0
  O  O60  1  0.20821000  0.82935000  0.93343000  1.0
  O  O61  1  0.70797000  0.17070000  0.56654000  1.0
  O  O62  1  0.79229000  0.17063000  0.06651000  1.0
  O  O63  1  0.29155000  0.82931000  0.43341000  1.0
