# generated using pymatgen
data_VH7C12O5
_symmetry_space_group_name_H-M   'P 1'
_cell_length_a   6.71420000
_cell_length_b   6.89176000
_cell_length_c   12.79017650
_cell_angle_alpha   76.42536689
_cell_angle_beta   75.17798980
_cell_angle_gamma   90.30370000
_symmetry_Int_Tables_number   1
_chemical_formula_structural   VH7C12O5
_chemical_formula_sum   'V2 H14 C24 O10'
_cell_volume   554.81323105
_cell_formula_units_Z   2
loop_
 _symmetry_equiv_pos_site_id
 _symmetry_equiv_pos_as_xyz
  1  'x, y, z'
loop_
 _atom_site_type_symbol
 _atom_site_label
 _atom_site_symmetry_multiplicity
 _atom_site_fract_x
 _atom_site_fract_y
 _atom_site_fract_z
 _atom_site_occupancy
  V  V0  1  0.00001000  0.50000000  0.00000000  1.0
  V  V1  1  0.00000000  0.00000000  0.00000000  1.0
  H  H2  1  0.71492000  0.74960000  0.00085000  1.0
  H  H3  1  0.28510000  0.25039000  0.99915000  1.0
  H  H4  1  0.20513000  0.30490000  0.25875000  1.0
  H  H5  1  0.46614000  0.19549000  0.74143000  1.0
  H  H6  1  0.79485000  0.69511000  0.74126000  1.0
  H  H7  1  0.53386000  0.80452000  0.25857000  1.0
  H  H8  1  0.14747000  0.13934000  0.46002000  1.0
  H  H9  1  0.60746000  0.36143000  0.54060000  1.0
  H  H10  1  0.85252000  0.86065000  0.53997000  1.0
  H  H11  1  0.39253000  0.63857000  0.45940000  1.0
  H  H12  1  0.96958000  0.84514000  0.34103000  1.0
  H  H13  1  0.31303000  0.65331000  0.65866000  1.0
  H  H14  1  0.03041000  0.15486000  0.65897000  1.0
  H  H15  1  0.68697000  0.34670000  0.34134000  1.0
  C  C16  1  0.11361000  0.67636000  0.16889000  1.0
  C  C17  1  0.28219000  0.82484000  0.83111000  1.0
  C  C18  1  0.88640000  0.32364000  0.83111000  1.0
  C  C19  1  0.71782000  0.17517000  0.16889000  1.0
  C  C20  1  0.09313000  0.58634000  0.28872000  1.0
  C  C21  1  0.38358000  0.91302000  0.71157000  1.0
  C  C22  1  0.90687000  0.41366000  0.71128000  1.0
  C  C23  1  0.61644000  0.08699000  0.28842000  1.0
  C  C24  1  0.14297000  0.38501000  0.32265000  1.0
  C  C25  1  0.46727000  0.11490000  0.67758000  1.0
  C  C26  1  0.85702000  0.61499000  0.67735000  1.0
  C  C27  1  0.53273000  0.88511000  0.32242000  1.0
  C  C28  1  0.10997000  0.29388000  0.43400000  1.0
  C  C29  1  0.54431000  0.20645000  0.56635000  1.0
  C  C30  1  0.89001000  0.70611000  0.56600000  1.0
  C  C31  1  0.45569000  0.79355000  0.43365000  1.0
  C  C32  1  0.97429000  0.60169000  0.48291000  1.0
  C  C33  1  0.45767000  0.89791000  0.51707000  1.0
  C  C34  1  0.02569000  0.39830000  0.51710000  1.0
  C  C35  1  0.54234000  0.10209000  0.48293000  1.0
  C  C36  1  0.01005000  0.69191000  0.36789000  1.0
  C  C37  1  0.37978000  0.80716000  0.63204000  1.0
  C  C38  1  0.98994000  0.30809000  0.63211000  1.0
  C  C39  1  0.62022000  0.19284000  0.36796000  1.0
  O  O40  1  0.86049000  0.75088000  0.99974000  1.0
  O  O41  1  0.13953000  0.24912000  0.00025000  1.0
  O  O42  1  0.15856000  0.56098000  0.10169000  1.0
  O  O43  1  0.25879000  0.94263000  0.89690000  1.0
  O  O44  1  0.84145000  0.43902000  0.89831000  1.0
  O  O45  1  0.74121000  0.05738000  0.10310000  1.0
  O  O46  1  0.08012000  0.86052000  0.13889000  1.0
  O  O47  1  0.21648000  0.64027000  0.86147000  1.0
  O  O48  1  0.91987000  0.13948000  0.86112000  1.0
  O  O49  1  0.78352000  0.35974000  0.13853000  1.0
