# generated using pymatgen
data_Zn2H23C37N3O8
_symmetry_space_group_name_H-M   'P 1'
_cell_length_a   9.77376000
_cell_length_b   11.00470000
_cell_length_c   11.05570000
_cell_angle_alpha   89.68750000
_cell_angle_beta   88.17280000
_cell_angle_gamma   89.31360000
_symmetry_Int_Tables_number   1
_chemical_formula_structural   Zn2H23C37N3O8
_chemical_formula_sum   'Zn2 H23 C37 N3 O8'
_cell_volume   1188.41598824
_cell_formula_units_Z   1
loop_
 _symmetry_equiv_pos_site_id
 _symmetry_equiv_pos_as_xyz
  1  'x, y, z'
loop_
 _atom_site_type_symbol
 _atom_site_label
 _atom_site_symmetry_multiplicity
 _atom_site_fract_x
 _atom_site_fract_y
 _atom_site_fract_z
 _atom_site_occupancy
  Zn  Zn0  1  0.36041000  0.49397000  0.50999000  1.0
  Zn  Zn1  1  0.64760000  0.50145000  0.50390000  1.0
  H  H2  1  0.14072000  0.21771000  0.44044000  1.0
  H  H3  1  0.84978000  0.78232000  0.60285000  1.0
  H  H4  1  0.99328000  0.84288000  0.77589000  1.0
  H  H5  1  0.23210000  0.91011000  0.73727000  1.0
  H  H6  1  0.63015000  0.66363000  0.89907000  1.0
  H  H7  1  0.63615000  0.64788000  0.12242000  1.0
  H  H8  1  0.41274000  0.20992000  0.10936000  1.0
  H  H9  1  0.25662000  0.29517000  0.11764000  1.0
  H  H10  1  0.41576000  0.22381000  0.88310000  1.0
  H  H11  1  0.25724000  0.30335000  0.88981000  1.0
  H  H12  1  0.88263000  0.48781000  0.31954000  1.0
  H  H13  1  0.01254000  0.17438000  0.25398000  1.0
  H  H14  1  0.14138000  0.48741000  0.32007000  1.0
  H  H15  1  0.12644000  0.44020000  0.78763000  1.0
  H  H16  1  0.12236000  0.60259000  0.77403000  1.0
  H  H17  1  0.86871000  0.43583000  0.78824000  1.0
  H  H18  1  0.86227000  0.59730000  0.77740000  1.0
  H  H19  1  0.77163000  0.10500000  0.27008000  1.0
  H  H20  1  0.78358000  0.12085000  0.65823000  1.0
  H  H21  1  0.70173000  0.87709000  0.44870000  1.0
  H  H22  1  0.28885000  0.11694000  0.55867000  1.0
  H  H23  1  0.18967000  0.85310000  0.35565000  1.0
  H  H24  1  0.94925000  0.78925000  0.39325000  1.0
  C  C25  1  0.50427000  0.51138000  0.74210000  1.0
  C  C26  1  0.03478000  0.18769000  0.44634000  1.0
  C  C27  1  0.61027000  0.93155000  0.46927000  1.0
  C  C28  1  0.48708000  0.86993000  0.49023000  1.0
  C  C29  1  0.36680000  0.93668000  0.52089000  1.0
  C  C30  1  0.37855000  0.06274000  0.53205000  1.0
  C  C31  1  0.50143000  0.12453000  0.51084000  1.0
  C  C32  1  0.62089000  0.05740000  0.47903000  1.0
  C  C33  1  0.14664000  0.85041000  0.44782000  1.0
  C  C34  1  0.01183000  0.81388000  0.46919000  1.0
  C  C35  1  0.95576000  0.81009000  0.58719000  1.0
  C  C36  1  0.49794000  0.26091000  0.51876000  1.0
  C  C37  1  0.03602000  0.84399000  0.68344000  1.0
  C  C38  1  0.17072000  0.88175000  0.66197000  1.0
  C  C39  1  0.22777000  0.88492000  0.54401000  1.0
  C  C40  1  0.43700000  0.41439000  0.94209000  1.0
  C  C41  1  0.50348000  0.50619000  0.87717000  1.0
  C  C42  1  0.57585000  0.59013000  0.94584000  1.0
  C  C43  1  0.57922000  0.58149000  0.07184000  1.0
  C  C44  1  0.50963000  0.48924000  0.13703000  1.0
  C  C45  1  0.43904000  0.40658000  0.06819000  1.0
  C  C46  1  0.35841000  0.28927000  0.07268000  1.0
  C  C47  1  0.51232000  0.48417000  0.27164000  1.0
  C  C48  1  0.35825000  0.29727000  0.92981000  1.0
  C  C49  1  0.92904000  0.50646000  0.60746000  1.0
  C  C50  1  0.93732000  0.49333000  0.40371000  1.0
  C  C51  1  0.07999000  0.49354000  0.40396000  1.0
  C  C52  1  0.07201000  0.50739000  0.60747000  1.0
  C  C53  1  0.07751000  0.51781000  0.74311000  1.0
  C  C54  1  0.91514000  0.51524000  0.74375000  1.0
  C  C55  1  0.49509000  0.73355000  0.48939000  1.0
  C  C56  1  0.96239000  0.16333000  0.34287000  1.0
  C  C57  1  0.82702000  0.12377000  0.35190000  1.0
  C  C58  1  0.76076000  0.10901000  0.46520000  1.0
  C  C59  1  0.83293000  0.13277000  0.56931000  1.0
  C  C60  1  0.96904000  0.17171000  0.56031000  1.0
  C  C61  1  0.03748000  0.19352000  0.66990000  1.0
  N  N62  1  0.85822000  0.49921000  0.50710000  1.0
  N  N63  1  0.15061000  0.49987000  0.50767000  1.0
  N  N64  1  0.08741000  0.21131000  0.76272000  1.0
  O  O65  1  0.38927000  0.52037000  0.69199000  1.0
  O  O66  1  0.62116000  0.50379000  0.68847000  1.0
  O  O67  1  0.38105000  0.31047000  0.53937000  1.0
  O  O68  1  0.61019000  0.31687000  0.50215000  1.0
  O  O69  1  0.40058000  0.45764000  0.32780000  1.0
  O  O70  1  0.62567000  0.50811000  0.31997000  1.0
  O  O71  1  0.38569000  0.67513000  0.47391000  1.0
  O  O72  1  0.61297000  0.68695000  0.50640000  1.0
