# generated using pymatgen
data_CdH14C12N4O5
_symmetry_space_group_name_H-M   'P 1'
_cell_length_a   12.04210000
_cell_length_b   16.13780000
_cell_length_c   16.13800000
_cell_angle_alpha   114.05400000
_cell_angle_beta   104.39000000
_cell_angle_gamma   104.38900000
_symmetry_Int_Tables_number   1
_chemical_formula_structural   CdH14C12N4O5
_chemical_formula_sum   'Cd6 H84 C72 N24 O30'
_cell_volume   2547.82160640
_cell_formula_units_Z   6
loop_
 _symmetry_equiv_pos_site_id
 _symmetry_equiv_pos_as_xyz
  1  'x, y, z'
loop_
 _atom_site_type_symbol
 _atom_site_label
 _atom_site_symmetry_multiplicity
 _atom_site_fract_x
 _atom_site_fract_y
 _atom_site_fract_z
 _atom_site_occupancy
  Cd  Cd0  1  0.75000000  0.25366000  0.74633000  1.0
  Cd  Cd1  1  0.49645000  0.49287000  0.74639000  1.0
  Cd  Cd2  1  0.00354000  0.25361000  0.50714000  1.0
  Cd  Cd3  1  0.25000000  0.74634000  0.25367000  1.0
  Cd  Cd4  1  0.50355000  0.50714000  0.25361000  1.0
  Cd  Cd5  1  0.99646000  0.74639000  0.49287000  1.0
  H  H6  1  0.72443000  0.39620000  0.67706000  1.0
  H  H7  1  0.32843000  0.28101000  0.60382000  1.0
  H  H8  1  0.04726000  0.32294000  0.71905000  1.0
  H  H9  1  0.45274000  0.28095000  0.67706000  1.0
  H  H10  1  0.77557000  0.32294000  0.60380000  1.0
  H  H11  1  0.17157000  0.39618000  0.71899000  1.0
  H  H12  1  0.50063000  0.14333000  0.54434000  1.0
  H  H13  1  0.48610000  0.04676000  0.35012000  1.0
  H  H14  1  0.68323000  0.86928000  0.35054000  1.0
  H  H15  1  0.65769000  0.85312000  0.23162000  1.0
  H  H16  1  0.64763000  0.01829000  0.28414000  1.0
  H  H17  1  0.79039000  0.02917000  0.36104000  1.0
  H  H18  1  0.35761000  0.40128000  0.85663000  1.0
  H  H19  1  0.43970000  0.30389000  0.95340000  1.0
  H  H20  1  0.81449000  0.48147000  0.13105000  1.0
  H  H21  1  0.80469000  0.37837000  0.14662000  1.0
  H  H22  1  0.62948000  0.26626000  0.98163000  1.0
  H  H23  1  0.76138000  0.33222000  0.97071000  1.0
  H  H24  1  0.95619000  0.45579000  0.59876000  1.0
  H  H25  1  0.13597000  0.64988000  0.69634000  1.0
  H  H26  1  0.33268000  0.64933000  0.51874000  1.0
  H  H27  1  0.42614000  0.76817000  0.62163000  1.0
  H  H28  1  0.36324000  0.71560000  0.73411000  1.0
  H  H29  1  0.42933000  0.63877000  0.66817000  1.0
  H  H30  1  0.54381000  0.40125000  0.54421000  1.0
  H  H31  1  0.36404000  0.30367000  0.35012000  1.0
  H  H32  1  0.16732000  0.48126000  0.35067000  1.0
  H  H33  1  0.07386000  0.37836000  0.23183000  1.0
  H  H34  1  0.13676000  0.26589000  0.28441000  1.0
  H  H35  1  0.07067000  0.33183000  0.36123000  1.0
  H  H36  1  0.99937000  0.45566000  0.85667000  1.0
  H  H37  1  0.01390000  0.64989000  0.95325000  1.0
  H  H38  1  0.81677000  0.64946000  0.13072000  1.0
  H  H39  1  0.84230000  0.76838000  0.14688000  1.0
  H  H40  1  0.85237000  0.71586000  0.98171000  1.0
  H  H41  1  0.70961000  0.63896000  0.97083000  1.0
  H  H42  1  0.14239000  0.14336000  0.59872000  1.0
  H  H43  1  0.06030000  0.04660000  0.69611000  1.0
  H  H44  1  0.68551000  0.86895000  0.51852000  1.0
  H  H45  1  0.69531000  0.85337000  0.62163000  1.0
  H  H46  1  0.87052000  0.01836000  0.73373000  1.0
  H  H47  1  0.73862000  0.02929000  0.66778000  1.0
  H  H48  1  0.49937000  0.85666000  0.45565000  1.0
  H  H49  1  0.51392000  0.95325000  0.64988000  1.0
  H  H50  1  0.31677000  0.13072000  0.64945000  1.0
  H  H51  1  0.34231000  0.14688000  0.76837000  1.0
  H  H52  1  0.35238000  0.98171000  0.71586000  1.0
  H  H53  1  0.20962000  0.97083000  0.63896000  1.0
  H  H54  1  0.64238000  0.59870000  0.14335000  1.0
  H  H55  1  0.56030000  0.69610000  0.04660000  1.0
  H  H56  1  0.18550000  0.51853000  0.86895000  1.0
  H  H57  1  0.19531000  0.62164000  0.85338000  1.0
  H  H58  1  0.37052000  0.73374000  0.01837000  1.0
  H  H59  1  0.23862000  0.66779000  0.02929000  1.0
  H  H60  1  0.04380000  0.54420000  0.40124000  1.0
  H  H61  1  0.86403000  0.35012000  0.30367000  1.0
  H  H62  1  0.66731000  0.35066000  0.48126000  1.0
  H  H63  1  0.57386000  0.23183000  0.37837000  1.0
  H  H64  1  0.63675000  0.28440000  0.26589000  1.0
  H  H65  1  0.57067000  0.36123000  0.33183000  1.0
  H  H66  1  0.45619000  0.59876000  0.45579000  1.0
  H  H67  1  0.63596000  0.69633000  0.64988000  1.0
  H  H68  1  0.83268000  0.51874000  0.64933000  1.0
  H  H69  1  0.92614000  0.62163000  0.76817000  1.0
  H  H70  1  0.86324000  0.73411000  0.71560000  1.0
  H  H71  1  0.92933000  0.66817000  0.63877000  1.0
  H  H72  1  0.00062000  0.54434000  0.14334000  1.0
  H  H73  1  0.98610000  0.35011000  0.04675000  1.0
  H  H74  1  0.18324000  0.35055000  0.86928000  1.0
  H  H75  1  0.15770000  0.23163000  0.85312000  1.0
  H  H76  1  0.14764000  0.28414000  0.01829000  1.0
  H  H77  1  0.29039000  0.36104000  0.02917000  1.0
  H  H78  1  0.85761000  0.85663000  0.40128000  1.0
  H  H79  1  0.93970000  0.95340000  0.30389000  1.0
  H  H80  1  0.31449000  0.13105000  0.48148000  1.0
  H  H81  1  0.30469000  0.14663000  0.37837000  1.0
  H  H82  1  0.12949000  0.98163000  0.26627000  1.0
  H  H83  1  0.26139000  0.97071000  0.33222000  1.0
  H  H84  1  0.27557000  0.60380000  0.32294000  1.0
  H  H85  1  0.67157000  0.71899000  0.39618000  1.0
  H  H86  1  0.95274000  0.67706000  0.28096000  1.0
  H  H87  1  0.54726000  0.71905000  0.32294000  1.0
  H  H88  1  0.22443000  0.67706000  0.39620000  1.0
  H  H89  1  0.82843000  0.60382000  0.28101000  1.0
  C  C90  1  0.73024000  0.08352000  0.52278000  1.0
  C  C91  1  0.56306000  0.11409000  0.51592000  1.0
  C  C92  1  0.55634000  0.07014000  0.42090000  1.0
  C  C93  1  0.63674000  0.88791000  0.29701000  1.0
  C  C94  1  0.49560000  0.84094000  0.26572000  1.0
  C  C95  1  0.68900000  0.99953000  0.33911000  1.0
  C  C96  1  0.64703000  0.43972000  0.91654000  1.0
  C  C97  1  0.44928000  0.40217000  0.88591000  1.0
  C  C98  1  0.48658000  0.35128000  0.93000000  1.0
  C  C99  1  0.74918000  0.40930000  0.11217000  1.0
  C  C100  1  0.65499000  0.42489000  0.15916000  1.0
  C  C101  1  0.68974000  0.34000000  0.00048000  1.0
  C  C102  1  0.20743000  0.47696000  0.56067000  1.0
  C  C103  1  0.04707000  0.48405000  0.59799000  1.0
  C  C104  1  0.13538000  0.57901000  0.64901000  1.0
  C  C105  1  0.33975000  0.70284000  0.59094000  1.0
  C  C106  1  0.23003000  0.73429000  0.57534000  1.0
  C  C107  1  0.34982000  0.66066000  0.66038000  1.0
  C  C108  1  0.29257000  0.43934000  0.52305000  1.0
  C  C109  1  0.45294000  0.40202000  0.51596000  1.0
  C  C110  1  0.36462000  0.35099000  0.42099000  1.0
  C  C111  1  0.16025000  0.40906000  0.29716000  1.0
  C  C112  1  0.26998000  0.42465000  0.26571000  1.0
  C  C113  1  0.15019000  0.33962000  0.33934000  1.0
  C  C114  1  0.76977000  0.47722000  0.91648000  1.0
  C  C115  1  0.93694000  0.48408000  0.88591000  1.0
  C  C116  1  0.94366000  0.57910000  0.92986000  1.0
  C  C117  1  0.86326000  0.70299000  0.11209000  1.0
  C  C118  1  0.00440000  0.73429000  0.15906000  1.0
  C  C119  1  0.81100000  0.66089000  0.00047000  1.0
  C  C120  1  0.85297000  0.08346000  0.56028000  1.0
  C  C121  1  0.05072000  0.11409000  0.59783000  1.0
  C  C122  1  0.01342000  0.06999000  0.64872000  1.0
  C  C123  1  0.75082000  0.88783000  0.59070000  1.0
  C  C124  1  0.84501000  0.84084000  0.57510000  1.0
  C  C125  1  0.81026000  0.99952000  0.66000000  1.0
  C  C126  1  0.26977000  0.91648000  0.47722000  1.0
  C  C127  1  0.43694000  0.88591000  0.48407000  1.0
  C  C128  1  0.44367000  0.92986000  0.57909000  1.0
  C  C129  1  0.36327000  0.11209000  0.70299000  1.0
  C  C130  1  0.50440000  0.15906000  0.73428000  1.0
  C  C131  1  0.31101000  0.00047000  0.66089000  1.0
  C  C132  1  0.35296000  0.56028000  0.08346000  1.0
  C  C133  1  0.55071000  0.59782000  0.11409000  1.0
  C  C134  1  0.51342000  0.64872000  0.06999000  1.0
  C  C135  1  0.25082000  0.59070000  0.88784000  1.0
  C  C136  1  0.34501000  0.57510000  0.84084000  1.0
  C  C137  1  0.31026000  0.66001000  0.99953000  1.0
  C  C138  1  0.79257000  0.52305000  0.43934000  1.0
  C  C139  1  0.95292000  0.51595000  0.40201000  1.0
  C  C140  1  0.86461000  0.42098000  0.35099000  1.0
  C  C141  1  0.66025000  0.29715000  0.40906000  1.0
  C  C142  1  0.76997000  0.26570000  0.42466000  1.0
  C  C143  1  0.65018000  0.33934000  0.33962000  1.0
  C  C144  1  0.70743000  0.56067000  0.47696000  1.0
  C  C145  1  0.54707000  0.59799000  0.48405000  1.0
  C  C146  1  0.63538000  0.64901000  0.57902000  1.0
  C  C147  1  0.83975000  0.59094000  0.70284000  1.0
  C  C148  1  0.73003000  0.57535000  0.73430000  1.0
  C  C149  1  0.84982000  0.66038000  0.66066000  1.0
  C  C150  1  0.23023000  0.52278000  0.08352000  1.0
  C  C151  1  0.06305000  0.51592000  0.11409000  1.0
  C  C152  1  0.05634000  0.42090000  0.07014000  1.0
  C  C153  1  0.13674000  0.29701000  0.88791000  1.0
  C  C154  1  0.99561000  0.26572000  0.84094000  1.0
  C  C155  1  0.18900000  0.33911000  0.99953000  1.0
  C  C156  1  0.14704000  0.91654000  0.43972000  1.0
  C  C157  1  0.94928000  0.88591000  0.40217000  1.0
  C  C158  1  0.98658000  0.93000000  0.35128000  1.0
  C  C159  1  0.24918000  0.11217000  0.40930000  1.0
  C  C160  1  0.15499000  0.15916000  0.42489000  1.0
  C  C161  1  0.18974000  0.00048000  0.34000000  1.0
  N  N162  1  0.67095000  0.12198000  0.57883000  1.0
  N  N163  1  0.66237000  0.05090000  0.42560000  1.0
  N  N164  1  0.54925000  0.45717000  0.87796000  1.0
  N  N165  1  0.61186000  0.37529000  0.94931000  1.0
  N  N166  1  0.09207000  0.42101000  0.54306000  1.0
  N  N167  1  0.23673000  0.57418000  0.62516000  1.0
  N  N168  1  0.40793000  0.45694000  0.57899000  1.0
  N  N169  1  0.26327000  0.37485000  0.42583000  1.0
  N  N170  1  0.82905000  0.42116000  0.87802000  1.0
  N  N171  1  0.83763000  0.57440000  0.94910000  1.0
  N  N172  1  0.95075000  0.12203000  0.54283000  1.0
  N  N173  1  0.88814000  0.05068000  0.62470000  1.0
  N  N174  1  0.32906000  0.87802000  0.42116000  1.0
  N  N175  1  0.33764000  0.94910000  0.57440000  1.0
  N  N176  1  0.45074000  0.54283000  0.12203000  1.0
  N  N177  1  0.38814000  0.62470000  0.05069000  1.0
  N  N178  1  0.90793000  0.57899000  0.45694000  1.0
  N  N179  1  0.76327000  0.42582000  0.37485000  1.0
  N  N180  1  0.59207000  0.54306000  0.42101000  1.0
  N  N181  1  0.73673000  0.62515000  0.57418000  1.0
  N  N182  1  0.17094000  0.57884000  0.12198000  1.0
  N  N183  1  0.16237000  0.42560000  0.05090000  1.0
  N  N184  1  0.04926000  0.87797000  0.45717000  1.0
  N  N185  1  0.11186000  0.94931000  0.37530000  1.0
  O  O186  1  0.42369000  0.87155000  0.22742000  1.0
  O  O187  1  0.45672000  0.76951000  0.28243000  1.0
  O  O188  1  0.55262000  0.35585000  0.12860000  1.0
  O  O189  1  0.68725000  0.51309000  0.23046000  1.0
  O  O190  1  0.19666000  0.77295000  0.64436000  1.0
  O  O191  1  0.17421000  0.71730000  0.48711000  1.0
  O  O192  1  0.30333000  0.35564000  0.22705000  1.0
  O  O193  1  0.32579000  0.51289000  0.28270000  1.0
  O  O194  1  0.07631000  0.77258000  0.12846000  1.0
  O  O195  1  0.04328000  0.71758000  0.23050000  1.0
  O  O196  1  0.94738000  0.87140000  0.64415000  1.0
  O  O197  1  0.81275000  0.76954000  0.48691000  1.0
  O  O198  1  0.74999000  0.33940000  0.66060000  1.0
  O  O199  1  0.41103000  0.32130000  0.66031000  1.0
  O  O200  1  0.08896000  0.33970000  0.67870000  1.0
  O  O201  1  0.57631000  0.12845000  0.77257000  1.0
  O  O202  1  0.54328000  0.23050000  0.71758000  1.0
  O  O203  1  0.44738000  0.64415000  0.87140000  1.0
  O  O204  1  0.31275000  0.48691000  0.76954000  1.0
  O  O205  1  0.80332000  0.22704000  0.35564000  1.0
  O  O206  1  0.82579000  0.28270000  0.51289000  1.0
  O  O207  1  0.69667000  0.64436000  0.77295000  1.0
  O  O208  1  0.67421000  0.48711000  0.71730000  1.0
  O  O209  1  0.92369000  0.22743000  0.87155000  1.0
  O  O210  1  0.95672000  0.28243000  0.76950000  1.0
  O  O211  1  0.05262000  0.12859000  0.35585000  1.0
  O  O212  1  0.18725000  0.23046000  0.51309000  1.0
  O  O213  1  0.25000000  0.66060000  0.33940000  1.0
  O  O214  1  0.58896000  0.67870000  0.33969000  1.0
  O  O215  1  0.91104000  0.66031000  0.32131000  1.0
