# generated using pymatgen
data_ZnH22C36(NO3)2
_symmetry_space_group_name_H-M   'P 1'
_cell_length_a   12.43030000
_cell_length_b   13.19670000
_cell_length_c   27.32750000
_cell_angle_alpha   88.03590000
_cell_angle_beta   79.99530000
_cell_angle_gamma   81.29890000
_symmetry_Int_Tables_number   1
_chemical_formula_structural   ZnH22C36(NO3)2
_chemical_formula_sum   'Zn2 H44 C72 N4 O12'
_cell_volume   4363.65201132
_cell_formula_units_Z   2
loop_
 _symmetry_equiv_pos_site_id
 _symmetry_equiv_pos_as_xyz
  1  'x, y, z'
loop_
 _atom_site_type_symbol
 _atom_site_label
 _atom_site_symmetry_multiplicity
 _atom_site_fract_x
 _atom_site_fract_y
 _atom_site_fract_z
 _atom_site_occupancy
  Zn  Zn0  1  0.89448000  0.47735000  0.48707000  1.0
  Zn  Zn1  1  0.09903000  0.52245000  0.51411000  1.0
  H  H2  1  0.69424000  0.50495000  0.63585000  1.0
  H  H3  1  0.11608000  0.73724000  0.45733000  1.0
  H  H4  1  0.64224000  0.28935000  0.39889000  1.0
  H  H5  1  0.67130000  0.54511000  0.52019000  1.0
  H  H6  1  0.52569000  0.76294000  0.86712000  1.0
  H  H7  1  0.52643000  0.63075000  0.55649000  1.0
  H  H8  1  0.34653000  0.72069000  0.59840000  1.0
  H  H9  1  0.26850000  0.43759000  0.45303000  1.0
  H  H10  1  0.15942000  0.66270000  0.35692000  1.0
  H  H11  1  0.25375000  0.67103000  0.26872000  1.0
  H  H12  1  0.29389000  0.71549000  0.01339000  1.0
  H  H13  1  0.93832000  0.51203000  0.76151000  1.0
  H  H14  1  0.01781000  0.50302000  0.67065000  1.0
  H  H15  1  0.69119000  0.33520000  0.06405000  1.0
  H  H16  1  0.19519000  0.24783000  0.32508000  1.0
  H  H17  1  0.14977000  0.30044000  0.38564000  1.0
  H  H18  1  0.05504000  0.30210000  0.34460000  1.0
  H  H19  1  0.26636000  0.26275000  0.53750000  1.0
  H  H20  1  0.35593000  0.14360000  0.53563000  1.0
  H  H21  1  0.35729000  0.22452000  0.48245000  1.0
  H  H22  1  0.36874000  0.92437000  0.50833000  1.0
  H  H23  1  0.38128000  0.94493000  0.44347000  1.0
  H  H24  1  0.79659000  0.29437000  0.90064000  1.0
  H  H25  1  0.41740000  0.03637000  0.48092000  1.0
  H  H26  1  0.61386000  0.51280000  0.72676000  1.0
  H  H27  1  0.72037000  0.80183000  0.48815000  1.0
  H  H28  1  0.82065000  0.09906000  0.49191000  1.0
  H  H29  1  0.92154000  0.30694000  0.42999000  1.0
  H  H30  1  0.84082000  0.21421000  0.41623000  1.0
  H  H31  1  0.86844000  0.31509000  0.37362000  1.0
  H  H32  1  0.43889000  0.34154000  0.40804000  1.0
  H  H33  1  0.15522000  0.74224000  0.61548000  1.0
  H  H34  1  0.09367000  0.73190000  0.56168000  1.0
  H  H35  1  0.59993000  0.33939000  0.15243000  1.0
  H  H36  1  0.09123000  0.63301000  0.60628000  1.0
  H  H37  1  0.19383000  0.69921000  0.09896000  1.0
  H  H38  1  0.45455000  0.86532000  0.93588000  1.0
  H  H39  1  0.33213000  0.81092000  0.95321000  1.0
  H  H40  1  0.41899000  0.81863000  0.99762000  1.0
  H  H41  1  0.24349000  0.34942000  0.25413000  1.0
  H  H42  1  0.71984000  0.30231000  0.99087000  1.0
  H  H43  1  0.26373000  0.83795000  0.45816000  1.0
  H  H44  1  0.94009000  0.17876000  0.49634000  1.0
  H  H45  1  0.67412000  0.99358000  0.49160000  1.0
  C  C46  1  0.91686000  0.68902000  0.48887000  1.0
  C  C47  1  0.43574000  0.60459000  0.02257000  1.0
  C  C48  1  0.57255000  0.45491000  0.03992000  1.0
  C  C49  1  0.90905000  0.50177000  0.59365000  1.0
  C  C50  1  0.47752000  0.52860000  0.05594000  1.0
  C  C51  1  0.33248000  0.66308000  0.03890000  1.0
  C  C52  1  0.27456000  0.65388000  0.08714000  1.0
  C  C53  1  0.31920000  0.58742000  0.12128000  1.0
  C  C54  1  0.42138000  0.52411000  0.10610000  1.0
  C  C55  1  0.46689000  0.45509000  0.14050000  1.0
  C  C56  1  0.41228000  0.45161000  0.19302000  1.0
  C  C57  1  0.70226000  0.51083000  0.71413000  1.0
  C  C58  1  0.25690000  0.58085000  0.17229000  1.0
  C  C59  1  0.22975000  0.59944000  0.28479000  1.0
  C  C60  1  0.17647000  0.59464000  0.33373000  1.0
  C  C61  1  0.06943000  0.30649000  0.50483000  1.0
  C  C62  1  0.16780000  0.41261000  0.32575000  1.0
  C  C63  1  0.22232000  0.41856000  0.27662000  1.0
  C  C64  1  0.25217000  0.51062000  0.25634000  1.0
  C  C65  1  0.49949000  0.61471000  0.97266000  1.0
  C  C66  1  0.58210000  0.52991000  0.95463000  1.0
  C  C67  1  0.61761000  0.44887000  0.98693000  1.0
  C  C68  1  0.77183000  0.51339000  0.74886000  1.0
  C  C69  1  0.48468000  0.70197000  0.94159000  1.0
  C  C70  1  0.73832000  0.36020000  0.91618000  1.0
  C  C71  1  0.61597000  0.38895000  0.07524000  1.0
  C  C72  1  0.56514000  0.39021000  0.12503000  1.0
  C  C73  1  0.08677000  0.50418000  0.40728000  1.0
  C  C74  1  0.69443000  0.36562000  0.96678000  1.0
  C  C75  1  0.24070000  0.03874000  0.48582000  1.0
  C  C76  1  0.10543000  0.19273000  0.49991000  1.0
  C  C77  1  0.78533000  0.84979000  0.48543000  1.0
  C  C78  1  0.75997000  0.95709000  0.48781000  1.0
  C  C79  1  0.63239000  0.52616000  0.90348000  1.0
  C  C80  1  0.84298000  0.01642000  0.48751000  1.0
  C  C81  1  0.95518000  0.97150000  0.48233000  1.0
  C  C82  1  0.98150000  0.86302000  0.47695000  1.0
  C  C83  1  0.04374000  0.03106000  0.48435000  1.0
  C  C84  1  0.15564000  0.98224000  0.47852000  1.0
  C  C85  1  0.65517000  0.60864000  0.81843000  1.0
  C  C86  1  0.17841000  0.87549000  0.46654000  1.0
  C  C87  1  0.09558000  0.81842000  0.46617000  1.0
  C  C88  1  0.02301000  0.13661000  0.49333000  1.0
  C  C89  1  0.21572000  0.14235000  0.49920000  1.0
  C  C90  1  0.60660000  0.61011000  0.87187000  1.0
  C  C91  1  0.89405000  0.80273000  0.48159000  1.0
  C  C92  1  0.64541000  0.34685000  0.42615000  1.0
  C  C93  1  0.24961000  0.63676000  0.56070000  1.0
  C  C94  1  0.34989000  0.66190000  0.57093000  1.0
  C  C95  1  0.44993000  0.61187000  0.54728000  1.0
  C  C96  1  0.45216000  0.53700000  0.51145000  1.0
  C  C97  1  0.75658000  0.43308000  0.83104000  1.0
  C  C98  1  0.34867000  0.51807000  0.50090000  1.0
  C  C99  1  0.55292000  0.47884000  0.48535000  1.0
  C  C100  1  0.54708000  0.40577000  0.44911000  1.0
  C  C101  1  0.53824000  0.69683000  0.89169000  1.0
  C  C102  1  0.44223000  0.39440000  0.43740000  1.0
  C  C103  1  0.34731000  0.44786000  0.46229000  1.0
  C  C104  1  0.65888000  0.48967000  0.49376000  1.0
  C  C105  1  0.74658000  0.36040000  0.43754000  1.0
  C  C106  1  0.88528000  0.51091000  0.73379000  1.0
  C  C107  1  0.92935000  0.50607000  0.68339000  1.0
  C  C108  1  0.74679000  0.50678000  0.66372000  1.0
  C  C109  1  0.14089000  0.31040000  0.34643000  1.0
  C  C110  1  0.30330000  0.19608000  0.51458000  1.0
  C  C111  1  0.35792000  0.98378000  0.47955000  1.0
  C  C112  1  0.70862000  0.44010000  0.88446000  1.0
  C  C113  1  0.85053000  0.29573000  0.41337000  1.0
  C  C114  1  0.14198000  0.68929000  0.58785000  1.0
  C  C115  1  0.41892000  0.80410000  0.95834000  1.0
  C  C116  1  0.86055000  0.50463000  0.64796000  1.0
  C  C117  1  0.14385000  0.50289000  0.35420000  1.0
  N  N118  1  0.72594000  0.51836000  0.80108000  1.0
  N  N119  1  0.30866000  0.51401000  0.20564000  1.0
  N  N120  1  0.75168000  0.43386000  0.47078000  1.0
  N  N121  1  0.24988000  0.56584000  0.52642000  1.0
  O  O122  1  0.85882000  0.63196000  0.47147000  1.0
  O  O123  1  0.00120000  0.46067000  0.41842000  1.0
  O  O124  1  0.12992000  0.54993000  0.43767000  1.0
  O  O125  1  0.63578000  0.68100000  0.79011000  1.0
  O  O126  1  0.16481000  0.63035000  0.18551000  1.0
  O  O127  1  0.81925000  0.35744000  0.81291000  1.0
  O  O128  1  0.45375000  0.39743000  0.22445000  1.0
  O  O129  1  0.99177000  0.65818000  0.51464000  1.0
  O  O130  1  0.84258000  0.50808000  0.56279000  1.0
  O  O131  1  0.01433000  0.49373000  0.58299000  1.0
  O  O132  1  0.96611000  0.33735000  0.50895000  1.0
  O  O133  1  0.14211000  0.36629000  0.50213000  1.0
