# generated using pymatgen
data_AgH8C12SN2O4F3
_symmetry_space_group_name_H-M   'P 1'
_cell_length_a   8.99269000
_cell_length_b   9.16279000
_cell_length_c   10.10630000
_cell_angle_alpha   89.78740000
_cell_angle_beta   72.13510000
_cell_angle_gamma   64.60030000
_symmetry_Int_Tables_number   1
_chemical_formula_structural   AgH8C12SN2O4F3
_chemical_formula_sum   'Ag2 H16 C24 S2 N4 O8 F6'
_cell_volume   708.01109486
_cell_formula_units_Z   2
loop_
 _symmetry_equiv_pos_site_id
 _symmetry_equiv_pos_as_xyz
  1  'x, y, z'
loop_
 _atom_site_type_symbol
 _atom_site_label
 _atom_site_symmetry_multiplicity
 _atom_site_fract_x
 _atom_site_fract_y
 _atom_site_fract_z
 _atom_site_occupancy
  Ag  Ag0  1  0.40455000  0.44587000  0.28897000  1.0
  Ag  Ag1  1  0.59545000  0.55413000  0.71103000  1.0
  H  H2  1  0.14095000  0.36355000  0.49742000  1.0
  H  H3  1  0.85905000  0.63645000  0.50258000  1.0
  H  H4  1  0.09450000  0.12612000  0.58532000  1.0
  H  H5  1  0.90550000  0.87388000  0.41468000  1.0
  H  H6  1  0.33113000  0.84167000  0.47861000  1.0
  H  H7  1  0.66887000  0.15833000  0.52139000  1.0
  H  H8  1  0.59944000  0.81071000  0.28367000  1.0
  H  H9  1  0.40056000  0.18929000  0.71633000  1.0
  H  H10  1  0.36783000  0.39153000  0.88322000  1.0
  H  H11  1  0.63217000  0.60846000  0.11678000  1.0
  H  H12  1  0.37561000  0.21371000  0.07162000  1.0
  H  H13  1  0.62439000  0.78628000  0.92838000  1.0
  H  H14  1  0.90914000  0.12766000  0.99609000  1.0
  H  H15  1  0.09086000  0.87234000  0.00391000  1.0
  H  H16  1  0.87724000  0.31109000  0.81571000  1.0
  H  H17  1  0.12277000  0.68892000  0.18429000  1.0
  C  C18  1  0.23755000  0.23898000  0.45060000  1.0
  C  C19  1  0.76245000  0.76102000  0.54940000  1.0
  C  C20  1  0.21342000  0.10577000  0.50024000  1.0
  C  C21  1  0.78658000  0.89423000  0.49976000  1.0
  C  C22  1  0.34359000  0.94846000  0.44027000  1.0
  C  C23  1  0.65640000  0.05154000  0.55973000  1.0
  C  C24  1  0.49220000  0.93076000  0.33124000  1.0
  C  C25  1  0.50780000  0.06924000  0.66876000  1.0
  C  C26  1  0.50372000  0.06948000  0.28245000  1.0
  C  C27  1  0.49628000  0.93052000  0.71756000  1.0
  C  C28  1  0.66109000  0.04442000  0.15926000  1.0
  C  C29  1  0.33891000  0.95558000  0.84074000  1.0
  C  C30  1  0.48439000  0.33105000  0.91240000  1.0
  C  C31  1  0.51561000  0.66895000  0.08760000  1.0
  C  C32  1  0.48968000  0.23229000  0.01761000  1.0
  C  C33  1  0.51032000  0.76771000  0.98239000  1.0
  C  C34  1  0.64296000  0.15793000  0.05161000  1.0
  C  C35  1  0.35704000  0.84207000  0.94839000  1.0
  C  C36  1  0.78641000  0.18316000  0.97535000  1.0
  C  C37  1  0.21359000  0.81684000  0.02465000  1.0
  C  C38  1  0.76933000  0.28548000  0.87363000  1.0
  C  C39  1  0.23067000  0.71452000  0.12637000  1.0
  C  C40  1  0.02899000  0.63368000  0.78873000  1.0
  C  C41  1  0.97101000  0.36633000  0.21127000  1.0
  S  S42  1  0.22989000  0.61038000  0.64479000  1.0
  S  S43  1  0.77012000  0.38962000  0.35521000  1.0
  N  N44  1  0.37852000  0.22251000  0.34262000  1.0
  N  N45  1  0.62148000  0.77749000  0.65738000  1.0
  N  N46  1  0.62047000  0.36014000  0.84282000  1.0
  N  N47  1  0.37953000  0.63986000  0.15718000  1.0
  O  O48  1  0.80253000  0.92517000  0.14214000  1.0
  O  O49  1  0.19747000  0.07482000  0.85786000  1.0
  O  O50  1  0.17428000  0.63471000  0.52131000  1.0
  O  O51  1  0.82572000  0.36529000  0.47869000  1.0
  O  O52  1  0.26371000  0.73955000  0.69251000  1.0
  O  O53  1  0.73628000  0.26045000  0.30749000  1.0
  O  O54  1  0.35842000  0.44466000  0.64425000  1.0
  O  O55  1  0.64158000  0.55534000  0.35575000  1.0
  F  F56  1  0.06049000  0.60316000  0.91147000  1.0
  F  F57  1  0.93951000  0.39684000  0.08853000  1.0
  F  F58  1  0.89696000  0.78747000  0.81076000  1.0
  F  F59  1  0.10304000  0.21253000  0.18924000  1.0
  F  F60  1  0.97084000  0.52742000  0.75711000  1.0
  F  F61  1  0.02915000  0.47259000  0.24289000  1.0
