# generated using pymatgen
data_AlH7C12SNO5
_symmetry_space_group_name_H-M   'P 1'
_cell_length_a   6.65886000
_cell_length_b   12.74107535
_cell_length_c   17.61931540
_cell_angle_alpha   83.43814188
_cell_angle_beta   79.20125949
_cell_angle_gamma   75.29914622
_symmetry_Int_Tables_number   1
_chemical_formula_structural   AlH7C12SNO5
_chemical_formula_sum   'Al2 H14 C24 S2 N2 O10'
_cell_volume   1416.79372984
_cell_formula_units_Z   2
loop_
 _symmetry_equiv_pos_site_id
 _symmetry_equiv_pos_as_xyz
  1  'x, y, z'
loop_
 _atom_site_type_symbol
 _atom_site_label
 _atom_site_symmetry_multiplicity
 _atom_site_fract_x
 _atom_site_fract_y
 _atom_site_fract_z
 _atom_site_occupancy
  Al  Al0  1  0.51813000  0.47583000  0.50083000  1.0
  Al  Al1  1  0.01877000  0.47588000  0.49976000  1.0
  H  H2  1  0.23549000  0.60103000  0.44641000  1.0
  H  H3  1  0.75554000  0.41295000  0.59348000  1.0
  H  H4  1  0.40814000  0.58075000  0.72363000  1.0
  H  H5  1  0.31340000  0.61293000  0.86466000  1.0
  H  H6  1  0.84494000  0.46915000  0.73590000  1.0
  H  H7  1  0.19330000  0.45482000  0.26285000  1.0
  H  H8  1  0.52145000  0.54180000  0.27423000  1.0
  H  H9  1  0.56805000  0.58610000  0.13064000  1.0
  H  H10  1  0.73888000  0.12731000  0.52335000  1.0
  H  H11  1  0.29648000  0.82860000  0.47592000  1.0
  H  H12  1  0.69616000  0.49088000  0.94512000  1.0
  H  H13  1  0.63157000  0.45131000  0.86429000  1.0
  H  H14  1  0.29663000  0.48372000  0.05076000  1.0
  H  H15  1  0.40876000  0.43913000  0.13255000  1.0
  C  C16  1  0.67862000  0.67387000  0.49838000  1.0
  C  C17  1  0.82734000  0.47629000  0.36171000  1.0
  C  C18  1  0.35700000  0.28142000  0.50051000  1.0
  C  C19  1  0.19390000  0.49573000  0.63938000  1.0
  C  C20  1  0.13341000  0.52056000  0.72249000  1.0
  C  C21  1  0.26568000  0.56265000  0.75807000  1.0
  C  C22  1  0.21204000  0.58067000  0.83627000  1.0
  C  C23  1  0.02902000  0.55555000  0.88109000  1.0
  C  C24  1  0.89070000  0.51682000  0.84425000  1.0
  C  C25  1  0.94629000  0.50033000  0.76498000  1.0
  C  C26  1  0.98469000  0.56099000  0.96234000  1.0
  C  C27  1  0.93767000  0.55509000  0.03316000  1.0
  C  C28  1  0.90730000  0.53898000  0.11474000  1.0
  C  C29  1  0.08809000  0.50091000  0.15197000  1.0
  C  C30  1  0.05803000  0.48164000  0.23279000  1.0
  C  C31  1  0.85585000  0.49511000  0.27577000  1.0
  C  C32  1  0.67754000  0.53103000  0.23921000  1.0
  C  C33  1  0.70439000  0.55486000  0.15970000  1.0
  C  C34  1  0.61136000  0.09550000  0.51196000  1.0
  C  C35  1  0.42442000  0.85989000  0.48743000  1.0
  C  C36  1  0.41956000  0.16239000  0.49957000  1.0
  C  C37  1  0.61596000  0.79276000  0.49975000  1.0
  C  C38  1  0.42238000  0.97000000  0.49180000  1.0
  C  C39  1  0.61332000  0.98535000  0.50760000  1.0
  S  S40  1  0.24143000  0.09239000  0.48237000  1.0
  S  S41  1  0.79414000  0.86281000  0.51692000  1.0
  N  N42  1  0.70647000  0.49744000  0.88665000  1.0
  N  N43  1  0.28678000  0.48688000  0.10866000  1.0
  O  O44  1  0.53909000  0.62671000  0.48807000  1.0
  O  O45  1  0.97731000  0.48355000  0.39481000  1.0
  O  O46  1  0.16928000  0.32752000  0.49024000  1.0
  O  O47  1  0.38030000  0.49934000  0.60666000  1.0
  O  O48  1  0.49421000  0.32870000  0.51243000  1.0
  O  O49  1  0.05697000  0.47118000  0.60705000  1.0
  O  O50  1  0.86837000  0.62811000  0.50686000  1.0
  O  O51  1  0.65271000  0.45754000  0.39614000  1.0
  O  O52  1  0.26159000  0.52536000  0.46582000  1.0
  O  O53  1  0.77214000  0.43113000  0.53809000  1.0
