# generated using pymatgen
data_Ca2H20C14N2O15
_symmetry_space_group_name_H-M   'P 1'
_cell_length_a   7.57357000
_cell_length_b   10.60620000
_cell_length_c   13.15850000
_cell_angle_alpha   86.26710000
_cell_angle_beta   89.99980000
_cell_angle_gamma   89.99990000
_symmetry_Int_Tables_number   1
_chemical_formula_structural   Ca2H20C14N2O15
_chemical_formula_sum   'Ca4 H40 C28 N4 O30'
_cell_volume   1054.73768246
_cell_formula_units_Z   2
loop_
 _symmetry_equiv_pos_site_id
 _symmetry_equiv_pos_as_xyz
  1  'x, y, z'
loop_
 _atom_site_type_symbol
 _atom_site_label
 _atom_site_symmetry_multiplicity
 _atom_site_fract_x
 _atom_site_fract_y
 _atom_site_fract_z
 _atom_site_occupancy
  Ca  Ca0  1  0.12548000  0.92231000  0.13056000  1.0
  Ca  Ca1  1  0.12554000  0.07768000  0.36942000  1.0
  Ca  Ca2  1  0.87444000  0.07768000  0.86942000  1.0
  Ca  Ca3  1  0.87450000  0.92231000  0.63056000  1.0
  H  H4  1  0.41201000  0.48086000  0.89204000  1.0
  H  H5  1  0.41201000  0.51913000  0.60796000  1.0
  H  H6  1  0.58799000  0.51913000  0.10796000  1.0
  H  H7  1  0.58799000  0.48087000  0.39204000  1.0
  H  H8  1  0.16176000  0.32836000  0.88304000  1.0
  H  H9  1  0.16176000  0.67164000  0.61696000  1.0
  H  H10  1  0.83824000  0.67164000  0.11696000  1.0
  H  H11  1  0.83824000  0.32836000  0.38304000  1.0
  H  H12  1  0.79260000  0.61805000  0.86684000  1.0
  H  H13  1  0.79260000  0.38196000  0.63316000  1.0
  H  H14  1  0.20741000  0.38196000  0.13316000  1.0
  H  H15  1  0.20741000  0.61805000  0.36684000  1.0
  H  H16  1  0.38611000  0.14671000  0.04284000  1.0
  H  H17  1  0.38607000  0.85333000  0.45710000  1.0
  H  H18  1  0.61394000  0.85333000  0.95709000  1.0
  H  H19  1  0.61390000  0.14670000  0.54285000  1.0
  H  H20  1  0.45031000  0.00831000  0.05896000  1.0
  H  H21  1  0.45044000  0.99173000  0.44139000  1.0
  H  H22  1  0.54954000  0.99174000  0.94144000  1.0
  H  H23  1  0.54967000  0.00830000  0.55890000  1.0
  H  H24  1  0.19439000  0.64960000  0.12874000  1.0
  H  H25  1  0.19439000  0.35040000  0.37125000  1.0
  H  H26  1  0.80561000  0.35041000  0.87125000  1.0
  H  H27  1  0.80561000  0.64959000  0.62874000  1.0
  H  H28  1  0.36390000  0.71220000  0.07402000  1.0
  H  H29  1  0.36391000  0.28780000  0.42596000  1.0
  H  H30  1  0.63609000  0.28781000  0.92596000  1.0
  H  H31  1  0.63610000  0.71220000  0.57403000  1.0
  H  H32  1  0.45439000  0.06878000  0.22237000  1.0
  H  H33  1  0.45438000  0.93122000  0.27763000  1.0
  H  H34  1  0.54563000  0.93122000  0.77764000  1.0
  H  H35  1  0.54562000  0.06878000  0.72237000  1.0
  H  H36  1  0.75060000  0.85537000  0.20951000  1.0
  H  H37  1  0.75063000  0.14463000  0.29046000  1.0
  H  H38  1  0.24937000  0.14463000  0.79046000  1.0
  H  H39  1  0.24940000  0.85537000  0.70951000  1.0
  H  H40  1  0.74722000  0.90970000  0.09259000  1.0
  H  H41  1  0.74723000  0.09024000  0.40736000  1.0
  H  H42  1  0.25276000  0.09022000  0.90735000  1.0
  H  H43  1  0.25277000  0.90972000  0.59259000  1.0
  C  C44  1  0.93145000  0.59039000  0.87218000  1.0
  C  C45  1  0.93144000  0.40961000  0.62783000  1.0
  C  C46  1  0.06856000  0.40961000  0.12782000  1.0
  C  C47  1  0.06855000  0.59039000  0.37218000  1.0
  C  C48  1  0.06251000  0.68246000  0.87782000  1.0
  C  C49  1  0.06251000  0.31754000  0.62218000  1.0
  C  C50  1  0.93749000  0.31754000  0.12218000  1.0
  C  C51  1  0.93749000  0.68246000  0.37782000  1.0
  C  C52  1  0.23958000  0.64401000  0.88400000  1.0
  C  C53  1  0.23958000  0.35599000  0.61599000  1.0
  C  C54  1  0.76043000  0.35599000  0.11599000  1.0
  C  C55  1  0.76042000  0.64401000  0.38401000  1.0
  C  C56  1  0.27647000  0.51502000  0.88656000  1.0
  C  C57  1  0.27647000  0.48498000  0.61344000  1.0
  C  C58  1  0.72353000  0.48498000  0.11344000  1.0
  C  C59  1  0.72353000  0.51502000  0.38656000  1.0
  C  C60  1  0.13712000  0.42987000  0.88170000  1.0
  C  C61  1  0.13712000  0.57013000  0.61830000  1.0
  C  C62  1  0.86288000  0.57013000  0.11830000  1.0
  C  C63  1  0.86288000  0.42987000  0.38170000  1.0
  C  C64  1  0.01156000  0.81849000  0.88114000  1.0
  C  C65  1  0.01155000  0.18151000  0.61884000  1.0
  C  C66  1  0.98846000  0.18151000  0.11884000  1.0
  C  C67  1  0.98844000  0.81849000  0.38114000  1.0
  C  C68  1  0.38628000  0.73979000  0.88350000  1.0
  C  C69  1  0.38628000  0.26021000  0.61649000  1.0
  C  C70  1  0.61373000  0.26021000  0.11648000  1.0
  C  C71  1  0.61372000  0.73979000  0.38351000  1.0
  N  N72  1  0.96723000  0.46639000  0.87434000  1.0
  N  N73  1  0.96723000  0.53361000  0.62566000  1.0
  N  N74  1  0.03277000  0.53361000  0.12566000  1.0
  N  N75  1  0.03278000  0.46639000  0.37434000  1.0
  O  O76  1  0.50306000  0.72565000  0.95327000  1.0
  O  O77  1  0.50306000  0.27436000  0.54672000  1.0
  O  O78  1  0.49694000  0.27436000  0.04672000  1.0
  O  O79  1  0.49694000  0.72565000  0.45327000  1.0
  O  O80  1  0.38350000  0.82832000  0.81385000  1.0
  O  O81  1  0.38350000  0.17168000  0.68613000  1.0
  O  O82  1  0.61650000  0.17168000  0.18613000  1.0
  O  O83  1  0.61650000  0.82832000  0.31386000  1.0
  O  O84  1  0.05290000  0.87797000  0.95817000  1.0
  O  O85  1  0.05288000  0.12204000  0.54181000  1.0
  O  O86  1  0.94712000  0.12204000  0.04181000  1.0
  O  O87  1  0.94712000  0.87797000  0.45817000  1.0
  O  O88  1  0.92355000  0.86846000  0.80666000  1.0
  O  O89  1  0.92353000  0.13153000  0.69332000  1.0
  O  O90  1  0.07647000  0.13154000  0.19333000  1.0
  O  O91  1  0.07645000  0.86846000  0.30665000  1.0
  O  O92  1  0.34795000  0.05582000  0.03189000  1.0
  O  O93  1  0.34784000  0.94418000  0.46809000  1.0
  O  O94  1  0.65217000  0.94418000  0.96809000  1.0
  O  O95  1  0.65206000  0.05583000  0.53189000  1.0
  O  O96  1  0.37442000  0.99998000  0.24996000  1.0
  O  O97  1  0.62559000  0.99998000  0.74996000  1.0
  O  O98  1  0.27939000  0.72352000  0.12963000  1.0
  O  O99  1  0.27940000  0.27649000  0.37036000  1.0
  O  O100  1  0.72060000  0.27649000  0.87035000  1.0
  O  O101  1  0.72061000  0.72351000  0.62964000  1.0
  O  O102  1  0.82285000  0.87095000  0.14683000  1.0
  O  O103  1  0.82287000  0.12905000  0.35315000  1.0
  O  O104  1  0.17712000  0.12905000  0.85315000  1.0
  O  O105  1  0.17714000  0.87096000  0.64683000  1.0
