# generated using pymatgen
data_RbH2C6(NO3)3
_symmetry_space_group_name_H-M   'P 1'
_cell_length_a   9.47262000
_cell_length_b   9.82755000
_cell_length_c   11.77655233
_cell_angle_alpha   85.93795043
_cell_angle_beta   66.29230374
_cell_angle_gamma   79.87400000
_symmetry_Int_Tables_number   1
_chemical_formula_structural   RbH2C6(NO3)3
_chemical_formula_sum   'Rb4 H8 C24 N12 O36'
_cell_volume   988.15567842
_cell_formula_units_Z   4
loop_
 _symmetry_equiv_pos_site_id
 _symmetry_equiv_pos_as_xyz
  1  'x, y, z'
loop_
 _atom_site_type_symbol
 _atom_site_label
 _atom_site_symmetry_multiplicity
 _atom_site_fract_x
 _atom_site_fract_y
 _atom_site_fract_z
 _atom_site_occupancy
  Rb  Rb0  1  0.21511000  0.23875000  0.10046000  1.0
  Rb  Rb1  1  0.68450000  0.26120000  0.10029000  1.0
  Rb  Rb2  1  0.78490000  0.76126000  0.89953000  1.0
  Rb  Rb3  1  0.31550000  0.73879000  0.89971000  1.0
  H  H4  1  0.98752000  0.03640000  0.61464000  1.0
  H  H5  1  0.39779000  0.46376000  0.61484000  1.0
  H  H6  1  0.01248000  0.96360000  0.38536000  1.0
  H  H7  1  0.60221000  0.53624000  0.38516000  1.0
  H  H8  1  0.91309000  0.41059000  0.44076000  1.0
  H  H9  1  0.64649000  0.08918000  0.44081000  1.0
  H  H10  1  0.08691000  0.58941000  0.55924000  1.0
  H  H11  1  0.35351000  0.91082000  0.55919000  1.0
  C  C12  1  0.09203000  0.25002000  0.81598000  1.0
  C  C13  1  0.90797000  0.74998000  0.18402000  1.0
  C  C14  1  0.04902000  0.16261000  0.74194000  1.0
  C  C15  1  0.20913000  0.33745000  0.74202000  1.0
  C  C16  1  0.95098000  0.83739000  0.25806000  1.0
  C  C17  1  0.79087000  0.66255000  0.25798000  1.0
  C  C18  1  0.11098000  0.16785000  0.60924000  1.0
  C  C19  1  0.27988000  0.33229000  0.60930000  1.0
  C  C20  1  0.88902000  0.83215000  0.39076000  1.0
  C  C21  1  0.72012000  0.66771000  0.39070000  1.0
  C  C22  1  0.22744000  0.25004000  0.54538000  1.0
  C  C23  1  0.77257000  0.74996000  0.45462000  1.0
  C  C24  1  0.60273000  0.24999000  0.79440000  1.0
  C  C25  1  0.39726000  0.75001000  0.20560000  1.0
  C  C26  1  0.70644000  0.34558000  0.72098000  1.0
  C  C27  1  0.57233000  0.15450000  0.72099000  1.0
  C  C28  1  0.29357000  0.65442000  0.27902000  1.0
  C  C29  1  0.42767000  0.84550000  0.27901000  1.0
  C  C30  1  0.77810000  0.34325000  0.59185000  1.0
  C  C31  1  0.63006000  0.15668000  0.59184000  1.0
  C  C32  1  0.22191000  0.65675000  0.40815000  1.0
  C  C33  1  0.36994000  0.84332000  0.40816000  1.0
  C  C34  1  0.73761000  0.24997000  0.52481000  1.0
  C  C35  1  0.26239000  0.75003000  0.47519000  1.0
  N  N36  1  0.94721000  0.06869000  0.80235000  1.0
  N  N37  1  0.25045000  0.43137000  0.80248000  1.0
  N  N38  1  0.05279000  0.93130000  0.19765000  1.0
  N  N39  1  0.74955000  0.56864000  0.19752000  1.0
  N  N40  1  0.29435000  0.25000000  0.41181000  1.0
  N  N41  1  0.70565000  0.75000000  0.58819000  1.0
  N  N42  1  0.73259000  0.45132000  0.78591000  1.0
  N  N43  1  0.48143000  0.04862000  0.78589000  1.0
  N  N44  1  0.26741000  0.54868000  0.21409000  1.0
  N  N45  1  0.51857000  0.95138000  0.21411000  1.0
  N  N46  1  0.80195000  0.24991000  0.39624000  1.0
  N  N47  1  0.19804000  0.75009000  0.60377000  1.0
  O  O48  1  0.03430000  0.25004000  0.93128000  1.0
  O  O49  1  0.96570000  0.74996000  0.06872000  1.0
  O  O50  1  0.89639000  0.04872000  0.91600000  1.0
  O  O51  1  0.18761000  0.45127000  0.91614000  1.0
  O  O52  1  0.10360000  0.95128000  0.08400000  1.0
  O  O53  1  0.81239000  0.54872000  0.08386000  1.0
  O  O54  1  0.90376000  0.99714000  0.73630000  1.0
  O  O55  1  0.35987000  0.50301000  0.73647000  1.0
  O  O56  1  0.09625000  0.00286000  0.26370000  1.0
  O  O57  1  0.64013000  0.49699000  0.26353000  1.0
  O  O58  1  0.06773000  0.09169000  0.54520000  1.0
  O  O59  1  0.38711000  0.40852000  0.54531000  1.0
  O  O60  1  0.93227000  0.90831000  0.45480000  1.0
  O  O61  1  0.61289000  0.59148000  0.45469000  1.0
  O  O62  1  0.20688000  0.24579000  0.35695000  1.0
  O  O63  1  0.43670000  0.25417000  0.35713000  1.0
  O  O64  1  0.79312000  0.75421000  0.64305000  1.0
  O  O65  1  0.56330000  0.74583000  0.64287000  1.0
  O  O66  1  0.54491000  0.24986000  0.91054000  1.0
  O  O67  1  0.45509000  0.75014000  0.08946000  1.0
  O  O68  1  0.61664000  0.51869000  0.86732000  1.0
  O  O69  1  0.51609000  0.98134000  0.86729000  1.0
  O  O70  1  0.38336000  0.48131000  0.13268000  1.0
  O  O71  1  0.48391000  0.01866000  0.13271000  1.0
  O  O72  1  0.86924000  0.47066000  0.75910000  1.0
  O  O73  1  0.37158000  0.02919000  0.75913000  1.0
  O  O74  1  0.13076000  0.52935000  0.24090000  1.0
  O  O75  1  0.62842000  0.97081000  0.24087000  1.0
  O  O76  1  0.87629000  0.42996000  0.53264000  1.0
  O  O77  1  0.59140000  0.06971000  0.53265000  1.0
  O  O78  1  0.12371000  0.57004000  0.46736000  1.0
  O  O79  1  0.40860000  0.93029000  0.46735000  1.0
  O  O80  1  0.89675000  0.33217000  0.33563000  1.0
  O  O81  1  0.76779000  0.16762000  0.33568000  1.0
  O  O82  1  0.10325000  0.66783000  0.66437000  1.0
  O  O83  1  0.23221000  0.83239000  0.66432000  1.0
