# generated using pymatgen
data_AgH6C5N7O3
_symmetry_space_group_name_H-M   'P 1'
_cell_length_a   7.25020000
_cell_length_b   9.00328000
_cell_length_c   14.29440000
_cell_angle_alpha   90.00010000
_cell_angle_beta   90.00000000
_cell_angle_gamma   89.99980000
_symmetry_Int_Tables_number   1
_chemical_formula_structural   AgH6C5N7O3
_chemical_formula_sum   'Ag4 H24 C20 N28 O12'
_cell_volume   933.07526012
_cell_formula_units_Z   4
loop_
 _symmetry_equiv_pos_site_id
 _symmetry_equiv_pos_as_xyz
  1  'x, y, z'
loop_
 _atom_site_type_symbol
 _atom_site_label
 _atom_site_symmetry_multiplicity
 _atom_site_fract_x
 _atom_site_fract_y
 _atom_site_fract_z
 _atom_site_occupancy
  Ag  Ag0  1  0.11773000  0.99873000  0.65438000  1.0
  Ag  Ag1  1  0.88227000  0.49873000  0.34562000  1.0
  Ag  Ag2  1  0.38227000  0.49873000  0.15438000  1.0
  Ag  Ag3  1  0.61773000  0.99873000  0.84562000  1.0
  H  H4  1  0.02172000  0.59382000  0.84933000  1.0
  H  H5  1  0.97828000  0.09382000  0.15067000  1.0
  H  H6  1  0.47828000  0.09382000  0.34933000  1.0
  H  H7  1  0.52173000  0.59382000  0.65067000  1.0
  H  H8  1  0.10589000  0.45632000  0.92923000  1.0
  H  H9  1  0.89411000  0.95632000  0.07077000  1.0
  H  H10  1  0.39411000  0.95632000  0.42923000  1.0
  H  H11  1  0.60589000  0.45632000  0.57077000  1.0
  H  H12  1  0.23106000  0.34918000  0.57548000  1.0
  H  H13  1  0.76894000  0.84919000  0.42452000  1.0
  H  H14  1  0.26894000  0.84919000  0.07548000  1.0
  H  H15  1  0.73106000  0.34918000  0.92452000  1.0
  H  H16  1  0.11512000  0.19845000  0.84948000  1.0
  H  H17  1  0.88487000  0.69845000  0.15052000  1.0
  H  H18  1  0.38487000  0.69845000  0.34948000  1.0
  H  H19  1  0.61512000  0.19845000  0.65052000  1.0
  H  H20  1  0.65650000  0.70078000  0.99704000  1.0
  H  H21  1  0.34350000  0.20078000  0.00296000  1.0
  H  H22  1  0.84350000  0.20077000  0.49704000  1.0
  H  H23  1  0.15650000  0.70077000  0.50296000  1.0
  H  H24  1  0.29321000  0.77251000  0.77194000  1.0
  H  H25  1  0.70680000  0.27251000  0.22806000  1.0
  H  H26  1  0.20679000  0.27251000  0.27194000  1.0
  H  H27  1  0.79321000  0.77251000  0.72806000  1.0
  C  C28  1  0.13813000  0.52083000  0.86626000  1.0
  C  C29  1  0.86187000  0.02083000  0.13374000  1.0
  C  C30  1  0.36187000  0.02083000  0.36626000  1.0
  C  C31  1  0.63813000  0.52083000  0.63374000  1.0
  C  C32  1  0.20200000  0.34698000  0.65006000  1.0
  C  C33  1  0.79800000  0.84699000  0.34994000  1.0
  C  C34  1  0.29801000  0.84699000  0.15006000  1.0
  C  C35  1  0.70200000  0.34698000  0.84994000  1.0
  C  C36  1  0.14364000  0.26818000  0.78879000  1.0
  C  C37  1  0.85635000  0.76818000  0.21121000  1.0
  C  C38  1  0.35636000  0.76818000  0.28879000  1.0
  C  C39  1  0.64364000  0.26818000  0.71121000  1.0
  C  C40  1  0.53979000  0.69058000  0.95017000  1.0
  C  C41  1  0.46021000  0.19058000  0.04983000  1.0
  C  C42  1  0.96021000  0.19058000  0.45017000  1.0
  C  C43  1  0.03979000  0.69058000  0.54983000  1.0
  C  C44  1  0.35887000  0.72929000  0.83451000  1.0
  C  C45  1  0.64113000  0.22929000  0.16549000  1.0
  C  C46  1  0.14113000  0.22929000  0.33451000  1.0
  C  C47  1  0.85887000  0.72929000  0.66549000  1.0
  N  N48  1  0.53824000  0.91545000  0.58381000  1.0
  N  N49  1  0.46176000  0.41545000  0.41619000  1.0
  N  N50  1  0.96176000  0.41545000  0.08381000  1.0
  N  N51  1  0.03824000  0.91545000  0.91619000  1.0
  N  N52  1  0.16685000  0.41675000  0.78976000  1.0
  N  N53  1  0.83315000  0.91676000  0.21024000  1.0
  N  N54  1  0.33315000  0.91676000  0.28976000  1.0
  N  N55  1  0.66685000  0.41675000  0.71024000  1.0
  N  N56  1  0.20311000  0.46886000  0.70209000  1.0
  N  N57  1  0.79690000  0.96886000  0.29791000  1.0
  N  N58  1  0.29690000  0.96886000  0.20209000  1.0
  N  N59  1  0.70311000  0.46886000  0.79791000  1.0
  N  N60  1  0.16478000  0.22108000  0.70060000  1.0
  N  N61  1  0.83521000  0.72109000  0.29940000  1.0
  N  N62  1  0.33521000  0.72109000  0.20060000  1.0
  N  N63  1  0.66478000  0.22109000  0.79940000  1.0
  N  N64  1  0.30008000  0.61059000  0.88337000  1.0
  N  N65  1  0.69992000  0.11059000  0.11663000  1.0
  N  N66  1  0.19992000  0.11059000  0.38337000  1.0
  N  N67  1  0.80008000  0.61059000  0.61663000  1.0
  N  N68  1  0.41450000  0.58382000  0.95748000  1.0
  N  N69  1  0.58551000  0.08383000  0.04252000  1.0
  N  N70  1  0.08550000  0.08382000  0.45748000  1.0
  N  N71  1  0.91450000  0.58382000  0.54252000  1.0
  N  N72  1  0.51003000  0.78295000  0.87564000  1.0
  N  N73  1  0.48997000  0.28295000  0.12436000  1.0
  N  N74  1  0.98997000  0.28295000  0.37564000  1.0
  N  N75  1  0.01003000  0.78295000  0.62436000  1.0
  O  O76  1  0.47112000  0.93211000  0.66571000  1.0
  O  O77  1  0.52888000  0.43211000  0.33429000  1.0
  O  O78  1  0.02888000  0.43211000  0.16571000  1.0
  O  O79  1  0.97112000  0.93211000  0.83429000  1.0
  O  O80  1  0.66152000  0.00324000  0.55452000  1.0
  O  O81  1  0.33848000  0.50324000  0.44548000  1.0
  O  O82  1  0.83848000  0.50324000  0.05452000  1.0
  O  O83  1  0.16151000  0.00324000  0.94548000  1.0
  O  O84  1  0.48003000  0.81062000  0.53197000  1.0
  O  O85  1  0.51997000  0.31062000  0.46803000  1.0
  O  O86  1  0.01997000  0.31062000  0.03197000  1.0
  O  O87  1  0.98003000  0.81062000  0.96803000  1.0
