# generated using pymatgen
data_ZnH14C8N2(ClO)2
_symmetry_space_group_name_H-M   'P 1'
_cell_length_a   5.91370000
_cell_length_b   11.84890000
_cell_length_c   17.17910000
_cell_angle_alpha   89.99930000
_cell_angle_beta   83.34470000
_cell_angle_gamma   89.99960000
_symmetry_Int_Tables_number   1
_chemical_formula_structural   ZnH14C8N2(ClO)2
_chemical_formula_sum   'Zn4 H56 C32 N8 Cl8 O8'
_cell_volume   1195.64231279
_cell_formula_units_Z   4
loop_
 _symmetry_equiv_pos_site_id
 _symmetry_equiv_pos_as_xyz
  1  'x, y, z'
loop_
 _atom_site_type_symbol
 _atom_site_label
 _atom_site_symmetry_multiplicity
 _atom_site_fract_x
 _atom_site_fract_y
 _atom_site_fract_z
 _atom_site_occupancy
  Zn  Zn0  1  0.00243000  0.61815000  0.84311000  1.0
  Zn  Zn1  1  0.99757000  0.11814000  0.15689000  1.0
  Zn  Zn2  1  0.06251000  0.57315000  0.37135000  1.0
  Zn  Zn3  1  0.93749000  0.07315000  0.62865000  1.0
  H  H4  1  0.07509000  0.39899000  0.48185000  1.0
  H  H5  1  0.92493000  0.89899000  0.51815000  1.0
  H  H6  1  0.18529000  0.37037000  0.57026000  1.0
  H  H7  1  0.81474000  0.87036000  0.42973000  1.0
  H  H8  1  0.24364000  0.34210000  0.77665000  1.0
  H  H9  1  0.75637000  0.84209000  0.22335000  1.0
  H  H10  1  0.39150000  0.44126000  0.82889000  1.0
  H  H11  1  0.60849000  0.94125000  0.17111000  1.0
  H  H12  1  0.12215000  0.37415000  0.27591000  1.0
  H  H13  1  0.87783000  0.87416000  0.72409000  1.0
  H  H14  1  0.32515000  0.31449000  0.20533000  1.0
  H  H15  1  0.67483000  0.81451000  0.79467000  1.0
  H  H16  1  0.76172000  0.44272000  0.61746000  1.0
  H  H17  1  0.23830000  0.94270000  0.38255000  1.0
  H  H18  1  0.55866000  0.33670000  0.60203000  1.0
  H  H19  1  0.44137000  0.83669000  0.39797000  1.0
  H  H20  1  0.74880000  0.44733000  0.22822000  1.0
  H  H21  1  0.25119000  0.94735000  0.77178000  1.0
  H  H22  1  0.56329000  0.64487000  0.13842000  1.0
  H  H23  1  0.43667000  0.14488000  0.86158000  1.0
  H  H24  1  0.66127000  0.65256000  0.23137000  1.0
  H  H25  1  0.33870000  0.15258000  0.76863000  1.0
  H  H26  1  0.71227000  0.18669000  0.02719000  1.0
  H  H27  1  0.28775000  0.68669000  0.97280000  1.0
  H  H28  1  0.88911000  0.30107000  0.99091000  1.0
  H  H29  1  0.11089000  0.80107000  0.00909000  1.0
  H  H30  1  0.27902000  0.64045000  0.61424000  1.0
  H  H31  1  0.72100000  0.14043000  0.38575000  1.0
  H  H32  1  0.59994000  0.52212000  0.02498000  1.0
  H  H33  1  0.40005000  0.02212000  0.97502000  1.0
  H  H34  1  0.33533000  0.47495000  0.07521000  1.0
  H  H35  1  0.66466000  0.97495000  0.92479000  1.0
  H  H36  1  0.62184000  0.27389000  0.72942000  1.0
  H  H37  1  0.37816000  0.77388000  0.27059000  1.0
  H  H38  1  0.74523000  0.40462000  0.75145000  1.0
  H  H39  1  0.25477000  0.90462000  0.24856000  1.0
  H  H40  1  0.54581000  0.36688000  0.94095000  1.0
  H  H41  1  0.45418000  0.86688000  0.05905000  1.0
  H  H42  1  0.37014000  0.29370000  0.01566000  1.0
  H  H43  1  0.62986000  0.79370000  0.98433000  1.0
  H  H44  1  0.05175000  0.59460000  0.17553000  1.0
  H  H45  1  0.94822000  0.09460000  0.82447000  1.0
  H  H46  1  0.96300000  0.71533000  0.12680000  1.0
  H  H47  1  0.03694000  0.21534000  0.87320000  1.0
  H  H48  1  0.96222000  0.58185000  0.08018000  1.0
  H  H49  1  0.03775000  0.08185000  0.91982000  1.0
  H  H50  1  0.57709000  0.68053000  0.50160000  1.0
  H  H51  1  0.42294000  0.18053000  0.49839000  1.0
  H  H52  1  0.72742000  0.55959000  0.52403000  1.0
  H  H53  1  0.27261000  0.05959000  0.47597000  1.0
  H  H54  1  0.61797000  0.76595000  0.63135000  1.0
  H  H55  1  0.38205000  0.26594000  0.36864000  1.0
  H  H56  1  0.89196000  0.72583000  0.58652000  1.0
  H  H57  1  0.10807000  0.22583000  0.41348000  1.0
  H  H58  1  0.75109000  0.64310000  0.66302000  1.0
  H  H59  1  0.24891000  0.14309000  0.33697000  1.0
  C  C60  1  0.75191000  0.32058000  0.10884000  1.0
  C  C61  1  0.24808000  0.82059000  0.89116000  1.0
  C  C62  1  0.29923000  0.49779000  0.71862000  1.0
  C  C63  1  0.70078000  0.99778000  0.28138000  1.0
  C  C64  1  0.39378000  0.47528000  0.24427000  1.0
  C  C65  1  0.60620000  0.97529000  0.75573000  1.0
  C  C66  1  0.37704000  0.40727000  0.77045000  1.0
  C  C67  1  0.62296000  0.90726000  0.22956000  1.0
  C  C68  1  0.25507000  0.52857000  0.52082000  1.0
  C  C69  1  0.74492000  0.02858000  0.47917000  1.0
  C  C70  1  0.59883000  0.40533000  0.64133000  1.0
  C  C71  1  0.40119000  0.90531000  0.35867000  1.0
  C  C72  1  0.62351000  0.48455000  0.19275000  1.0
  C  C73  1  0.37647000  0.98456000  0.80726000  1.0
  C  C74  1  0.68576000  0.60830000  0.17504000  1.0
  C  C75  1  0.31422000  0.10831000  0.82496000  1.0
  C  C76  1  0.72994000  0.27874000  0.02748000  1.0
  C  C77  1  0.27006000  0.77874000  0.97252000  1.0
  C  C78  1  0.38790000  0.57331000  0.58543000  1.0
  C  C79  1  0.61212000  0.07330000  0.41457000  1.0
  C  C80  1  0.51111000  0.45003000  0.05509000  1.0
  C  C81  1  0.48887000  0.95004000  0.94491000  1.0
  C  C82  1  0.60164000  0.36544000  0.72659000  1.0
  C  C83  1  0.39836000  0.86544000  0.27342000  1.0
  C  C84  1  0.52585000  0.34411000  0.00310000  1.0
  C  C85  1  0.47415000  0.84411000  0.99690000  1.0
  C  C86  1  0.92906000  0.62504000  0.13693000  1.0
  C  C87  1  0.07091000  0.12505000  0.86306000  1.0
  C  C88  1  0.61406000  0.62639000  0.55036000  1.0
  C  C89  1  0.38596000  0.12638000  0.44964000  1.0
  C  C90  1  0.72510000  0.69352000  0.61114000  1.0
  C  C91  1  0.27492000  0.19351000  0.38886000  1.0
  N  N92  1  0.41862000  0.49196000  0.64690000  1.0
  N  N93  1  0.58140000  0.99194000  0.35310000  1.0
  N  N94  1  0.62887000  0.41566000  0.12237000  1.0
  N  N95  1  0.37112000  0.91567000  0.87763000  1.0
  N  N96  1  0.17235000  0.42461000  0.52436000  1.0
  N  N97  1  0.82772000  0.92459000  0.47566000  1.0
  N  N98  1  0.27032000  0.38319000  0.23920000  1.0
  N  N99  1  0.72967000  0.88320000  0.76080000  1.0
  Cl  Cl100  1  0.06661000  0.50040000  0.93859000  1.0
  Cl  Cl101  1  0.93337000  0.00039000  0.06141000  1.0
  Cl  Cl102  1  0.63034000  0.64141000  0.83412000  1.0
  Cl  Cl103  1  0.36966000  0.14140000  0.16587000  1.0
  Cl  Cl104  1  0.84324000  0.41588000  0.38206000  1.0
  Cl  Cl105  1  0.15676000  0.91588000  0.61795000  1.0
  Cl  Cl106  1  0.88498000  0.73177000  0.34745000  1.0
  Cl  Cl107  1  0.11503000  0.23177000  0.65255000  1.0
  O  O108  1  0.87044000  0.27789000  0.15816000  1.0
  O  O109  1  0.12954000  0.77790000  0.84185000  1.0
  O  O110  1  0.33423000  0.55620000  0.29047000  1.0
  O  O111  1  0.66576000  0.05622000  0.70954000  1.0
  O  O112  1  0.14202000  0.56911000  0.73520000  1.0
  O  O113  1  0.85797000  0.06909000  0.26479000  1.0
  O  O114  1  0.22591000  0.59699000  0.46615000  1.0
  O  O115  1  0.77411000  0.09699000  0.53386000  1.0
