# generated using pymatgen
data_CsH12C6ClO6
_symmetry_space_group_name_H-M   'P 1'
_cell_length_a   6.75023000
_cell_length_b   8.50683000
_cell_length_c   18.77720000
_cell_angle_alpha   89.99970000
_cell_angle_beta   90.00000000
_cell_angle_gamma   107.98900000
_symmetry_Int_Tables_number   1
_chemical_formula_structural   CsH12C6ClO6
_chemical_formula_sum   'Cs4 H48 C24 Cl4 O24'
_cell_volume   1025.53518427
_cell_formula_units_Z   4
loop_
 _symmetry_equiv_pos_site_id
 _symmetry_equiv_pos_as_xyz
  1  'x, y, z'
loop_
 _atom_site_type_symbol
 _atom_site_label
 _atom_site_symmetry_multiplicity
 _atom_site_fract_x
 _atom_site_fract_y
 _atom_site_fract_z
 _atom_site_occupancy
  Cs  Cs0  1  0.24138000  0.32875000  0.92608000  1.0
  Cs  Cs1  1  0.25863000  0.17125000  0.42608000  1.0
  Cs  Cs2  1  0.75862000  0.67125000  0.07392000  1.0
  Cs  Cs3  1  0.74137000  0.82875000  0.57392000  1.0
  H  H4  1  0.26499000  0.79741000  0.84347000  1.0
  H  H5  1  0.23501000  0.70259000  0.34347000  1.0
  H  H6  1  0.73500000  0.20259000  0.15653000  1.0
  H  H7  1  0.76499000  0.29740000  0.65653000  1.0
  H  H8  1  0.63357000  0.95856000  0.94154000  1.0
  H  H9  1  0.86644000  0.54144000  0.44154000  1.0
  H  H10  1  0.36644000  0.04144000  0.05846000  1.0
  H  H11  1  0.13356000  0.45855000  0.55846000  1.0
  H  H12  1  0.55731000  0.15308000  0.84599000  1.0
  H  H13  1  0.94269000  0.34692000  0.34600000  1.0
  H  H14  1  0.44269000  0.84693000  0.15401000  1.0
  H  H15  1  0.05731000  0.65307000  0.65400000  1.0
  H  H16  1  0.65655000  0.09232000  0.72531000  1.0
  H  H17  1  0.84346000  0.40767000  0.22531000  1.0
  H  H18  1  0.34345000  0.90768000  0.27469000  1.0
  H  H19  1  0.15654000  0.59232000  0.77469000  1.0
  H  H20  1  0.60211000  0.69829000  0.82640000  1.0
  H  H21  1  0.89790000  0.80171000  0.32639000  1.0
  H  H22  1  0.39790000  0.30172000  0.17360000  1.0
  H  H23  1  0.10210000  0.19829000  0.67361000  1.0
  H  H24  1  0.86539000  0.06345000  0.82686000  1.0
  H  H25  1  0.63462000  0.43655000  0.32686000  1.0
  H  H26  1  0.13462000  0.93656000  0.17314000  1.0
  H  H27  1  0.36538000  0.56345000  0.67314000  1.0
  H  H28  1  0.10077000  0.90010000  0.91481000  1.0
  H  H29  1  0.39924000  0.59991000  0.41481000  1.0
  H  H30  1  0.89923000  0.09991000  0.08519000  1.0
  H  H31  1  0.60075000  0.40009000  0.58519000  1.0
  H  H32  1  0.33676000  0.20287000  0.76861000  1.0
  H  H33  1  0.16324000  0.29713000  0.26861000  1.0
  H  H34  1  0.66324000  0.79713000  0.23139000  1.0
  H  H35  1  0.83676000  0.70287000  0.73139000  1.0
  H  H36  1  0.39476000  0.87992000  0.68591000  1.0
  H  H37  1  0.10524000  0.62008000  0.18591000  1.0
  H  H38  1  0.60524000  0.12008000  0.31410000  1.0
  H  H39  1  0.89476000  0.37991000  0.81409000  1.0
  H  H40  1  0.83527000  0.66266000  0.89673000  1.0
  H  H41  1  0.66475000  0.83736000  0.39672000  1.0
  H  H42  1  0.16474000  0.33736000  0.10328000  1.0
  H  H43  1  0.33525000  0.16264000  0.60328000  1.0
  H  H44  1  0.05014000  0.96292000  0.76089000  1.0
  H  H45  1  0.44986000  0.53708000  0.26089000  1.0
  H  H46  1  0.94986000  0.03708000  0.23911000  1.0
  H  H47  1  0.55014000  0.46292000  0.73911000  1.0
  H  H48  1  0.36204000  0.73117000  0.98586000  1.0
  H  H49  1  0.13795000  0.76883000  0.48585000  1.0
  H  H50  1  0.63797000  0.26883000  0.01414000  1.0
  H  H51  1  0.86204000  0.23116000  0.51414000  1.0
  C  C52  1  0.36756000  0.90550000  0.87191000  1.0
  C  C53  1  0.13244000  0.59450000  0.37191000  1.0
  C  C54  1  0.63245000  0.09450000  0.12809000  1.0
  C  C55  1  0.86755000  0.40550000  0.62808000  1.0
  C  C56  1  0.54228000  0.85513000  0.90755000  1.0
  C  C57  1  0.95773000  0.64487000  0.40755000  1.0
  C  C58  1  0.45772000  0.14488000  0.09245000  1.0
  C  C59  1  0.04227000  0.35512000  0.59245000  1.0
  C  C60  1  0.45679000  0.04325000  0.81781000  1.0
  C  C61  1  0.04322000  0.45675000  0.31781000  1.0
  C  C62  1  0.54321000  0.95676000  0.18220000  1.0
  C  C63  1  0.95678000  0.54324000  0.68219000  1.0
  C  C64  1  0.59060000  0.98894000  0.76245000  1.0
  C  C65  1  0.90940000  0.51106000  0.26245000  1.0
  C  C66  1  0.40940000  0.01107000  0.23755000  1.0
  C  C67  1  0.09060000  0.48893000  0.73755000  1.0
  C  C68  1  0.68916000  0.81245000  0.85446000  1.0
  C  C69  1  0.81083000  0.68754000  0.35445000  1.0
  C  C70  1  0.31084000  0.18755000  0.14555000  1.0
  C  C71  1  0.18915000  0.31245000  0.64555000  1.0
  C  C72  1  0.77144000  0.95023000  0.79972000  1.0
  C  C73  1  0.72857000  0.54977000  0.29971000  1.0
  C  C74  1  0.22857000  0.04978000  0.20029000  1.0
  C  C75  1  0.27142000  0.45022000  0.70028000  1.0
  Cl  Cl76  1  0.78362000  0.42019000  0.91243000  1.0
  Cl  Cl77  1  0.71639000  0.07981000  0.41243000  1.0
  Cl  Cl78  1  0.21639000  0.57982000  0.08757000  1.0
  Cl  Cl79  1  0.28361000  0.92018000  0.58757000  1.0
  O  O80  1  0.25018000  0.95409000  0.92654000  1.0
  O  O81  1  0.24984000  0.54592000  0.42654000  1.0
  O  O82  1  0.74984000  0.04593000  0.07346000  1.0
  O  O83  1  0.75016000  0.45407000  0.57346000  1.0
  O  O84  1  0.28798000  0.08456000  0.78469000  1.0
  O  O85  1  0.21202000  0.41543000  0.28469000  1.0
  O  O86  1  0.71202000  0.91544000  0.21531000  1.0
  O  O87  1  0.78798000  0.58456000  0.71531000  1.0
  O  O88  1  0.47221000  0.84493000  0.72462000  1.0
  O  O89  1  0.02779000  0.65507000  0.22461000  1.0
  O  O90  1  0.52779000  0.15507000  0.27539000  1.0
  O  O91  1  0.97220000  0.34492000  0.77539000  1.0
  O  O92  1  0.45825000  0.71077000  0.95039000  1.0
  O  O93  1  0.04175000  0.78923000  0.45039000  1.0
  O  O94  1  0.54176000  0.28923000  0.04961000  1.0
  O  O95  1  0.95824000  0.21077000  0.54961000  1.0
  O  O96  1  0.86070000  0.78418000  0.89154000  1.0
  O  O97  1  0.63931000  0.71583000  0.39154000  1.0
  O  O98  1  0.13931000  0.21584000  0.10846000  1.0
  O  O99  1  0.36069000  0.28416000  0.60846000  1.0
  O  O100  1  0.90149000  0.90551000  0.74799000  1.0
  O  O101  1  0.59852000  0.59448000  0.24798000  1.0
  O  O102  1  0.09852000  0.09448000  0.25202000  1.0
  O  O103  1  0.40148000  0.40552000  0.75202000  1.0
