# generated using pymatgen
data_Zn2H17C36Br2N10Cl3
_symmetry_space_group_name_H-M   'P 1'
_cell_length_a   19.95090000
_cell_length_b   20.48760000
_cell_length_c   21.37340000
_cell_angle_alpha   107.00900000
_cell_angle_beta   108.33200000
_cell_angle_gamma   110.72700000
_symmetry_Int_Tables_number   1
_chemical_formula_structural   Zn2H17C36Br2N10Cl3
_chemical_formula_sum   'Zn4 H34 C72 Br4 N20 Cl6'
_cell_volume   6907.34386844
_cell_formula_units_Z   2
loop_
 _symmetry_equiv_pos_site_id
 _symmetry_equiv_pos_as_xyz
  1  'x, y, z'
loop_
 _atom_site_type_symbol
 _atom_site_label
 _atom_site_symmetry_multiplicity
 _atom_site_fract_x
 _atom_site_fract_y
 _atom_site_fract_z
 _atom_site_occupancy
  Zn  Zn0  1  0.37030000  0.38170000  0.48317000  1.0
  Zn  Zn1  1  0.60004000  0.60768000  0.51659000  1.0
  Zn  Zn2  1  0.39803000  0.49430000  0.38560000  1.0
  Zn  Zn3  1  0.57641000  0.49822000  0.60796000  1.0
  H  H4  1  0.29199000  0.21689000  0.34211000  1.0
  H  H5  1  0.34816000  0.91146000  0.52685000  1.0
  H  H6  1  0.71583000  0.56893000  0.46631000  1.0
  H  H7  1  0.44388000  0.06250000  0.64937000  1.0
  H  H8  1  0.57584000  0.03349000  0.69050000  1.0
  H  H9  1  0.62888000  0.09721000  0.60273000  1.0
  H  H10  1  0.01011000  0.49159000  0.61656000  1.0
  H  H11  1  0.16556000  0.62710000  0.70486000  1.0
  H  H12  1  0.12374000  0.69864000  0.54855000  1.0
  H  H13  1  0.96769000  0.56305000  0.45941000  1.0
  H  H14  1  0.40413000  0.58529000  0.21036000  1.0
  H  H15  1  0.56750000  0.72887000  0.61497000  1.0
  H  H16  1  0.42477000  0.48075000  0.24847000  1.0
  H  H17  1  0.32030000  0.47681000  0.87118000  1.0
  H  H18  1  0.32091000  0.43456000  0.74988000  1.0
  H  H19  1  0.65736000  0.66995000  0.27030000  1.0
  H  H20  1  0.54682000  0.68708000  0.96539000  1.0
  H  H21  1  0.63265000  0.68987000  0.15724000  1.0
  H  H22  1  0.54771000  0.64707000  0.84457000  1.0
  H  H23  1  0.86546000  0.74897000  0.87289000  1.0
  H  H24  1  0.61669000  0.35924000  0.58553000  1.0
  H  H25  1  0.90880000  0.81281000  0.70778000  1.0
  H  H26  1  0.27908000  0.56278000  0.42096000  1.0
  H  H27  1  0.15097000  0.09302000  0.00533000  1.0
  H  H28  1  0.21958000  0.22001000  0.11868000  1.0
  H  H29  1  0.76151000  0.50794000  0.64753000  1.0
  H  H30  1  0.34730000  0.35312000  0.22654000  1.0
  H  H31  1  0.33081000  0.38959000  0.64146000  1.0
  H  H32  1  0.77393000  0.76635000  0.64171000  1.0
  H  H33  1  0.31737000  0.48072000  0.58686000  1.0
  H  H34  1  0.56533000  0.59692000  0.74368000  1.0
  H  H35  1  0.38635000  0.66574000  0.39871000  1.0
  H  H36  1  0.40082000  0.97515000  0.43855000  1.0
  H  H37  1  0.53331000  0.94582000  0.47986000  1.0
  C  C38  1  0.30886000  0.26184000  0.32419000  1.0
  C  C39  1  0.31321000  0.49291000  0.54022000  1.0
  C  C40  1  0.50899000  0.54186000  0.70876000  1.0
  C  C41  1  0.71369000  0.55123000  0.50912000  1.0
  C  C42  1  0.43035000  0.66857000  0.44637000  1.0
  C  C43  1  0.44357000  0.50735000  0.72171000  1.0
  C  C44  1  0.47545000  0.72817000  0.52028000  1.0
  C  C45  1  0.28268000  0.53882000  0.51786000  1.0
  C  C46  1  0.78854000  0.72557000  0.72995000  1.0
  C  C47  1  0.51337000  0.97268000  0.51720000  1.0
  C  C48  1  0.43961000  0.98712000  0.49434000  1.0
  C  C49  1  0.77293000  0.54458000  0.55981000  1.0
  C  C50  1  0.49683000  0.19586000  0.54631000  1.0
  C  C51  1  0.47750000  0.80080000  0.54601000  1.0
  C  C52  1  0.56644000  0.05530000  0.58567000  1.0
  C  C53  1  0.48022000  0.52767000  0.29792000  1.0
  C  C54  1  0.49304000  0.07212000  0.56244000  1.0
  C  C55  1  0.53708000  0.02075000  0.63437000  1.0
  C  C56  1  0.48390000  0.93607000  0.56586000  1.0
  C  C57  1  0.46365000  0.03608000  0.61157000  1.0
  C  C58  1  0.41048000  0.95310000  0.54330000  1.0
  C  C59  1  0.49636000  0.14011000  0.55648000  1.0
  C  C60  1  0.53778000  0.59713000  0.30482000  1.0
  C  C61  1  0.47950000  0.86393000  0.56061000  1.0
  C  C62  1  0.04856000  0.52547000  0.53169000  1.0
  C  C63  1  0.03561000  0.53759000  0.60146000  1.0
  C  C64  1  0.85114000  0.56124000  0.56908000  1.0
  C  C65  1  0.55130000  0.33394000  0.55678000  1.0
  C  C66  1  0.24266000  0.57295000  0.54734000  1.0
  C  C67  1  0.01216000  0.57750000  0.51384000  1.0
  C  C68  1  0.99533000  0.58819000  0.58276000  1.0
  C  C69  1  0.09784000  0.65200000  0.56281000  1.0
  C  C70  1  0.13717000  0.60050000  0.58043000  1.0
  C  C71  1  0.49071000  0.25785000  0.53440000  1.0
  C  C72  1  0.08334000  0.66340000  0.63200000  1.0
  C  C73  1  0.12138000  0.61218000  0.65006000  1.0
  C  C74  1  0.91983000  0.57725000  0.57892000  1.0
  C  C75  1  0.20275000  0.59642000  0.57059000  1.0
  C  C76  1  0.43623000  0.53607000  0.78880000  1.0
  C  C77  1  0.59722000  0.63277000  0.37903000  1.0
  C  C78  1  0.49774000  0.60913000  0.85004000  1.0
  C  C79  1  0.49756000  0.63228000  0.91761000  1.0
  C  C80  1  0.43460000  0.58274000  0.92601000  1.0
  C  C81  1  0.36932000  0.51348000  0.86389000  1.0
  C  C82  1  0.39002000  0.43548000  0.65643000  1.0
  C  C83  1  0.37037000  0.49033000  0.79645000  1.0
  C  C84  1  0.44116000  0.61726000  0.13510000  1.0
  C  C85  1  0.45443000  0.60605000  0.19803000  1.0
  C  C86  1  0.50526000  0.64380000  0.11759000  1.0
  C  C87  1  0.53123000  0.62118000  0.24612000  1.0
  C  C88  1  0.59675000  0.65548000  0.23308000  1.0
  C  C89  1  0.41847000  0.25879000  0.49855000  1.0
  C  C90  1  0.58338000  0.66700000  0.17037000  1.0
  C  C91  1  0.28149000  0.18328000  0.19132000  1.0
  C  C92  1  0.23173000  0.17276000  0.12140000  1.0
  C  C93  1  0.52231000  0.70095000  0.55750000  1.0
  C  C94  1  0.19341000  0.10261000  0.05834000  1.0
  C  C95  1  0.20308000  0.03887000  0.06207000  1.0
  C  C96  1  0.25859000  0.05025000  0.13004000  1.0
  C  C97  1  0.29725000  0.12165000  0.19380000  1.0
  C  C98  1  0.98558000  0.83538000  0.90764000  1.0
  C  C99  1  0.90473000  0.78310000  0.85569000  1.0
  C  C100  1  0.03916000  0.88685000  0.89135000  1.0
  C  C101  1  0.73699000  0.52014000  0.60198000  1.0
  C  C102  1  0.87403000  0.77561000  0.78370000  1.0
  C  C103  1  0.92849000  0.82000000  0.76411000  1.0
  C  C104  1  0.29345000  0.53454000  0.45492000  1.0
  C  C105  1  0.00789000  0.87432000  0.81666000  1.0
  C  C106  1  0.33611000  0.33113000  0.26475000  1.0
  C  C107  1  0.30977000  0.25462000  0.25698000  1.0
  C  C108  1  0.72419000  0.66461000  0.72774000  1.0
  C  C109  1  0.74921000  0.72771000  0.66375000  1.0
  Br  Br110  1  0.10622000  0.76124000  0.70316000  1.0
  Br  Br111  1  0.33605000  0.60022000  0.07863000  1.0
  Br  Br112  1  0.27748000  0.96648000  0.13165000  1.0
  Br  Br113  1  0.37223000  0.13590000  0.28448000  1.0
  N  N114  1  0.33178000  0.33607000  0.36794000  1.0
  N  N115  1  0.50155000  0.64454000  0.05086000  1.0
  N  N116  1  0.15082000  0.96192000  0.00506000  1.0
  N  N117  1  0.64824000  0.53320000  0.52099000  1.0
  N  N118  1  0.11019000  0.95667000  0.94287000  1.0
  N  N119  1  0.50263000  0.52265000  0.36214000  1.0
  N  N120  1  0.51748000  0.37597000  0.53675000  1.0
  N  N121  1  0.57560000  0.58857000  0.41252000  1.0
  N  N122  1  0.43546000  0.32884000  0.50016000  1.0
  N  N123  1  0.66344000  0.51410000  0.57816000  1.0
  N  N124  1  0.34930000  0.37934000  0.33109000  1.0
  N  N125  1  0.50692000  0.63129000  0.50913000  1.0
  N  N126  1  0.42058000  0.42765000  0.60891000  1.0
  N  N127  1  0.32655000  0.48893000  0.44056000  1.0
  N  N128  1  0.65386000  0.63343000  0.66666667  1.0
  N  N129  1  0.67025000  0.67335000  0.62700000  1.0
  N  N130  1  0.33881000  0.46324000  0.49339000  1.0
  N  N131  1  0.49489000  0.49367000  0.64177000  1.0
  N  N132  1  0.45019000  0.61191000  0.44053000  1.0
  N  N133  1  0.43481000  0.59177000  0.99386000  1.0
  Cl  Cl134  1  0.72626000  0.62196000  0.78607000  1.0
  Cl  Cl135  1  0.02735000  0.43657000  0.46712000  1.0
  Cl  Cl136  1  0.01507000  0.83900000  0.99415000  1.0
  Cl  Cl137  1  0.07169000  0.92976000  0.79121000  1.0
  Cl  Cl138  1  0.68603000  0.71985000  0.42788000  1.0
  Cl  Cl139  1  0.32099000  0.18611000  0.46001000  1.0
