# generated using pymatgen
data_Zn2H9C41N2Cl6(O4F3)2
_symmetry_space_group_name_H-M   'P 1'
_cell_length_a   11.02600000
_cell_length_b   13.88450000
_cell_length_c   26.27480000
_cell_angle_alpha   89.62190000
_cell_angle_beta   88.30390000
_cell_angle_gamma   89.67420000
_symmetry_Int_Tables_number   1
_chemical_formula_structural   Zn2H9C41N2Cl6(O4F3)2
_chemical_formula_sum   'Zn4 H18 C82 N4 Cl12 O16 F12'
_cell_volume   4020.51166283
_cell_formula_units_Z   2
loop_
 _symmetry_equiv_pos_site_id
 _symmetry_equiv_pos_as_xyz
  1  'x, y, z'
loop_
 _atom_site_type_symbol
 _atom_site_label
 _atom_site_symmetry_multiplicity
 _atom_site_fract_x
 _atom_site_fract_y
 _atom_site_fract_z
 _atom_site_occupancy
  Zn  Zn0  1  0.52088000  0.39471000  0.50214000  1.0
  Zn  Zn1  1  0.51856000  0.59647000  0.50316000  1.0
  Zn  Zn2  1  0.47713000  0.60704000  0.08099000  1.0
  Zn  Zn3  1  0.47824000  0.40496000  0.08627000  1.0
  H  H4  1  0.37315000  0.24553000  0.55211000  1.0
  H  H5  1  0.66872000  0.24048000  0.45069000  1.0
  H  H6  1  0.65977000  0.74577000  0.45219000  1.0
  H  H7  1  0.36546000  0.74978000  0.55422000  1.0
  H  H8  1  0.66079000  0.41317000  0.18627000  1.0
  H  H9  1  0.67127000  0.35840000  0.37310000  1.0
  H  H10  1  0.49975000  0.64075000  0.66081000  1.0
  H  H11  1  0.51018000  0.33161000  0.66686000  1.0
  H  H12  1  0.50178000  0.34812000  0.92579000  1.0
  H  H13  1  0.48902000  0.65717000  0.91906000  1.0
  H  H14  1  0.79492000  0.58520000  0.59215000  1.0
  H  H15  1  0.24684000  0.57798000  0.58688000  1.0
  H  H16  1  0.34816000  0.76210000  0.02543000  1.0
  H  H17  1  0.61000000  0.75374000  0.13551000  1.0
  H  H18  1  0.61958000  0.24893000  0.13870000  1.0
  H  H19  1  0.34913000  0.25694000  0.03208000  1.0
  H  H20  1  0.75072000  0.41077000  0.00341000  1.0
  H  H21  1  0.20256000  0.41036000  0.99606000  1.0
  C  C22  1  0.50672000  0.48394000  0.60202000  1.0
  C  C23  1  0.28447000  0.49925000  0.50140000  1.0
  C  C24  1  0.52495000  0.49437000  0.40350000  1.0
  C  C25  1  0.75536000  0.50709000  0.50489000  1.0
  C  C26  1  0.49033000  0.50756000  0.98421000  1.0
  C  C27  1  0.24266000  0.49584000  0.08116000  1.0
  C  C28  1  0.47706000  0.51993000  0.18222000  1.0
  C  C29  1  0.71351000  0.50145000  0.08561000  1.0
  C  C30  1  0.43653000  0.20043000  0.53024000  1.0
  C  C31  1  0.43070000  0.09960000  0.53191000  1.0
  C  C32  1  0.34330000  0.04728000  0.56223000  1.0
  C  C33  1  0.60305000  0.19785000  0.47279000  1.0
  C  C34  1  0.60489000  0.09694000  0.47166000  1.0
  C  C35  1  0.69091000  0.04210000  0.44196000  1.0
  C  C36  1  0.59613000  0.79063000  0.47407000  1.0
  C  C37  1  0.60090000  0.89137000  0.47215000  1.0
  C  C38  1  0.68859000  0.94348000  0.44199000  1.0
  C  C39  1  0.43018000  0.79276000  0.53184000  1.0
  C  C40  1  0.42731000  0.89373000  0.53269000  1.0
  C  C41  1  0.34163000  0.94855000  0.56262000  1.0
  C  C42  1  0.51665000  0.04631000  0.50187000  1.0
  C  C43  1  0.51484000  0.94453000  0.50219000  1.0
  C  C44  1  0.49214000  0.51836000  0.23907000  1.0
  C  C45  1  0.57827000  0.45264000  0.25954000  1.0
  C  C46  1  0.42404000  0.57671000  0.27171000  1.0
  C  C47  1  0.66120000  0.40180000  0.22724000  1.0
  C  C48  1  0.74685000  0.34046000  0.24678000  1.0
  C  C49  1  0.51308000  0.50093000  0.34651000  1.0
  C  C50  1  0.43456000  0.56810000  0.32559000  1.0
  C  C51  1  0.58615000  0.44128000  0.31356000  1.0
  C  C52  1  0.66933000  0.37225000  0.33239000  1.0
  C  C53  1  0.74778000  0.32241000  0.30010000  1.0
  C  C54  1  0.50120000  0.57507000  0.68355000  1.0
  C  C55  1  0.49977000  0.57933000  0.73672000  1.0
  C  C56  1  0.49622000  0.66867000  0.76343000  1.0
  C  C57  1  0.50687000  0.39991000  0.68695000  1.0
  C  C58  1  0.50495000  0.40208000  0.74029000  1.0
  C  C59  1  0.50646000  0.31651000  0.77087000  1.0
  C  C60  1  0.49954000  0.41368000  0.90296000  1.0
  C  C61  1  0.50134000  0.40914000  0.84969000  1.0
  C  C62  1  0.50492000  0.31987000  0.82285000  1.0
  C  C63  1  0.49273000  0.58878000  0.89909000  1.0
  C  C64  1  0.49556000  0.58635000  0.84584000  1.0
  C  C65  1  0.49414000  0.67203000  0.81538000  1.0
  C  C66  1  0.50464000  0.48602000  0.65903000  1.0
  C  C67  1  0.50140000  0.49241000  0.76615000  1.0
  C  C68  1  0.49469000  0.50297000  0.92725000  1.0
  C  C69  1  0.49946000  0.49588000  0.82012000  1.0
  C  C70  1  0.89194000  0.50722000  0.50438000  1.0
  C  C71  1  0.95493000  0.54314000  0.54697000  1.0
  C  C72  1  0.95659000  0.47385000  0.46194000  1.0
  C  C73  1  0.89358000  0.58180000  0.59051000  1.0
  C  C74  1  0.95682000  0.61827000  0.63059000  1.0
  C  C75  1  0.14823000  0.50208000  0.50254000  1.0
  C  C76  1  0.08554000  0.46960000  0.46131000  1.0
  C  C77  1  0.08495000  0.54114000  0.54572000  1.0
  C  C78  1  0.14795000  0.57849000  0.58747000  1.0
  C  C79  1  0.08605000  0.61710000  0.62899000  1.0
  C  C80  1  0.40592000  0.80433000  0.04964000  1.0
  C  C81  1  0.40402000  0.90528000  0.04892000  1.0
  C  C82  1  0.32674000  0.96122000  0.01730000  1.0
  C  C83  1  0.55440000  0.79958000  0.11165000  1.0
  C  C84  1  0.55995000  0.90028000  0.11361000  1.0
  C  C85  1  0.63824000  0.95125000  0.14629000  1.0
  C  C86  1  0.55997000  0.20703000  0.11512000  1.0
  C  C87  1  0.56269000  0.10601000  0.11544000  1.0
  C  C88  1  0.63965000  0.04991000  0.14715000  1.0
  C  C89  1  0.40856000  0.21143000  0.05440000  1.0
  C  C90  1  0.40564000  0.11079000  0.05125000  1.0
  C  C91  1  0.32731000  0.05987000  0.01847000  1.0
  C  C92  1  0.48283000  0.95471000  0.08168000  1.0
  C  C93  1  0.48394000  0.05646000  0.08270000  1.0
  C  C94  1  0.84979000  0.49821000  0.08452000  1.0
  C  C95  1  0.91282000  0.45437000  0.04261000  1.0
  C  C96  1  0.91294000  0.53676000  0.12409000  1.0
  C  C97  1  0.84961000  0.41175000  0.00237000  1.0
  C  C98  1  0.91140000  0.36976000  0.96174000  1.0
  C  C99  1  0.10614000  0.49520000  0.08207000  1.0
  C  C100  1  0.04193000  0.53363000  0.12344000  1.0
  C  C101  1  0.04283000  0.45381000  0.04099000  1.0
  C  C102  1  0.10391000  0.41163000  0.99833000  1.0
  C  C103  1  0.04060000  0.37011000  0.95966000  1.0
  N  N104  1  0.52074000  0.24641000  0.50135000  1.0
  N  N105  1  0.51292000  0.74449000  0.50330000  1.0
  N  N106  1  0.47910000  0.75484000  0.08040000  1.0
  N  N107  1  0.48398000  0.25654000  0.08552000  1.0
  Cl  Cl108  1  0.34392000  0.64033000  0.36390000  1.0
  Cl  Cl109  1  0.32452000  0.66072000  0.24815000  1.0
  Cl  Cl110  1  0.85358000  0.28839000  0.20618000  1.0
  Cl  Cl111  1  0.84696000  0.23892000  0.32447000  1.0
  Cl  Cl112  1  0.16366000  0.42559000  0.40868000  1.0
  Cl  Cl113  1  0.88245000  0.44114000  0.40810000  1.0
  Cl  Cl114  1  0.87778000  0.66581000  0.68225000  1.0
  Cl  Cl115  1  0.16661000  0.66417000  0.67821000  1.0
  Cl  Cl116  1  0.11661000  0.57438000  0.17546000  1.0
  Cl  Cl117  1  0.83500000  0.58813000  0.17499000  1.0
  Cl  Cl118  1  0.83092000  0.31720000  0.91409000  1.0
  Cl  Cl119  1  0.11979000  0.31837000  0.90920000  1.0
  O  O120  1  0.52138000  0.40275000  0.58055000  1.0
  O  O121  1  0.49379000  0.56480000  0.57922000  1.0
  O  O122  1  0.33636000  0.57992000  0.49432000  1.0
  O  O123  1  0.33498000  0.41827000  0.50839000  1.0
  O  O124  1  0.54931000  0.57180000  0.42629000  1.0
  O  O125  1  0.51052000  0.41189000  0.42423000  1.0
  O  O126  1  0.70391000  0.42604000  0.50074000  1.0
  O  O127  1  0.70326000  0.58849000  0.51008000  1.0
  O  O128  1  0.47172000  0.59000000  0.00393000  1.0
  O  O129  1  0.50523000  0.42884000  0.00872000  1.0
  O  O130  1  0.29517000  0.41419000  0.07743000  1.0
  O  O131  1  0.29383000  0.57716000  0.08371000  1.0
  O  O132  1  0.44999000  0.43988000  0.16242000  1.0
  O  O133  1  0.49529000  0.59878000  0.15856000  1.0
  O  O134  1  0.66374000  0.58066000  0.07436000  1.0
  O  O135  1  0.66045000  0.42255000  0.09708000  1.0
  F  F136  1  0.25829000  0.90115000  0.59158000  1.0
  F  F137  1  0.26161000  0.09715000  0.59086000  1.0
  F  F138  1  0.77064000  0.89358000  0.41356000  1.0
  F  F139  1  0.77567000  0.08930000  0.41375000  1.0
  F  F140  1  0.49043000  0.75835000  0.83923000  1.0
  F  F141  1  0.49455000  0.75169000  0.73594000  1.0
  F  F142  1  0.50666000  0.23674000  0.85027000  1.0
  F  F143  1  0.50951000  0.23007000  0.74710000  1.0
  F  F144  1  0.25300000  0.11093000  0.98857000  1.0
  F  F145  1  0.25197000  0.91485000  0.98616000  1.0
  F  F146  1  0.71395000  0.09576000  0.17857000  1.0
  F  F147  1  0.71137000  0.90041000  0.17682000  1.0
