# generated using pymatgen
data_Zn4H28C29S2O13
_symmetry_space_group_name_H-M   'P 1'
_cell_length_a   17.85500000
_cell_length_b   18.59450000
_cell_length_c   19.32809073
_cell_angle_alpha   118.61858062
_cell_angle_beta   115.94120249
_cell_angle_gamma   90.08850000
_symmetry_Int_Tables_number   1
_chemical_formula_structural   Zn4H28C29S2O13
_chemical_formula_sum   'Zn8 H56 C58 S4 O26'
_cell_volume   4881.02998497
_cell_formula_units_Z   2
loop_
 _symmetry_equiv_pos_site_id
 _symmetry_equiv_pos_as_xyz
  1  'x, y, z'
loop_
 _atom_site_type_symbol
 _atom_site_label
 _atom_site_symmetry_multiplicity
 _atom_site_fract_x
 _atom_site_fract_y
 _atom_site_fract_z
 _atom_site_occupancy
  Zn  Zn0  1  0.12908000  0.53677000  0.07881000  1.0
  Zn  Zn1  1  0.96307000  0.37975000  0.93094000  1.0
  Zn  Zn2  1  0.96756000  0.55185000  0.93308000  1.0
  Zn  Zn3  1  0.95347000  0.54718000  0.09122000  1.0
  Zn  Zn4  1  0.37679000  0.96420000  0.93190000  1.0
  Zn  Zn5  1  0.54123000  0.95790000  0.08612000  1.0
  Zn  Zn6  1  0.53612000  0.12787000  0.08566000  1.0
  Zn  Zn7  1  0.55926000  0.96810000  0.93268000  1.0
  H  H8  1  0.20840000  0.81830000  0.63828000  1.0
  H  H9  1  0.68644000  0.07910000  0.38700000  1.0
  H  H10  1  0.21404000  0.80402000  0.12061000  1.0
  H  H11  1  0.12826000  0.78597000  0.01723000  1.0
  H  H12  1  0.21772000  0.88081000  0.02038000  1.0
  H  H13  1  0.30337000  0.89769000  0.12326000  1.0
  H  H14  1  0.19691000  0.76386000  0.87032000  1.0
  H  H15  1  0.26775000  0.69791000  0.86525000  1.0
  H  H16  1  0.10822000  0.66808000  0.86736000  1.0
  H  H17  1  0.18057000  0.60360000  0.86411000  1.0
  H  H18  1  0.31771000  0.71009000  0.11681000  1.0
  H  H19  1  0.30398000  0.62807000  0.01228000  1.0
  H  H20  1  0.39288000  0.72221000  0.01420000  1.0
  H  H21  1  0.40660000  0.80411000  0.11871000  1.0
  H  H22  1  0.90856000  0.31250000  0.12995000  1.0
  H  H23  1  0.89104000  0.23098000  0.02235000  1.0
  H  H24  1  0.80212000  0.13733000  0.02129000  1.0
  H  H25  1  0.81980000  0.21965000  0.12862000  1.0
  H  H26  1  0.67941000  0.11617000  0.87800000  1.0
  H  H27  1  0.60800000  0.18164000  0.88164000  1.0
  H  H28  1  0.76713000  0.21074000  0.87883000  1.0
  H  H29  1  0.69617000  0.27660000  0.88462000  1.0
  H  H30  1  0.80851000  0.40923000  0.13937000  1.0
  H  H31  1  0.72203000  0.39540000  0.03971000  1.0
  H  H32  1  0.63261000  0.30146000  0.03735000  1.0
  H  H33  1  0.71888000  0.31550000  0.13714000  1.0
  H  H34  1  0.17500000  0.27988000  0.08623000  1.0
  H  H35  1  0.26649000  0.36436000  0.14176000  1.0
  H  H36  1  0.35421000  0.27138000  0.14480000  1.0
  H  H37  1  0.26207000  0.18711000  0.08805000  1.0
  H  H38  1  0.40201000  0.30322000  0.05529000  1.0
  H  H39  1  0.34522000  0.24086000  0.93541000  1.0
  H  H40  1  0.31292000  0.39532000  0.05078000  1.0
  H  H41  1  0.25581000  0.33150000  0.93094000  1.0
  H  H42  1  0.09121000  0.18828000  0.91298000  1.0
  H  H43  1  0.12395000  0.20980000  0.84984000  1.0
  H  H44  1  0.21305000  0.11819000  0.85274000  1.0
  H  H45  1  0.17979000  0.09601000  0.91518000  1.0
  H  H46  1  0.91305000  0.81732000  0.09742000  1.0
  H  H47  1  0.87769000  0.79326000  0.15825000  1.0
  H  H48  1  0.79020000  0.88643000  0.15601000  1.0
  H  H49  1  0.82437000  0.90845000  0.09324000  1.0
  H  H50  1  0.66117000  0.76507000  0.07542000  1.0
  H  H51  1  0.60175000  0.70187000  0.95566000  1.0
  H  H52  1  0.74887000  0.67132000  0.07568000  1.0
  H  H53  1  0.68985000  0.60970000  0.95584000  1.0
  H  H54  1  0.82969000  0.72891000  0.92431000  1.0
  H  H55  1  0.73936000  0.64345000  0.86595000  1.0
  H  H56  1  0.64942000  0.73434000  0.86393000  1.0
  H  H57  1  0.73956000  0.81956000  0.92090000  1.0
  H  H58  1  0.32566000  0.71236000  0.33018000  1.0
  H  H59  1  0.40112000  0.71479000  0.43017000  1.0
  H  H60  1  0.32510000  0.61782000  0.32996000  1.0
  H  H61  1  0.88631000  0.48726000  0.67260000  1.0
  H  H62  1  0.78647000  0.46040000  0.57344000  1.0
  H  H63  1  0.79062000  0.49116000  0.67816000  1.0
  C  C64  1  0.14205000  0.36115000  0.99718000  1.0
  C  C65  1  0.87908000  0.38201000  0.76292000  1.0
  C  C66  1  0.14414000  0.63562000  0.99944000  1.0
  C  C67  1  0.86440000  0.64632000  0.01500000  1.0
  C  C68  1  0.12872000  0.62658000  0.25389000  1.0
  C  C69  1  0.86362000  0.37005000  0.01549000  1.0
  C  C70  1  0.36049000  0.86239000  0.00445000  1.0
  C  C71  1  0.61882000  0.12654000  0.25490000  1.0
  C  C72  1  0.35739000  0.13941000  0.00371000  1.0
  C  C73  1  0.64640000  0.14484000  0.01205000  1.0
  C  C74  1  0.38901000  0.88145000  0.76332000  1.0
  C  C75  1  0.64866000  0.86893000  0.01186000  1.0
  C  C76  1  0.27149000  0.70340000  0.40675000  1.0
  C  C77  1  0.25080000  0.80429000  0.60944000  1.0
  C  C78  1  0.18143000  0.67649000  0.35346000  1.0
  C  C79  1  0.34000000  0.83154000  0.66319000  1.0
  C  C80  1  0.22529000  0.75794000  0.51624000  1.0
  C  C81  1  0.29553000  0.75016000  0.50003000  1.0
  C  C82  1  0.80159000  0.36429000  0.60586000  1.0
  C  C83  1  0.69993000  0.14658000  0.41194000  1.0
  C  C84  1  0.82968000  0.33331000  0.66341000  1.0
  C  C85  1  0.67088000  0.17691000  0.35450000  1.0
  C  C86  1  0.74762000  0.21425000  0.50361000  1.0
  C  C87  1  0.75439000  0.29508000  0.51443000  1.0
  C  C88  1  0.19617000  0.78571000  0.05108000  1.0
  C  C89  1  0.25546000  0.84829000  0.05282000  1.0
  C  C90  1  0.30329000  0.79941000  0.00207000  1.0
  C  C91  1  0.23486000  0.73171000  0.90305000  1.0
  C  C92  1  0.17633000  0.66889000  0.90166000  1.0
  C  C93  1  0.20398000  0.69424000  0.99968000  1.0
  C  C94  1  0.29855000  0.69323000  0.04755000  1.0
  C  C95  1  0.35735000  0.75544000  0.04882000  1.0
  C  C96  1  0.85807000  0.26506000  0.05983000  1.0
  C  C97  1  0.79891000  0.20297000  0.05891000  1.0
  C  C98  1  0.70418000  0.20694000  0.01386000  1.0
  C  C99  1  0.67604000  0.18163000  0.91571000  1.0
  C  C100  1  0.73458000  0.24420000  0.91693000  1.0
  C  C101  1  0.80390000  0.31171000  0.01585000  1.0
  C  C102  1  0.75925000  0.36073000  0.06936000  1.0
  C  C103  1  0.70000000  0.29862000  0.06791000  1.0
  C  C104  1  0.23109000  0.29925000  0.08305000  1.0
  C  C105  1  0.28932000  0.23777000  0.08478000  1.0
  C  C106  1  0.29760000  0.19713000  0.99824000  1.0
  C  C107  1  0.33706000  0.26916000  0.99556000  1.0
  C  C108  1  0.27803000  0.32985000  0.99288000  1.0
  C  C109  1  0.19869000  0.29988000  0.99480000  1.0
  C  C110  1  0.14840000  0.20908000  0.91243000  1.0
  C  C111  1  0.20719000  0.14820000  0.91421000  1.0
  C  C112  1  0.85527000  0.79554000  0.09674000  1.0
  C  C113  1  0.79655000  0.85684000  0.09489000  1.0
  C  C114  1  0.70543000  0.80765000  0.01001000  1.0
  C  C115  1  0.66751000  0.73613000  0.01433000  1.0
  C  C116  1  0.72595000  0.67469000  0.01481000  1.0
  C  C117  1  0.80471000  0.70473000  0.01214000  1.0
  C  C118  1  0.77337000  0.70816000  0.92614000  1.0
  C  C119  1  0.71401000  0.76843000  0.92446000  1.0
  C  C120  1  0.33454000  0.68642000  0.37289000  1.0
  C  C121  1  0.81690000  0.45561000  0.63368000  1.0
  S  S122  1  0.12801000  0.70754000  0.41589000  1.0
  S  S123  1  0.39327000  0.80091000  0.60075000  1.0
  S  S124  1  0.79963000  0.22276000  0.60712000  1.0
  S  S125  1  0.70167000  0.28721000  0.41104000  1.0
  O  O126  1  0.00248000  0.50415000  0.00981000  1.0
  O  O127  1  0.18029000  0.44030000  0.05510000  1.0
  O  O128  1  0.89482000  0.33900000  0.80098000  1.0
  O  O129  1  0.06316000  0.62050000  0.94811000  1.0
  O  O130  1  0.06095000  0.32916000  0.94310000  1.0
  O  O131  1  0.17875000  0.60746000  0.05134000  1.0
  O  O132  1  0.90193000  0.46294000  0.80321000  1.0
  O  O133  1  0.89338000  0.62509000  0.96024000  1.0
  O  O134  1  0.04642000  0.60949000  0.21986000  1.0
  O  O135  1  0.88178000  0.62388000  0.07215000  1.0
  O  O136  1  0.16953000  0.60447000  0.20974000  1.0
  O  O137  1  0.89509000  0.33296000  0.96352000  1.0
  O  O138  1  0.87821000  0.45015000  0.06657000  1.0
  O  O139  1  0.50318000  0.00360000  0.00732000  1.0
  O  O140  1  0.32272000  0.89198000  0.95444000  1.0
  O  O141  1  0.59696000  0.04586000  0.21644000  1.0
  O  O142  1  0.43702000  0.17616000  0.06406000  1.0
  O  O143  1  0.44166000  0.88155000  0.05694000  1.0
  O  O144  1  0.32401000  0.05946000  0.94891000  1.0
  O  O145  1  0.59995000  0.16850000  0.21574000  1.0
  O  O146  1  0.61303000  0.17690000  0.06272000  1.0
  O  O147  1  0.47152000  0.90358000  0.80162000  1.0
  O  O148  1  0.63583000  0.06551000  0.96003000  1.0
  O  O149  1  0.34392000  0.89796000  0.80261000  1.0
  O  O150  1  0.62542000  0.89340000  0.07166000  1.0
  O  O151  1  0.62921000  0.89167000  0.95487000  1.0
