# generated using pymatgen
data_AgH6C6N5O4
_symmetry_space_group_name_H-M   'P 1'
_cell_length_a   8.08602000
_cell_length_b   9.87011000
_cell_length_c   12.22260000
_cell_angle_alpha   109.83900000
_cell_angle_beta   89.99990000
_cell_angle_gamma   89.99970000
_symmetry_Int_Tables_number   1
_chemical_formula_structural   AgH6C6N5O4
_chemical_formula_sum   'Ag4 H24 C24 N20 O16'
_cell_volume   917.58953843
_cell_formula_units_Z   4
loop_
 _symmetry_equiv_pos_site_id
 _symmetry_equiv_pos_as_xyz
  1  'x, y, z'
loop_
 _atom_site_type_symbol
 _atom_site_label
 _atom_site_symmetry_multiplicity
 _atom_site_fract_x
 _atom_site_fract_y
 _atom_site_fract_z
 _atom_site_occupancy
  Ag  Ag0  1  0.20259000  0.81103000  0.81043000  1.0
  Ag  Ag1  1  0.70259000  0.68897000  0.68957000  1.0
  Ag  Ag2  1  0.79741000  0.18897000  0.18957000  1.0
  Ag  Ag3  1  0.29741000  0.31103000  0.31043000  1.0
  H  H4  1  0.75128000  0.82668000  0.29618000  1.0
  H  H5  1  0.25128000  0.67332000  0.20382000  1.0
  H  H6  1  0.24872000  0.17332000  0.70382000  1.0
  H  H7  1  0.74872000  0.32668000  0.79618000  1.0
  H  H8  1  0.75455000  0.63372000  0.23653000  1.0
  H  H9  1  0.25455000  0.86628000  0.26347000  1.0
  H  H10  1  0.24545000  0.36628000  0.76347000  1.0
  H  H11  1  0.74545000  0.13372000  0.73653000  1.0
  H  H12  1  0.91274000  0.73417000  0.19963000  1.0
  H  H13  1  0.41274000  0.76583000  0.30037000  1.0
  H  H14  1  0.08726000  0.26583000  0.80037000  1.0
  H  H15  1  0.58726000  0.23417000  0.69963000  1.0
  H  H16  1  0.36243000  0.48458000  0.59860000  1.0
  H  H17  1  0.86243000  0.01542000  0.90140000  1.0
  H  H18  1  0.63757000  0.51542000  0.40140000  1.0
  H  H19  1  0.13757000  0.98458000  0.09860000  1.0
  H  H20  1  0.02685000  0.52582000  0.27548000  1.0
  H  H21  1  0.52685000  0.97418000  0.22452000  1.0
  H  H22  1  0.97315000  0.47418000  0.72452000  1.0
  H  H23  1  0.47315000  0.02582000  0.77548000  1.0
  H  H24  1  0.82992000  0.92225000  0.49453000  1.0
  H  H25  1  0.32992000  0.57776000  0.00547000  1.0
  H  H26  1  0.17008000  0.07775000  0.50547000  1.0
  H  H27  1  0.67008000  0.42225000  0.99453000  1.0
  C  C28  1  0.27557000  0.54370000  0.56407000  1.0
  C  C29  1  0.77556000  0.95630000  0.93593000  1.0
  C  C30  1  0.72443000  0.45630000  0.43593000  1.0
  C  C31  1  0.22444000  0.04370000  0.06407000  1.0
  C  C32  1  0.12071000  0.60165000  0.44521000  1.0
  C  C33  1  0.62071000  0.89835000  0.05479000  1.0
  C  C34  1  0.87929000  0.39835000  0.55479000  1.0
  C  C35  1  0.37929000  0.10164000  0.94521000  1.0
  C  C36  1  0.92786000  0.72882000  0.37343000  1.0
  C  C37  1  0.42785000  0.77118000  0.12657000  1.0
  C  C38  1  0.07214000  0.27118000  0.62657000  1.0
  C  C39  1  0.57214000  0.22882000  0.87343000  1.0
  C  C40  1  0.83078000  0.73150000  0.27081000  1.0
  C  C41  1  0.33078000  0.76850000  0.22919000  1.0
  C  C42  1  0.16922000  0.26850000  0.72919000  1.0
  C  C43  1  0.66922000  0.23150000  0.77081000  1.0
  C  C44  1  0.91518000  0.83318000  0.48165000  1.0
  C  C45  1  0.41518000  0.66683000  0.01835000  1.0
  C  C46  1  0.08482000  0.16682000  0.51835000  1.0
  C  C47  1  0.58482000  0.33317000  0.98165000  1.0
  C  C48  1  0.00350000  0.82807000  0.58138000  1.0
  C  C49  1  0.50350000  0.67193000  0.91862000  1.0
  C  C50  1  0.99650000  0.17193000  0.41863000  1.0
  C  C51  1  0.49650000  0.32806000  0.08137000  1.0
  N  N52  1  0.20831000  0.66778000  0.62829000  1.0
  N  N53  1  0.70830000  0.83222000  0.87171000  1.0
  N  N54  1  0.79170000  0.33222000  0.37171000  1.0
  N  N55  1  0.29169000  0.16778000  0.12829000  1.0
  N  N56  1  0.27553000  0.99772000  0.95093000  1.0
  N  N57  1  0.77553000  0.50228000  0.54907000  1.0
  N  N58  1  0.72447000  0.00227000  0.04907000  1.0
  N  N59  1  0.22447000  0.49773000  0.45093000  1.0
  N  N60  1  0.03208000  0.61282000  0.35565000  1.0
  N  N61  1  0.53208000  0.88718000  0.14436000  1.0
  N  N62  1  0.96792000  0.38718000  0.64435000  1.0
  N  N63  1  0.46792000  0.11282000  0.85564000  1.0
  N  N64  1  0.10940000  0.70472000  0.55224000  1.0
  N  N65  1  0.60940000  0.79528000  0.94776000  1.0
  N  N66  1  0.89060000  0.29528000  0.44776000  1.0
  N  N67  1  0.39060000  0.20472000  0.05224000  1.0
  N  N68  1  0.96174000  0.63963000  0.93512000  1.0
  N  N69  1  0.46174000  0.86037000  0.56488000  1.0
  N  N70  1  0.03826000  0.36037000  0.06488000  1.0
  N  N71  1  0.53826000  0.13963000  0.43512000  1.0
  O  O72  1  0.99563000  0.91155000  0.68318000  1.0
  O  O73  1  0.49563000  0.58845000  0.81683000  1.0
  O  O74  1  0.00437000  0.08845000  0.31682000  1.0
  O  O75  1  0.50437000  0.41155000  0.18318000  1.0
  O  O76  1  0.03619000  0.61427000  0.83552000  1.0
  O  O77  1  0.53620000  0.88573000  0.66448000  1.0
  O  O78  1  0.96381000  0.38573000  0.16448000  1.0
  O  O79  1  0.46381000  0.11427000  0.33552000  1.0
  O  O80  1  0.85374000  0.55273000  0.94321000  1.0
  O  O81  1  0.35374000  0.94727000  0.55679000  1.0
  O  O82  1  0.14626000  0.44727000  0.05679000  1.0
  O  O83  1  0.64626000  0.05273000  0.44321000  1.0
  O  O84  1  0.99971000  0.75090000  0.01803000  1.0
  O  O85  1  0.49971000  0.74910000  0.48197000  1.0
  O  O86  1  0.00029000  0.24910000  0.98197000  1.0
  O  O87  1  0.50029000  0.25090000  0.51803000  1.0
