# generated using pymatgen
data_CdH14C20Br2N3O
_symmetry_space_group_name_H-M   'P 1'
_cell_length_a   8.02825000
_cell_length_b   9.29792000
_cell_length_c   13.66300000
_cell_angle_alpha   79.83690000
_cell_angle_beta   83.51720000
_cell_angle_gamma   77.34730000
_symmetry_Int_Tables_number   1
_chemical_formula_structural   CdH14C20Br2N3O
_chemical_formula_sum   'Cd2 H28 C40 Br4 N6 O2'
_cell_volume   976.57533796
_cell_formula_units_Z   2
loop_
 _symmetry_equiv_pos_site_id
 _symmetry_equiv_pos_as_xyz
  1  'x, y, z'
loop_
 _atom_site_type_symbol
 _atom_site_label
 _atom_site_symmetry_multiplicity
 _atom_site_fract_x
 _atom_site_fract_y
 _atom_site_fract_z
 _atom_site_occupancy
  Cd  Cd0  1  0.46038000  0.52173000  0.14218000  1.0
  Cd  Cd1  1  0.53957000  0.47827000  0.85781000  1.0
  H  H2  1  0.54915000  0.93314000  0.75860000  1.0
  H  H3  1  0.45084000  0.06685000  0.24142000  1.0
  H  H4  1  0.75763000  0.84378000  0.85356000  1.0
  H  H5  1  0.24237000  0.15623000  0.14643000  1.0
  H  H6  1  0.56368000  0.23357000  0.99842000  1.0
  H  H7  1  0.43634000  0.76644000  0.00159000  1.0
  H  H8  1  0.74606000  0.12627000  0.13353000  1.0
  H  H9  1  0.25397000  0.87376000  0.86647000  1.0
  H  H10  1  0.19302000  0.93537000  0.51256000  1.0
  H  H11  1  0.80698000  0.06462000  0.48744000  1.0
  H  H12  1  0.22204000  0.50776000  0.71827000  1.0
  H  H13  1  0.77797000  0.49224000  0.28171000  1.0
  H  H14  1  0.93583000  0.73105000  0.99458000  1.0
  H  H15  1  0.06422000  0.26900000  0.00540000  1.0
  H  H16  1  0.38328000  0.02223000  0.57845000  1.0
  H  H17  1  0.61673000  0.97772000  0.42157000  1.0
  H  H18  1  0.18479000  0.24476000  0.49304000  1.0
  H  H19  1  0.81522000  0.75519000  0.50697000  1.0
  H  H20  1  0.02285000  0.03902000  0.36637000  1.0
  H  H21  1  0.97714000  0.96099000  0.63363000  1.0
  H  H22  1  0.36082000  0.51628000  0.40056000  1.0
  H  H23  1  0.63916000  0.48371000  0.59943000  1.0
  H  H24  1  0.35740000  0.67335000  0.53193000  1.0
  H  H25  1  0.64259000  0.32664000  0.46806000  1.0
  H  H26  1  0.92398000  0.02622000  0.22472000  1.0
  H  H27  1  0.07603000  0.97380000  0.77528000  1.0
  H  H28  1  0.10207000  0.47900000  0.56406000  1.0
  H  H29  1  0.89796000  0.52096000  0.43593000  1.0
  C  C30  1  0.54476000  0.12000000  0.83353000  1.0
  C  C31  1  0.45523000  0.88001000  0.16648000  1.0
  C  C32  1  0.85707000  0.91891000  0.07358000  1.0
  C  C33  1  0.14297000  0.08109000  0.92641000  1.0
  C  C34  1  0.75485000  0.90604000  0.91456000  1.0
  C  C35  1  0.24516000  0.09398000  0.08545000  1.0
  C  C36  1  0.37102000  0.28031000  0.73498000  1.0
  C  C37  1  0.62899000  0.71967000  0.26501000  1.0
  C  C38  1  0.08996000  0.83850000  0.29957000  1.0
  C  C39  1  0.91003000  0.16151000  0.70043000  1.0
  C  C40  1  0.64973000  0.12600000  0.99533000  1.0
  C  C41  1  0.35027000  0.87401000  0.00467000  1.0
  C  C42  1  0.75194000  0.06359000  0.07249000  1.0
  C  C43  1  0.24808000  0.93642000  0.92751000  1.0
  C  C44  1  0.19152000  0.86718000  0.45574000  1.0
  C  C45  1  0.80846000  0.13281000  0.54427000  1.0
  C  C46  1  0.25688000  0.40340000  0.68809000  1.0
  C  C47  1  0.74315000  0.59659000  0.31190000  1.0
  C  C48  1  0.85498000  0.84193000  0.99266000  1.0
  C  C49  1  0.14506000  0.15808000  0.00733000  1.0
  C  C50  1  0.34769000  0.12707000  0.60803000  1.0
  C  C51  1  0.65233000  0.87290000  0.39198000  1.0
  C  C52  1  0.64993000  0.05032000  0.91406000  1.0
  C  C53  1  0.35005000  0.94970000  0.08595000  1.0
  C  C54  1  0.19563000  0.68666000  0.30610000  1.0
  C  C55  1  0.80436000  0.31334000  0.69389000  1.0
  C  C56  1  0.23743000  0.25119000  0.56189000  1.0
  C  C57  1  0.76259000  0.74878000  0.43811000  1.0
  C  C58  1  0.09684000  0.92452000  0.37447000  1.0
  C  C59  1  0.90314000  0.07547000  0.62553000  1.0
  C  C60  1  0.41073000  0.14333000  0.69564000  1.0
  C  C61  1  0.58928000  0.85667000  0.30436000  1.0
  C  C62  1  0.28698000  0.63055000  0.39460000  1.0
  C  C63  1  0.71300000  0.36946000  0.60540000  1.0
  C  C64  1  0.28528000  0.71770000  0.46627000  1.0
  C  C65  1  0.71470000  0.28230000  0.53373000  1.0
  C  C66  1  0.98511000  0.90863000  0.22023000  1.0
  C  C67  1  0.01490000  0.09138000  0.77977000  1.0
  C  C68  1  0.19112000  0.38601000  0.60225000  1.0
  C  C69  1  0.80890000  0.61396000  0.39773000  1.0
  Br  Br70  1  0.26311000  0.51054000  0.99879000  1.0
  Br  Br71  1  0.73683000  0.48947000  0.00120000  1.0
  Br  Br72  1  0.54314000  0.28013000  0.27674000  1.0
  Br  Br73  1  0.45672000  0.71990000  0.72327000  1.0
  N  N74  1  0.51893000  0.04635000  0.75946000  1.0
  N  N75  1  0.48107000  0.95365000  0.24056000  1.0
  N  N76  1  0.45803000  0.26354000  0.81883000  1.0
  N  N77  1  0.54197000  0.73646000  0.18118000  1.0
  N  N78  1  0.96099000  0.84289000  0.14706000  1.0
  N  N79  1  0.03904000  0.15713000  0.85292000  1.0
  O  O80  1  0.21083000  0.60997000  0.23594000  1.0
  O  O81  1  0.78917000  0.39004000  0.76406000  1.0
