# generated using pymatgen
data_CuH26C24N4O5
_symmetry_space_group_name_H-M   'P 1'
_cell_length_a   8.97630000
_cell_length_b   10.33270000
_cell_length_c   13.67120000
_cell_angle_alpha   106.32800000
_cell_angle_beta   102.49500000
_cell_angle_gamma   98.01290000
_symmetry_Int_Tables_number   1
_chemical_formula_structural   CuH26C24N4O5
_chemical_formula_sum   'Cu2 H52 C48 N8 O10'
_cell_volume   1160.59004970
_cell_formula_units_Z   2
loop_
 _symmetry_equiv_pos_site_id
 _symmetry_equiv_pos_as_xyz
  1  'x, y, z'
loop_
 _atom_site_type_symbol
 _atom_site_label
 _atom_site_symmetry_multiplicity
 _atom_site_fract_x
 _atom_site_fract_y
 _atom_site_fract_z
 _atom_site_occupancy
  Cu  Cu0  1  0.52768000  0.60392000  0.75612000  1.0
  Cu  Cu1  1  0.47230000  0.39609000  0.24389000  1.0
  H  H2  1  0.68439000  0.63697000  0.99521000  1.0
  H  H3  1  0.31553000  0.36304000  0.00474000  1.0
  H  H4  1  0.66276000  0.50069000  0.89971000  1.0
  H  H5  1  0.33726000  0.49932000  0.10026000  1.0
  H  H6  1  0.83001000  0.78453000  0.84414000  1.0
  H  H7  1  0.16997000  0.21550000  0.15586000  1.0
  H  H8  1  0.07481000  0.71413000  0.60138000  1.0
  H  H9  1  0.92516000  0.28586000  0.39862000  1.0
  H  H10  1  0.83912000  0.52518000  0.48555000  1.0
  H  H11  1  0.16084000  0.47481000  0.51446000  1.0
  H  H12  1  0.61498000  0.47772000  0.55732000  1.0
  H  H13  1  0.38499000  0.52229000  0.44269000  1.0
  H  H14  1  0.11019000  0.89570000  0.88640000  1.0
  H  H15  1  0.88981000  0.10428000  0.11361000  1.0
  H  H16  1  0.21155000  0.87285000  0.78685000  1.0
  H  H17  1  0.78845000  0.12712000  0.21316000  1.0
  H  H18  1  0.96145000  0.95762000  0.62589000  1.0
  H  H19  1  0.03858000  0.04238000  0.37412000  1.0
  H  H20  1  0.16909000  0.99207000  0.66162000  1.0
  H  H21  1  0.83094000  0.00793000  0.33840000  1.0
  H  H22  1  0.18940000  0.23712000  0.73410000  1.0
  H  H23  1  0.81063000  0.76289000  0.26593000  1.0
  H  H24  1  0.06122000  0.17695000  0.60335000  1.0
  H  H25  1  0.93882000  0.82305000  0.39666000  1.0
  H  H26  1  0.84057000  0.24700000  0.84429000  1.0
  H  H27  1  0.15942000  0.75298000  0.15570000  1.0
  H  H28  1  0.04945000  0.28327000  0.88879000  1.0
  H  H29  1  0.95054000  0.71671000  0.11122000  1.0
  H  H30  1  0.95128000  0.06236000  0.90588000  1.0
  H  H31  1  0.04871000  0.93761000  0.09411000  1.0
  H  H32  1  0.82868000  0.99998000  0.77359000  1.0
  H  H33  1  0.17133000  0.00000000  0.22640000  1.0
  H  H34  1  0.82864000  0.38788000  0.73545000  1.0
  H  H35  1  0.17134000  0.61209000  0.26454000  1.0
  H  H36  1  0.92150000  0.35693000  0.63130000  1.0
  H  H37  1  0.07850000  0.64306000  0.36870000  1.0
  H  H38  1  0.21728000  0.43240000  0.67379000  1.0
  H  H39  1  0.78270000  0.56760000  0.32622000  1.0
  H  H40  1  0.97128000  0.55315000  0.91222000  1.0
  H  H41  1  0.02869000  0.44684000  0.08779000  1.0
  H  H42  1  0.21854000  0.72627000  0.02452000  1.0
  H  H43  1  0.78144000  0.27374000  0.97549000  1.0
  H  H44  1  0.45054000  0.74407000  0.95324000  1.0
  H  H45  1  0.54942000  0.25593000  0.04675000  1.0
  H  H46  1  0.54472000  0.07188000  0.79056000  1.0
  H  H47  1  0.45531000  0.92816000  0.20943000  1.0
  H  H48  1  0.29359000  0.78276000  0.48534000  1.0
  H  H49  1  0.70645000  0.21724000  0.51466000  1.0
  H  H50  1  0.25048000  0.97471000  0.41531000  1.0
  H  H51  1  0.74958000  0.02527000  0.58466000  1.0
  H  H52  1  0.35564000  0.22027000  0.53615000  1.0
  H  H53  1  0.64440000  0.77971000  0.46381000  1.0
  C  C54  1  0.83816000  0.73189000  0.76494000  1.0
  C  C55  1  0.16182000  0.26812000  0.23506000  1.0
  C  C56  1  0.97014000  0.76707000  0.73184000  1.0
  C  C57  1  0.02985000  0.23293000  0.26816000  1.0
  C  C58  1  0.97192000  0.69218000  0.62936000  1.0
  C  C59  1  0.02806000  0.30781000  0.37064000  1.0
  C  C60  1  0.84353000  0.58792000  0.56523000  1.0
  C  C61  1  0.15643000  0.41208000  0.43478000  1.0
  C  C62  1  0.71611000  0.55986000  0.60453000  1.0
  C  C63  1  0.28386000  0.44015000  0.39548000  1.0
  C  C64  1  0.09953000  0.88839000  0.80324000  1.0
  C  C65  1  0.90047000  0.11159000  0.19677000  1.0
  C  C66  1  0.06834000  0.02666000  0.68510000  1.0
  C  C67  1  0.93169000  0.97334000  0.31491000  1.0
  C  C68  1  0.07306000  0.17383000  0.68453000  1.0
  C  C69  1  0.92697000  0.82617000  0.31548000  1.0
  C  C70  1  0.94578000  0.21479000  0.82587000  1.0
  C  C71  1  0.05421000  0.78519000  0.17413000  1.0
  C  C72  1  0.94248000  0.06667000  0.82525000  1.0
  C  C73  1  0.05751000  0.93332000  0.17474000  1.0
  C  C74  1  0.93499000  0.36275000  0.71441000  1.0
  C  C75  1  0.06501000  0.63724000  0.28559000  1.0
  C  C76  1  0.21077000  0.49422000  0.75114000  1.0
  C  C77  1  0.78921000  0.50578000  0.24886000  1.0
  C  C78  1  0.07451000  0.47616000  0.78389000  1.0
  C  C79  1  0.92547000  0.52385000  0.21611000  1.0
  C  C80  1  0.07621000  0.56134000  0.88407000  1.0
  C  C81  1  0.92377000  0.43866000  0.11593000  1.0
  C  C82  1  0.21146000  0.65908000  0.94593000  1.0
  C  C83  1  0.78853000  0.34092000  0.05407000  1.0
  C  C84  1  0.34246000  0.66924000  0.90758000  1.0
  C  C85  1  0.65751000  0.33076000  0.09242000  1.0
  C  C86  1  0.45644000  0.16088000  0.67012000  1.0
  C  C87  1  0.54359000  0.83913000  0.32986000  1.0
  C  C88  1  0.48034000  0.05094000  0.70855000  1.0
  C  C89  1  0.51969000  0.94908000  0.29143000  1.0
  C  C90  1  0.41952000  0.91446000  0.64185000  1.0
  C  C91  1  0.58052000  0.08555000  0.35815000  1.0
  C  C92  1  0.33664000  0.88942000  0.53647000  1.0
  C  C93  1  0.66341000  0.11058000  0.46353000  1.0
  C  C94  1  0.31293000  0.99809000  0.49796000  1.0
  C  C95  1  0.68713000  0.00191000  0.50202000  1.0
  C  C96  1  0.37222000  0.13342000  0.56460000  1.0
  C  C97  1  0.62782000  0.86658000  0.43538000  1.0
  C  C98  1  0.51833000  0.30852000  0.74020000  1.0
  C  C99  1  0.48168000  0.69149000  0.25978000  1.0
  C  C100  1  0.43867000  0.79080000  0.67678000  1.0
  C  C101  1  0.56134000  0.20924000  0.32325000  1.0
  N  N102  1  0.71479000  0.63088000  0.70312000  1.0
  N  N103  1  0.28518000  0.36914000  0.29689000  1.0
  N  N104  1  0.07557000  0.02116000  0.79148000  1.0
  N  N105  1  0.92446000  0.97885000  0.20854000  1.0
  N  N106  1  0.94548000  0.22540000  0.72162000  1.0
  N  N107  1  0.05453000  0.77458000  0.27838000  1.0
  N  N108  1  0.34173000  0.58734000  0.81165000  1.0
  N  N109  1  0.65826000  0.41266000  0.18835000  1.0
  O  O110  1  0.37108000  0.67239000  0.61252000  1.0
  O  O111  1  0.62888000  0.32764000  0.38753000  1.0
  O  O112  1  0.52520000  0.80989000  0.77073000  1.0
  O  O113  1  0.47480000  0.19015000  0.22930000  1.0
  O  O114  1  0.49360000  0.39908000  0.69358000  1.0
  O  O115  1  0.50636000  0.60093000  0.30641000  1.0
  O  O116  1  0.58829000  0.33488000  0.83655000  1.0
  O  O117  1  0.41175000  0.66514000  0.16341000  1.0
  O  O118  1  0.70855000  0.60336000  0.92772000  1.0
  O  O119  1  0.29144000  0.39665000  0.07224000  1.0
