# generated using pymatgen
data_Zn2H16C33I4(N3O5)2
_symmetry_space_group_name_H-M   'P 1'
_cell_length_a   9.74114000
_cell_length_b   11.05220000
_cell_length_c   19.13500000
_cell_angle_alpha   80.90300000
_cell_angle_beta   83.94330000
_cell_angle_gamma   81.26400000
_symmetry_Int_Tables_number   1
_chemical_formula_structural   Zn2H16C33I4(N3O5)2
_chemical_formula_sum   'Zn2 H16 C33 I4 N6 O10'
_cell_volume   2003.56040651
_cell_formula_units_Z   1
loop_
 _symmetry_equiv_pos_site_id
 _symmetry_equiv_pos_as_xyz
  1  'x, y, z'
loop_
 _atom_site_type_symbol
 _atom_site_label
 _atom_site_symmetry_multiplicity
 _atom_site_fract_x
 _atom_site_fract_y
 _atom_site_fract_z
 _atom_site_occupancy
  Zn  Zn0  1  0.64543000  0.48547000  0.48839000  1.0
  Zn  Zn1  1  0.34890000  0.52527000  0.50625000  1.0
  H  H2  1  0.73420000  0.40429000  0.71559000  1.0
  H  H3  1  0.83768000  0.83571000  0.51032000  1.0
  H  H4  1  0.80196000  0.88533000  0.41970000  1.0
  H  H5  1  0.83781000  0.05698000  0.52611000  1.0
  H  H6  1  0.84787000  0.32283000  0.62172000  1.0
  H  H7  1  0.94123000  0.22677000  0.55967000  1.0
  H  H8  1  0.72356000  0.36470000  0.84791000  1.0
  H  H9  1  0.17015000  0.27770000  0.59260000  1.0
  H  H10  1  0.29270000  0.52803000  0.85822000  1.0
  H  H11  1  0.30388000  0.56361000  0.72514000  1.0
  H  H12  1  0.70562000  0.37407000  0.15275000  1.0
  H  H13  1  0.70277000  0.41279000  0.27866000  1.0
  H  H14  1  0.25804000  0.50874000  0.28801000  1.0
  H  H15  1  0.25958000  0.47112000  0.16211000  1.0
  H  H16  1  0.28099000  0.12732000  0.54999000  1.0
  H  H17  1  0.17118000  0.78079000  0.63378000  1.0
  C  C18  1  0.49703000  0.26483000  0.51828000  1.0
  C  C19  1  0.51777000  0.48252000  0.71252000  1.0
  C  C20  1  0.48469000  0.40229000  0.07529000  1.0
  C  C21  1  0.49661000  0.41342000  0.93901000  1.0
  C  C22  1  0.60820000  0.40427000  0.18253000  1.0
  C  C23  1  0.60681000  0.42578000  0.25220000  1.0
  C  C24  1  0.48069000  0.46402000  0.29025000  1.0
  C  C25  1  0.35539000  0.47975000  0.25773000  1.0
  C  C26  1  0.35622000  0.45897000  0.18790000  1.0
  C  C27  1  0.48284000  0.42118000  0.14959000  1.0
  C  C28  1  0.62104000  0.05145000  0.50177000  1.0
  C  C29  1  0.51815000  0.49403000  0.63342000  1.0
  C  C30  1  0.49985000  0.12914000  0.51909000  1.0
  C  C31  1  0.37884000  0.07170000  0.53531000  1.0
  C  C32  1  0.37861000  0.94547000  0.53390000  1.0
  C  C33  1  0.50066000  0.86945000  0.51090000  1.0
  C  C34  1  0.62028000  0.92673000  0.49640000  1.0
  C  C35  1  0.77482000  0.90424000  0.47437000  1.0
  C  C36  1  0.77629000  0.04263000  0.48420000  1.0
  C  C37  1  0.06338000  0.45184000  0.53687000  1.0
  C  C38  1  0.05749000  0.60942000  0.44555000  1.0
  C  C39  1  0.92847000  0.57794000  0.42858000  1.0
  C  C40  1  0.50034000  0.74006000  0.49726000  1.0
  C  C41  1  0.93585000  0.42538000  0.52232000  1.0
  C  C42  1  0.93338000  0.31547000  0.57994000  1.0
  C  C43  1  0.07839000  0.34716000  0.59747000  1.0
  C  C44  1  0.48127000  0.48715000  0.36516000  1.0
  C  C45  1  0.63731000  0.42989000  0.74707000  1.0
  C  C46  1  0.63199000  0.40877000  0.82083000  1.0
  C  C47  1  0.50642000  0.44143000  0.86130000  1.0
  C  C48  1  0.38869000  0.50055000  0.82656000  1.0
  C  C49  1  0.39464000  0.52031000  0.75292000  1.0
  C  C50  1  0.24463000  0.89689000  0.56154000  1.0
  I  I51  1  0.85390000  0.15927000  0.39055000  1.0
  I  I52  1  0.13502000  0.76559000  0.38980000  1.0
  I  I53  1  0.83939000  0.66107000  0.33525000  1.0
  I  I54  1  0.07633000  0.40072000  0.70148000  1.0
  N  N55  1  0.36876000  0.42695000  0.97491000  1.0
  N  N56  1  0.36302000  0.42216000  0.04428000  1.0
  N  N57  1  0.60599000  0.35532000  0.04165000  1.0
  N  N58  1  0.61209000  0.36173000  0.97213000  1.0
  N  N59  1  0.12771000  0.54326000  0.50019000  1.0
  N  N60  1  0.86406000  0.48773000  0.46937000  1.0
  O  O61  1  0.61554000  0.30225000  0.51296000  1.0
  O  O62  1  0.37803000  0.33116000  0.52121000  1.0
  O  O63  1  0.63603000  0.48234000  0.59745000  1.0
  O  O64  1  0.39901000  0.51259000  0.60856000  1.0
  O  O65  1  0.61839000  0.67621000  0.48555000  1.0
  O  O66  1  0.38195000  0.70537000  0.49618000  1.0
  O  O67  1  0.60002000  0.47920000  0.38904000  1.0
  O  O68  1  0.36428000  0.51288000  0.39983000  1.0
  O  O69  1  0.13060000  0.93828000  0.53992000  1.0
  O  O70  1  0.26206000  0.80881000  0.61928000  1.0
