# generated using pymatgen
data_CdH9C5Br2NO3
_symmetry_space_group_name_H-M   'P 1'
_cell_length_a   7.49400000
_cell_length_b   7.92611000
_cell_length_c   7.93438000
_cell_angle_alpha   102.68870000
_cell_angle_beta   89.99870000
_cell_angle_gamma   89.99910000
_symmetry_Int_Tables_number   1
_chemical_formula_structural   CdH9C5Br2NO3
_chemical_formula_sum   'Cd2 H18 C10 Br4 N2 O6'
_cell_volume   459.77857114
_cell_formula_units_Z   2
loop_
 _symmetry_equiv_pos_site_id
 _symmetry_equiv_pos_as_xyz
  1  'x, y, z'
loop_
 _atom_site_type_symbol
 _atom_site_label
 _atom_site_symmetry_multiplicity
 _atom_site_fract_x
 _atom_site_fract_y
 _atom_site_fract_z
 _atom_site_occupancy
  Cd  Cd0  1  0.04980000  0.99717000  0.50241000  1.0
  Cd  Cd1  1  0.54980000  0.00283000  0.49759000  1.0
  H  H2  1  0.79891000  0.91060000  0.08526000  1.0
  H  H3  1  0.29897000  0.08940000  0.91474000  1.0
  H  H4  1  0.00817000  0.68406000  0.03760000  1.0
  H  H5  1  0.50820000  0.31596000  0.96240000  1.0
  H  H6  1  0.07377000  0.76823000  0.85760000  1.0
  H  H7  1  0.57381000  0.23178000  0.14240000  1.0
  H  H8  1  0.96434000  0.51455000  0.67409000  1.0
  H  H9  1  0.46434000  0.48546000  0.32591000  1.0
  H  H10  1  0.68108000  0.62821000  0.64460000  1.0
  H  H11  1  0.18108000  0.37179000  0.35541000  1.0
  H  H12  1  0.60673000  0.47108000  0.75911000  1.0
  H  H13  1  0.10674000  0.52892000  0.24089000  1.0
  H  H14  1  0.59494000  0.67911000  0.01525000  1.0
  H  H15  1  0.09497000  0.32089000  0.98475000  1.0
  H  H16  1  0.54351000  0.80113000  0.87311000  1.0
  H  H17  1  0.04354000  0.19886000  0.12689000  1.0
  H  H18  1  0.88657000  0.29515000  0.80295000  1.0
  H  H19  1  0.38657000  0.70486000  0.19707000  1.0
  C  C20  1  0.79616000  0.97095000  0.83284000  1.0
  C  C21  1  0.29621000  0.02905000  0.16717000  1.0
  C  C22  1  0.80523000  0.83919000  0.94999000  1.0
  C  C23  1  0.30526000  0.16081000  0.05001000  1.0
  C  C24  1  0.96209000  0.71272000  0.91589000  1.0
  C  C25  1  0.46211000  0.28728000  0.08411000  1.0
  C  C26  1  0.89165000  0.54572000  0.79720000  1.0
  C  C27  1  0.39165000  0.45429000  0.20281000  1.0
  C  C28  1  0.69539000  0.58174000  0.76425000  1.0
  C  C29  1  0.19540000  0.41826000  0.23575000  1.0
  Br  Br30  1  0.30048000  0.25516000  0.62136000  1.0
  Br  Br31  1  0.80047000  0.74484000  0.37864000  1.0
  Br  Br32  1  0.29895000  0.76971000  0.57151000  1.0
  Br  Br33  1  0.79897000  0.23029000  0.42849000  1.0
  N  N34  1  0.64305000  0.72674000  0.91098000  1.0
  N  N35  1  0.14308000  0.27326000  0.08902000  1.0
  O  O36  1  0.94065000  0.04096000  0.80013000  1.0
  O  O37  1  0.44069000  0.95905000  0.19987000  1.0
  O  O38  1  0.64132000  0.00040000  0.78144000  1.0
  O  O39  1  0.14137000  0.99961000  0.21858000  1.0
  O  O40  1  0.91032000  0.40569000  0.88468000  1.0
  O  O41  1  0.41032000  0.59431000  0.11533000  1.0
