# generated using pymatgen
data_AgH10C7(NO)3
_symmetry_space_group_name_H-M   'P 1'
_cell_length_a   7.53268000
_cell_length_b   7.75755000
_cell_length_c   8.20012000
_cell_angle_alpha   95.70060000
_cell_angle_beta   108.35800000
_cell_angle_gamma   99.82480000
_symmetry_Int_Tables_number   1
_chemical_formula_structural   AgH10C7(NO)3
_chemical_formula_sum   'Ag2 H20 C14 N6 O6'
_cell_volume   442.07506776
_cell_formula_units_Z   2
loop_
 _symmetry_equiv_pos_site_id
 _symmetry_equiv_pos_as_xyz
  1  'x, y, z'
loop_
 _atom_site_type_symbol
 _atom_site_label
 _atom_site_symmetry_multiplicity
 _atom_site_fract_x
 _atom_site_fract_y
 _atom_site_fract_z
 _atom_site_occupancy
  Ag  Ag0  1  0.35360000  0.10770000  0.41810000  1.0
  Ag  Ag1  1  0.64641000  0.89230000  0.58191000  1.0
  H  H2  1  0.10756000  0.30290000  0.55734000  1.0
  H  H3  1  0.89243000  0.69710000  0.44266000  1.0
  H  H4  1  0.13517000  0.58333000  0.75413000  1.0
  H  H5  1  0.86485000  0.41668000  0.24586000  1.0
  H  H6  1  0.46340000  0.76476000  0.92857000  1.0
  H  H7  1  0.53660000  0.23524000  0.07143000  1.0
  H  H8  1  0.74794000  0.66171000  0.89656000  1.0
  H  H9  1  0.25207000  0.33829000  0.10345000  1.0
  H  H10  1  0.86096000  0.47846000  0.70220000  1.0
  H  H11  1  0.13905000  0.52153000  0.29781000  1.0
  H  H12  1  0.70909000  0.28547000  0.55986000  1.0
  H  H13  1  0.29091000  0.71452000  0.44015000  1.0
  H  H14  1  0.95957000  0.22013000  0.81784000  1.0
  H  H15  1  0.04043000  0.77986000  0.18217000  1.0
  H  H16  1  0.86349000  0.32960000  0.95948000  1.0
  H  H17  1  0.13651000  0.67040000  0.04053000  1.0
  H  H18  1  0.73997000  0.02468000  0.91796000  1.0
  H  H19  1  0.26002000  0.97531000  0.08204000  1.0
  H  H20  1  0.55896000  0.10429000  0.80820000  1.0
  H  H21  1  0.44104000  0.89570000  0.19181000  1.0
  C  C22  1  0.24661000  0.38709000  0.63512000  1.0
  C  C23  1  0.75339000  0.61291000  0.36486000  1.0
  C  C24  1  0.26300000  0.54094000  0.74600000  1.0
  C  C25  1  0.73700000  0.45908000  0.25399000  1.0
  C  C26  1  0.44460000  0.64264000  0.84155000  1.0
  C  C27  1  0.55541000  0.35738000  0.15843000  1.0
  C  C28  1  0.60376000  0.58571000  0.82356000  1.0
  C  C29  1  0.39623000  0.41430000  0.17642000  1.0
  C  C30  1  0.57864000  0.42988000  0.70944000  1.0
  C  C31  1  0.42137000  0.57012000  0.29055000  1.0
  C  C32  1  0.74760000  0.36360000  0.69029000  1.0
  C  C33  1  0.25240000  0.63639000  0.30971000  1.0
  C  C34  1  0.82682000  0.25209000  0.82874000  1.0
  C  C35  1  0.17318000  0.74791000  0.17127000  1.0
  N  N36  1  0.40134000  0.33355000  0.61565000  1.0
  N  N37  1  0.59867000  0.66645000  0.38434000  1.0
  N  N38  1  0.69082000  0.08332000  0.80975000  1.0
  N  N39  1  0.30918000  0.91667000  0.19026000  1.0
  N  N40  1  0.15353000  0.93618000  0.73821000  1.0
  N  N41  1  0.84646000  0.06382000  0.26179000  1.0
  O  O42  1  0.15922000  0.89824000  0.58669000  1.0
  O  O43  1  0.84076000  0.10177000  0.41331000  1.0
  O  O44  1  0.01518000  0.85761000  0.77938000  1.0
  O  O45  1  0.98482000  0.14240000  0.22063000  1.0
  O  O46  1  0.28745000  0.05230000  0.85175000  1.0
  O  O47  1  0.71255000  0.94769000  0.14825000  1.0
