# generated using pymatgen
data_ZnH24C39S2N2(O2F3)2
_symmetry_space_group_name_H-M   'P 1'
_cell_length_a   7.10602000
_cell_length_b   24.77550000
_cell_length_c   29.18930000
_cell_angle_alpha   90.00020000
_cell_angle_beta   90.00040000
_cell_angle_gamma   89.99980000
_symmetry_Int_Tables_number   1
_chemical_formula_structural   ZnH24C39S2N2(O2F3)2
_chemical_formula_sum   'Zn4 H96 C156 S8 N8 O16 F24'
_cell_volume   5138.92800568
_cell_formula_units_Z   4
loop_
 _symmetry_equiv_pos_site_id
 _symmetry_equiv_pos_as_xyz
  1  'x, y, z'
loop_
 _atom_site_type_symbol
 _atom_site_label
 _atom_site_symmetry_multiplicity
 _atom_site_fract_x
 _atom_site_fract_y
 _atom_site_fract_z
 _atom_site_occupancy
  Zn  Zn0  1  0.41040000  0.03862000  0.73433000  1.0
  Zn  Zn1  1  0.08959000  0.96138000  0.23433000  1.0
  Zn  Zn2  1  0.91040000  0.46138000  0.26567000  1.0
  Zn  Zn3  1  0.58960000  0.53862000  0.76567000  1.0
  H  H4  1  0.28271000  0.93350000  0.76733000  1.0
  H  H5  1  0.21729000  0.06650000  0.26733000  1.0
  H  H6  1  0.78271000  0.56650000  0.23267000  1.0
  H  H7  1  0.71730000  0.43349000  0.73267000  1.0
  H  H8  1  0.39824000  0.81942000  0.69550000  1.0
  H  H9  1  0.10175000  0.18058000  0.19549000  1.0
  H  H10  1  0.89825000  0.68058000  0.30451000  1.0
  H  H11  1  0.60175000  0.31942000  0.80451000  1.0
  H  H12  1  0.20901000  0.83521000  0.01648000  1.0
  H  H13  1  0.29099000  0.16479000  0.51648000  1.0
  H  H14  1  0.70900000  0.66479000  0.98352000  1.0
  H  H15  1  0.79100000  0.33521000  0.48352000  1.0
  H  H16  1  0.47461000  0.96463000  0.18987000  1.0
  H  H17  1  0.02539000  0.03537000  0.68987000  1.0
  H  H18  1  0.97461000  0.53537000  0.81013000  1.0
  H  H19  1  0.52539000  0.46463000  0.31013000  1.0
  H  H20  1  0.60746000  0.87730000  0.74930000  1.0
  H  H21  1  0.89252000  0.12270000  0.24930000  1.0
  H  H22  1  0.10747000  0.62270000  0.25071000  1.0
  H  H23  1  0.39253000  0.37729000  0.75070000  1.0
  H  H24  1  0.79066000  0.05744000  0.82159000  1.0
  H  H25  1  0.70933000  0.94256000  0.32159000  1.0
  H  H26  1  0.29067000  0.44256000  0.17842000  1.0
  H  H27  1  0.20933000  0.55744000  0.67842000  1.0
  H  H28  1  0.13381000  0.64465000  0.74786000  1.0
  H  H29  1  0.36620000  0.35535000  0.24786000  1.0
  H  H30  1  0.63380000  0.85535000  0.25214000  1.0
  H  H31  1  0.86619000  0.14465000  0.75214000  1.0
  H  H32  1  0.81104000  0.79654000  0.75736000  1.0
  H  H33  1  0.68895000  0.20346000  0.25736000  1.0
  H  H34  1  0.31104000  0.70346000  0.24265000  1.0
  H  H35  1  0.18895000  0.29654000  0.74264000  1.0
  H  H36  1  0.92030000  0.72109000  0.73485000  1.0
  H  H37  1  0.57970000  0.27891000  0.23485000  1.0
  H  H38  1  0.42030000  0.77891000  0.26515000  1.0
  H  H39  1  0.07970000  0.22109000  0.76515000  1.0
  H  H40  1  0.98706000  0.94396000  0.65027000  1.0
  H  H41  1  0.51292000  0.05604000  0.15027000  1.0
  H  H42  1  0.48709000  0.55604000  0.34973000  1.0
  H  H43  1  0.01294000  0.44396000  0.84973000  1.0
  H  H44  1  0.01038000  0.89452000  0.80916000  1.0
  H  H45  1  0.48962000  0.10548000  0.30916000  1.0
  H  H46  1  0.51038000  0.60548000  0.19084000  1.0
  H  H47  1  0.98964000  0.39452000  0.69084000  1.0
  H  H48  1  0.08455000  0.08931000  0.78292000  1.0
  H  H49  1  0.41545000  0.91069000  0.28292000  1.0
  H  H50  1  0.58455000  0.41069000  0.21708000  1.0
  H  H51  1  0.91545000  0.58931000  0.71708000  1.0
  H  H52  1  0.61906000  0.93387000  0.11929000  1.0
  H  H53  1  0.88095000  0.06613000  0.61929000  1.0
  H  H54  1  0.11906000  0.56614000  0.88071000  1.0
  H  H55  1  0.38094000  0.43386000  0.38071000  1.0
  H  H56  1  0.73510000  0.86441000  0.83118000  1.0
  H  H57  1  0.76490000  0.13559000  0.33118000  1.0
  H  H58  1  0.23510000  0.63559000  0.16882000  1.0
  H  H59  1  0.26491000  0.36441000  0.66882000  1.0
  H  H60  1  0.95351000  0.90077000  0.15473000  1.0
  H  H61  1  0.54650000  0.09923000  0.65473000  1.0
  H  H62  1  0.45350000  0.59923000  0.84527000  1.0
  H  H63  1  0.04650000  0.40077000  0.34527000  1.0
  H  H64  1  0.19082000  0.86286000  0.65669000  1.0
  H  H65  1  0.30917000  0.13713000  0.15669000  1.0
  H  H66  1  0.69084000  0.63714000  0.34331000  1.0
  H  H67  1  0.80918000  0.36287000  0.84331000  1.0
  H  H68  1  0.60713000  0.74053000  0.70675000  1.0
  H  H69  1  0.89286000  0.25947000  0.20675000  1.0
  H  H70  1  0.10713000  0.75947000  0.29325000  1.0
  H  H71  1  0.39286000  0.24054000  0.79325000  1.0
  H  H72  1  0.17477000  0.91151000  0.92475000  1.0
  H  H73  1  0.32523000  0.08849000  0.42475000  1.0
  H  H74  1  0.67477000  0.58849000  0.07525000  1.0
  H  H75  1  0.82523000  0.41151000  0.57525000  1.0
  H  H76  1  0.18797000  0.98253000  0.91669000  1.0
  H  H77  1  0.31203000  0.01747000  0.41669000  1.0
  H  H78  1  0.68797000  0.51747000  0.08331000  1.0
  H  H79  1  0.81203000  0.48253000  0.58331000  1.0
  H  H80  1  0.31666000  0.95113000  0.96162000  1.0
  H  H81  1  0.18335000  0.04887000  0.46162000  1.0
  H  H82  1  0.81666000  0.54887000  0.03838000  1.0
  H  H83  1  0.68334000  0.45113000  0.53838000  1.0
  H  H84  1  0.07871000  0.86397000  0.08175000  1.0
  H  H85  1  0.42130000  0.13603000  0.58175000  1.0
  H  H86  1  0.57870000  0.63603000  0.91825000  1.0
  H  H87  1  0.92130000  0.36397000  0.41825000  1.0
  H  H88  1  0.81505000  0.82237000  0.93052000  1.0
  H  H89  1  0.68495000  0.17763000  0.43052000  1.0
  H  H90  1  0.31505000  0.67763000  0.06948000  1.0
  H  H91  1  0.18495000  0.32237000  0.56948000  1.0
  H  H92  1  0.95008000  0.85805000  0.97170000  1.0
  H  H93  1  0.54993000  0.14195000  0.47170000  1.0
  H  H94  1  0.45007000  0.64195000  0.02830000  1.0
  H  H95  1  0.04992000  0.35805000  0.52830000  1.0
  H  H96  1  0.82648000  0.89382000  0.92826000  1.0
  H  H97  1  0.67352000  0.10619000  0.42826000  1.0
  H  H98  1  0.32648000  0.60618000  0.07174000  1.0
  H  H99  1  0.17353000  0.39382000  0.57174000  1.0
  C  C100  1  0.78600000  0.91609000  0.69987000  1.0
  C  C101  1  0.71398000  0.08391000  0.19987000  1.0
  C  C102  1  0.28602000  0.58391000  0.30013000  1.0
  C  C103  1  0.21400000  0.41609000  0.80013000  1.0
  C  C104  1  0.44090000  0.87676000  0.05002000  1.0
  C  C105  1  0.05911000  0.12324000  0.55002000  1.0
  C  C106  1  0.94089000  0.62324000  0.94998000  1.0
  C  C107  1  0.55910000  0.37676000  0.44998000  1.0
  C  C108  1  0.51133000  0.64054000  0.73597000  1.0
  C  C109  1  0.98868000  0.35946000  0.23597000  1.0
  C  C110  1  0.01132000  0.85946000  0.26402000  1.0
  C  C111  1  0.48867000  0.14055000  0.76403000  1.0
  C  C112  1  0.17116000  0.95907000  0.78095000  1.0
  C  C113  1  0.32883000  0.04093000  0.28094000  1.0
  C  C114  1  0.67117000  0.54093000  0.21905000  1.0
  C  C115  1  0.82884000  0.45907000  0.71905000  1.0
  C  C116  1  0.40940000  0.81647000  0.93299000  1.0
  C  C117  1  0.09060000  0.18353000  0.43299000  1.0
  C  C118  1  0.90940000  0.68353000  0.06701000  1.0
  C  C119  1  0.59061000  0.31647000  0.56701000  1.0
  C  C120  1  0.50361000  0.88959000  0.87724000  1.0
  C  C121  1  0.99639000  0.11041000  0.37724000  1.0
  C  C122  1  0.00361000  0.61041000  0.12276000  1.0
  C  C123  1  0.49639000  0.38959000  0.62276000  1.0
  C  C124  1  0.43218000  0.83639000  0.88987000  1.0
  C  C125  1  0.06781000  0.16361000  0.38987000  1.0
  C  C126  1  0.93218000  0.66361000  0.11013000  1.0
  C  C127  1  0.56782000  0.33639000  0.61013000  1.0
  C  C128  1  0.33783000  0.78092000  0.70606000  1.0
  C  C129  1  0.16216000  0.21908000  0.20606000  1.0
  C  C130  1  0.83783000  0.71908000  0.29394000  1.0
  C  C131  1  0.66217000  0.28092000  0.79394000  1.0
  C  C132  1  0.71184000  0.95094000  0.84326000  1.0
  C  C133  1  0.78816000  0.04906000  0.34326000  1.0
  C  C134  1  0.21184000  0.54906000  0.15674000  1.0
  C  C135  1  0.28817000  0.45094000  0.65674000  1.0
  C  C136  1  0.43194000  0.93796000  0.89439000  1.0
  C  C137  1  0.06806000  0.06204000  0.39439000  1.0
  C  C138  1  0.93194000  0.56204000  0.10561000  1.0
  C  C139  1  0.56807000  0.43796000  0.60561000  1.0
  C  C140  1  0.32196000  0.76126000  0.93198000  1.0
  C  C141  1  0.17802000  0.23874000  0.43198000  1.0
  C  C142  1  0.82198000  0.73874000  0.06802000  1.0
  C  C143  1  0.67803000  0.26126000  0.56802000  1.0
  C  C144  1  0.38357000  0.68754000  0.72779000  1.0
  C  C145  1  0.11643000  0.31246000  0.22779000  1.0
  C  C146  1  0.88357000  0.81246000  0.27220000  1.0
  C  C147  1  0.61642000  0.18755000  0.77221000  1.0
  C  C148  1  0.35375000  0.84919000  0.01479000  1.0
  C  C149  1  0.14625000  0.15081000  0.51479000  1.0
  C  C150  1  0.85375000  0.65081000  0.98521000  1.0
  C  C151  1  0.64625000  0.34919000  0.48521000  1.0
  C  C152  1  0.47094000  0.84161000  0.97571000  1.0
  C  C153  1  0.02906000  0.15839000  0.47571000  1.0
  C  C154  1  0.97093000  0.65839000  0.02429000  1.0
  C  C155  1  0.52906000  0.34161000  0.52429000  1.0
  C  C156  1  0.67260000  0.96706000  0.69890000  1.0
  C  C157  1  0.82738000  0.03294000  0.19891000  1.0
  C  C158  1  0.17261000  0.53294000  0.30110000  1.0
  C  C159  1  0.32740000  0.46706000  0.80109000  1.0
  C  C160  1  0.38970000  0.94221000  0.16532000  1.0
  C  C161  1  0.11030000  0.05779000  0.66532000  1.0
  C  C162  1  0.88970000  0.55779000  0.83468000  1.0
  C  C163  1  0.61030000  0.44221000  0.33468000  1.0
  C  C164  1  0.73573000  0.87360000  0.72912000  1.0
  C  C165  1  0.76425000  0.12640000  0.22912000  1.0
  C  C166  1  0.23575000  0.62640000  0.27088000  1.0
  C  C167  1  0.26427000  0.37360000  0.77088000  1.0
  C  C168  1  0.87478000  0.97269000  0.81955000  1.0
  C  C169  1  0.62522000  0.02731000  0.31955000  1.0
  C  C170  1  0.37478000  0.52731000  0.18045000  1.0
  C  C171  1  0.12523000  0.47269000  0.68045000  1.0
  C  C172  1  0.89830000  0.02829000  0.81180000  1.0
  C  C173  1  0.60170000  0.97171000  0.31180000  1.0
  C  C174  1  0.39831000  0.47171000  0.18820000  1.0
  C  C175  1  0.10170000  0.52829000  0.68820000  1.0
  C  C176  1  0.18974000  0.68304000  0.73587000  1.0
  C  C177  1  0.31026000  0.31696000  0.23587000  1.0
  C  C178  1  0.68974000  0.81696000  0.26413000  1.0
  C  C179  1  0.81025000  0.18304000  0.76413000  1.0
  C  C180  1  0.01847000  0.82388000  0.70819000  1.0
  C  C181  1  0.48152000  0.17612000  0.20819000  1.0
  C  C182  1  0.51847000  0.67612000  0.29181000  1.0
  C  C183  1  0.98153000  0.32388000  0.79181000  1.0
  C  C184  1  0.85017000  0.82841000  0.73340000  1.0
  C  C185  1  0.64982000  0.17159000  0.23340000  1.0
  C  C186  1  0.35018000  0.67159000  0.26660000  1.0
  C  C187  1  0.14982000  0.32841000  0.76660000  1.0
  C  C188  1  0.65202000  0.86203000  0.98232000  1.0
  C  C189  1  0.84799000  0.13797000  0.48232000  1.0
  C  C190  1  0.15201000  0.63797000  0.01768000  1.0
  C  C191  1  0.34799000  0.36203000  0.51768000  1.0
  C  C192  1  0.14294000  0.77674000  0.71419000  1.0
  C  C193  1  0.35705000  0.22326000  0.21418000  1.0
  C  C194  1  0.64295000  0.72326000  0.28582000  1.0
  C  C195  1  0.85706000  0.27674000  0.78582000  1.0
  C  C196  1  0.36233000  0.89516000  0.09329000  1.0
  C  C197  1  0.13767000  0.10484000  0.59329000  1.0
  C  C198  1  0.86233000  0.60484000  0.90671000  1.0
  C  C199  1  0.63767000  0.39516000  0.40671000  1.0
  C  C200  1  0.07068000  0.72682000  0.72912000  1.0
  C  C201  1  0.42932000  0.27318000  0.22911000  1.0
  C  C202  1  0.57068000  0.77318000  0.27088000  1.0
  C  C203  1  0.92931000  0.22682000  0.77088000  1.0
  C  C204  1  0.95018000  0.91131000  0.67364000  1.0
  C  C205  1  0.54980000  0.08869000  0.17364000  1.0
  C  C206  1  0.45021000  0.58869000  0.32637000  1.0
  C  C207  1  0.04981000  0.41131000  0.82636000  1.0
  C  C208  1  0.01801000  0.93794000  0.80400000  1.0
  C  C209  1  0.48199000  0.06206000  0.30400000  1.0
  C  C210  1  0.51801000  0.56206000  0.19600000  1.0
  C  C211  1  0.98200000  0.43794000  0.69600000  1.0
  C  C212  1  0.05795000  0.04659000  0.78933000  1.0
  C  C213  1  0.44205000  0.95341000  0.28933000  1.0
  C  C214  1  0.55795000  0.45341000  0.21067000  1.0
  C  C215  1  0.94205000  0.54659000  0.71067000  1.0
  C  C216  1  0.47139000  0.92404000  0.12509000  1.0
  C  C217  1  0.02862000  0.07596000  0.62509000  1.0
  C  C218  1  0.97139000  0.57596000  0.87491000  1.0
  C  C219  1  0.52861000  0.42404000  0.37491000  1.0
  C  C220  1  0.66013000  0.89745000  0.84759000  1.0
  C  C221  1  0.83987000  0.10255000  0.34759000  1.0
  C  C222  1  0.16013000  0.60255000  0.15242000  1.0
  C  C223  1  0.33988000  0.39745000  0.65242000  1.0
  C  C224  1  0.37624000  0.79550000  0.85417000  1.0
  C  C225  1  0.12375000  0.20450000  0.35417000  1.0
  C  C226  1  0.87625000  0.70450000  0.14583000  1.0
  C  C227  1  0.62375000  0.29550000  0.64583000  1.0
  C  C228  1  0.10067000  0.90605000  0.14527000  1.0
  C  C229  1  0.39933000  0.09395000  0.64527000  1.0
  C  C230  1  0.60067000  0.59395000  0.85473000  1.0
  C  C231  1  0.89933000  0.40605000  0.35473000  1.0
  C  C232  1  0.06441000  0.86597000  0.67770000  1.0
  C  C233  1  0.43557000  0.13403000  0.17769000  1.0
  C  C234  1  0.56443000  0.63403000  0.32231000  1.0
  C  C235  1  0.93558000  0.36597000  0.82230000  1.0
  C  C236  1  0.45631000  0.73700000  0.71275000  1.0
  C  C237  1  0.04368000  0.26300000  0.21275000  1.0
  C  C238  1  0.95631000  0.76300000  0.28725000  1.0
  C  C239  1  0.54368000  0.23700000  0.78725000  1.0
  C  C240  1  0.26928000  0.94646000  0.92593000  1.0
  C  C241  1  0.23073000  0.05354000  0.42593000  1.0
  C  C242  1  0.76928000  0.55354000  0.07407000  1.0
  C  C243  1  0.73073000  0.44646000  0.57407000  1.0
  C  C244  1  0.17214000  0.88607000  0.10453000  1.0
  C  C245  1  0.32787000  0.11393000  0.60454000  1.0
  C  C246  1  0.67213000  0.61393000  0.89546000  1.0
  C  C247  1  0.82787000  0.38607000  0.39547000  1.0
  C  C248  1  0.25849000  0.75274000  0.88124000  1.0
  C  C249  1  0.24150000  0.24726000  0.38124000  1.0
  C  C250  1  0.75850000  0.74726000  0.11876000  1.0
  C  C251  1  0.74151000  0.25274000  0.61876000  1.0
  C  C252  1  0.81950000  0.85901000  0.95164000  1.0
  C  C253  1  0.68050000  0.14099000  0.45164000  1.0
  C  C254  1  0.31950000  0.64098000  0.04836000  1.0
  C  C255  1  0.18050000  0.35902000  0.54836000  1.0
  S  S256  1  0.67179000  0.89130000  0.03527000  1.0
  S  S257  1  0.82822000  0.10870000  0.53527000  1.0
  S  S258  1  0.17178000  0.60870000  0.96473000  1.0
  S  S259  1  0.32821000  0.39130000  0.46473000  1.0
  S  S260  1  0.55872000  0.99178000  0.87397000  1.0
  S  S261  1  0.94127000  0.00822000  0.37397000  1.0
  S  S262  1  0.05873000  0.50822000  0.12603000  1.0
  S  S263  1  0.44128000  0.49178000  0.62603000  1.0
  N  N264  1  0.19157000  0.01258000  0.77369000  1.0
  N  N265  1  0.30843000  0.98742000  0.27369000  1.0
  N  N266  1  0.69157000  0.48742000  0.22631000  1.0
  N  N267  1  0.80843000  0.51258000  0.72631000  1.0
  N  N268  1  0.20718000  0.93387000  0.17532000  1.0
  N  N269  1  0.29283000  0.06613000  0.67532000  1.0
  N  N270  1  0.70717000  0.56613000  0.82468000  1.0
  N  N271  1  0.79283000  0.43387000  0.32468000  1.0
  O  O272  1  0.53520000  0.96840000  0.72844000  1.0
  O  O273  1  0.96479000  0.03160000  0.22845000  1.0
  O  O274  1  0.03520000  0.53160000  0.27156000  1.0
  O  O275  1  0.46480000  0.46840000  0.77155000  1.0
  O  O276  1  0.42469000  0.59448000  0.74185000  1.0
  O  O277  1  0.07532000  0.40552000  0.24185000  1.0
  O  O278  1  0.92468000  0.90552000  0.25815000  1.0
  O  O279  1  0.57531000  0.09448000  0.75815000  1.0
  O  O280  1  0.71419000  0.00498000  0.67246000  1.0
  O  O281  1  0.78581000  0.99502000  0.17247000  1.0
  O  O282  1  0.21420000  0.49502000  0.32754000  1.0
  O  O283  1  0.28581000  0.50498000  0.82753000  1.0
  O  O284  1  0.68608000  0.64648000  0.73750000  1.0
  O  O285  1  0.81392000  0.35352000  0.23750000  1.0
  O  O286  1  0.18608000  0.85352000  0.26250000  1.0
  O  O287  1  0.31391000  0.14648000  0.76250000  1.0
  F  F288  1  0.45183000  0.72201000  0.94434000  1.0
  F  F289  1  0.04815000  0.27799000  0.44434000  1.0
  F  F290  1  0.95186000  0.77799000  0.05566000  1.0
  F  F291  1  0.54815000  0.22201000  0.55566000  1.0
  F  F292  1  0.17322000  0.75562000  0.96183000  1.0
  F  F293  1  0.32676000  0.24438000  0.46183000  1.0
  F  F294  1  0.67324000  0.74438000  0.03817000  1.0
  F  F295  1  0.82677000  0.25562000  0.53817000  1.0
  F  F296  1  0.53204000  0.77107000  0.83469000  1.0
  F  F297  1  0.96795000  0.22893000  0.33469000  1.0
  F  F298  1  0.03204000  0.72893000  0.16531000  1.0
  F  F299  1  0.46796000  0.27107000  0.66530000  1.0
  F  F300  1  0.27436000  0.81763000  0.81898000  1.0
  F  F301  1  0.22564000  0.18236000  0.31898000  1.0
  F  F302  1  0.77436000  0.68236000  0.18102000  1.0
  F  F303  1  0.72564000  0.31763000  0.68102000  1.0
  F  F304  1  0.28446000  0.70134000  0.86631000  1.0
  F  F305  1  0.21553000  0.29866000  0.36631000  1.0
  F  F306  1  0.78446000  0.79866000  0.13368000  1.0
  F  F307  1  0.71554000  0.20134000  0.63368000  1.0
  F  F308  1  0.07094000  0.76502000  0.87737000  1.0
  F  F309  1  0.42906000  0.23499000  0.37737000  1.0
  F  F310  1  0.57094000  0.73498000  0.12263000  1.0
  F  F311  1  0.92906000  0.26502000  0.62264000  1.0
