# generated using pymatgen
data_AgH6C7N5
_symmetry_space_group_name_H-M   'P 1'
_cell_length_a   8.48371000
_cell_length_b   8.57787000
_cell_length_c   11.12120000
_cell_angle_alpha   97.43480000
_cell_angle_beta   90.87720000
_cell_angle_gamma   94.66460000
_symmetry_Int_Tables_number   1
_chemical_formula_structural   AgH6C7N5
_chemical_formula_sum   'Ag4 H24 C28 N20'
_cell_volume   799.57833206
_cell_formula_units_Z   4
loop_
 _symmetry_equiv_pos_site_id
 _symmetry_equiv_pos_as_xyz
  1  'x, y, z'
loop_
 _atom_site_type_symbol
 _atom_site_label
 _atom_site_symmetry_multiplicity
 _atom_site_fract_x
 _atom_site_fract_y
 _atom_site_fract_z
 _atom_site_occupancy
  Ag  Ag0  1  0.79681000  0.53935000  0.62216000  1.0
  Ag  Ag1  1  0.20319000  0.46065000  0.37784000  1.0
  Ag  Ag2  1  0.48777000  0.68296000  0.90074000  1.0
  Ag  Ag3  1  0.51223000  0.31704000  0.09927000  1.0
  H  H4  1  0.52927000  0.91257000  0.68961000  1.0
  H  H5  1  0.47073000  0.08743000  0.31039000  1.0
  H  H6  1  0.78900000  0.78148000  0.36750000  1.0
  H  H7  1  0.21100000  0.21852000  0.63250000  1.0
  H  H8  1  0.90620000  0.05876000  0.37709000  1.0
  H  H9  1  0.09381000  0.94124000  0.62291000  1.0
  H  H10  1  0.84099000  0.26098000  0.54412000  1.0
  H  H11  1  0.15901000  0.73902000  0.45588000  1.0
  H  H12  1  0.86143000  0.82266000  0.78565000  1.0
  H  H13  1  0.13857000  0.17734000  0.21435000  1.0
  H  H14  1  0.79076000  0.86510000  0.17054000  1.0
  H  H15  1  0.20924000  0.13489000  0.82946000  1.0
  H  H16  1  0.03165000  0.72441000  0.19735000  1.0
  H  H17  1  0.96835000  0.27559000  0.80265000  1.0
  H  H18  1  0.18351000  0.62524000  0.01750000  1.0
  H  H19  1  0.81649000  0.37476000  0.98250000  1.0
  H  H20  1  0.58944000  0.60664000  0.44617000  1.0
  H  H21  1  0.41056000  0.39336000  0.55383000  1.0
  H  H22  1  0.49509000  0.65479000  0.57678000  1.0
  H  H23  1  0.50491000  0.34521000  0.42322000  1.0
  H  H24  1  0.66059000  0.99406000  0.89937000  1.0
  H  H25  1  0.33941000  0.00595000  0.10063000  1.0
  H  H26  1  0.62004000  0.96071000  0.04079000  1.0
  H  H27  1  0.37996000  0.03929000  0.95921000  1.0
  C  C28  1  0.63133000  0.21700000  0.72459000  1.0
  C  C29  1  0.36867000  0.78300000  0.27541000  1.0
  C  C30  1  0.67889000  0.10043000  0.62717000  1.0
  C  C31  1  0.32111000  0.89958000  0.37282000  1.0
  C  C32  1  0.61419000  0.94404000  0.62230000  1.0
  C  C33  1  0.38580000  0.05596000  0.37770000  1.0
  C  C34  1  0.65472000  0.82894000  0.52985000  1.0
  C  C35  1  0.34528000  0.17106000  0.47015000  1.0
  C  C36  1  0.75789000  0.87163000  0.43965000  1.0
  C  C37  1  0.24211000  0.12837000  0.56035000  1.0
  C  C38  1  0.82278000  0.02678000  0.44526000  1.0
  C  C39  1  0.17722000  0.97322000  0.55473000  1.0
  C  C40  1  0.78593000  0.14113000  0.53919000  1.0
  C  C41  1  0.21407000  0.85887000  0.46081000  1.0
  C  C42  1  0.11985000  0.66035000  0.78377000  1.0
  C  C43  1  0.88015000  0.33966000  0.21623000  1.0
  C  C44  1  0.03514000  0.72204000  0.89082000  1.0
  C  C45  1  0.96487000  0.27796000  0.10918000  1.0
  C  C46  1  0.89953000  0.80135000  0.87594000  1.0
  C  C47  1  0.10046000  0.19865000  0.12406000  1.0
  C  C48  1  0.81000000  0.85047000  0.97636000  1.0
  C  C49  1  0.18999000  0.14953000  0.02364000  1.0
  C  C50  1  0.86028000  0.82504000  0.09252000  1.0
  C  C51  1  0.13972000  0.17496000  0.90748000  1.0
  C  C52  1  0.99542000  0.74670000  0.10704000  1.0
  C  C53  1  0.00458000  0.25330000  0.89296000  1.0
  C  C54  1  0.08286000  0.69360000  0.00695000  1.0
  C  C55  1  0.91714000  0.30640000  0.99305000  1.0
  N  N56  1  0.65155000  0.37574000  0.72930000  1.0
  N  N57  1  0.34846000  0.62426000  0.27070000  1.0
  N  N58  1  0.58969000  0.43442000  0.83475000  1.0
  N  N59  1  0.41031000  0.56558000  0.16525000  1.0
  N  N60  1  0.53411000  0.31556000  0.89092000  1.0
  N  N61  1  0.46589000  0.68444000  0.10908000  1.0
  N  N62  1  0.55835000  0.17806000  0.82478000  1.0
  N  N63  1  0.44165000  0.82194000  0.17523000  1.0
  N  N64  1  0.59791000  0.67072000  0.53056000  1.0
  N  N65  1  0.40209000  0.32929000  0.46944000  1.0
  N  N66  1  0.04885000  0.60193000  0.67568000  1.0
  N  N67  1  0.95115000  0.39807000  0.32432000  1.0
  N  N68  1  0.16445000  0.55198000  0.60288000  1.0
  N  N69  1  0.83555000  0.44803000  0.39712000  1.0
  N  N70  1  0.30075000  0.57908000  0.66282000  1.0
  N  N71  1  0.69925000  0.42092000  0.33719000  1.0
  N  N72  1  0.27690000  0.64684000  0.77642000  1.0
  N  N73  1  0.72310000  0.35316000  0.22358000  1.0
  N  N74  1  0.66393000  0.91394000  0.96023000  1.0
  N  N75  1  0.33607000  0.08606000  0.03977000  1.0
