# generated using pymatgen
data_KCoH3(CO2)3
_symmetry_space_group_name_H-M   'P 1'
_cell_length_a   7.02631085
_cell_length_b   7.02637000
_cell_length_c   8.49903000
_cell_angle_alpha   90.09720000
_cell_angle_beta   90.09710077
_cell_angle_gamma   60.03116513
_symmetry_Int_Tables_number   1
_chemical_formula_structural   KCoH3(CO2)3
_chemical_formula_sum   'K2 Co2 H6 C6 O12'
_cell_volume   363.49114604
_cell_formula_units_Z   2
loop_
 _symmetry_equiv_pos_site_id
 _symmetry_equiv_pos_as_xyz
  1  'x, y, z'
loop_
 _atom_site_type_symbol
 _atom_site_label
 _atom_site_symmetry_multiplicity
 _atom_site_fract_x
 _atom_site_fract_y
 _atom_site_fract_z
 _atom_site_occupancy
  K  K0  1  0.00068000  0.99977000  0.74984000  1.0
  K  K1  1  0.00021000  0.99933000  0.25014000  1.0
  Co  Co2  1  0.66694000  0.66669000  0.74992000  1.0
  Co  Co3  1  0.33333333  0.33303667  0.25009000  1.0
  H  H4  1  0.00124000  0.40124000  0.99838000  1.0
  H  H5  1  0.40224000  0.59773000  0.99998000  1.0
  H  H6  1  0.59876000  0.99876000  0.00160000  1.0
  H  H7  1  0.99710000  0.59881000  0.49909000  1.0
  H  H8  1  0.59815000  0.40185000  0.50001000  1.0
  H  H9  1  0.40117000  0.00291000  0.50092000  1.0
  C  C10  1  0.00016000  0.55879000  0.99954000  1.0
  C  C11  1  0.55928000  0.44072000  0.99999000  1.0
  C  C12  1  0.44123000  0.99983000  0.00046000  1.0
  C  C13  1  0.99898000  0.44082000  0.49972000  1.0
  C  C14  1  0.44123000  0.55877000  0.50001000  1.0
  C  C15  1  0.55917000  0.00102000  0.50029000  1.0
  O  O16  1  0.89958000  0.69512000  0.88934000  1.0
  O  O17  1  0.69438000  0.40519000  0.88902000  1.0
  O  O18  1  0.40587000  0.90055000  0.88890000  1.0
  O  O19  1  0.09973000  0.30501000  0.38923000  1.0
  O  O20  1  0.30519000  0.59389000  0.38956000  1.0
  O  O21  1  0.59508000  0.09993000  0.38903000  1.0
  O  O22  1  0.59481000  0.30564000  0.11099000  1.0
  O  O23  1  0.09945000  0.59413000  0.11111000  1.0
  O  O24  1  0.30489000  0.10043000  0.11065000  1.0
  O  O25  1  0.40610000  0.69480000  0.61046000  1.0
  O  O26  1  0.90008000  0.40491000  0.61098000  1.0
  O  O27  1  0.69498000  0.90027000  0.61077000  1.0
