# generated using pymatgen
data_Pr2Cu3P6H24C30(NO3)6
_symmetry_space_group_name_H-M   'P 1'
_cell_length_a   10.45790000
_cell_length_b   11.45480000
_cell_length_c   11.45430000
_cell_angle_alpha   111.16400000
_cell_angle_beta   107.71400000
_cell_angle_gamma   107.72800000
_symmetry_Int_Tables_number   1
_chemical_formula_structural   Pr2Cu3P6H24C30(NO3)6
_chemical_formula_sum   'Pr2 Cu3 P6 H24 C30 N6 O18'
_cell_volume   1078.20925437
_cell_formula_units_Z   1
loop_
 _symmetry_equiv_pos_site_id
 _symmetry_equiv_pos_as_xyz
  1  'x, y, z'
loop_
 _atom_site_type_symbol
 _atom_site_label
 _atom_site_symmetry_multiplicity
 _atom_site_fract_x
 _atom_site_fract_y
 _atom_site_fract_z
 _atom_site_occupancy
  Pr  Pr0  1  0.00000000  0.00000000  0.00000000  1.0
  Pr  Pr1  1  0.50000000  0.00000000  0.00000000  1.0
  Cu  Cu2  1  0.00000000  0.00000000  0.50000000  1.0
  Cu  Cu3  1  0.00000000  0.50000000  0.00000000  1.0
  Cu  Cu4  1  0.50000000  0.50000000  0.50000000  1.0
  P  P5  1  0.17357000  0.01676000  0.76340000  1.0
  P  P6  1  0.15682000  0.74662000  0.98322000  1.0
  P  P7  1  0.41020000  0.23653000  0.25338000  1.0
  P  P8  1  0.82643000  0.98324000  0.23660000  1.0
  P  P9  1  0.84318000  0.25338000  0.01678000  1.0
  P  P10  1  0.58980000  0.76346000  0.74661000  1.0
  H  H11  1  0.33522000  0.31322000  0.01871000  1.0
  H  H12  1  0.02205000  0.70539000  0.68682000  1.0
  H  H13  1  0.31650000  0.98127000  0.29465000  1.0
  H  H14  1  0.66478000  0.68678000  0.98129000  1.0
  H  H15  1  0.97796000  0.29461000  0.31318000  1.0
  H  H16  1  0.68349000  0.01872000  0.70535000  1.0
  H  H17  1  0.37163000  0.54506000  0.02538000  1.0
  H  H18  1  0.82659000  0.48020000  0.45498000  1.0
  H  H19  1  0.34631000  0.97468000  0.51985000  1.0
  H  H20  1  0.62837000  0.45494000  0.97463000  1.0
  H  H21  1  0.17341000  0.51980000  0.54501000  1.0
  H  H22  1  0.65369000  0.02531000  0.48015000  1.0
  H  H23  1  0.25483000  0.54240000  0.79942000  1.0
  H  H24  1  0.71237000  0.25690000  0.45764000  1.0
  H  H25  1  0.45549000  0.20071000  0.74314000  1.0
  H  H26  1  0.74516000  0.45760000  0.20058000  1.0
  H  H27  1  0.28763000  0.74310000  0.54236000  1.0
  H  H28  1  0.54451000  0.79929000  0.25686000  1.0
  H  H29  1  0.08356000  0.30396000  0.57266000  1.0
  H  H30  1  0.77942000  0.26860000  0.69609000  1.0
  H  H31  1  0.51095000  0.42741000  0.73136000  1.0
  H  H32  1  0.91644000  0.69605000  0.42734000  1.0
  H  H33  1  0.22057000  0.73140000  0.30391000  1.0
  H  H34  1  0.48904000  0.57259000  0.26863000  1.0
  C  C35  1  0.19626000  0.19163000  0.79275000  1.0
  C  C36  1  0.00461000  0.60103000  0.80841000  1.0
  C  C37  1  0.40347000  0.20722000  0.39893000  1.0
  C  C38  1  0.80373000  0.80837000  0.20725000  1.0
  C  C39  1  0.99540000  0.39897000  0.19159000  1.0
  C  C40  1  0.59653000  0.79277000  0.60107000  1.0
  C  C41  1  0.28413000  0.31737000  0.92291000  1.0
  C  C42  1  0.96679000  0.60544000  0.68267000  1.0
  C  C43  1  0.36121000  0.07709000  0.39458000  1.0
  C  C44  1  0.71586000  0.68263000  0.07709000  1.0
  C  C45  1  0.03322000  0.39456000  0.31733000  1.0
  C  C46  1  0.63878000  0.92290000  0.60542000  1.0
  C  C47  1  0.30407000  0.44472000  0.92605000  1.0
  C  C48  1  0.85939000  0.48123000  0.55532000  1.0
  C  C49  1  0.37808000  0.07399000  0.51882000  1.0
  C  C50  1  0.69592000  0.55528000  0.07395000  1.0
  C  C51  1  0.14061000  0.51878000  0.44468000  1.0
  C  C52  1  0.62192000  0.92600000  0.48118000  1.0
  C  C53  1  0.23666000  0.44367000  0.79971000  1.0
  C  C54  1  0.79296000  0.35592000  0.55636000  1.0
  C  C55  1  0.43701000  0.20037000  0.64410000  1.0
  C  C56  1  0.76333000  0.55633000  0.20030000  1.0
  C  C57  1  0.20704000  0.64409000  0.44364000  1.0
  C  C58  1  0.56298000  0.79963000  0.35590000  1.0
  C  C59  1  0.14480000  0.31428000  0.67457000  1.0
  C  C60  1  0.83040000  0.36019000  0.68576000  1.0
  C  C61  1  0.47026000  0.32549000  0.63979000  1.0
  C  C62  1  0.85519000  0.68573000  0.32544000  1.0
  C  C63  1  0.16960000  0.63982000  0.31424000  1.0
  C  C64  1  0.52973000  0.67451000  0.36020000  1.0
  N  N65  1  0.12557000  0.19169000  0.67242000  1.0
  N  N66  1  0.93380000  0.48064000  0.80833000  1.0
  N  N67  1  0.45312000  0.32757000  0.51931000  1.0
  N  N68  1  0.87443000  0.80831000  0.32758000  1.0
  N  N69  1  0.06620000  0.51937000  0.19167000  1.0
  N  N70  1  0.54687000  0.67243000  0.48068000  1.0
  O  O71  1  0.11181000  0.93067000  0.60106000  1.0
  O  O72  1  0.18115000  0.67048000  0.06941000  1.0
  O  O73  1  0.51070000  0.39888000  0.32961000  1.0
  O  O74  1  0.88819000  0.06933000  0.39893000  1.0
  O  O75  1  0.81886000  0.32952000  0.93059000  1.0
  O  O76  1  0.48929000  0.60111000  0.67039000  1.0
  O  O77  1  0.05877000  0.95901000  0.80995000  1.0
  O  O78  1  0.09978000  0.85094000  0.04085000  1.0
  O  O79  1  0.24886000  0.18988000  0.14903000  1.0
  O  O80  1  0.94123000  0.04098000  0.19005000  1.0
  O  O81  1  0.90022000  0.14906000  0.95915000  1.0
  O  O82  1  0.75113000  0.81012000  0.85097000  1.0
  O  O83  1  0.33168000  0.03801000  0.84429000  1.0
  O  O84  1  0.29373000  0.80623000  0.96198000  1.0
  O  O85  1  0.48749000  0.15571000  0.19379000  1.0
  O  O86  1  0.66831000  0.96199000  0.15571000  1.0
  O  O87  1  0.70627000  0.19377000  0.03802000  1.0
  O  O88  1  0.51250000  0.84429000  0.80620000  1.0
