# generated using pymatgen
data_CuH24C26I2N2O5
_symmetry_space_group_name_H-M   'P 1'
_cell_length_a   9.61151000
_cell_length_b   10.81800000
_cell_length_c   13.50930000
_cell_angle_alpha   100.60400000
_cell_angle_beta   102.14800000
_cell_angle_gamma   90.54090000
_symmetry_Int_Tables_number   1
_chemical_formula_structural   CuH24C26I2N2O5
_chemical_formula_sum   'Cu2 H48 C52 I4 N4 O10'
_cell_volume   1348.05898418
_cell_formula_units_Z   2
loop_
 _symmetry_equiv_pos_site_id
 _symmetry_equiv_pos_as_xyz
  1  'x, y, z'
loop_
 _atom_site_type_symbol
 _atom_site_label
 _atom_site_symmetry_multiplicity
 _atom_site_fract_x
 _atom_site_fract_y
 _atom_site_fract_z
 _atom_site_occupancy
  Cu  Cu0  1  0.00000000  0.00000000  0.00000000  1.0
  Cu  Cu1  1  0.50000000  0.00000000  0.00000000  1.0
  H  H2  1  0.78370000  0.95290000  0.80548000  1.0
  H  H3  1  0.21630000  0.04711000  0.19452000  1.0
  H  H4  1  0.74991000  0.80911000  0.63490000  1.0
  H  H5  1  0.25009000  0.19089000  0.36510000  1.0
  H  H6  1  0.15115000  0.65318000  0.74745000  1.0
  H  H7  1  0.84885000  0.34683000  0.25255000  1.0
  H  H8  1  0.16968000  0.80413000  0.91324000  1.0
  H  H9  1  0.83032000  0.19587000  0.08676000  1.0
  H  H10  1  0.99853000  0.54897000  0.58350000  1.0
  H  H11  1  0.00146000  0.45103000  0.41651000  1.0
  H  H12  1  0.98410000  0.68077000  0.52117000  1.0
  H  H13  1  0.01589000  0.31924000  0.47883000  1.0
  H  H14  1  0.82763000  0.60417000  0.53653000  1.0
  H  H15  1  0.17237000  0.39583000  0.46347000  1.0
  H  H16  1  0.21558000  0.62218000  0.41277000  1.0
  H  H17  1  0.78442000  0.37782000  0.58723000  1.0
  H  H18  1  0.28269000  0.43943000  0.29384000  1.0
  H  H19  1  0.71732000  0.56057000  0.70615000  1.0
  H  H20  1  0.22309000  0.42927000  0.10609000  1.0
  H  H21  1  0.77691000  0.57073000  0.89391000  1.0
  H  H22  1  0.09670000  0.60706000  0.03439000  1.0
  H  H23  1  0.90331000  0.39294000  0.96561000  1.0
  H  H24  1  0.33430000  0.83929000  0.09061000  1.0
  H  H25  1  0.66571000  0.16071000  0.90938000  1.0
  H  H26  1  0.35590000  0.76707000  0.25749000  1.0
  H  H27  1  0.64411000  0.23293000  0.74250000  1.0
  H  H28  1  0.73791000  0.00806000  0.37444000  1.0
  H  H29  1  0.26209000  0.99194000  0.62555000  1.0
  H  H30  1  0.70472000  0.06586000  0.20136000  1.0
  H  H31  1  0.29529000  0.93414000  0.79864000  1.0
  H  H32  1  0.54145000  0.74125000  0.42361000  1.0
  H  H33  1  0.45855000  0.25875000  0.57639000  1.0
  H  H34  1  0.48155000  0.88830000  0.47475000  1.0
  H  H35  1  0.51846000  0.11170000  0.52525000  1.0
  H  H36  1  0.66734000  0.87019000  0.48360000  1.0
  H  H37  1  0.33266000  0.12981000  0.51640000  1.0
  H  H38  1  0.28256000  0.39508000  0.62349000  1.0
  H  H39  1  0.71744000  0.60492000  0.37651000  1.0
  H  H40  1  0.21458000  0.28306000  0.75368000  1.0
  H  H41  1  0.78543000  0.71693000  0.24632000  1.0
  H  H42  1  0.26861000  0.38374000  0.93766000  1.0
  H  H43  1  0.73139000  0.61625000  0.06234000  1.0
  H  H44  1  0.39372000  0.59704000  0.99378000  1.0
  H  H45  1  0.60627000  0.40295000  0.00623000  1.0
  H  H46  1  0.29053000  0.12300000  0.05275000  1.0
  H  H47  1  0.70947000  0.87700000  0.94725000  1.0
  H  H48  1  0.20891000  0.08409000  0.93648000  1.0
  H  H49  1  0.79110000  0.91591000  0.06352000  1.0
  C  C50  1  0.86293000  0.88550000  0.78870000  1.0
  C  C51  1  0.13706000  0.11450000  0.21130000  1.0
  C  C52  1  0.84592000  0.80546000  0.69360000  1.0
  C  C53  1  0.15407000  0.19455000  0.30640000  1.0
  C  C54  1  0.95016000  0.72005000  0.67529000  1.0
  C  C55  1  0.04984000  0.27996000  0.32472000  1.0
  C  C56  1  0.06777000  0.71906000  0.75626000  1.0
  C  C57  1  0.93222000  0.28094000  0.24374000  1.0
  C  C58  1  0.07839000  0.80163000  0.84948000  1.0
  C  C59  1  0.92160000  0.19837000  0.15052000  1.0
  C  C60  1  0.93894000  0.63331000  0.57373000  1.0
  C  C61  1  0.06105000  0.36670000  0.42628000  1.0
  C  C62  1  0.00357000  0.81351000  0.13385000  1.0
  C  C63  1  0.99643000  0.18649000  0.86615000  1.0
  C  C64  1  0.07953000  0.71110000  0.18252000  1.0
  C  C65  1  0.92047000  0.28890000  0.81748000  1.0
  C  C66  1  0.11323000  0.71360000  0.28896000  1.0
  C  C67  1  0.88677000  0.28640000  0.71104000  1.0
  C  C68  1  0.18680000  0.61706000  0.32960000  1.0
  C  C69  1  0.81320000  0.38294000  0.67040000  1.0
  C  C70  1  0.22504000  0.51495000  0.26288000  1.0
  C  C71  1  0.77496000  0.48505000  0.73712000  1.0
  C  C72  1  0.19149000  0.50975000  0.15646000  1.0
  C  C73  1  0.80851000  0.49024000  0.84354000  1.0
  C  C74  1  0.12073000  0.60777000  0.11712000  1.0
  C  C75  1  0.87927000  0.39223000  0.88287000  1.0
  C  C76  1  0.42292000  0.87300000  0.15522000  1.0
  C  C77  1  0.57709000  0.12701000  0.84478000  1.0
  C  C78  1  0.43496000  0.83481000  0.24911000  1.0
  C  C79  1  0.56504000  0.16519000  0.75088000  1.0
  C  C80  1  0.54819000  0.88271000  0.33169000  1.0
  C  C81  1  0.45181000  0.11729000  0.66831000  1.0
  C  C82  1  0.64640000  0.96789000  0.31407000  1.0
  C  C83  1  0.35360000  0.03211000  0.68592000  1.0
  C  C84  1  0.62906000  0.00093000  0.21762000  1.0
  C  C85  1  0.37095000  0.99907000  0.78238000  1.0
  C  C86  1  0.56142000  0.84354000  0.43407000  1.0
  C  C87  1  0.43858000  0.15646000  0.56592000  1.0
  C  C88  1  0.49751000  0.73837000  0.88249000  1.0
  C  C89  1  0.50249000  0.26162000  0.11752000  1.0
  C  C90  1  0.41654000  0.61287000  0.84174000  1.0
  C  C91  1  0.58346000  0.38713000  0.15826000  1.0
  C  C92  1  0.38376000  0.55475000  0.73745000  1.0
  C  C93  1  0.61623000  0.44525000  0.26255000  1.0
  C  C94  1  0.30999000  0.43740000  0.70508000  1.0
  C  C95  1  0.69001000  0.56260000  0.29493000  1.0
  C  C96  1  0.27031000  0.37538000  0.77750000  1.0
  C  C97  1  0.72969000  0.62462000  0.22250000  1.0
  C  C98  1  0.30061000  0.43243000  0.88159000  1.0
  C  C99  1  0.69939000  0.56756000  0.11841000  1.0
  C  C100  1  0.37117000  0.55069000  0.91287000  1.0
  C  C101  1  0.62883000  0.44930000  0.08714000  1.0
  I  I102  1  0.07170000  0.87150000  0.39596000  1.0
  I  I103  1  0.92827000  0.12849000  0.60405000  1.0
  I  I104  1  0.42682000  0.64856000  0.62174000  1.0
  I  I105  1  0.57318000  0.35144000  0.37827000  1.0
  N  N106  1  0.97737000  0.88391000  0.86519000  1.0
  N  N107  1  0.02262000  0.11610000  0.13481000  1.0
  N  N108  1  0.51921000  0.95463000  0.13946000  1.0
  N  N109  1  0.48080000  0.04537000  0.86053000  1.0
  O  O110  1  0.06770000  0.85515000  0.07136000  1.0
  O  O111  1  0.93230000  0.14485000  0.92864000  1.0
  O  O112  1  0.88719000  0.84743000  0.15568000  1.0
  O  O113  1  0.11281000  0.15257000  0.84432000  1.0
  O  O114  1  0.43070000  0.82010000  0.93391000  1.0
  O  O115  1  0.56930000  0.17990000  0.06609000  1.0
  O  O116  1  0.62026000  0.75139000  0.86602000  1.0
  O  O117  1  0.37975000  0.24860000  0.13398000  1.0
  O  O118  1  0.25161000  0.04766000  0.99830000  1.0
  O  O119  1  0.74839000  0.95234000  0.00170000  1.0
