# generated using pymatgen
data_CuH5C5NCl2
_symmetry_space_group_name_H-M   'P 1'
_cell_length_a   3.75470000
_cell_length_b   8.63574000
_cell_length_c   10.66600000
_cell_angle_alpha   103.33400000
_cell_angle_beta   93.27290000
_cell_angle_gamma   98.19940000
_symmetry_Int_Tables_number   1
_chemical_formula_structural   CuH5C5NCl2
_chemical_formula_sum   'Cu2 H10 C10 N2 Cl4'
_cell_volume   331.62084771
_cell_formula_units_Z   2
loop_
 _symmetry_equiv_pos_site_id
 _symmetry_equiv_pos_as_xyz
  1  'x, y, z'
loop_
 _atom_site_type_symbol
 _atom_site_label
 _atom_site_symmetry_multiplicity
 _atom_site_fract_x
 _atom_site_fract_y
 _atom_site_fract_z
 _atom_site_occupancy
  Cu  Cu0  1  0.36138000  0.97927000  0.14686000  1.0
  Cu  Cu1  1  0.63863000  0.02073000  0.85314000  1.0
  H  H2  1  0.01584000  0.63978000  0.06812000  1.0
  H  H3  1  0.98416000  0.36022000  0.93188000  1.0
  H  H4  1  0.57933000  0.93608000  0.40190000  1.0
  H  H5  1  0.42070000  0.06391000  0.59810000  1.0
  H  H6  1  0.90574000  0.40535000  0.17258000  1.0
  H  H7  1  0.09425000  0.59465000  0.82742000  1.0
  H  H8  1  0.48373000  0.72053000  0.52258000  1.0
  H  H9  1  0.51628000  0.27947000  0.47742000  1.0
  H  H10  1  0.14261000  0.44446000  0.40193000  1.0
  H  H11  1  0.85738000  0.55554000  0.59807000  1.0
  C  C12  1  0.11543000  0.64974000  0.16802000  1.0
  C  C13  1  0.88456000  0.35027000  0.83198000  1.0
  C  C14  1  0.42735000  0.81728000  0.35635000  1.0
  C  C15  1  0.57265000  0.18274000  0.64365000  1.0
  C  C16  1  0.05449000  0.52150000  0.22660000  1.0
  C  C17  1  0.94549000  0.47849000  0.77341000  1.0
  C  C18  1  0.37496000  0.69493000  0.42164000  1.0
  C  C19  1  0.62503000  0.30506000  0.57837000  1.0
  C  C20  1  0.18663000  0.54461000  0.35548000  1.0
  C  C21  1  0.81337000  0.45542000  0.64451000  1.0
  N  N22  1  0.29944000  0.79472000  0.23195000  1.0
  N  N23  1  0.70055000  0.20528000  0.76805000  1.0
  Cl  Cl24  1  0.60966000  0.82852000  0.97379000  1.0
  Cl  Cl25  1  0.39034000  0.17147000  0.02620000  1.0
  Cl  Cl26  1  0.00758000  0.11573000  0.28511000  1.0
  Cl  Cl27  1  0.99242000  0.88427000  0.71489000  1.0
