# generated using pymatgen
data_CdH22C30(NO2)3
_symmetry_space_group_name_H-M   'P 1'
_cell_length_a   10.25400000
_cell_length_b   10.32410000
_cell_length_c   14.27930000
_cell_angle_alpha   74.17190000
_cell_angle_beta   81.57710000
_cell_angle_gamma   72.61310000
_symmetry_Int_Tables_number   1
_chemical_formula_structural   CdH22C30(NO2)3
_chemical_formula_sum   'Cd2 H44 C60 N6 O12'
_cell_volume   1384.40838833
_cell_formula_units_Z   2
loop_
 _symmetry_equiv_pos_site_id
 _symmetry_equiv_pos_as_xyz
  1  'x, y, z'
loop_
 _atom_site_type_symbol
 _atom_site_label
 _atom_site_symmetry_multiplicity
 _atom_site_fract_x
 _atom_site_fract_y
 _atom_site_fract_z
 _atom_site_occupancy
  Cd  Cd0  1  0.09096000  0.59351000  0.56642000  1.0
  Cd  Cd1  1  0.90904000  0.40649000  0.43358000  1.0
  H  H2  1  0.27192000  0.99769000  0.04109000  1.0
  H  H3  1  0.72808000  0.00234000  0.95891000  1.0
  H  H4  1  0.76289000  0.72388000  0.60324000  1.0
  H  H5  1  0.23710000  0.27611000  0.39676000  1.0
  H  H6  1  0.58518000  0.75144000  0.74185000  1.0
  H  H7  1  0.41481000  0.24856000  0.25815000  1.0
  H  H8  1  0.89505000  0.47668000  0.93604000  1.0
  H  H9  1  0.10496000  0.52333000  0.06396000  1.0
  H  H10  1  0.05867000  0.46479000  0.78971000  1.0
  H  H11  1  0.94133000  0.53521000  0.21028000  1.0
  H  H12  1  0.51855000  0.69962000  0.91271000  1.0
  H  H13  1  0.48145000  0.30038000  0.08729000  1.0
  H  H14  1  0.74076000  0.50884000  0.05176000  1.0
  H  H15  1  0.25924000  0.49115000  0.94824000  1.0
  H  H16  1  0.43240000  0.66257000  0.07936000  1.0
  H  H17  1  0.56760000  0.33741000  0.92064000  1.0
  H  H18  1  0.65172000  0.46718000  0.22192000  1.0
  H  H19  1  0.34828000  0.53281000  0.77808000  1.0
  H  H20  1  0.28429000  0.70946000  0.19353000  1.0
  H  H21  1  0.71571000  0.29054000  0.80646000  1.0
  H  H22  1  0.11914000  0.72819000  0.33770000  1.0
  H  H23  1  0.88086000  0.27181000  0.66230000  1.0
  H  H24  1  0.38762000  0.41621000  0.52277000  1.0
  H  H25  1  0.61238000  0.58379000  0.47723000  1.0
  H  H26  1  0.57233000  0.39263000  0.38662000  1.0
  H  H27  1  0.42767000  0.60737000  0.61338000  1.0
  H  H28  1  0.09740000  0.07592000  0.56183000  1.0
  H  H29  1  0.90261000  0.92407000  0.43817000  1.0
  H  H30  1  0.20159000  0.18022000  0.80825000  1.0
  H  H31  1  0.79841000  0.81979000  0.19174000  1.0
  H  H32  1  0.21413000  0.75432000  0.82366000  1.0
  H  H33  1  0.78587000  0.24568000  0.17635000  1.0
  H  H34  1  0.09156000  0.03170000  0.19078000  1.0
  H  H35  1  0.90845000  0.96830000  0.80922000  1.0
  H  H36  1  0.13220000  0.01579000  0.36304000  1.0
  H  H37  1  0.86781000  0.98422000  0.63696000  1.0
  H  H38  1  0.56690000  0.89994000  0.27967000  1.0
  H  H39  1  0.43310000  0.10005000  0.72033000  1.0
  H  H40  1  0.50852000  0.92314000  0.11220000  1.0
  H  H41  1  0.49148000  0.07685000  0.88780000  1.0
  H  H42  1  0.29520000  0.95591000  0.48808000  1.0
  H  H43  1  0.70481000  0.04410000  0.51192000  1.0
  H  H44  1  0.57247000  0.00897000  0.39568000  1.0
  H  H45  1  0.42753000  0.99103000  0.60432000  1.0
  C  C46  1  0.78722000  0.67235000  0.67855000  1.0
  C  C47  1  0.21277000  0.32764000  0.32145000  1.0
  C  C48  1  0.68929000  0.68691000  0.75594000  1.0
  C  C49  1  0.31070000  0.31308000  0.24405000  1.0
  C  C50  1  0.72406000  0.61833000  0.85226000  1.0
  C  C51  1  0.27594000  0.38167000  0.14774000  1.0
  C  C52  1  0.86054000  0.53554000  0.86411000  1.0
  C  C53  1  0.13946000  0.46447000  0.13589000  1.0
  C  C54  1  0.95233000  0.52705000  0.78317000  1.0
  C  C55  1  0.04766000  0.47296000  0.21682000  1.0
  C  C56  1  0.62107000  0.63482000  0.93247000  1.0
  C  C57  1  0.37893000  0.36517000  0.06753000  1.0
  C  C58  1  0.64045000  0.57611000  0.02868000  1.0
  C  C59  1  0.35955000  0.42387000  0.97132000  1.0
  C  C60  1  0.53263000  0.59633000  0.10353000  1.0
  C  C61  1  0.46737000  0.40366000  0.89647000  1.0
  C  C62  1  0.55122000  0.53501000  0.19960000  1.0
  C  C63  1  0.44878000  0.46498000  0.80040000  1.0
  C  C64  1  0.44520000  0.55004000  0.27809000  1.0
  C  C65  1  0.55480000  0.44995000  0.72191000  1.0
  C  C66  1  0.31355000  0.64387000  0.26520000  1.0
  C  C67  1  0.68645000  0.35613000  0.73480000  1.0
  C  C68  1  0.22026000  0.65407000  0.34512000  1.0
  C  C69  1  0.77974000  0.34593000  0.65488000  1.0
  C  C70  1  0.37112000  0.48093000  0.44879000  1.0
  C  C71  1  0.62888000  0.51907000  0.55121000  1.0
  C  C72  1  0.47205000  0.46710000  0.37324000  1.0
  C  C73  1  0.52794000  0.53290000  0.62676000  1.0
  C  C74  1  0.14166000  0.79629000  0.63936000  1.0
  C  C75  1  0.85834000  0.20370000  0.36065000  1.0
  C  C76  1  0.14191000  0.29059000  0.62123000  1.0
  C  C77  1  0.85809000  0.70941000  0.37876000  1.0
  C  C78  1  0.24111000  0.92067000  0.93337000  1.0
  C  C79  1  0.75889000  0.07935000  0.06663000  1.0
  C  C80  1  0.15705000  0.90349000  0.68705000  1.0
  C  C81  1  0.84296000  0.09651000  0.31296000  1.0
  C  C82  1  0.13236000  0.04402000  0.63541000  1.0
  C  C83  1  0.86764000  0.95598000  0.36459000  1.0
  C  C84  1  0.15361000  0.14243000  0.67807000  1.0
  C  C85  1  0.84639000  0.85757000  0.32193000  1.0
  C  C86  1  0.18847000  0.10221000  0.77501000  1.0
  C  C87  1  0.81153000  0.89780000  0.22499000  1.0
  C  C88  1  0.20727000  0.96330000  0.82863000  1.0
  C  C89  1  0.79272000  0.03671000  0.17137000  1.0
  C  C90  1  0.19547000  0.86340000  0.78326000  1.0
  C  C91  1  0.80454000  0.13661000  0.21675000  1.0
  C  C92  1  0.19535000  0.00401000  0.21379000  1.0
  C  C93  1  0.80466000  0.99600000  0.78621000  1.0
  C  C94  1  0.21811000  0.99428000  0.30933000  1.0
  C  C95  1  0.78190000  0.00573000  0.69067000  1.0
  C  C96  1  0.35366000  0.96160000  0.33511000  1.0
  C  C97  1  0.64635000  0.03840000  0.66489000  1.0
  C  C98  1  0.45994000  0.93246000  0.26306000  1.0
  C  C99  1  0.54006000  0.06753000  0.73694000  1.0
  C  C100  1  0.42789000  0.94383000  0.16961000  1.0
  C  C101  1  0.57211000  0.05616000  0.83039000  1.0
  C  C102  1  0.37843000  0.96597000  0.43169000  1.0
  C  C103  1  0.62157000  0.03403000  0.56831000  1.0
  C  C104  1  0.49107000  0.99319000  0.45285000  1.0
  C  C105  1  0.50893000  0.00681000  0.54715000  1.0
  N  N106  1  0.91702000  0.59418000  0.69129000  1.0
  N  N107  1  0.08297000  0.40582000  0.30871000  1.0
  N  N108  1  0.24758000  0.57468000  0.43586000  1.0
  N  N109  1  0.75242000  0.42533000  0.56413000  1.0
  N  N110  1  0.29781000  0.98080000  0.14466000  1.0
  N  N111  1  0.70220000  0.01920000  0.85534000  1.0
  O  O112  1  0.19618000  0.66768000  0.67797000  1.0
  O  O113  1  0.80382000  0.33231000  0.32204000  1.0
  O  O114  1  0.07485000  0.83811000  0.56324000  1.0
  O  O115  1  0.92516000  0.16188000  0.43676000  1.0
  O  O116  1  0.08485000  0.33545000  0.54081000  1.0
  O  O117  1  0.91515000  0.66454000  0.45918000  1.0
  O  O118  1  0.19176000  0.36439000  0.65684000  1.0
  O  O119  1  0.80823000  0.63561000  0.34315000  1.0
  O  O120  1  0.25449000  0.02563000  0.96450000  1.0
  O  O121  1  0.74551000  0.97440000  0.03549000  1.0
  O  O122  1  0.25473000  0.79962000  0.98353000  1.0
  O  O123  1  0.74526000  0.20041000  0.01648000  1.0
