# generated using pymatgen
data_ErH7C8SNO7
_symmetry_space_group_name_H-M   'P 1'
_cell_length_a   6.98020000
_cell_length_b   10.31439558
_cell_length_c   10.32275598
_cell_angle_alpha   66.47098415
_cell_angle_beta   71.23346781
_cell_angle_gamma   71.31298645
_symmetry_Int_Tables_number   1
_chemical_formula_structural   ErH7C8SNO7
_chemical_formula_sum   'Er2 H14 C16 S2 N2 O14'
_cell_volume   629.21378244
_cell_formula_units_Z   2
loop_
 _symmetry_equiv_pos_site_id
 _symmetry_equiv_pos_as_xyz
  1  'x, y, z'
loop_
 _atom_site_type_symbol
 _atom_site_label
 _atom_site_symmetry_multiplicity
 _atom_site_fract_x
 _atom_site_fract_y
 _atom_site_fract_z
 _atom_site_occupancy
  Er  Er0  1  0.48568000  0.82252000  0.82230000  1.0
  Er  Er1  1  0.51433000  0.17755000  0.17762000  1.0
  H  H2  1  0.32697000  0.27436000  0.64145000  1.0
  H  H3  1  0.67266000  0.35868000  0.72580000  1.0
  H  H4  1  0.67332000  0.72549000  0.35832000  1.0
  H  H5  1  0.32704000  0.64149000  0.27434000  1.0
  H  H6  1  0.09217000  0.41986000  0.80287000  1.0
  H  H7  1  0.90748000  0.19700000  0.58057000  1.0
  H  H8  1  0.90816000  0.57964000  0.19722000  1.0
  H  H9  1  0.09225000  0.80291000  0.41988000  1.0
  H  H10  1  0.42009000  0.39243000  0.39245000  1.0
  H  H11  1  0.57983000  0.60777000  0.60737000  1.0
  H  H12  1  0.02923000  0.90595000  0.90580000  1.0
  H  H13  1  0.97077000  0.09441000  0.09387000  1.0
  H  H14  1  0.07551000  0.80814000  0.80816000  1.0
  H  H15  1  0.92448000  0.19226000  0.19146000  1.0
  C  C16  1  0.26674000  0.39116000  0.60040000  1.0
  C  C17  1  0.73300000  0.39965000  0.60901000  1.0
  C  C18  1  0.73343000  0.60869000  0.39954000  1.0
  C  C19  1  0.26679000  0.60043000  0.39115000  1.0
  C  C20  1  0.13846000  0.47248000  0.68637000  1.0
  C  C21  1  0.86129000  0.31350000  0.52784000  1.0
  C  C22  1  0.86167000  0.52719000  0.31372000  1.0
  C  C23  1  0.13850000  0.68640000  0.47248000  1.0
  C  C24  1  0.06848000  0.62431000  0.62431000  1.0
  C  C25  1  0.93147000  0.37537000  0.37601000  1.0
  C  C26  1  0.61895000  0.97941000  0.97920000  1.0
  C  C27  1  0.38105000  0.02059000  0.02080000  1.0
  C  C28  1  0.49822000  0.06727000  0.51597000  1.0
  C  C29  1  0.50171000  0.48395000  0.93284000  1.0
  C  C30  1  0.50228000  0.93273000  0.48390000  1.0
  C  C31  1  0.49784000  0.51619000  0.06715000  1.0
  S  S32  1  0.91870000  0.72975000  0.72972000  1.0
  S  S33  1  0.08135000  0.26960000  0.27094000  1.0
  N  N34  1  0.32775000  0.45582000  0.45581000  1.0
  N  N35  1  0.67226000  0.54423000  0.54416000  1.0
  O  O36  1  0.69649000  0.90025000  0.89963000  1.0
  O  O37  1  0.30353000  0.09966000  0.10046000  1.0
  O  O38  1  0.71803000  0.02734000  0.02722000  1.0
  O  O39  1  0.28199000  0.97275000  0.97268000  1.0
  O  O40  1  0.48311000  0.05243000  0.64664000  1.0
  O  O41  1  0.51671000  0.35316000  0.94780000  1.0
  O  O42  1  0.51744000  0.94749000  0.35324000  1.0
  O  O43  1  0.48279000  0.64696000  0.05226000  1.0
  O  O44  1  0.50913000  0.18187000  0.40797000  1.0
  O  O45  1  0.49073000  0.59194000  0.81829000  1.0
  O  O46  1  0.49127000  0.81816000  0.59193000  1.0
  O  O47  1  0.50886000  0.40818000  0.18170000  1.0
  O  O48  1  0.14182000  0.85039000  0.85039000  1.0
  O  O49  1  0.85818000  0.15025000  0.14899000  1.0
