# generated using pymatgen
data_CuH14C10S2I
_symmetry_space_group_name_H-M   'P 1'
_cell_length_a   7.37792000
_cell_length_b   8.56374000
_cell_length_c   11.36144391
_cell_angle_alpha   67.86940807
_cell_angle_beta   83.88772125
_cell_angle_gamma   73.57660000
_symmetry_Int_Tables_number   1
_chemical_formula_structural   CuH14C10S2I
_chemical_formula_sum   'Cu2 H28 C20 S4 I2'
_cell_volume   637.82874355
_cell_formula_units_Z   2
loop_
 _symmetry_equiv_pos_site_id
 _symmetry_equiv_pos_as_xyz
  1  'x, y, z'
loop_
 _atom_site_type_symbol
 _atom_site_label
 _atom_site_symmetry_multiplicity
 _atom_site_fract_x
 _atom_site_fract_y
 _atom_site_fract_z
 _atom_site_occupancy
  Cu  Cu0  1  0.49991000  0.43712000  0.12579000  1.0
  Cu  Cu1  1  0.50009000  0.56287000  0.87421000  1.0
  H  H2  1  0.66587000  0.06521000  0.29087000  1.0
  H  H3  1  0.33425000  0.64437000  0.29081000  1.0
  H  H4  1  0.33413000  0.93479000  0.70913000  1.0
  H  H5  1  0.66576000  0.35563000  0.70918000  1.0
  H  H6  1  0.83116000  0.83160000  0.48630000  1.0
  H  H7  1  0.16913000  0.68278000  0.48624000  1.0
  H  H8  1  0.16884000  0.16840000  0.51371000  1.0
  H  H9  1  0.83088000  0.31721000  0.51376000  1.0
  H  H10  1  0.13894000  0.27186000  0.09497000  1.0
  H  H11  1  0.86175000  0.63256000  0.09537000  1.0
  H  H12  1  0.86107000  0.72813000  0.90503000  1.0
  H  H13  1  0.13826000  0.36745000  0.90462000  1.0
  H  H14  1  0.35758000  0.10937000  0.13660000  1.0
  H  H15  1  0.64294000  0.75379000  0.13653000  1.0
  H  H16  1  0.64242000  0.89063000  0.86340000  1.0
  H  H17  1  0.35706000  0.24621000  0.86346000  1.0
  H  H18  1  0.20439000  0.94577000  0.34112000  1.0
  H  H19  1  0.79546000  0.71275000  0.34148000  1.0
  H  H20  1  0.79560000  0.05422000  0.65889000  1.0
  H  H21  1  0.20453000  0.28725000  0.65852000  1.0
  H  H22  1  0.08614000  0.97398000  0.20323000  1.0
  H  H23  1  0.91415000  0.82231000  0.20377000  1.0
  H  H24  1  0.91386000  0.02602000  0.79677000  1.0
  H  H25  1  0.08583000  0.17771000  0.79622000  1.0
  H  H26  1  0.98664000  0.10978000  0.29282000  1.0
  H  H27  1  0.01331000  0.59689000  0.29339000  1.0
  H  H28  1  0.01336000  0.89022000  0.70718000  1.0
  H  H29  1  0.98668000  0.40313000  0.70660000  1.0
  C  C30  1  0.59403000  0.03580000  0.38269000  1.0
  C  C31  1  0.40606000  0.58179000  0.38266000  1.0
  C  C32  1  0.40598000  0.96420000  0.61731000  1.0
  C  C33  1  0.59395000  0.41821000  0.61734000  1.0
  C  C34  1  0.40787000  0.13100000  0.39114000  1.0
  C  C35  1  0.59202000  0.47777000  0.39113000  1.0
  C  C36  1  0.59213000  0.86901000  0.60886000  1.0
  C  C37  1  0.40798000  0.52223000  0.60887000  1.0
  C  C38  1  0.68557000  0.90536000  0.49154000  1.0
  C  C39  1  0.31461000  0.60353000  0.49151000  1.0
  C  C40  1  0.31444000  0.09463000  0.50847000  1.0
  C  C41  1  0.68540000  0.39646000  0.50849000  1.0
  C  C42  1  0.22642000  0.17180000  0.17526000  1.0
  C  C43  1  0.77390000  0.65261000  0.17546000  1.0
  C  C44  1  0.77358000  0.82819000  0.82475000  1.0
  C  C45  1  0.22610000  0.34740000  0.82453000  1.0
  C  C46  1  0.11932000  0.04285000  0.25900000  1.0
  C  C47  1  0.88075000  0.69776000  0.25943000  1.0
  C  C48  1  0.88068000  0.95714000  0.74101000  1.0
  C  C49  1  0.11924000  0.30226000  0.74056000  1.0
  S  S50  1  0.28592000  0.30053000  0.25520000  1.0
  S  S51  1  0.71401000  0.44412000  0.25524000  1.0
  S  S52  1  0.71408000  0.69947000  0.74480000  1.0
  S  S53  1  0.28599000  0.55588000  0.74476000  1.0
  I  I54  1  0.71148000  0.24566000  0.00003000  1.0
  I  I55  1  0.28851000  0.75433000  0.99997000  1.0
