# generated using pymatgen
data_CuH8C6S(NO2)2
_symmetry_space_group_name_H-M   'P 1'
_cell_length_a   7.25111000
_cell_length_b   7.25175000
_cell_length_c   19.29706259
_cell_angle_alpha   95.05894338
_cell_angle_beta   95.05474401
_cell_angle_gamma   117.52900000
_symmetry_Int_Tables_number   1
_chemical_formula_structural   CuH8C6S(NO2)2
_chemical_formula_sum   'Cu4 H32 C24 S4 N8 O16'
_cell_volume   886.71995631
_cell_formula_units_Z   4
loop_
 _symmetry_equiv_pos_site_id
 _symmetry_equiv_pos_as_xyz
  1  'x, y, z'
loop_
 _atom_site_type_symbol
 _atom_site_label
 _atom_site_symmetry_multiplicity
 _atom_site_fract_x
 _atom_site_fract_y
 _atom_site_fract_z
 _atom_site_occupancy
  Cu  Cu0  1  0.66864000  0.89972000  0.03334000  1.0
  Cu  Cu1  1  0.60028000  0.83135000  0.46665000  1.0
  Cu  Cu2  1  0.33136000  0.10027000  0.96667000  1.0
  Cu  Cu3  1  0.39972000  0.16866000  0.53334000  1.0
  H  H4  1  0.41276000  0.54803000  0.07128000  1.0
  H  H5  1  0.95202000  0.08725000  0.42873000  1.0
  H  H6  1  0.58721000  0.45194000  0.92872000  1.0
  H  H7  1  0.04798000  0.91277000  0.57127000  1.0
  H  H8  1  0.30961000  0.56252000  0.99375000  1.0
  H  H9  1  0.93749000  0.19038000  0.50626000  1.0
  H  H10  1  0.69037000  0.43745000  0.00625000  1.0
  H  H11  1  0.06251000  0.80963000  0.49374000  1.0
  H  H12  1  0.31908000  0.71536000  0.06438000  1.0
  H  H13  1  0.78466000  0.18089000  0.43562000  1.0
  H  H14  1  0.68092000  0.28462000  0.93562000  1.0
  H  H15  1  0.21535000  0.81913000  0.56438000  1.0
  H  H16  1  0.87711000  0.28803000  0.06802000  1.0
  H  H17  1  0.21191000  0.62281000  0.43200000  1.0
  H  H18  1  0.12288000  0.71195000  0.93199000  1.0
  H  H19  1  0.78809000  0.37720000  0.56800000  1.0
  H  H20  1  0.95130000  0.23716000  0.99369000  1.0
  H  H21  1  0.26288000  0.54872000  0.50632000  1.0
  H  H22  1  0.04870000  0.76283000  0.00631000  1.0
  H  H23  1  0.73713000  0.45129000  0.49368000  1.0
  H  H24  1  0.04444000  0.19236000  0.06733000  1.0
  H  H25  1  0.30765000  0.45554000  0.43269000  1.0
  H  H26  1  0.95555000  0.80762000  0.93268000  1.0
  H  H27  1  0.69235000  0.54446000  0.56731000  1.0
  H  H28  1  0.74413000  0.10186000  0.18955000  1.0
  H  H29  1  0.39811000  0.75577000  0.31042000  1.0
  H  H30  1  0.25589000  0.89814000  0.81045000  1.0
  H  H31  1  0.60191000  0.24424000  0.68958000  1.0
  H  H32  1  0.90567000  0.30486000  0.31888000  1.0
  H  H33  1  0.19507000  0.59432000  0.18109000  1.0
  H  H34  1  0.09434000  0.69516000  0.68112000  1.0
  H  H35  1  0.80496000  0.40571000  0.81891000  1.0
  C  C36  1  0.55861000  0.26850000  0.18423000  1.0
  C  C37  1  0.23152000  0.94140000  0.31576000  1.0
  C  C38  1  0.44140000  0.73150000  0.81578000  1.0
  C  C39  1  0.76849000  0.05862000  0.68424000  1.0
  C  C40  1  0.70305000  0.21439000  0.21566000  1.0
  C  C41  1  0.28558000  0.79688000  0.28431000  1.0
  C  C42  1  0.29697000  0.78563000  0.78435000  1.0
  C  C43  1  0.71442000  0.20311000  0.71568000  1.0
  C  C44  1  0.78793000  0.32143000  0.28482000  1.0
  C  C45  1  0.17853000  0.71203000  0.21515000  1.0
  C  C46  1  0.21209000  0.67859000  0.71518000  1.0
  C  C47  1  0.82148000  0.28797000  0.78484000  1.0
  C  C48  1  0.70589000  0.45394000  0.30519000  1.0
  C  C49  1  0.04606000  0.79412000  0.19480000  1.0
  C  C50  1  0.29411000  0.54606000  0.69481000  1.0
  C  C51  1  0.95396000  0.20588000  0.80520000  1.0
  C  C52  1  0.43788000  0.20760000  0.11308000  1.0
  C  C53  1  0.29239000  0.06213000  0.38689000  1.0
  C  C54  1  0.56211000  0.79239000  0.88692000  1.0
  C  C55  1  0.70757000  0.93787000  0.61309000  1.0
  C  C56  1  0.75046000  0.58666000  0.37375000  1.0
  C  C57  1  0.91329000  0.74959000  0.12624000  1.0
  C  C58  1  0.24956000  0.41336000  0.62626000  1.0
  C  C59  1  0.08668000  0.25040000  0.87375000  1.0
  S  S60  1  0.52670000  0.44757000  0.23966000  1.0
  S  S61  1  0.05248000  0.97333000  0.26032000  1.0
  S  S62  1  0.47330000  0.55243000  0.76034000  1.0
  S  S63  1  0.94752000  0.02666000  0.73967000  1.0
  N  N64  1  0.40190000  0.65235000  0.04035000  1.0
  N  N65  1  0.84766000  0.09809000  0.45966000  1.0
  N  N66  1  0.59809000  0.34762000  0.95965000  1.0
  N  N67  1  0.15235000  0.90194000  0.54035000  1.0
  N  N68  1  0.90962000  0.18156000  0.04032000  1.0
  N  N69  1  0.31844000  0.59037000  0.45969000  1.0
  N  N70  1  0.09037000  0.81842000  0.95968000  1.0
  N  N71  1  0.68156000  0.40964000  0.54031000  1.0
  O  O72  1  0.46048000  0.08256000  0.06682000  1.0
  O  O73  1  0.41737000  0.03949000  0.43316000  1.0
  O  O74  1  0.53951000  0.91741000  0.93319000  1.0
  O  O75  1  0.58262000  0.96054000  0.56684000  1.0
  O  O76  1  0.31866000  0.28781000  0.09964000  1.0
  O  O77  1  0.21223000  0.18138000  0.40032000  1.0
  O  O78  1  0.68134000  0.71218000  0.90036000  1.0
  O  O79  1  0.78773000  0.81861000  0.59966000  1.0
  O  O80  1  0.88427000  0.58988000  0.42143000  1.0
  O  O81  1  0.91007000  0.61575000  0.07856000  1.0
  O  O82  1  0.11574000  0.41013000  0.57858000  1.0
  O  O83  1  0.08990000  0.38424000  0.92144000  1.0
  O  O84  1  0.64234000  0.68569000  0.37906000  1.0
  O  O85  1  0.81429000  0.85771000  0.12092000  1.0
  O  O86  1  0.35767000  0.31432000  0.62094000  1.0
  O  O87  1  0.18570000  0.14227000  0.87908000  1.0
