# generated using pymatgen
data_AlH9C21(NO3)4
_symmetry_space_group_name_H-M   'P 1'
_cell_length_a   4.17035000
_cell_length_b   13.45250000
_cell_length_c   13.45357661
_cell_angle_alpha   120.00805687
_cell_angle_beta   90.00449942
_cell_angle_gamma   89.99820000
_symmetry_Int_Tables_number   1
_chemical_formula_structural   AlH9C21(NO3)4
_chemical_formula_sum   'Al1 H9 C21 N4 O12'
_cell_volume   653.59485932
_cell_formula_units_Z   1
loop_
 _symmetry_equiv_pos_site_id
 _symmetry_equiv_pos_as_xyz
  1  'x, y, z'
loop_
 _atom_site_type_symbol
 _atom_site_label
 _atom_site_symmetry_multiplicity
 _atom_site_fract_x
 _atom_site_fract_y
 _atom_site_fract_z
 _atom_site_occupancy
  Al  Al0  1  0.96547000  0.00003000  0.50000000  1.0
  H  H1  1  0.75773000  0.03095000  0.22492000  1.0
  H  H2  1  0.78299000  0.12643000  0.11001000  1.0
  H  H3  1  0.22127000  0.40726000  0.36838000  1.0
  H  H4  1  0.22133000  0.13154000  0.03882000  1.0
  H  H5  1  0.75769000  0.27516000  0.80614000  1.0
  H  H6  1  0.78299000  0.39002000  0.01655000  1.0
  H  H7  1  0.22121000  0.46110000  0.09277000  1.0
  H  H8  1  0.75783000  0.69396000  0.46905000  1.0
  H  H9  1  0.78306000  0.48353000  0.37354000  1.0
  C  C10  1  0.46554000  0.07320000  0.67337000  1.0
  C  C11  1  0.46553000  0.82666000  0.39982000  1.0
  C  C12  1  0.46549000  0.10021000  0.42684000  1.0
  C  C13  1  0.64125000  0.11398000  0.25648000  1.0
  C  C14  1  0.65768000  0.16859000  0.19201000  1.0
  C  C15  1  0.50906000  0.27583000  0.23069000  1.0
  C  C16  1  0.34209000  0.32521000  0.33459000  1.0
  C  C17  1  0.33376000  0.27044000  0.39877000  1.0
  C  C18  1  0.48088000  0.16445000  0.36224000  1.0
  C  C19  1  0.34217000  0.16537000  0.99059000  1.0
  C  C20  1  0.33384000  0.10120000  0.87161000  1.0
  C  C21  1  0.48090000  0.13777000  0.80220000  1.0
  C  C22  1  0.64124000  0.24355000  0.85756000  1.0
  C  C23  1  0.65772000  0.30800000  0.97666000  1.0
  C  C24  1  0.50910000  0.26929000  0.04518000  1.0
  C  C25  1  0.34208000  0.50936000  0.17481000  1.0
  C  C26  1  0.33375000  0.62834000  0.22960000  1.0
  C  C27  1  0.48092000  0.69780000  0.33557000  1.0
  C  C28  1  0.64133000  0.64248000  0.38601000  1.0
  C  C29  1  0.65774000  0.52338000  0.33139000  1.0
  C  C30  1  0.50909000  0.45481000  0.22415000  1.0
  N  N31  1  0.52579000  0.33331000  0.16669000  1.0
  N  N32  1  0.16147000  0.32902000  0.50920000  1.0
  N  N33  1  0.16158000  0.99075000  0.81970000  1.0
  N  N34  1  0.16143000  0.68020000  0.17104000  1.0
  O  O35  1  0.22631000  0.03379000  0.40367000  1.0
  O  O36  1  0.22638000  0.09638000  0.63012000  1.0
  O  O37  1  0.22634000  0.86992000  0.46623000  1.0
  O  O38  1  0.70107000  0.11133000  0.49112000  1.0
  O  O39  1  0.70109000  0.87982000  0.38871000  1.0
  O  O40  1  0.70112000  0.00894000  0.62020000  1.0
  O  O41  1  0.20764000  0.29370000  0.57705000  1.0
  O  O42  1  0.98159000  0.41001000  0.52729000  1.0
  O  O43  1  0.20777000  0.92294000  0.71650000  1.0
  O  O44  1  0.98178000  0.97260000  0.88255000  1.0
  O  O45  1  0.20762000  0.78339000  0.20639000  1.0
  O  O46  1  0.98155000  0.61729000  0.09005000  1.0
