# generated using pymatgen
data_Zn4H26C28O13
_symmetry_space_group_name_H-M   'P 1'
_cell_length_a   14.45680000
_cell_length_b   15.16880000
_cell_length_c   16.43910000
_cell_angle_alpha   90.00050000
_cell_angle_beta   90.00430000
_cell_angle_gamma   92.17000000
_symmetry_Int_Tables_number   1
_chemical_formula_structural   Zn4H26C28O13
_chemical_formula_sum   'Zn8 H52 C56 O26'
_cell_volume   3602.38296992
_cell_formula_units_Z   2
loop_
 _symmetry_equiv_pos_site_id
 _symmetry_equiv_pos_as_xyz
  1  'x, y, z'
loop_
 _atom_site_type_symbol
 _atom_site_label
 _atom_site_symmetry_multiplicity
 _atom_site_fract_x
 _atom_site_fract_y
 _atom_site_fract_z
 _atom_site_occupancy
  Zn  Zn0  1  0.50499000  0.42727000  0.90491000  1.0
  Zn  Zn1  1  0.50285000  0.42337000  0.09457000  1.0
  Zn  Zn2  1  0.00287000  0.42337000  0.40543000  1.0
  Zn  Zn3  1  0.00495000  0.42735000  0.59509000  1.0
  Zn  Zn4  1  0.38352000  0.56504000  0.99998000  1.0
  Zn  Zn5  1  0.88350000  0.56507000  0.50002000  1.0
  Zn  Zn6  1  0.60869000  0.58647000  0.99912000  1.0
  Zn  Zn7  1  0.10871000  0.58648000  0.50089000  1.0
  H  H8  1  0.59324000  0.85685000  0.94164000  1.0
  H  H9  1  0.29489000  0.57895000  0.72004000  1.0
  H  H10  1  0.79491000  0.57896000  0.78002000  1.0
  H  H11  1  0.79542000  0.57583000  0.21593000  1.0
  H  H12  1  0.32486000  0.89517000  0.22595000  1.0
  H  H13  1  0.23535000  0.91016000  0.15378000  1.0
  H  H14  1  0.23546000  0.81298000  0.21319000  1.0
  H  H15  1  0.28996000  0.78095000  0.07252000  1.0
  H  H16  1  0.37363000  0.76041000  0.14524000  1.0
  H  H17  1  0.73601000  0.90996000  0.34515000  1.0
  H  H18  1  0.82593000  0.89489000  0.27340000  1.0
  H  H19  1  0.09291000  0.85690000  0.55879000  1.0
  H  H20  1  0.73647000  0.81270000  0.28585000  1.0
  H  H21  1  0.87425000  0.76021000  0.35451000  1.0
  H  H22  1  0.79023000  0.78094000  0.42686000  1.0
  H  H23  1  0.79283000  0.10489000  0.90909000  1.0
  H  H24  1  0.73370000  0.09312000  0.81484000  1.0
  H  H25  1  0.80263000  0.18952000  0.83472000  1.0
  H  H26  1  0.63504000  0.22130000  0.85043000  1.0
  H  H27  1  0.69682000  0.23900000  0.94035000  1.0
  H  H28  1  0.23331000  0.09291000  0.68553000  1.0
  H  H29  1  0.29246000  0.10495000  0.59133000  1.0
  H  H30  1  0.65683000  0.00544000  0.90393000  1.0
  H  H31  1  0.30218000  0.18940000  0.66591000  1.0
  H  H32  1  0.19643000  0.23908000  0.56032000  1.0
  H  H33  1  0.13456000  0.22116000  0.65014000  1.0
  H  H34  1  0.70703000  0.36188000  0.57263000  1.0
  H  H35  1  0.77771000  0.29770000  0.63626000  1.0
  H  H36  1  0.65806000  0.26999000  0.62570000  1.0
  H  H37  1  0.68424000  0.34446000  0.75934000  1.0
  H  H38  1  0.61388000  0.40573000  0.69717000  1.0
  H  H39  1  0.76786000  0.30482000  0.37559000  1.0
  H  H40  1  0.69765000  0.37565000  0.43313000  1.0
  H  H41  1  0.15634000  0.00549000  0.59658000  1.0
  H  H42  1  0.64730000  0.28103000  0.38507000  1.0
  H  H43  1  0.60937000  0.41256000  0.30403000  1.0
  H  H44  1  0.67896000  0.34461000  0.24761000  1.0
  H  H45  1  0.19754000  0.37579000  0.06686000  1.0
  H  H46  1  0.26778000  0.30490000  0.12432000  1.0
  H  H47  1  0.14720000  0.28116000  0.11486000  1.0
  H  H48  1  0.17896000  0.34461000  0.25237000  1.0
  H  H49  1  0.10937000  0.41264000  0.19599000  1.0
  H  H50  1  0.27778000  0.29756000  0.86362000  1.0
  H  H51  1  0.20710000  0.36166000  0.92731000  1.0
  H  H52  1  0.35744000  0.99408000  0.11576000  1.0
  H  H53  1  0.15815000  0.26985000  0.87413000  1.0
  H  H54  1  0.11392000  0.40563000  0.80280000  1.0
  H  H55  1  0.18427000  0.34442000  0.74058000  1.0
  H  H56  1  0.85790000  0.99402000  0.38368000  1.0
  H  H57  1  0.42108000  0.14266000  0.07878000  1.0
  H  H58  1  0.92140000  0.14267000  0.42089000  1.0
  H  H59  1  0.29548000  0.57581000  0.28414000  1.0
  C  C60  1  0.32188000  0.48040000  0.15415000  1.0
  C  C61  1  0.04067000  0.88799000  0.52175000  1.0
  C  C62  1  0.40642000  0.87208000  0.06970000  1.0
  C  C63  1  0.90669000  0.87204000  0.42999000  1.0
  C  C64  1  0.40756000  0.96302000  0.07650000  1.0
  C  C65  1  0.90785000  0.96298000  0.42314000  1.0
  C  C66  1  0.74451000  0.52365000  0.77732000  1.0
  C  C67  1  0.74356000  0.52193000  0.22089000  1.0
  C  C68  1  0.24360000  0.52192000  0.27914000  1.0
  C  C69  1  0.24450000  0.52363000  0.72271000  1.0
  C  C70  1  0.24556000  0.46570000  0.21539000  1.0
  C  C71  1  0.32313000  0.47902000  0.84605000  1.0
  C  C72  1  0.24773000  0.46442000  0.78406000  1.0
  C  C73  1  0.74772000  0.46447000  0.71594000  1.0
  C  C74  1  0.74553000  0.46569000  0.28463000  1.0
  C  C75  1  0.67668000  0.51919000  0.84404000  1.0
  C  C76  1  0.67561000  0.51643000  0.15417000  1.0
  C  C77  1  0.17564000  0.51644000  0.34584000  1.0
  C  C78  1  0.17667000  0.51919000  0.65598000  1.0
  C  C79  1  0.48187000  0.73746000  0.00700000  1.0
  C  C80  1  0.98188000  0.73748000  0.49304000  1.0
  C  C81  1  0.51977000  0.26203000  0.99817000  1.0
  C  C82  1  0.82311000  0.47910000  0.65395000  1.0
  C  C83  1  0.01971000  0.26206000  0.50183000  1.0
  C  C84  1  0.47584000  0.83476000  0.01899000  1.0
  C  C85  1  0.97587000  0.83478000  0.48101000  1.0
  C  C86  1  0.53260000  0.16480000  0.99476000  1.0
  C  C87  1  0.03251000  0.16483000  0.50530000  1.0
  C  C88  1  0.60430000  0.03666000  0.94052000  1.0
  C  C89  1  0.10396000  0.03670000  0.55982000  1.0
  C  C90  1  0.60195000  0.12756000  0.94399000  1.0
  C  C91  1  0.10163000  0.12761000  0.55633000  1.0
  C  C92  1  0.47152000  0.11183000  0.03958000  1.0
  C  C93  1  0.82187000  0.48039000  0.34587000  1.0
  C  C94  1  0.97163000  0.11183000  0.46027000  1.0
  C  C95  1  0.33686000  0.81450000  0.11635000  1.0
  C  C96  1  0.28037000  0.86117000  0.18067000  1.0
  C  C97  1  0.83735000  0.81438000  0.38315000  1.0
  C  C98  1  0.78120000  0.86094000  0.31852000  1.0
  C  C99  1  0.67164000  0.18635000  0.89875000  1.0
  C  C100  1  0.75444000  0.14059000  0.86257000  1.0
  C  C101  1  0.17123000  0.18632000  0.60179000  1.0
  C  C102  1  0.25404000  0.14050000  0.63792000  1.0
  C  C103  1  0.68517000  0.38340000  0.70284000  1.0
  C  C104  1  0.47182000  0.01885000  0.03393000  1.0
  C  C105  1  0.70895000  0.32534000  0.63030000  1.0
  C  C106  1  0.67989000  0.38772000  0.30146000  1.0
  C  C107  1  0.69987000  0.33465000  0.37811000  1.0
  C  C108  1  0.17987000  0.38776000  0.19853000  1.0
  C  C109  1  0.19979000  0.33474000  0.12183000  1.0
  C  C110  1  0.18522000  0.38331000  0.79711000  1.0
  C  C111  1  0.20902000  0.32521000  0.86960000  1.0
  C  C112  1  0.97189000  0.01885000  0.46595000  1.0
  C  C113  1  0.53992000  0.98083000  0.98317000  1.0
  C  C114  1  0.03976000  0.98086000  0.51698000  1.0
  C  C115  1  0.54083000  0.88796000  0.97846000  1.0
  O  O116  1  0.49972000  0.50286000  0.00074000  1.0
  O  O117  1  0.11242000  0.45902000  0.66071000  1.0
  O  O118  1  0.30712000  0.53168000  0.90411000  1.0
  O  O119  1  0.30701000  0.53428000  0.09676000  1.0
  O  O120  1  0.80702000  0.53429000  0.40325000  1.0
  O  O121  1  0.80705000  0.53173000  0.59587000  1.0
  O  O122  1  0.68537000  0.57368000  0.09718000  1.0
  O  O123  1  0.68686000  0.57575000  0.90159000  1.0
  O  O124  1  0.18686000  0.57576000  0.59843000  1.0
  O  O125  1  0.18539000  0.57370000  0.40283000  1.0
  O  O126  1  0.40543000  0.69241000  0.00209000  1.0
  O  O127  1  0.99971000  0.50290000  0.49923000  1.0
  O  O128  1  0.90544000  0.69243000  0.49789000  1.0
  O  O129  1  0.50750000  0.29689000  0.06794000  1.0
  O  O130  1  0.51929000  0.30229000  0.93000000  1.0
  O  O131  1  0.01916000  0.30236000  0.56998000  1.0
  O  O132  1  0.00753000  0.29689000  0.43202000  1.0
  O  O133  1  0.56279000  0.70735000  0.00119000  1.0
  O  O134  1  0.06279000  0.70737000  0.49889000  1.0
  O  O135  1  0.39322000  0.43514000  0.16485000  1.0
  O  O136  1  0.39528000  0.43505000  0.83488000  1.0
  O  O137  1  0.89528000  0.43518000  0.66514000  1.0
  O  O138  1  0.89321000  0.43514000  0.33517000  1.0
  O  O139  1  0.61242000  0.45902000  0.83929000  1.0
  O  O140  1  0.61252000  0.45499000  0.15811000  1.0
  O  O141  1  0.11255000  0.45500000  0.34190000  1.0
