# generated using pymatgen
data_TbPH11C9SNO9
_symmetry_space_group_name_H-M   'P 1'
_cell_length_a   6.76320000
_cell_length_b   7.54355000
_cell_length_c   13.34180000
_cell_angle_alpha   90.53540000
_cell_angle_beta   93.25800000
_cell_angle_gamma   101.65300000
_symmetry_Int_Tables_number   1
_chemical_formula_structural   TbPH11C9SNO9
_chemical_formula_sum   'Tb2 P2 H22 C18 S2 N2 O18'
_cell_volume   665.42110712
_cell_formula_units_Z   2
loop_
 _symmetry_equiv_pos_site_id
 _symmetry_equiv_pos_as_xyz
  1  'x, y, z'
loop_
 _atom_site_type_symbol
 _atom_site_label
 _atom_site_symmetry_multiplicity
 _atom_site_fract_x
 _atom_site_fract_y
 _atom_site_fract_z
 _atom_site_occupancy
  Tb  Tb0  1  0.28537000  0.76919000  0.45454000  1.0
  Tb  Tb1  1  0.71463000  0.23080000  0.54546000  1.0
  P  P2  1  0.25008000  0.38661000  0.62177000  1.0
  P  P3  1  0.74992000  0.61339000  0.37823000  1.0
  H  H4  1  0.17617000  0.10959000  0.77765000  1.0
  H  H5  1  0.82383000  0.89041000  0.22235000  1.0
  H  H6  1  0.17728000  0.13230000  0.96472000  1.0
  H  H7  1  0.82271000  0.86770000  0.03528000  1.0
  H  H8  1  0.22294000  0.32870000  0.12206000  1.0
  H  H9  1  0.77706000  0.67130000  0.87794000  1.0
  H  H10  1  0.27560000  0.63690000  0.19854000  1.0
  H  H11  1  0.72440000  0.36311000  0.80146000  1.0
  H  H12  1  0.32172000  0.90555000  0.09304000  1.0
  H  H13  1  0.67828000  0.09445000  0.90696000  1.0
  H  H14  1  0.32390000  0.87362000  0.90494000  1.0
  H  H15  1  0.67610000  0.12638000  0.09506000  1.0
  H  H16  1  0.30515000  0.67882000  0.76540000  1.0
  H  H17  1  0.69486000  0.32118000  0.23460000  1.0
  H  H18  1  0.02564000  0.41816000  0.38577000  1.0
  H  H19  1  0.97435000  0.58184000  0.61423000  1.0
  H  H20  1  0.23257000  0.39192000  0.34365000  1.0
  H  H21  1  0.76743000  0.60808000  0.65635000  1.0
  H  H22  1  0.22739000  0.92107000  0.64464000  1.0
  H  H23  1  0.77262000  0.07893000  0.35536000  1.0
  H  H24  1  0.10871000  0.04041000  0.57630000  1.0
  H  H25  1  0.89129000  0.95959000  0.42370000  1.0
  C  C26  1  0.23933000  0.39822000  0.75927000  1.0
  C  C27  1  0.76067000  0.60178000  0.24074000  1.0
  C  C28  1  0.20225000  0.24012000  0.81641000  1.0
  C  C29  1  0.79775000  0.75988000  0.18359000  1.0
  C  C30  1  0.20322000  0.25366000  0.91949000  1.0
  C  C31  1  0.79678000  0.74634000  0.08051000  1.0
  C  C32  1  0.23709000  0.42461000  0.96893000  1.0
  C  C33  1  0.76291000  0.57539000  0.03107000  1.0
  C  C34  1  0.24143000  0.44719000  0.07461000  1.0
  C  C35  1  0.75857000  0.55281000  0.92539000  1.0
  C  C36  1  0.27245000  0.61821000  0.11748000  1.0
  C  C37  1  0.72755000  0.38179000  0.88252000  1.0
  C  C38  1  0.29955000  0.77257000  0.05644000  1.0
  C  C39  1  0.70045000  0.22743000  0.94356000  1.0
  C  C40  1  0.29918000  0.75650000  0.95320000  1.0
  C  C41  1  0.70082000  0.24350000  0.04680000  1.0
  C  C42  1  0.26858000  0.58180000  0.90872000  1.0
  C  C43  1  0.73142000  0.41820000  0.09128000  1.0
  S  S44  1  0.39917000  0.08227000  0.30908000  1.0
  S  S45  1  0.60083000  0.91773000  0.69092000  1.0
  N  N46  1  0.26925000  0.55955000  0.80649000  1.0
  N  N47  1  0.73075000  0.44045000  0.19351000  1.0
  O  O48  1  0.24557000  0.57928000  0.58833000  1.0
  O  O49  1  0.75443000  0.42072000  0.41167000  1.0
  O  O50  1  0.44268000  0.32073000  0.60463000  1.0
  O  O51  1  0.55732000  0.67926000  0.39537000  1.0
  O  O52  1  0.05875000  0.25012000  0.58631000  1.0
  O  O53  1  0.94125000  0.74988000  0.41369000  1.0
  O  O54  1  0.26886000  0.90095000  0.28701000  1.0
  O  O55  1  0.73114000  0.09905000  0.71299000  1.0
  O  O56  1  0.43475000  0.08752000  0.42272000  1.0
  O  O57  1  0.56525000  0.91248000  0.57728000  1.0
  O  O58  1  0.30373000  0.23043000  0.27426000  1.0
  O  O59  1  0.69627000  0.76957000  0.72574000  1.0
  O  O60  1  0.59802000  0.09674000  0.26229000  1.0
  O  O61  1  0.40198000  0.90327000  0.73771000  1.0
  O  O62  1  0.16107000  0.48386000  0.36999000  1.0
  O  O63  1  0.83893000  0.51614000  0.63001000  1.0
  O  O64  1  0.13911000  0.91673000  0.58220000  1.0
  O  O65  1  0.86088000  0.08327000  0.41780000  1.0
