# generated using pymatgen
data_ZnH12C24(NO3)2
_symmetry_space_group_name_H-M   'P 1'
_cell_length_a   13.08590000
_cell_length_b   13.13950000
_cell_length_c   22.32560000
_cell_angle_alpha   95.94270000
_cell_angle_beta   91.94050000
_cell_angle_gamma   114.44100000
_symmetry_Int_Tables_number   1
_chemical_formula_structural   ZnH12C24(NO3)2
_chemical_formula_sum   'Zn4 H48 C96 N8 O24'
_cell_volume   3463.44409977
_cell_formula_units_Z   4
loop_
 _symmetry_equiv_pos_site_id
 _symmetry_equiv_pos_as_xyz
  1  'x, y, z'
loop_
 _atom_site_type_symbol
 _atom_site_label
 _atom_site_symmetry_multiplicity
 _atom_site_fract_x
 _atom_site_fract_y
 _atom_site_fract_z
 _atom_site_occupancy
  Zn  Zn0  1  0.86014000  0.76097000  0.29752000  1.0
  Zn  Zn1  1  0.85301000  0.71455000  0.16909000  1.0
  Zn  Zn2  1  0.13985000  0.23903000  0.70248000  1.0
  Zn  Zn3  1  0.14698000  0.28545000  0.83091000  1.0
  H  H4  1  0.70450000  0.63079000  0.38071000  1.0
  H  H5  1  0.69856000  0.62084000  0.49287000  1.0
  H  H6  1  0.02436000  0.90485000  0.51767000  1.0
  H  H7  1  0.01744000  0.90293000  0.40543000  1.0
  H  H8  1  0.84257000  0.00500000  0.69723000  1.0
  H  H9  1  0.84473000  0.00126000  0.80948000  1.0
  H  H10  1  0.87360000  0.49762000  0.77175000  1.0
  H  H11  1  0.87522000  0.50327000  0.65941000  1.0
  H  H12  1  0.19910000  0.80681000  0.34510000  1.0
  H  H13  1  0.38018000  0.78694000  0.35713000  1.0
  H  H14  1  0.53250000  0.74666000  0.31030000  1.0
  H  H15  1  0.50212000  0.63946000  0.11997000  1.0
  H  H16  1  0.31530000  0.64906000  0.10871000  1.0
  H  H17  1  0.16917000  0.70091000  0.15431000  1.0
  H  H18  1  0.86230000  0.09483000  0.31784000  1.0
  H  H19  1  0.84184000  0.26872000  0.35980000  1.0
  H  H20  1  0.82597000  0.44673000  0.34284000  1.0
  H  H21  1  0.84308000  0.37861000  0.15215000  1.0
  H  H22  1  0.85968000  0.20315000  0.11013000  1.0
  H  H23  1  0.87645000  0.02482000  0.12720000  1.0
  H  H24  1  0.70077000  0.58537000  0.05962000  1.0
  H  H25  1  0.69535000  0.59507000  0.94738000  1.0
  H  H26  1  0.01871000  0.88211000  0.97958000  1.0
  H  H27  1  0.01155000  0.85969000  0.08961000  1.0
  H  H28  1  0.29550000  0.36921000  0.61929000  1.0
  H  H29  1  0.30144000  0.37916000  0.50713000  1.0
  H  H30  1  0.97564000  0.09514000  0.48232000  1.0
  H  H31  1  0.98256000  0.09707000  0.59457000  1.0
  H  H32  1  0.15744000  0.99501000  0.30277000  1.0
  H  H33  1  0.15528000  0.99875000  0.19052000  1.0
  H  H34  1  0.12640000  0.50239000  0.22825000  1.0
  H  H35  1  0.12478000  0.49673000  0.34059000  1.0
  H  H36  1  0.80089000  0.19318000  0.65490000  1.0
  H  H37  1  0.61982000  0.21305000  0.64287000  1.0
  H  H38  1  0.46750000  0.25334000  0.68970000  1.0
  H  H39  1  0.49788000  0.36054000  0.88003000  1.0
  H  H40  1  0.68470000  0.35094000  0.89129000  1.0
  H  H41  1  0.83081000  0.29907000  0.84569000  1.0
  H  H42  1  0.13772000  0.90517000  0.68216000  1.0
  H  H43  1  0.15817000  0.73128000  0.64020000  1.0
  H  H44  1  0.17403000  0.55327000  0.65715000  1.0
  H  H45  1  0.15692000  0.62138000  0.84785000  1.0
  H  H46  1  0.14032000  0.79685000  0.88987000  1.0
  H  H47  1  0.12355000  0.97518000  0.87279000  1.0
  H  H48  1  0.29923000  0.41463000  0.94038000  1.0
  H  H49  1  0.30466000  0.40494000  0.05262000  1.0
  H  H50  1  0.98129000  0.11789000  0.02043000  1.0
  H  H51  1  0.98845000  0.14030000  0.91039000  1.0
  C  C52  1  0.88168000  0.94495000  0.23317000  1.0
  C  C53  1  0.06733000  0.76957000  0.24171000  1.0
  C  C54  1  0.82691000  0.53033000  0.23747000  1.0
  C  C55  1  0.64247000  0.69451000  0.22190000  1.0
  C  C56  1  0.77278000  0.68970000  0.41312000  1.0
  C  C57  1  0.76996000  0.68469000  0.47490000  1.0
  C  C58  1  0.86105000  0.76276000  0.51323000  1.0
  C  C59  1  0.95186000  0.84289000  0.48899000  1.0
  C  C60  1  0.94818000  0.84225000  0.42657000  1.0
  C  C61  1  0.85074000  0.85030000  0.61288000  1.0
  C  C62  1  0.84923000  0.84478000  0.67856000  1.0
  C  C63  1  0.84424000  0.93295000  0.71664000  1.0
  C  C64  1  0.84557000  0.93084000  0.77941000  1.0
  C  C65  1  0.85099000  0.84007000  0.80405000  1.0
  C  C66  1  0.85597000  0.84132000  0.87047000  1.0
  C  C67  1  0.86420000  0.65178000  0.85574000  1.0
  C  C68  1  0.86145000  0.65538000  0.78989000  1.0
  C  C69  1  0.86780000  0.56761000  0.75196000  1.0
  C  C70  1  0.86844000  0.57068000  0.68941000  1.0
  C  C71  1  0.86203000  0.66112000  0.66478000  1.0
  C  C72  1  0.86569000  0.66384000  0.59890000  1.0
  C  C73  1  0.85459000  0.75108000  0.70245000  1.0
  C  C74  1  0.85452000  0.74828000  0.76607000  1.0
  C  C75  1  0.17578000  0.75725000  0.24839000  1.0
  C  C76  1  0.23461000  0.77997000  0.30637000  1.0
  C  C77  1  0.33404000  0.76833000  0.31277000  1.0
  C  C78  1  0.37931000  0.73287000  0.26187000  1.0
  C  C79  1  0.48350000  0.72450000  0.26666000  1.0
  C  C80  1  0.52696000  0.69218000  0.21623000  1.0
  C  C81  1  0.46520000  0.66394000  0.15880000  1.0
  C  C82  1  0.36315000  0.67048000  0.15270000  1.0
  C  C83  1  0.31838000  0.70690000  0.20348000  1.0
  C  C84  1  0.21674000  0.72032000  0.19822000  1.0
  C  C85  1  0.87184000  0.05174000  0.22395000  1.0
  C  C86  1  0.86194000  0.11996000  0.27278000  1.0
  C  C87  1  0.85064000  0.22028000  0.26486000  1.0
  C  C88  1  0.84103000  0.29214000  0.31432000  1.0
  C  C89  1  0.83204000  0.39019000  0.30526000  1.0
  C  C90  1  0.83211000  0.42093000  0.24610000  1.0
  C  C91  1  0.84146000  0.35257000  0.19708000  1.0
  C  C92  1  0.85046000  0.25116000  0.20496000  1.0
  C  C93  1  0.86041000  0.17925000  0.15553000  1.0
  C  C94  1  0.87017000  0.08157000  0.16466000  1.0
  C  C95  1  0.76951000  0.64857000  0.03944000  1.0
  C  C96  1  0.76648000  0.65483000  0.97775000  1.0
  C  C97  1  0.85728000  0.73892000  0.95556000  1.0
  C  C98  1  0.94715000  0.81478000  0.99534000  1.0
  C  C99  1  0.94364000  0.80254000  0.05651000  1.0
  C  C100  1  0.11832000  0.05505000  0.76682000  1.0
  C  C101  1  0.93266000  0.23042000  0.75829000  1.0
  C  C102  1  0.17309000  0.46967000  0.76253000  1.0
  C  C103  1  0.35752000  0.30549000  0.77810000  1.0
  C  C104  1  0.22721000  0.31030000  0.58688000  1.0
  C  C105  1  0.23004000  0.31531000  0.52510000  1.0
  C  C106  1  0.13895000  0.23724000  0.48677000  1.0
  C  C107  1  0.04814000  0.15710000  0.51101000  1.0
  C  C108  1  0.05182000  0.15774000  0.57343000  1.0
  C  C109  1  0.14926000  0.14970000  0.38712000  1.0
  C  C110  1  0.15077000  0.15522000  0.32144000  1.0
  C  C111  1  0.15577000  0.06706000  0.28336000  1.0
  C  C112  1  0.15443000  0.06918000  0.22059000  1.0
  C  C113  1  0.14901000  0.15994000  0.19595000  1.0
  C  C114  1  0.14403000  0.15869000  0.12954000  1.0
  C  C115  1  0.13581000  0.34823000  0.14427000  1.0
  C  C116  1  0.13855000  0.34464000  0.21011000  1.0
  C  C117  1  0.13221000  0.43241000  0.24804000  1.0
  C  C118  1  0.13156000  0.42932000  0.31059000  1.0
  C  C119  1  0.13797000  0.33889000  0.33522000  1.0
  C  C120  1  0.13430000  0.33615000  0.40110000  1.0
  C  C121  1  0.14541000  0.24893000  0.29755000  1.0
  C  C122  1  0.14549000  0.25173000  0.23393000  1.0
  C  C123  1  0.82422000  0.24275000  0.75161000  1.0
  C  C124  1  0.76539000  0.22002000  0.69363000  1.0
  C  C125  1  0.66596000  0.23167000  0.68723000  1.0
  C  C126  1  0.62068000  0.26712000  0.73812000  1.0
  C  C127  1  0.51650000  0.27550000  0.73334000  1.0
  C  C128  1  0.47303000  0.30782000  0.78377000  1.0
  C  C129  1  0.53480000  0.33606000  0.84120000  1.0
  C  C130  1  0.63684000  0.32952000  0.84730000  1.0
  C  C131  1  0.68162000  0.29309000  0.79652000  1.0
  C  C132  1  0.78326000  0.27967000  0.80178000  1.0
  C  C133  1  0.12817000  0.94826000  0.77605000  1.0
  C  C134  1  0.13808000  0.88004000  0.72722000  1.0
  C  C135  1  0.14937000  0.77972000  0.73514000  1.0
  C  C136  1  0.15898000  0.70786000  0.68568000  1.0
  C  C137  1  0.16796000  0.60981000  0.69474000  1.0
  C  C138  1  0.16789000  0.57907000  0.75390000  1.0
  C  C139  1  0.15854000  0.64743000  0.80292000  1.0
  C  C140  1  0.14954000  0.74884000  0.79504000  1.0
  C  C141  1  0.13960000  0.82075000  0.84447000  1.0
  C  C142  1  0.12984000  0.91843000  0.83534000  1.0
  C  C143  1  0.23049000  0.35144000  0.96056000  1.0
  C  C144  1  0.23353000  0.34518000  0.02225000  1.0
  C  C145  1  0.14272000  0.26109000  0.04444000  1.0
  C  C146  1  0.05286000  0.18522000  0.00466000  1.0
  C  C147  1  0.05636000  0.19746000  0.94349000  1.0
  N  N148  1  0.86013000  0.76725000  0.38959000  1.0
  N  N149  1  0.86049000  0.75975000  0.57736000  1.0
  N  N150  1  0.85730000  0.74415000  0.89170000  1.0
  N  N151  1  0.85684000  0.72048000  0.07790000  1.0
  N  N152  1  0.13987000  0.23275000  0.61041000  1.0
  N  N153  1  0.13951000  0.24025000  0.42264000  1.0
  N  N154  1  0.14270000  0.25586000  0.10830000  1.0
  N  N155  1  0.14317000  0.27952000  0.92210000  1.0
  O  O156  1  0.89017000  0.92446000  0.28727000  1.0
  O  O157  1  0.87985000  0.88181000  0.18554000  1.0
  O  O158  1  0.02623000  0.78887000  0.29043000  1.0
  O  O159  1  0.02368000  0.75915000  0.18833000  1.0
  O  O160  1  0.82322000  0.59062000  0.28506000  1.0
  O  O161  1  0.82943000  0.55582000  0.18381000  1.0
  O  O162  1  0.69287000  0.72091000  0.27482000  1.0
  O  O163  1  0.68274000  0.67359000  0.17335000  1.0
  O  O164  1  0.84333000  0.92735000  0.58869000  1.0
  O  O165  1  0.85803000  0.92021000  0.90614000  1.0
  O  O166  1  0.87274000  0.57530000  0.87965000  1.0
  O  O167  1  0.87345000  0.58988000  0.56347000  1.0
  O  O168  1  0.10983000  0.07553000  0.71273000  1.0
  O  O169  1  0.12015000  0.11818000  0.81446000  1.0
  O  O170  1  0.97377000  0.21113000  0.70957000  1.0
  O  O171  1  0.97631000  0.24083000  0.81168000  1.0
  O  O172  1  0.17678000  0.40938000  0.71494000  1.0
  O  O173  1  0.17055000  0.44417000  0.81619000  1.0
  O  O174  1  0.30713000  0.27909000  0.72517000  1.0
  O  O175  1  0.31725000  0.32641000  0.82665000  1.0
  O  O176  1  0.15667000  0.07265000  0.41131000  1.0
  O  O177  1  0.14198000  0.07981000  0.09386000  1.0
  O  O178  1  0.12726000  0.42471000  0.12035000  1.0
  O  O179  1  0.12652000  0.41009000  0.43653000  1.0
