# generated using pymatgen
data_AgH13C14(NO2)2
_symmetry_space_group_name_H-M   'P 1'
_cell_length_a   6.13218000
_cell_length_b   6.82026000
_cell_length_c   7.82641000
_cell_angle_alpha   80.87060000
_cell_angle_beta   76.21660000
_cell_angle_gamma   75.59940000
_symmetry_Int_Tables_number   1
_chemical_formula_structural   AgH13C14(NO2)2
_chemical_formula_sum   'Ag1 H13 C14 N2 O4'
_cell_volume   306.18616627
_cell_formula_units_Z   1
loop_
 _symmetry_equiv_pos_site_id
 _symmetry_equiv_pos_as_xyz
  1  'x, y, z'
loop_
 _atom_site_type_symbol
 _atom_site_label
 _atom_site_symmetry_multiplicity
 _atom_site_fract_x
 _atom_site_fract_y
 _atom_site_fract_z
 _atom_site_occupancy
  Ag  Ag0  1  0.99978000  0.99895000  0.00144000  1.0
  H  H1  1  0.82414000  0.68678000  0.00151000  1.0
  H  H2  1  0.17750000  0.30889000  0.00171000  1.0
  H  H3  1  0.00778000  0.61598000  0.13790000  1.0
  H  H4  1  0.99292000  0.37879000  0.86565000  1.0
  H  H5  1  0.90605000  0.63994000  0.44513000  1.0
  H  H6  1  0.09362000  0.35721000  0.55675000  1.0
  H  H7  1  0.42406000  0.87847000  0.10306000  1.0
  H  H8  1  0.57866000  0.12376000  0.89700000  1.0
  H  H9  1  0.10319000  0.91262000  0.36514000  1.0
  H  H10  1  0.89832000  0.09043000  0.63359000  1.0
  H  H11  1  0.18052000  0.79636000  0.66792000  1.0
  H  H12  1  0.81807000  0.20670000  0.33136000  1.0
  H  H13  1  0.49272000  0.51196000  0.99057000  1.0
  C  C14  1  0.60327000  0.64813000  0.75220000  1.0
  C  C15  1  0.39827000  0.35119000  0.24556000  1.0
  C  C16  1  0.54901000  0.71806000  0.57441000  1.0
  C  C17  1  0.45021000  0.28226000  0.42585000  1.0
  C  C18  1  0.73061000  0.70139000  0.42658000  1.0
  C  C19  1  0.26960000  0.29750000  0.57455000  1.0
  C  C20  1  0.68597000  0.75537000  0.25694000  1.0
  C  C21  1  0.31518000  0.24328000  0.74415000  1.0
  C  C22  1  0.45950000  0.83492000  0.23572000  1.0
  C  C23  1  0.54226000  0.16580000  0.76456000  1.0
  C  C24  1  0.27916000  0.85201000  0.38316000  1.0
  C  C25  1  0.72176000  0.14961000  0.61640000  1.0
  C  C26  1  0.32173000  0.79044000  0.55279000  1.0
  C  C27  1  0.67772000  0.21060000  0.44707000  1.0
  N  N28  1  0.87219000  0.73007000  0.10568000  1.0
  N  N29  1  0.12983000  0.26633000  0.89650000  1.0
  O  O30  1  0.80501000  0.61615000  0.77568000  1.0
  O  O31  1  0.19350000  0.38143000  0.22464000  1.0
  O  O32  1  0.42794000  0.61976000  0.88003000  1.0
  O  O33  1  0.56996000  0.37886000  0.11881000  1.0
