# generated using pymatgen
data_NaH13C10(NO3)2
_symmetry_space_group_name_H-M   'P 1'
_cell_length_a   8.67426000
_cell_length_b   8.67408000
_cell_length_c   10.15930000
_cell_angle_alpha   114.56600000
_cell_angle_beta   91.55790000
_cell_angle_gamma   118.77100000
_symmetry_Int_Tables_number   1
_chemical_formula_structural   NaH13C10(NO3)2
_chemical_formula_sum   'Na2 H26 C20 N4 O12'
_cell_volume   584.09246996
_cell_formula_units_Z   2
loop_
 _symmetry_equiv_pos_site_id
 _symmetry_equiv_pos_as_xyz
  1  'x, y, z'
loop_
 _atom_site_type_symbol
 _atom_site_label
 _atom_site_symmetry_multiplicity
 _atom_site_fract_x
 _atom_site_fract_y
 _atom_site_fract_z
 _atom_site_occupancy
  Na  Na0  1  0.11923000  0.11932000  0.99992000  1.0
  Na  Na1  1  0.36197000  0.86198000  0.50001000  1.0
  H  H2  1  0.66666667  0.85448000  0.61192000  1.0
  H  H3  1  0.24263000  0.05487000  0.38802000  1.0
  H  H4  1  0.76397000  0.68821000  0.37259000  1.0
  H  H5  1  0.31592000  0.39155000  0.62747000  1.0
  H  H6  1  0.58305000  0.32973000  0.42779000  1.0
  H  H7  1  0.90225000  0.15562000  0.57226000  1.0
  H  H8  1  0.76686000  0.40596000  0.34742000  1.0
  H  H9  1  0.05889000  0.41978000  0.65271000  1.0
  H  H10  1  0.82985000  0.49732000  0.65080000  1.0
  H  H11  1  0.84676000  0.17936000  0.34929000  1.0
  H  H12  1  0.98526000  0.66550000  0.59354000  1.0
  H  H13  1  0.07215000  0.39214000  0.40657000  1.0
  H  H14  1  0.98158000  0.29104000  0.85853000  1.0
  H  H15  1  0.43220000  0.12276000  0.14143000  1.0
  H  H16  1  0.05910000  0.65797000  0.03273000  1.0
  H  H17  1  0.62548000  0.02665000  0.96757000  1.0
  H  H18  1  0.81135000  0.67846000  0.10385000  1.0
  H  H19  1  0.57485000  0.70769000  0.89619000  1.0
  H  H20  1  0.70936000  0.45074000  0.11340000  1.0
  H  H21  1  0.33752000  0.59603000  0.88647000  1.0
  H  H22  1  0.68623000  0.49336000  0.83174000  1.0
  H  H23  1  0.66158000  0.85459000  0.16835000  1.0
  H  H24  1  0.51398000  0.31115000  0.86992000  1.0
  H  H25  1  0.44128000  0.64382000  0.12986000  1.0
  H  H26  1  0.23106000  0.48825000  0.24313000  1.0
  H  H27  1  0.24522000  0.98796000  0.75692000  1.0
  C  C28  1  0.47552000  0.50063000  0.31849000  1.0
  C  C29  1  0.18227000  0.15711000  0.68148000  1.0
  C  C30  1  0.66584000  0.60694000  0.42278000  1.0
  C  C31  1  0.18441000  0.24327000  0.57726000  1.0
  C  C32  1  0.70902000  0.46040000  0.43671000  1.0
  C  C33  1  0.02401000  0.27267000  0.56337000  1.0
  C  C34  1  0.84177000  0.58490000  0.59480000  1.0
  C  C35  1  0.99038000  0.24737000  0.40529000  1.0
  C  C36  1  0.79684000  0.74179000  0.68097000  1.0
  C  C37  1  0.06107000  0.11623000  0.31907000  1.0
  C  C38  1  0.04786000  0.53450000  0.17357000  1.0
  C  C39  1  0.36130000  0.87456000  0.82646000  1.0
  C  C40  1  0.95483000  0.52221000  0.03729000  1.0
  C  C41  1  0.48509000  0.91770000  0.96281000  1.0
  C  C42  1  0.77883000  0.52382000  0.04830000  1.0
  C  C43  1  0.47568000  0.73061000  0.95166000  1.0
  C  C44  1  0.66115000  0.39793000  0.88402000  1.0
  C  C45  1  0.51387000  0.77701000  0.11589000  1.0
  C  C46  1  0.73058000  0.26232000  0.80544000  1.0
  C  C47  1  0.45651000  0.92472000  0.19438000  1.0
  N  N48  1  0.69782000  0.74655000  0.57947000  1.0
  N  N49  1  0.16730000  0.11862000  0.42055000  1.0
  N  N50  1  0.89548000  0.34012000  0.89514000  1.0
  N  N51  1  0.44481000  0.00014000  0.10481000  1.0
  O  O52  1  0.38208000  0.58217000  0.35993000  1.0
  O  O53  1  0.22223000  0.02214000  0.64000000  1.0
  O  O54  1  0.42252000  0.34460000  0.19451000  1.0
  O  O55  1  0.15013000  0.22807000  0.80544000  1.0
  O  O56  1  0.84390000  0.84951000  0.82070000  1.0
  O  O57  1  0.02905000  0.02364000  0.17935000  1.0
  O  O58  1  0.12450000  0.42844000  0.14182000  1.0
  O  O59  1  0.28673000  0.98272000  0.85817000  1.0
  O  O60  1  0.05849000  0.64606000  0.30320000  1.0
  O  O61  1  0.34353000  0.75589000  0.69683000  1.0
  O  O62  1  0.65235000  0.10735000  0.67838000  1.0
  O  O63  1  0.42816000  0.97317000  0.32126000  1.0
