# generated using pymatgen
data_CdH8C12(N2O)2
_symmetry_space_group_name_H-M   'P 1'
_cell_length_a   5.32517000
_cell_length_b   10.56870000
_cell_length_c   10.87220000
_cell_angle_alpha   89.99800000
_cell_angle_beta   89.23990000
_cell_angle_gamma   89.99750000
_symmetry_Int_Tables_number   1
_chemical_formula_structural   CdH8C12(N2O)2
_chemical_formula_sum   'Cd2 H16 C24 N8 O4'
_cell_volume   611.83492178
_cell_formula_units_Z   2
loop_
 _symmetry_equiv_pos_site_id
 _symmetry_equiv_pos_as_xyz
  1  'x, y, z'
loop_
 _atom_site_type_symbol
 _atom_site_label
 _atom_site_symmetry_multiplicity
 _atom_site_fract_x
 _atom_site_fract_y
 _atom_site_fract_z
 _atom_site_occupancy
  Cd  Cd0  1  0.50001000  0.50000000  0.00000000  1.0
  Cd  Cd1  1  0.49998000  0.00000000  0.49999000  1.0
  H  H2  1  0.34701000  0.59343000  0.77021000  1.0
  H  H3  1  0.65295000  0.09343000  0.72979000  1.0
  H  H4  1  0.65298000  0.40657000  0.22978000  1.0
  H  H5  1  0.34701000  0.90658000  0.27022000  1.0
  H  H6  1  0.57478000  0.74944000  0.63604000  1.0
  H  H7  1  0.42524000  0.24943000  0.86399000  1.0
  H  H8  1  0.42523000  0.25056000  0.36396000  1.0
  H  H9  1  0.57472000  0.75059000  0.13602000  1.0
  H  H10  1  0.17107000  0.04926000  0.78319000  1.0
  H  H11  1  0.82886000  0.54923000  0.71681000  1.0
  H  H12  1  0.82893000  0.95074000  0.21679000  1.0
  H  H13  1  0.17115000  0.45078000  0.28319000  1.0
  H  H14  1  0.91988000  0.90521000  0.92032000  1.0
  H  H15  1  0.08004000  0.40520000  0.57968000  1.0
  H  H16  1  0.08011000  0.09479000  0.07967000  1.0
  H  H17  1  0.91996000  0.59478000  0.42031000  1.0
  C  C18  1  0.96369000  0.64874000  0.93403000  1.0
  C  C19  1  0.03628000  0.14875000  0.56597000  1.0
  C  C20  1  0.03633000  0.35127000  0.06597000  1.0
  C  C21  1  0.96368000  0.85125000  0.43403000  1.0
  C  C22  1  0.11829000  0.73755000  0.85848000  1.0
  C  C23  1  0.88169000  0.23755000  0.64154000  1.0
  C  C24  1  0.88172000  0.26245000  0.14151000  1.0
  C  C25  1  0.11832000  0.76244000  0.35846000  1.0
  C  C26  1  0.30485000  0.69400000  0.77706000  1.0
  C  C27  1  0.69516000  0.19399000  0.72297000  1.0
  C  C28  1  0.69517000  0.30600000  0.22294000  1.0
  C  C29  1  0.30482000  0.80602000  0.27704000  1.0
  C  C30  1  0.43201000  0.78011000  0.70256000  1.0
  C  C31  1  0.56796000  0.28010000  0.79746000  1.0
  C  C32  1  0.56799000  0.21988000  0.29743000  1.0
  C  C33  1  0.43203000  0.71991000  0.20256000  1.0
  C  C34  1  0.20600000  0.94744000  0.78341000  1.0
  C  C35  1  0.79400000  0.44742000  0.71663000  1.0
  C  C36  1  0.79403000  0.05256000  0.21659000  1.0
  C  C37  1  0.20601000  0.55258000  0.28339000  1.0
  C  C38  1  0.06807000  0.86780000  0.86053000  1.0
  C  C39  1  0.93187000  0.36780000  0.63947000  1.0
  C  C40  1  0.93192000  0.13219000  0.13946000  1.0
  C  C41  1  0.06814000  0.63218000  0.36054000  1.0
  N  N42  1  0.07603000  0.54144000  0.96780000  1.0
  N  N43  1  0.92398000  0.04144000  0.53220000  1.0
  N  N44  1  0.92399000  0.45857000  0.03219000  1.0
  N  N45  1  0.07602000  0.95856000  0.46781000  1.0
  N  N46  1  0.38453000  0.90517000  0.70454000  1.0
  N  N47  1  0.61545000  0.40514000  0.79547000  1.0
  N  N48  1  0.61547000  0.09483000  0.29545000  1.0
  N  N49  1  0.38453000  0.59488000  0.20455000  1.0
  O  O50  1  0.73406000  0.67966000  0.95532000  1.0
  O  O51  1  0.26589000  0.17967000  0.54466000  1.0
  O  O52  1  0.26596000  0.32033000  0.04468000  1.0
  O  O53  1  0.73408000  0.82033000  0.45534000  1.0
