# generated using pymatgen
data_ZnH6C16NO8
_symmetry_space_group_name_H-M   'P 1'
_cell_length_a   14.86670000
_cell_length_b   22.61750000
_cell_length_c   22.65220000
_cell_angle_alpha   90.00550000
_cell_angle_beta   89.99630000
_cell_angle_gamma   89.99990000
_symmetry_Int_Tables_number   1
_chemical_formula_structural   ZnH6C16NO8
_chemical_formula_sum   'Zn4 H24 C64 N4 O32'
_cell_volume   7616.74754492
_cell_formula_units_Z   4
loop_
 _symmetry_equiv_pos_site_id
 _symmetry_equiv_pos_as_xyz
  1  'x, y, z'
loop_
 _atom_site_type_symbol
 _atom_site_label
 _atom_site_symmetry_multiplicity
 _atom_site_fract_x
 _atom_site_fract_y
 _atom_site_fract_z
 _atom_site_occupancy
  Zn  Zn0  1  0.59561000  0.50000000  0.99999000  1.0
  Zn  Zn1  1  0.40439000  0.50000000  0.00001000  1.0
  Zn  Zn2  1  0.59559000  0.00000000  0.49999000  1.0
  Zn  Zn3  1  0.40441000  0.00000000  0.50000000  1.0
  H  H4  1  0.08394000  0.40459000  0.00669000  1.0
  H  H5  1  0.91607000  0.59542000  0.99331000  1.0
  H  H6  1  0.08394000  0.59541000  0.99332000  1.0
  H  H7  1  0.91606000  0.40459000  0.00668000  1.0
  H  H8  1  0.08392000  0.90437000  0.50174000  1.0
  H  H9  1  0.91608000  0.09562000  0.49826000  1.0
  H  H10  1  0.08391000  0.09561000  0.49827000  1.0
  H  H11  1  0.91608000  0.90437000  0.50174000  1.0
  H  H12  1  0.65004000  0.34574000  0.20041000  1.0
  H  H13  1  0.34995000  0.65423000  0.79955000  1.0
  H  H14  1  0.65003000  0.65407000  0.79942000  1.0
  H  H15  1  0.34996000  0.34597000  0.20062000  1.0
  H  H16  1  0.34991000  0.34574000  0.79957000  1.0
  H  H17  1  0.65007000  0.65419000  0.20049000  1.0
  H  H18  1  0.34993000  0.65417000  0.20051000  1.0
  H  H19  1  0.65007000  0.34590000  0.79943000  1.0
  H  H20  1  0.64998000  0.79970000  0.65449000  1.0
  H  H21  1  0.35002000  0.20033000  0.34556000  1.0
  H  H22  1  0.64996000  0.20011000  0.34533000  1.0
  H  H23  1  0.35004000  0.79986000  0.65462000  1.0
  H  H24  1  0.35001000  0.79977000  0.34545000  1.0
  H  H25  1  0.64999000  0.20030000  0.65448000  1.0
  H  H26  1  0.35004000  0.20014000  0.65462000  1.0
  H  H27  1  0.64996000  0.79978000  0.34544000  1.0
  C  C28  1  0.50001000  0.42334000  0.91460000  1.0
  C  C29  1  0.50001000  0.57666000  0.08540000  1.0
  C  C30  1  0.50001000  0.42331000  0.08539000  1.0
  C  C31  1  0.50000000  0.57669000  0.91461000  1.0
  C  C32  1  0.49999000  0.91447000  0.42346000  1.0
  C  C33  1  0.49999000  0.08552000  0.57654000  1.0
  C  C34  1  0.50000000  0.91447000  0.57654000  1.0
  C  C35  1  0.50001000  0.08553000  0.42346000  1.0
  C  C36  1  0.95333000  0.44592000  0.00375000  1.0
  C  C37  1  0.04668000  0.55408000  0.99624000  1.0
  C  C38  1  0.95333000  0.55409000  0.99624000  1.0
  C  C39  1  0.04668000  0.44592000  0.00376000  1.0
  C  C40  1  0.95333000  0.94580000  0.50099000  1.0
  C  C41  1  0.04666000  0.05419000  0.49901000  1.0
  C  C42  1  0.95333000  0.05419000  0.49901000  1.0
  C  C43  1  0.04667000  0.94580000  0.50099000  1.0
  C  C44  1  0.90691000  0.50000000  0.00000000  1.0
  C  C45  1  0.09309000  0.50000000  0.00000000  1.0
  C  C46  1  0.90690000  0.99999000  0.50000000  1.0
  C  C47  1  0.09309000  0.99999000  0.50000000  1.0
  C  C48  1  0.58353000  0.70382000  0.74748000  1.0
  C  C49  1  0.41646000  0.29620000  0.25255000  1.0
  C  C50  1  0.58354000  0.29609000  0.25243000  1.0
  C  C51  1  0.41645000  0.70389000  0.74755000  1.0
  C  C52  1  0.41645000  0.70385000  0.25249000  1.0
  C  C53  1  0.58353000  0.29619000  0.74747000  1.0
  C  C54  1  0.41645000  0.29611000  0.74755000  1.0
  C  C55  1  0.58354000  0.70386000  0.25249000  1.0
  C  C56  1  0.58353000  0.25247000  0.29600000  1.0
  C  C57  1  0.41647000  0.74751000  0.70399000  1.0
  C  C58  1  0.58354000  0.74744000  0.70393000  1.0
  C  C59  1  0.41646000  0.25258000  0.29610000  1.0
  C  C60  1  0.41647000  0.25249000  0.70398000  1.0
  C  C61  1  0.58353000  0.74747000  0.29605000  1.0
  C  C62  1  0.41646000  0.74747000  0.29606000  1.0
  C  C63  1  0.58355000  0.25256000  0.70392000  1.0
  C  C64  1  0.49999000  0.68343000  0.77000000  1.0
  C  C65  1  0.50000000  0.31657000  0.23001000  1.0
  C  C66  1  0.50000000  0.68344000  0.23000000  1.0
  C  C67  1  0.49999000  0.31657000  0.77000000  1.0
  C  C68  1  0.50000000  0.23004000  0.31646000  1.0
  C  C69  1  0.50000000  0.76996000  0.68355000  1.0
  C  C70  1  0.50001000  0.23004000  0.68354000  1.0
  C  C71  1  0.50000000  0.76997000  0.31646000  1.0
  C  C72  1  0.81133000  0.50000000  0.99999000  1.0
  C  C73  1  0.18869000  0.50000000  0.00001000  1.0
  C  C74  1  0.81134000  0.00000000  0.50000000  1.0
  C  C75  1  0.18866000  0.99999000  0.50001000  1.0
  C  C76  1  0.49999000  0.64442000  0.81832000  1.0
  C  C77  1  0.50000000  0.35558000  0.18168000  1.0
  C  C78  1  0.50000000  0.64441000  0.18168000  1.0
  C  C79  1  0.49999000  0.35558000  0.81833000  1.0
  C  C80  1  0.49999000  0.18174000  0.35552000  1.0
  C  C81  1  0.50001000  0.81826000  0.64448000  1.0
  C  C82  1  0.50002000  0.18174000  0.64447000  1.0
  C  C83  1  0.49998000  0.81826000  0.35553000  1.0
  C  C84  1  0.50001000  0.38689000  0.13763000  1.0
  C  C85  1  0.49999000  0.61311000  0.86237000  1.0
  C  C86  1  0.49999000  0.38690000  0.86238000  1.0
  C  C87  1  0.50000000  0.61309000  0.13763000  1.0
  C  C88  1  0.50000000  0.86225000  0.61304000  1.0
  C  C89  1  0.50001000  0.13775000  0.38697000  1.0
  C  C90  1  0.49998000  0.86225000  0.38698000  1.0
  C  C91  1  0.50000000  0.13774000  0.61303000  1.0
  N  N92  1  0.26670000  0.50000000  0.00001000  1.0
  N  N93  1  0.73331000  0.50000000  0.99999000  1.0
  N  N94  1  0.26668000  0.00000000  0.50001000  1.0
  N  N95  1  0.73331000  0.00000000  0.49999000  1.0
  O  O96  1  0.57691000  0.43771000  0.93492000  1.0
  O  O97  1  0.42308000  0.56230000  0.06507000  1.0
  O  O98  1  0.57691000  0.56229000  0.06507000  1.0
  O  O99  1  0.42308000  0.43770000  0.93494000  1.0
  O  O100  1  0.42309000  0.43768000  0.06508000  1.0
  O  O101  1  0.57690000  0.56233000  0.93494000  1.0
  O  O102  1  0.42308000  0.56233000  0.93495000  1.0
  O  O103  1  0.57691000  0.43766000  0.06505000  1.0
  O  O104  1  0.57691000  0.93480000  0.43783000  1.0
  O  O105  1  0.42307000  0.06518000  0.56218000  1.0
  O  O106  1  0.57691000  0.06520000  0.56215000  1.0
  O  O107  1  0.42308000  0.93482000  0.43784000  1.0
  O  O108  1  0.42308000  0.93480000  0.56217000  1.0
  O  O109  1  0.57692000  0.06519000  0.43782000  1.0
  O  O110  1  0.42310000  0.06521000  0.43785000  1.0
  O  O111  1  0.57691000  0.93480000  0.56216000  1.0
  O  O112  1  0.66338000  0.31661000  0.23121000  1.0
  O  O113  1  0.33661000  0.68337000  0.76876000  1.0
  O  O114  1  0.66336000  0.68318000  0.76860000  1.0
  O  O115  1  0.33664000  0.31686000  0.23145000  1.0
  O  O116  1  0.33660000  0.31662000  0.76875000  1.0
  O  O117  1  0.66339000  0.68330000  0.23131000  1.0
  O  O118  1  0.33661000  0.68328000  0.23133000  1.0
  O  O119  1  0.66337000  0.31681000  0.76859000  1.0
  O  O120  1  0.66336000  0.76862000  0.68331000  1.0
  O  O121  1  0.33663000  0.23143000  0.31675000  1.0
  O  O122  1  0.66335000  0.23120000  0.31652000  1.0
  O  O123  1  0.33665000  0.76877000  0.68344000  1.0
  O  O124  1  0.33664000  0.76868000  0.31662000  1.0
  O  O125  1  0.66337000  0.23140000  0.68330000  1.0
  O  O126  1  0.33665000  0.23124000  0.68344000  1.0
  O  O127  1  0.66335000  0.76870000  0.31661000  1.0
