# generated using pymatgen
data_CdH8C8N2Cl2O
_symmetry_space_group_name_H-M   'P 1'
_cell_length_a   7.10231000
_cell_length_b   10.03450000
_cell_length_c   14.94100000
_cell_angle_alpha   80.92450000
_cell_angle_beta   78.59600000
_cell_angle_gamma   83.05930000
_symmetry_Int_Tables_number   1
_chemical_formula_structural   CdH8C8N2Cl2O
_chemical_formula_sum   'Cd4 H32 C32 N8 Cl8 O4'
_cell_volume   1026.29750474
_cell_formula_units_Z   4
loop_
 _symmetry_equiv_pos_site_id
 _symmetry_equiv_pos_as_xyz
  1  'x, y, z'
loop_
 _atom_site_type_symbol
 _atom_site_label
 _atom_site_symmetry_multiplicity
 _atom_site_fract_x
 _atom_site_fract_y
 _atom_site_fract_z
 _atom_site_occupancy
  Cd  Cd0  1  0.23749000  0.92309000  0.52964000  1.0
  Cd  Cd1  1  0.76250000  0.07691000  0.47036000  1.0
  Cd  Cd2  1  0.26640000  0.43689000  0.98760000  1.0
  Cd  Cd3  1  0.73360000  0.56311000  0.01241000  1.0
  H  H4  1  0.15512000  0.77821000  0.35053000  1.0
  H  H5  1  0.84488000  0.22180000  0.64947000  1.0
  H  H6  1  0.11758000  0.59908000  0.25604000  1.0
  H  H7  1  0.88241000  0.40092000  0.74397000  1.0
  H  H8  1  0.19681000  0.63695000  0.74135000  1.0
  H  H9  1  0.80317000  0.36305000  0.25866000  1.0
  H  H10  1  0.44371000  0.57901000  0.71383000  1.0
  H  H11  1  0.55627000  0.42098000  0.28618000  1.0
  H  H12  1  0.23506000  0.28045000  0.47390000  1.0
  H  H13  1  0.76492000  0.71955000  0.52611000  1.0
  H  H14  1  0.15729000  0.35735000  0.31693000  1.0
  H  H15  1  0.84269000  0.64266000  0.68307000  1.0
  H  H16  1  0.50800000  0.79164000  0.65846000  1.0
  H  H17  1  0.49198000  0.20836000  0.34155000  1.0
  H  H18  1  0.31516000  0.39948000  0.63196000  1.0
  H  H19  1  0.68483000  0.60052000  0.36804000  1.0
  H  H20  1  0.09040000  0.21273000  0.15250000  1.0
  H  H21  1  0.90962000  0.78726000  0.84750000  1.0
  H  H22  1  0.21915000  0.77602000  0.01292000  1.0
  H  H23  1  0.78086000  0.22398000  0.98707000  1.0
  H  H24  1  0.97254000  0.99771000  0.24144000  1.0
  H  H25  1  0.02748000  0.00228000  0.75856000  1.0
  H  H26  1  0.03162000  0.78443000  0.17216000  1.0
  H  H27  1  0.96839000  0.21556000  0.82784000  1.0
  H  H28  1  0.51085000  0.32913000  0.81201000  1.0
  H  H29  1  0.48916000  0.67087000  0.18799000  1.0
  H  H30  1  0.58687000  0.17350000  0.76760000  1.0
  H  H31  1  0.41313000  0.82650000  0.23240000  1.0
  H  H32  1  0.33078000  0.19760000  0.70200000  1.0
  H  H33  1  0.66923000  0.80240000  0.29800000  1.0
  H  H34  1  0.40057000  0.96015000  0.85780000  1.0
  H  H35  1  0.59943000  0.03986000  0.14219000  1.0
  C  C36  1  0.22637000  0.62703000  0.46225000  1.0
  C  C37  1  0.77364000  0.37298000  0.53775000  1.0
  C  C38  1  0.17800000  0.67041000  0.37539000  1.0
  C  C39  1  0.82200000  0.32959000  0.62461000  1.0
  C  C40  1  0.24842000  0.48733000  0.49695000  1.0
  C  C41  1  0.75159000  0.51267000  0.50305000  1.0
  C  C42  1  0.15646000  0.57081000  0.32396000  1.0
  C  C43  1  0.84354000  0.42919000  0.67604000  1.0
  C  C44  1  0.29416000  0.61176000  0.60003000  1.0
  C  C45  1  0.70583000  0.38824000  0.39998000  1.0
  C  C46  1  0.32798000  0.64850000  0.68842000  1.0
  C  C47  1  0.67200000  0.35150000  0.31158000  1.0
  C  C48  1  0.22318000  0.38752000  0.44610000  1.0
  C  C49  1  0.77681000  0.61248000  0.55391000  1.0
  C  C50  1  0.17881000  0.43206000  0.35878000  1.0
  C  C51  1  0.82117000  0.56794000  0.64123000  1.0
  C  C52  1  0.22028000  0.11436000  0.03241000  1.0
  C  C53  1  0.77972000  0.88564000  0.96759000  1.0
  C  C54  1  0.25603000  0.99126000  0.99408000  1.0
  C  C55  1  0.74398000  0.00875000  0.00592000  1.0
  C  C56  1  0.11932000  0.11837000  0.12264000  1.0
  C  C57  1  0.88069000  0.88163000  0.87736000  1.0
  C  C58  1  0.19242000  0.86984000  0.04331000  1.0
  C  C59  1  0.80760000  0.13016000  0.95668000  1.0
  C  C60  1  0.37294000  0.16083000  0.89029000  1.0
  C  C61  1  0.62707000  0.83918000  0.10971000  1.0
  C  C62  1  0.05414000  0.99764000  0.17152000  1.0
  C  C63  1  0.94588000  0.00236000  0.82848000  1.0
  C  C64  1  0.09014000  0.87575000  0.13255000  1.0
  C  C65  1  0.90987000  0.12424000  0.86744000  1.0
  C  C66  1  0.46067000  0.23532000  0.79988000  1.0
  C  C67  1  0.53933000  0.76468000  0.20012000  1.0
  N  N68  1  0.25612000  0.70094000  0.52853000  1.0
  N  N69  1  0.74388000  0.29906000  0.47147000  1.0
  N  N70  1  0.29252000  0.48264000  0.58401000  1.0
  N  N71  1  0.70747000  0.51736000  0.41599000  1.0
  N  N72  1  0.29549000  0.21712000  0.96595000  1.0
  N  N73  1  0.70452000  0.78288000  0.03405000  1.0
  N  N74  1  0.35398000  0.02507000  0.90502000  1.0
  N  N75  1  0.64603000  0.97493000  0.09497000  1.0
  Cl  Cl76  1  0.12839000  0.06124000  0.38508000  1.0
  Cl  Cl77  1  0.87160000  0.93876000  0.61493000  1.0
  Cl  Cl78  1  0.38870000  0.09688000  0.58919000  1.0
  Cl  Cl79  1  0.61131000  0.90312000  0.41081000  1.0
  Cl  Cl80  1  0.00565000  0.50660000  0.11793000  1.0
  Cl  Cl81  1  0.99435000  0.49340000  0.88207000  1.0
  Cl  Cl82  1  0.47568000  0.61632000  0.89713000  1.0
  Cl  Cl83  1  0.52432000  0.38369000  0.10288000  1.0
  O  O84  1  0.36891000  0.78671000  0.67789000  1.0
  O  O85  1  0.63107000  0.21329000  0.32212000  1.0
  O  O86  1  0.32279000  0.27196000  0.73949000  1.0
  O  O87  1  0.67721000  0.72804000  0.26051000  1.0
