# generated using pymatgen
data_AlH5C8O7
_symmetry_space_group_name_H-M   'P 1'
_cell_length_a   6.60413000
_cell_length_b   8.74064000
_cell_length_c   11.01738741
_cell_angle_alpha   84.55149504
_cell_angle_beta   72.84633003
_cell_angle_gamma   76.03090000
_symmetry_Int_Tables_number   1
_chemical_formula_structural   AlH5C8O7
_chemical_formula_sum   'Al2 H10 C16 O14'
_cell_volume   589.51635361
_cell_formula_units_Z   2
loop_
 _symmetry_equiv_pos_site_id
 _symmetry_equiv_pos_as_xyz
  1  'x, y, z'
loop_
 _atom_site_type_symbol
 _atom_site_label
 _atom_site_symmetry_multiplicity
 _atom_site_fract_x
 _atom_site_fract_y
 _atom_site_fract_z
 _atom_site_occupancy
  Al  Al0  1  0.00531000  0.47946000  0.50417000  1.0
  Al  Al1  1  0.50320000  0.47908000  0.50758000  1.0
  H  H2  1  0.85062000  0.41062000  0.35270000  1.0
  H  H3  1  0.15389000  0.54532000  0.65929000  1.0
  H  H4  1  0.59328000  0.73897000  0.22455000  1.0
  H  H5  1  0.80244000  0.72534000  0.75320000  1.0
  H  H6  1  0.35194000  0.34602000  0.89789000  1.0
  H  H7  1  0.23315000  0.36302000  0.13375000  1.0
  H  H8  1  0.71862000  0.12681000  0.46753000  1.0
  H  H9  1  0.29018000  0.83181000  0.54996000  1.0
  H  H10  1  0.79425000  0.92612000  0.19295000  1.0
  H  H11  1  0.97728000  0.92727000  0.75821000  1.0
  C  C12  1  0.36412000  0.51294000  0.27785000  1.0
  C  C13  1  0.32963000  0.19332000  0.51830000  1.0
  C  C14  1  0.63392000  0.47972000  0.73317000  1.0
  C  C15  1  0.67523000  0.76714000  0.49743000  1.0
  C  C16  1  0.61039000  0.94094000  0.49417000  1.0
  C  C17  1  0.39285000  0.01958000  0.52561000  1.0
  C  C18  1  0.42554000  0.52714000  0.13712000  1.0
  C  C19  1  0.56691000  0.62494000  0.06499000  1.0
  C  C20  1  0.34317000  0.43395000  0.07651000  1.0
  C  C21  1  0.63940000  0.73312000  0.12142000  1.0
  C  C22  1  0.76501000  0.83272000  0.04967000  1.0
  C  C23  1  0.55575000  0.51064000  0.87102000  1.0
  C  C24  1  0.40868000  0.42496000  0.94452000  1.0
  C  C25  1  0.63120000  0.61850000  0.92800000  1.0
  C  C26  1  0.75789000  0.72434000  0.85656000  1.0
  C  C27  1  0.82353000  0.83025000  0.91391000  1.0
  O  O28  1  0.18153000  0.47766000  0.33384000  1.0
  O  O29  1  0.48772000  0.26574000  0.49257000  1.0
  O  O30  1  0.50548000  0.44084000  0.68056000  1.0
  O  O31  1  0.87451000  0.70110000  0.47709000  1.0
  O  O32  1  0.82689000  0.49161000  0.67382000  1.0
  O  O33  1  0.51791000  0.69425000  0.52307000  1.0
  O  O34  1  0.49825000  0.52953000  0.33597000  1.0
  O  O35  1  0.13159000  0.26005000  0.53412000  1.0
  O  O36  1  0.80382000  0.41458000  0.44486000  1.0
  O  O37  1  0.20297000  0.54564000  0.56690000  1.0
  O  O38  1  0.78113000  0.01104000  0.45868000  1.0
  O  O39  1  0.22352000  0.94720000  0.56110000  1.0
  O  O40  1  0.83682000  0.93832000  0.10053000  1.0
  O  O41  1  0.94121000  0.93577000  0.85057000  1.0
