# generated using pymatgen
data_Nd2H18C18N2O15
_symmetry_space_group_name_H-M   'P 1'
_cell_length_a   6.97491000
_cell_length_b   7.58873000
_cell_length_c   22.29020000
_cell_angle_alpha   84.77560000
_cell_angle_beta   88.24930000
_cell_angle_gamma   75.35340000
_symmetry_Int_Tables_number   1
_chemical_formula_structural   Nd2H18C18N2O15
_chemical_formula_sum   'Nd4 H36 C36 N4 O30'
_cell_volume   1136.71915023
_cell_formula_units_Z   2
loop_
 _symmetry_equiv_pos_site_id
 _symmetry_equiv_pos_as_xyz
  1  'x, y, z'
loop_
 _atom_site_type_symbol
 _atom_site_label
 _atom_site_symmetry_multiplicity
 _atom_site_fract_x
 _atom_site_fract_y
 _atom_site_fract_z
 _atom_site_occupancy
  Nd  Nd0  1  0.40158000  0.56758000  0.20835000  1.0
  Nd  Nd1  1  0.59842000  0.43242000  0.79165000  1.0
  Nd  Nd2  1  0.84925000  0.73502000  0.29440000  1.0
  Nd  Nd3  1  0.15076000  0.26498000  0.70560000  1.0
  H  H4  1  0.02610000  0.75414000  0.14460000  1.0
  H  H5  1  0.97390000  0.24586000  0.85540000  1.0
  H  H6  1  0.19389000  0.76072000  0.09257000  1.0
  H  H7  1  0.80610000  0.23928000  0.90743000  1.0
  H  H8  1  0.83700000  0.02356000  0.38460000  1.0
  H  H9  1  0.16300000  0.97644000  0.61540000  1.0
  H  H10  1  0.80494000  0.84076000  0.42614000  1.0
  H  H11  1  0.19506000  0.15924000  0.57386000  1.0
  H  H12  1  0.73527000  0.16053000  0.30036000  1.0
  H  H13  1  0.26472000  0.83947000  0.69965000  1.0
  H  H14  1  0.64125000  0.12710000  0.23861000  1.0
  H  H15  1  0.35875000  0.87290000  0.76139000  1.0
  H  H16  1  0.66969000  0.38562000  0.00870000  1.0
  H  H17  1  0.33031000  0.61438000  0.99130000  1.0
  H  H18  1  0.82123000  0.87505000  0.94328000  1.0
  H  H19  1  0.17876000  0.12494000  0.05672000  1.0
  H  H20  1  0.75966000  0.72239000  0.04435000  1.0
  H  H21  1  0.24033000  0.27761000  0.95565000  1.0
  H  H22  1  0.79919000  0.23410000  0.49959000  1.0
  H  H23  1  0.20080000  0.76591000  0.50041000  1.0
  H  H24  1  0.55292000  0.15332000  0.57347000  1.0
  H  H25  1  0.44707000  0.84670000  0.42653000  1.0
  H  H26  1  0.09507000  0.33432000  0.45100000  1.0
  H  H27  1  0.90494000  0.66569000  0.54900000  1.0
  H  H28  1  0.96148000  0.30614000  0.13032000  1.0
  H  H29  1  0.03851000  0.69386000  0.86968000  1.0
  H  H30  1  0.94045000  0.14737000  0.19246000  1.0
  H  H31  1  0.05954000  0.85263000  0.80754000  1.0
  H  H32  1  0.17161000  0.20646000  0.17707000  1.0
  H  H33  1  0.82838000  0.79354000  0.82293000  1.0
  H  H34  1  0.18320000  0.98627000  0.36830000  1.0
  H  H35  1  0.81679000  0.01373000  0.63170000  1.0
  H  H36  1  0.15747000  0.14591000  0.30559000  1.0
  H  H37  1  0.84254000  0.85409000  0.69441000  1.0
  H  H38  1  0.39678000  0.06156000  0.33938000  1.0
  H  H39  1  0.60322000  0.93843000  0.66062000  1.0
  C  C40  1  0.57135000  0.29889000  0.12244000  1.0
  C  C41  1  0.42864000  0.70110000  0.87756000  1.0
  C  C42  1  0.64850000  0.16759000  0.07583000  1.0
  C  C43  1  0.35150000  0.83240000  0.92417000  1.0
  C  C44  1  0.68987000  0.23839000  0.01797000  1.0
  C  C45  1  0.31013000  0.76161000  0.98204000  1.0
  C  C46  1  0.77420000  0.95421000  0.98203000  1.0
  C  C47  1  0.22579000  0.04579000  0.01797000  1.0
  C  C48  1  0.73990000  0.87003000  0.03790000  1.0
  C  C49  1  0.26009000  0.12996000  0.96210000  1.0
  C  C50  1  0.67795000  0.97729000  0.08622000  1.0
  C  C51  1  0.32205000  0.02271000  0.91378000  1.0
  C  C52  1  0.64919000  0.87898000  0.14643000  1.0
  C  C53  1  0.35081000  0.12101000  0.85357000  1.0
  C  C54  1  0.72179000  0.38139000  0.38205000  1.0
  C  C55  1  0.27821000  0.61863000  0.61795000  1.0
  C  C56  1  0.57926000  0.33424000  0.42923000  1.0
  C  C57  1  0.42074000  0.66576000  0.57077000  1.0
  C  C58  1  0.64456000  0.25742000  0.48675000  1.0
  C  C59  1  0.35543000  0.74259000  0.51325000  1.0
  C  C60  1  0.50821000  0.21117000  0.52803000  1.0
  C  C61  1  0.49178000  0.78884000  0.47197000  1.0
  C  C62  1  0.25222000  0.31237000  0.46068000  1.0
  C  C63  1  0.74779000  0.68764000  0.53931000  1.0
  C  C64  1  0.37747000  0.36456000  0.41615000  1.0
  C  C65  1  0.62254000  0.63544000  0.58385000  1.0
  C  C66  1  0.29397000  0.45245000  0.35626000  1.0
  C  C67  1  0.70604000  0.54754000  0.64374000  1.0
  C  C68  1  0.94491000  0.41610000  0.21467000  1.0
  C  C69  1  0.05508000  0.58390000  0.78533000  1.0
  C  C70  1  0.01008000  0.25777000  0.17672000  1.0
  C  C71  1  0.98991000  0.74223000  0.82328000  1.0
  C  C72  1  0.30579000  0.87162000  0.28839000  1.0
  C  C73  1  0.69421000  0.12837000  0.71161000  1.0
  C  C74  1  0.26100000  0.02606000  0.32770000  1.0
  C  C75  1  0.73900000  0.97394000  0.67230000  1.0
  N  N76  1  0.75237000  0.13552000  0.97221000  1.0
  N  N77  1  0.24763000  0.86447000  0.02779000  1.0
  N  N78  1  0.31575000  0.23466000  0.51521000  1.0
  N  N79  1  0.68424000  0.76535000  0.48479000  1.0
  O  O80  1  0.56538000  0.46657000  0.10941000  1.0
  O  O81  1  0.43462000  0.53342000  0.89059000  1.0
  O  O82  1  0.50942000  0.24106000  0.17367000  1.0
  O  O83  1  0.49057000  0.75893000  0.82633000  1.0
  O  O84  1  0.79753000  0.83913000  0.18172000  1.0
  O  O85  1  0.20248000  0.16087000  0.81828000  1.0
  O  O86  1  0.48820000  0.83402000  0.15437000  1.0
  O  O87  1  0.51181000  0.16598000  0.84563000  1.0
  O  O88  1  0.71445000  0.54862000  0.36959000  1.0
  O  O89  1  0.28556000  0.45137000  0.63042000  1.0
  O  O90  1  0.83989000  0.24698000  0.35966000  1.0
  O  O91  1  0.16013000  0.75301000  0.64034000  1.0
  O  O92  1  0.40606000  0.42225000  0.31008000  1.0
  O  O93  1  0.59396000  0.57773000  0.68992000  1.0
  O  O94  1  0.11836000  0.55035000  0.35725000  1.0
  O  O95  1  0.88166000  0.44966000  0.64274000  1.0
  O  O96  1  0.76350000  0.47504000  0.23017000  1.0
  O  O97  1  0.23650000  0.52497000  0.76983000  1.0
  O  O98  1  0.07340000  0.49403000  0.23221000  1.0
  O  O99  1  0.92660000  0.50596000  0.76779000  1.0
  O  O100  1  0.16492000  0.82581000  0.26275000  1.0
  O  O101  1  0.83508000  0.17419000  0.73725000  1.0
  O  O102  1  0.48429000  0.78233000  0.27986000  1.0
  O  O103  1  0.51570000  0.21766000  0.72015000  1.0
  O  O104  1  0.15644000  0.68645000  0.12947000  1.0
  O  O105  1  0.84356000  0.31355000  0.87053000  1.0
  O  O106  1  0.85523000  0.88879000  0.38604000  1.0
  O  O107  1  0.14477000  0.11121000  0.61396000  1.0
  O  O108  1  0.71461000  0.06649000  0.27510000  1.0
  O  O109  1  0.28539000  0.93351000  0.72490000  1.0
