# generated using pymatgen
data_CoH16C8S2N2(ClO)2
_symmetry_space_group_name_H-M   'P 1'
_cell_length_a   6.62207988
_cell_length_b   6.75414000
_cell_length_c   8.87674000
_cell_angle_alpha   96.47270000
_cell_angle_beta   94.49809308
_cell_angle_gamma   61.20041177
_symmetry_Int_Tables_number   1
_chemical_formula_structural   CoH16C8S2N2(ClO)2
_chemical_formula_sum   'Co1 H16 C8 S2 N2 Cl2 O2'
_cell_volume   345.56674842
_cell_formula_units_Z   1
loop_
 _symmetry_equiv_pos_site_id
 _symmetry_equiv_pos_as_xyz
  1  'x, y, z'
loop_
 _atom_site_type_symbol
 _atom_site_label
 _atom_site_symmetry_multiplicity
 _atom_site_fract_x
 _atom_site_fract_y
 _atom_site_fract_z
 _atom_site_occupancy
  Co  Co0  1  0.00008000  0.99997000  0.00004000  1.0
  H  H1  1  0.86026000  0.65298000  0.02554000  1.0
  H  H2  1  0.13994000  0.34692000  0.97435000  1.0
  H  H3  1  0.51712000  0.34460000  0.97251000  1.0
  H  H4  1  0.48309000  0.65528000  0.02752000  1.0
  H  H5  1  0.23589000  0.34790000  0.31067000  1.0
  H  H6  1  0.76421000  0.65216000  0.68931000  1.0
  H  H7  1  0.33513000  0.43835000  0.48768000  1.0
  H  H8  1  0.66476000  0.56161000  0.51243000  1.0
  H  H9  1  0.50361000  0.36202000  0.31985000  1.0
  H  H10  1  0.49636000  0.63828000  0.68033000  1.0
  H  H11  1  0.78295000  0.96840000  0.35417000  1.0
  H  H12  1  0.21680000  0.03157000  0.64556000  1.0
  H  H13  1  0.92194000  0.79620000  0.51003000  1.0
  H  H14  1  0.07737000  0.20390000  0.48982000  1.0
  H  H15  1  0.85078000  0.67257000  0.33444000  1.0
  H  H16  1  0.14912000  0.32738000  0.66526000  1.0
  C  C17  1  0.69980000  0.80821000  0.01334000  1.0
  C  C18  1  0.30041000  0.19170000  0.98664000  1.0
  C  C19  1  0.50988000  0.19064000  0.98567000  1.0
  C  C20  1  0.49034000  0.80925000  0.01434000  1.0
  C  C21  1  0.32904000  0.43648000  0.36371000  1.0
  C  C22  1  0.67092000  0.56364000  0.63641000  1.0
  C  C23  1  0.90288000  0.79733000  0.38592000  1.0
  C  C24  1  0.09681000  0.20269000  0.61392000  1.0
  S  S25  1  0.17952000  0.72512000  0.31474000  1.0
  S  S26  1  0.82037000  0.27502000  0.68546000  1.0
  N  N27  1  0.71256000  0.99906000  0.99931000  1.0
  N  N28  1  0.28761000  0.00084000  0.00071000  1.0
  Cl  Cl29  1  0.10762000  0.73736000  0.79155000  1.0
  Cl  Cl30  1  0.89255000  0.26247000  0.20858000  1.0
  O  O31  1  0.15783000  0.70244000  0.14172000  1.0
  O  O32  1  0.84245000  0.29766000  0.85846000  1.0
