# generated using pymatgen
data_Zr6H43C62N5(ClO16)2
_symmetry_space_group_name_H-M   'P 1'
_cell_length_a   14.81686603
_cell_length_b   14.82959671
_cell_length_c   14.83410000
_cell_angle_alpha   119.91187783
_cell_angle_beta   90.02916621
_cell_angle_gamma   119.95759568
_symmetry_Int_Tables_number   1
_chemical_formula_structural   Zr6H43C62N5(ClO16)2
_chemical_formula_sum   'Zr6 H43 C62 N5 Cl2 O32'
_cell_volume   2308.74833523
_cell_formula_units_Z   1
loop_
 _symmetry_equiv_pos_site_id
 _symmetry_equiv_pos_as_xyz
  1  'x, y, z'
loop_
 _atom_site_type_symbol
 _atom_site_label
 _atom_site_symmetry_multiplicity
 _atom_site_fract_x
 _atom_site_fract_y
 _atom_site_fract_z
 _atom_site_occupancy
  Zr  Zr0  1  0.62319000  0.74109000  0.12115000  1.0
  Zr  Zr1  1  0.38248000  0.26378000  0.88351000  1.0
  Zr  Zr2  1  0.62000000  0.49963000  0.88093000  1.0
  Zr  Zr3  1  0.38544000  0.50390000  0.12192000  1.0
  Zr  Zr4  1  0.38566000  0.50361000  0.88256000  1.0
  Zr  Zr5  1  0.62388000  0.50278000  0.11919000  1.0
  H  H6  1  0.59628000  0.68690000  0.90394000  1.0
  H  H7  1  0.22189000  0.31518000  0.90740000  1.0
  H  H8  1  0.59468000  0.31228000  0.90551000  1.0
  H  H9  1  0.59803000  0.68988000  0.28231000  1.0
  H  H10  1  0.63352000  0.05611000  0.15637000  1.0
  H  H11  1  0.24200000  0.71007000  0.83192000  1.0
  H  H12  1  0.33173000  0.71014000  0.75158000  1.0
  H  H13  1  0.34579000  0.88798000  0.75551000  1.0
  H  H14  1  0.25175000  0.88478000  0.83124000  1.0
  H  H15  1  0.92053000  0.05377000  0.40397000  1.0
  H  H16  1  0.95132000  0.70309000  0.39739000  1.0
  H  H17  1  0.87164000  0.72329000  0.48615000  1.0
  H  H18  1  0.04822000  0.89819000  0.64960000  1.0
  H  H19  1  0.12666000  0.88331000  0.55827000  1.0
  H  H20  1  0.08915000  0.49350000  0.85247000  1.0
  H  H21  1  0.14025000  0.62654000  0.26546000  1.0
  H  H22  1  0.06280000  0.45798000  0.19679000  1.0
  H  H23  1  0.88558000  0.44347000  0.18054000  1.0
  H  H24  1  0.96382000  0.61224000  0.25252000  1.0
  H  H25  1  0.64707000  0.49733000  0.41015000  1.0
  H  H26  1  0.24197000  0.39657000  0.36371000  1.0
  H  H27  1  0.32423000  0.56627000  0.45197000  1.0
  H  H28  1  0.32376000  0.55883000  0.61813000  1.0
  H  H29  1  0.24482000  0.38926000  0.53003000  1.0
  H  H30  1  0.73991000  0.92821000  0.00074000  1.0
  H  H31  1  0.73539000  0.08333000  0.98587000  1.0
  H  H32  1  0.07458000  0.26331000  0.99965000  1.0
  H  H33  1  0.90362000  0.25128000  0.98387000  1.0
  H  H34  1  0.35214000  0.76858000  0.40479000  1.0
  H  H35  1  0.66715000  0.13590000  0.37383000  1.0
  H  H36  1  0.75077000  0.13364000  0.45829000  1.0
  H  H37  1  0.74355000  0.29516000  0.62836000  1.0
  H  H38  1  0.66073000  0.29887000  0.54406000  1.0
  H  H39  1  0.65960000  0.32674000  0.18763000  1.0
  H  H40  1  0.70725000  0.27166000  0.24383000  1.0
  H  H41  1  0.15424000  0.32630000  0.65177000  1.0
  H  H42  1  0.04607000  0.26991000  0.54585000  1.0
  H  H43  1  0.85320000  0.50308000  0.82723000  1.0
  H  H44  1  0.96063000  0.50698000  0.77836000  1.0
  H  H45  1  0.68113000  0.51312000  0.65878000  1.0
  H  H46  1  0.73924000  0.52700000  0.56038000  1.0
  H  H47  1  0.32607000  0.97967000  0.64967000  1.0
  H  H48  1  0.27808000  0.82236000  0.54680000  1.0
  C  C49  1  0.49851000  0.80452000  0.00521000  1.0
  C  C50  1  0.20062000  0.20153000  0.69703000  1.0
  C  C51  1  0.49951000  0.19991000  0.00729000  1.0
  C  C52  1  0.80873000  0.80307000  0.30168000  1.0
  C  C53  1  0.81193000  0.80558000  0.00697000  1.0
  C  C54  1  0.49940000  0.80528000  0.29957000  1.0
  C  C55  1  0.20555000  0.20185000  0.01023000  1.0
  C  C56  1  0.49367000  0.19416000  0.69212000  1.0
  C  C57  1  0.50151000  0.49356000  0.69236000  1.0
  C  C58  1  0.80855000  0.50485000  0.99802000  1.0
  C  C59  1  0.50195000  0.49484000  0.29932000  1.0
  C  C60  1  0.20556000  0.51066000  0.00515000  1.0
  C  C61  1  0.49413000  0.90403000  0.00840000  1.0
  C  C62  1  0.49859000  0.10290000  0.01218000  1.0
  C  C63  1  0.41641000  0.87610000  0.92762000  1.0
  C  C64  1  0.57698000  0.13270000  0.09754000  1.0
  C  C65  1  0.42051000  0.97307000  0.93029000  1.0
  C  C66  1  0.57240000  0.03251000  0.09254000  1.0
  C  C67  1  0.31772000  0.77117000  0.82250000  1.0
  C  C68  1  0.32400000  0.88156000  0.82394000  1.0
  C  C69  1  0.90695000  0.90308000  0.40361000  1.0
  C  C70  1  0.10136000  0.10413000  0.59833000  1.0
  C  C71  1  0.95437000  0.87673000  0.46055000  1.0
  C  C72  1  0.05091000  0.13236000  0.54280000  1.0
  C  C73  1  0.04851000  0.97478000  0.55331000  1.0
  C  C74  1  0.95654000  0.03130000  0.44694000  1.0
  C  C75  1  0.94494000  0.77391000  0.46758000  1.0
  C  C76  1  0.05434000  0.88523000  0.57072000  1.0
  C  C77  1  0.10520000  0.51034000  0.00444000  1.0
  C  C78  1  0.90734000  0.50398000  0.99559000  1.0
  C  C79  1  0.05708000  0.51760000  0.08674000  1.0
  C  C80  1  0.95633000  0.49685000  0.91075000  1.0
  C  C81  1  0.96132000  0.51329000  0.08050000  1.0
  C  C82  1  0.05307000  0.49982000  0.91772000  1.0
  C  C83  1  0.06755000  0.53420000  0.19656000  1.0
  C  C84  1  0.95717000  0.52642000  0.18813000  1.0
  C  C85  1  0.49961000  0.49047000  0.39704000  1.0
  C  C86  1  0.50191000  0.48892000  0.59095000  1.0
  C  C87  1  0.41746000  0.48509000  0.44494000  1.0
  C  C88  1  0.58656000  0.49379000  0.54183000  1.0
  C  C89  1  0.41949000  0.48382000  0.53790000  1.0
  C  C90  1  0.58250000  0.49394000  0.44668000  1.0
  C  C91  1  0.31331000  0.48095000  0.43850000  1.0
  C  C92  1  0.31444000  0.47736000  0.54326000  1.0
  C  C93  1  0.91438000  0.91079000  0.01185000  1.0
  C  C94  1  0.90974000  0.00091000  0.00424000  1.0
  C  C95  1  0.01244000  0.92112000  0.02511000  1.0
  C  C96  1  0.81256000  0.99819000  0.99679000  1.0
  C  C97  1  0.81046000  0.08637000  0.98963000  1.0
  C  C98  1  0.10526000  0.10333000  0.01419000  1.0
  C  C99  1  0.10882000  0.01869000  0.02708000  1.0
  C  C100  1  0.00655000  0.09818000  0.00464000  1.0
  C  C101  1  0.00100000  0.18689000  0.99624000  1.0
  C  C102  1  0.90528000  0.18115000  0.98888000  1.0
  C  C103  1  0.49653000  0.90472000  0.39715000  1.0
  C  C104  1  0.48998000  0.09358000  0.59087000  1.0
  C  C105  1  0.57476000  0.03511000  0.44817000  1.0
  C  C106  1  0.40811000  0.95964000  0.53803000  1.0
  C  C107  1  0.57062000  0.12466000  0.54149000  1.0
  C  C108  1  0.41419000  0.86989000  0.44356000  1.0
  C  C109  1  0.67790000  0.13434000  0.44632000  1.0
  C  C110  1  0.67366000  0.23645000  0.55290000  1.0
  N  N111  1  0.65777000  0.25498000  0.18253000  1.0
  N  N112  1  0.09251000  0.25442000  0.57805000  1.0
  N  N113  1  0.91058000  0.48354000  0.82065000  1.0
  N  N114  1  0.67143000  0.49621000  0.58290000  1.0
  N  N115  1  0.32245000  0.91519000  0.57521000  1.0
  Cl  Cl116  1  0.23098000  0.03338000  0.04951000  1.0
  Cl  Cl117  1  0.02031000  0.81896000  0.04359000  1.0
  O  O118  1  0.57728000  0.84148000  0.07967000  1.0
  O  O119  1  0.23905000  0.16402000  0.73743000  1.0
  O  O120  1  0.42372000  0.16246000  0.92938000  1.0
  O  O121  1  0.76876000  0.83985000  0.26204000  1.0
  O  O122  1  0.77189000  0.69163000  0.92662000  1.0
  O  O123  1  0.42449000  0.68901000  0.26111000  1.0
  O  O124  1  0.24575000  0.31758000  0.08616000  1.0
  O  O125  1  0.57151000  0.31007000  0.73219000  1.0
  O  O126  1  0.42563000  0.49564000  0.73251000  1.0
  O  O127  1  0.77046000  0.50636000  0.07574000  1.0
  O  O128  1  0.57945000  0.49683000  0.26040000  1.0
  O  O129  1  0.24544000  0.51032000  0.92869000  1.0
  O  O130  1  0.76542000  0.50349000  0.92125000  1.0
  O  O131  1  0.42671000  0.49859000  0.26257000  1.0
  O  O132  1  0.24284000  0.50828000  0.08120000  1.0
  O  O133  1  0.57984000  0.49778000  0.73701000  1.0
  O  O134  1  0.77234000  0.84157000  0.08342000  1.0
  O  O135  1  0.41941000  0.16031000  0.73645000  1.0
  O  O136  1  0.23925000  0.16151000  0.92973000  1.0
  O  O137  1  0.57777000  0.84325000  0.26200000  1.0
  O  O138  1  0.77057000  0.68714000  0.26158000  1.0
  O  O139  1  0.42421000  0.68892000  0.92611000  1.0
  O  O140  1  0.24294000  0.31979000  0.73860000  1.0
  O  O141  1  0.57810000  0.31780000  0.08104000  1.0
  O  O142  1  0.57144000  0.63686000  0.20237000  1.0
  O  O143  1  0.56898000  0.36661000  0.93310000  1.0
  O  O144  1  0.30190000  0.36893000  0.93622000  1.0
  O  O145  1  0.57145000  0.63681000  0.93383000  1.0
  O  O146  1  0.45246000  0.40213000  0.85260000  1.0
  O  O147  1  0.45482000  0.60164000  0.05074000  1.0
  O  O148  1  0.45440000  0.40401000  0.05105000  1.0
  O  O149  1  0.65174000  0.60073000  0.04948000  1.0
