# generated using pymatgen
data_Ag2H20C18N6O5
_symmetry_space_group_name_H-M   'P 1'
_cell_length_a   8.91236000
_cell_length_b   11.24870000
_cell_length_c   12.18950000
_cell_angle_alpha   112.34500000
_cell_angle_beta   97.93730000
_cell_angle_gamma   109.59400000
_symmetry_Int_Tables_number   1
_chemical_formula_structural   Ag2H20C18N6O5
_chemical_formula_sum   'Ag4 H40 C36 N12 O10'
_cell_volume   1014.14976215
_cell_formula_units_Z   2
loop_
 _symmetry_equiv_pos_site_id
 _symmetry_equiv_pos_as_xyz
  1  'x, y, z'
loop_
 _atom_site_type_symbol
 _atom_site_label
 _atom_site_symmetry_multiplicity
 _atom_site_fract_x
 _atom_site_fract_y
 _atom_site_fract_z
 _atom_site_occupancy
  Ag  Ag0  1  0.96745000  0.65113000  0.27584000  1.0
  Ag  Ag1  1  0.03255000  0.34886000  0.72416000  1.0
  Ag  Ag2  1  0.33663000  0.20848000  0.80957000  1.0
  Ag  Ag3  1  0.66337000  0.79152000  0.19043000  1.0
  H  H4  1  0.31907000  0.69451000  0.37663000  1.0
  H  H5  1  0.68094000  0.30549000  0.62337000  1.0
  H  H6  1  0.58560000  0.86255000  0.55267000  1.0
  H  H7  1  0.41440000  0.13745000  0.44733000  1.0
  H  H8  1  0.63537000  0.20403000  0.77369000  1.0
  H  H9  1  0.36463000  0.79597000  0.22631000  1.0
  H  H10  1  0.72851000  0.08186000  0.73945000  1.0
  H  H11  1  0.27149000  0.91814000  0.26055000  1.0
  H  H12  1  0.60939000  0.09346000  0.84678000  1.0
  H  H13  1  0.39061000  0.90654000  0.15322000  1.0
  H  H14  1  0.33333333  0.10032000  0.01509000  1.0
  H  H15  1  0.66666667  0.89967000  0.98491000  1.0
  H  H16  1  0.53069000  0.15125000  0.21268000  1.0
  H  H17  1  0.46932000  0.84875000  0.78732000  1.0
  H  H18  1  0.93950000  0.48676000  0.37456000  1.0
  H  H19  1  0.06050000  0.51324000  0.62544000  1.0
  H  H20  1  0.87495000  0.30333000  0.33361000  1.0
  H  H21  1  0.12505000  0.69667000  0.66639000  1.0
  H  H22  1  0.77112000  0.39670000  0.41962000  1.0
  H  H23  1  0.22889000  0.60331000  0.58039000  1.0
  H  H24  1  0.99067000  0.07806000  0.21782000  1.0
  H  H25  1  0.00932000  0.92194000  0.78218000  1.0
  H  H26  1  0.99907000  0.23502000  0.11784000  1.0
  H  H27  1  0.00093000  0.76498000  0.88216000  1.0
  H  H28  1  0.69526000  0.60500000  0.71213000  1.0
  H  H29  1  0.30474000  0.39499000  0.28787000  1.0
  H  H30  1  0.76502000  0.71506000  0.57302000  1.0
  H  H31  1  0.23498000  0.28494000  0.42698000  1.0
  H  H32  1  0.92632000  0.84119000  0.49227000  1.0
  H  H33  1  0.07368000  0.15881000  0.50773000  1.0
  H  H34  1  0.03288000  0.99414000  0.63831000  1.0
  H  H35  1  0.96712000  0.00586000  0.36169000  1.0
  H  H36  1  0.60013000  0.45501000  0.92634000  1.0
  H  H37  1  0.39987000  0.54498000  0.07366000  1.0
  H  H38  1  0.79403000  0.56130000  0.04372000  1.0
  H  H39  1  0.20597000  0.43870000  0.95628000  1.0
  H  H40  1  0.24137000  0.51841000  0.20827000  1.0
  H  H41  1  0.75863000  0.48159000  0.79173000  1.0
  H  H42  1  0.06770000  0.42438000  0.10458000  1.0
  H  H43  1  0.93230000  0.57561000  0.89542000  1.0
  C  C44  1  0.17880000  0.90120000  0.55985000  1.0
  C  C45  1  0.82120000  0.09880000  0.44015000  1.0
  C  C46  1  0.32287000  0.78180000  0.45831000  1.0
  C  C47  1  0.67713000  0.21820000  0.54169000  1.0
  C  C48  1  0.46996000  0.87459000  0.55530000  1.0
  C  C49  1  0.53004000  0.12541000  0.44470000  1.0
  C  C50  1  0.46427000  0.98699000  0.65401000  1.0
  C  C51  1  0.53573000  0.01301000  0.34599000  1.0
  C  C52  1  0.61833000  0.09706000  0.75891000  1.0
  C  C53  1  0.38167000  0.90294000  0.24109000  1.0
  C  C54  1  0.63320000  0.39921000  0.06571000  1.0
  C  C55  1  0.36680000  0.60079000  0.93429000  1.0
  C  C56  1  0.45203000  0.19472000  0.06198000  1.0
  C  C57  1  0.54797000  0.80528000  0.93802000  1.0
  C  C58  1  0.56055000  0.22232000  0.17063000  1.0
  C  C59  1  0.43945000  0.77768000  0.82937000  1.0
  C  C60  1  0.70874000  0.34771000  0.22703000  1.0
  C  C61  1  0.29127000  0.65229000  0.77297000  1.0
  C  C62  1  0.83103000  0.38657000  0.34563000  1.0
  C  C63  1  0.16898000  0.61344000  0.65438000  1.0
  C  C64  1  0.99498000  0.04404000  0.12230000  1.0
  C  C65  1  0.00502000  0.95597000  0.87770000  1.0
  C  C66  1  0.99606000  0.91131000  0.05703000  1.0
  C  C67  1  0.00394000  0.08870000  0.94297000  1.0
  C  C68  1  0.99846000  0.13163000  0.06603000  1.0
  C  C69  1  0.00154000  0.86837000  0.93397000  1.0
  C  C70  1  0.98677000  0.81472000  0.11651000  1.0
  C  C71  1  0.01323000  0.18528000  0.88349000  1.0
  C  C72  1  0.60961000  0.55929000  0.61924000  1.0
  C  C73  1  0.39039000  0.44071000  0.38076000  1.0
  C  C74  1  0.46062000  0.43734000  0.57879000  1.0
  C  C75  1  0.53938000  0.56266000  0.42121000  1.0
  C  C76  1  0.64866000  0.62089000  0.54123000  1.0
  C  C77  1  0.35134000  0.37911000  0.45877000  1.0
  C  C78  1  0.42149000  0.36845000  0.66192000  1.0
  C  C79  1  0.57851000  0.63155000  0.33808000  1.0
  N  N80  1  0.03375000  0.90943000  0.56602000  1.0
  N  N81  1  0.96624000  0.09057000  0.43398000  1.0
  N  N82  1  0.17833000  0.79404000  0.45737000  1.0
  N  N83  1  0.82167000  0.20596000  0.54263000  1.0
  N  N84  1  0.31965000  0.99933000  0.65655000  1.0
  N  N85  1  0.68035000  0.00067000  0.34345000  1.0
  N  N86  1  0.67317000  0.48565000  0.01349000  1.0
  N  N87  1  0.32684000  0.51435000  0.98651000  1.0
  N  N88  1  0.74260000  0.43630000  0.17569000  1.0
  N  N89  1  0.25740000  0.56370000  0.82431000  1.0
  N  N90  1  0.48571000  0.28045000  0.00759000  1.0
  N  N91  1  0.51430000  0.71955000  0.99241000  1.0
  O  O92  1  0.97347000  0.85603000  0.22714000  1.0
  O  O93  1  0.02653000  0.14397000  0.77286000  1.0
  O  O94  1  0.11966000  0.48663000  0.19521000  1.0
  O  O95  1  0.88034000  0.51337000  0.80478000  1.0
  O  O96  1  0.99148000  0.69664000  0.05629000  1.0
  O  O97  1  0.00852000  0.30337000  0.94371000  1.0
  O  O98  1  0.27816000  0.26807000  0.62963000  1.0
  O  O99  1  0.72184000  0.73193000  0.37037000  1.0
  O  O100  1  0.53729000  0.41238000  0.76138000  1.0
  O  O101  1  0.46271000  0.58762000  0.23862000  1.0
