# generated using pymatgen
data_ZnH13C12N4ClO4
_symmetry_space_group_name_H-M   'P 1'
_cell_length_a   9.07544000
_cell_length_b   11.81160000
_cell_length_c   14.68970000
_cell_angle_alpha   69.88400000
_cell_angle_beta   89.99980000
_cell_angle_gamma   89.99980000
_symmetry_Int_Tables_number   1
_chemical_formula_structural   ZnH13C12N4ClO4
_chemical_formula_sum   'Zn4 H52 C48 N16 Cl4 O16'
_cell_volume   1478.61166920
_cell_formula_units_Z   4
loop_
 _symmetry_equiv_pos_site_id
 _symmetry_equiv_pos_as_xyz
  1  'x, y, z'
loop_
 _atom_site_type_symbol
 _atom_site_label
 _atom_site_symmetry_multiplicity
 _atom_site_fract_x
 _atom_site_fract_y
 _atom_site_fract_z
 _atom_site_occupancy
  Zn  Zn0  1  0.43505000  0.57999000  0.34940000  1.0
  Zn  Zn1  1  0.93506000  0.92001000  0.15060000  1.0
  Zn  Zn2  1  0.56495000  0.42001000  0.65060000  1.0
  Zn  Zn3  1  0.06494000  0.07999000  0.84940000  1.0
  H  H4  1  0.94291000  0.96469000  0.65228000  1.0
  H  H5  1  0.44291000  0.53531000  0.84771000  1.0
  H  H6  1  0.05710000  0.03531000  0.34771000  1.0
  H  H7  1  0.55709000  0.46468000  0.15229000  1.0
  H  H8  1  0.62441000  0.81033000  0.30989000  1.0
  H  H9  1  0.12441000  0.68968000  0.19011000  1.0
  H  H10  1  0.37559000  0.18968000  0.69011000  1.0
  H  H11  1  0.87559000  0.31032000  0.80989000  1.0
  H  H12  1  0.67664000  0.91710000  0.44805000  1.0
  H  H13  1  0.17663000  0.58290000  0.05194000  1.0
  H  H14  1  0.32336000  0.08290000  0.55195000  1.0
  H  H15  1  0.82336000  0.41710000  0.94805000  1.0
  H  H16  1  0.42236000  0.74957000  0.66313000  1.0
  H  H17  1  0.92236000  0.75043000  0.83687000  1.0
  H  H18  1  0.57764000  0.25043000  0.33687000  1.0
  H  H19  1  0.07764000  0.24956000  0.16313000  1.0
  H  H20  1  0.46091000  0.90516000  0.59995000  1.0
  H  H21  1  0.96091000  0.59484000  0.90004000  1.0
  H  H22  1  0.53909000  0.09484000  0.40005000  1.0
  H  H23  1  0.03908000  0.40516000  0.09996000  1.0
  H  H24  1  0.62721000  0.78261000  0.74754000  1.0
  H  H25  1  0.12720000  0.71739000  0.75246000  1.0
  H  H26  1  0.37280000  0.21739000  0.25246000  1.0
  H  H27  1  0.87279000  0.28260000  0.24754000  1.0
  H  H28  1  0.70730000  0.71681000  0.66866000  1.0
  H  H29  1  0.20729000  0.78319000  0.83134000  1.0
  H  H30  1  0.29271000  0.28319000  0.33134000  1.0
  H  H31  1  0.79270000  0.21681000  0.16866000  1.0
  H  H32  1  0.23956000  0.36876000  0.73973000  1.0
  H  H33  1  0.73956000  0.13124000  0.76027000  1.0
  H  H34  1  0.76044000  0.63123000  0.26027000  1.0
  H  H35  1  0.26044000  0.86877000  0.23973000  1.0
  H  H36  1  0.01408000  0.53517000  0.67238000  1.0
  H  H37  1  0.51407000  0.96483000  0.82762000  1.0
  H  H38  1  0.98592000  0.46483000  0.32762000  1.0
  H  H39  1  0.48593000  0.03517000  0.17238000  1.0
  H  H40  1  0.18243000  0.82058000  0.49336000  1.0
  H  H41  1  0.68243000  0.67942000  0.00663000  1.0
  H  H42  1  0.81757000  0.17942000  0.50664000  1.0
  H  H43  1  0.31757000  0.32058000  0.99337000  1.0
  H  H44  1  0.02554000  0.76960000  0.56792000  1.0
  H  H45  1  0.52553000  0.73040000  0.93208000  1.0
  H  H46  1  0.97447000  0.23040000  0.43208000  1.0
  H  H47  1  0.47447000  0.26960000  0.06792000  1.0
  H  H48  1  0.10986000  0.66463000  0.41013000  1.0
  H  H49  1  0.60986000  0.83537000  0.08987000  1.0
  H  H50  1  0.89014000  0.33538000  0.58987000  1.0
  H  H51  1  0.39014000  0.16463000  0.91013000  1.0
  H  H52  1  0.93922000  0.65112000  0.46858000  1.0
  H  H53  1  0.43922000  0.84889000  0.03143000  1.0
  H  H54  1  0.06078000  0.34889000  0.53142000  1.0
  H  H55  1  0.56078000  0.15111000  0.96858000  1.0
  C  C56  1  0.43658000  0.70022000  0.50626000  1.0
  C  C57  1  0.93658000  0.79978000  0.99373000  1.0
  C  C58  1  0.56342000  0.29978000  0.49374000  1.0
  C  C59  1  0.06342000  0.20022000  0.00627000  1.0
  C  C60  1  0.57655000  0.79073000  0.38127000  1.0
  C  C61  1  0.07655000  0.70927000  0.11872000  1.0
  C  C62  1  0.42345000  0.20927000  0.61873000  1.0
  C  C63  1  0.92345000  0.29073000  0.88127000  1.0
  C  C64  1  0.60247000  0.84505000  0.44872000  1.0
  C  C65  1  0.10247000  0.65495000  0.05128000  1.0
  C  C66  1  0.39753000  0.15495000  0.55128000  1.0
  C  C67  1  0.89753000  0.34505000  0.94872000  1.0
  C  C68  1  0.50264000  0.81297000  0.61719000  1.0
  C  C69  1  0.00264000  0.68703000  0.88281000  1.0
  C  C70  1  0.49736000  0.18703000  0.38281000  1.0
  C  C71  1  0.99735000  0.31297000  0.11719000  1.0
  C  C72  1  0.64919000  0.79778000  0.67053000  1.0
  C  C73  1  0.14919000  0.70222000  0.82947000  1.0
  C  C74  1  0.35082000  0.20222000  0.32947000  1.0
  C  C75  1  0.85081000  0.29778000  0.17053000  1.0
  C  C76  1  0.74824000  0.90717000  0.63325000  1.0
  C  C77  1  0.24824000  0.59282000  0.86675000  1.0
  C  C78  1  0.25176000  0.09283000  0.36674000  1.0
  C  C79  1  0.75176000  0.40717000  0.13325000  1.0
  C  C80  1  0.33470000  0.61705000  0.57386000  1.0
  C  C81  1  0.83470000  0.88295000  0.92614000  1.0
  C  C82  1  0.66530000  0.38295000  0.42615000  1.0
  C  C83  1  0.16530000  0.11705000  0.07386000  1.0
  C  C84  1  0.24300000  0.45845000  0.68588000  1.0
  C  C85  1  0.74299000  0.04155000  0.81412000  1.0
  C  C86  1  0.75701000  0.54155000  0.31412000  1.0
  C  C87  1  0.25701000  0.95845000  0.18588000  1.0
  C  C88  1  0.13033000  0.54029000  0.65412000  1.0
  C  C89  1  0.63032000  0.95970000  0.84588000  1.0
  C  C90  1  0.86967000  0.45970000  0.34588000  1.0
  C  C91  1  0.36968000  0.04030000  0.15412000  1.0
  C  C92  1  0.10604000  0.74459000  0.52240000  1.0
  C  C93  1  0.60604000  0.75541000  0.97760000  1.0
  C  C94  1  0.89395000  0.25541000  0.47760000  1.0
  C  C95  1  0.39395000  0.24459000  0.02240000  1.0
  C  C96  1  0.03216000  0.71343000  0.44069000  1.0
  C  C97  1  0.53216000  0.78657000  0.05931000  1.0
  C  C98  1  0.96784000  0.28657000  0.55931000  1.0
  C  C99  1  0.46784000  0.21343000  0.94069000  1.0
  C  C100  1  0.97464000  0.82132000  0.35864000  1.0
  C  C101  1  0.47464000  0.67868000  0.14136000  1.0
  C  C102  1  0.02536000  0.17868000  0.64136000  1.0
  C  C103  1  0.52536000  0.32132000  0.85864000  1.0
  N  N104  1  0.47315000  0.70097000  0.41755000  1.0
  N  N105  1  0.97315000  0.79903000  0.08245000  1.0
  N  N106  1  0.52685000  0.29903000  0.58245000  1.0
  N  N107  1  0.02685000  0.20097000  0.91755000  1.0
  N  N108  1  0.51339000  0.78766000  0.52673000  1.0
  N  N109  1  0.01339000  0.71233000  0.97326000  1.0
  N  N110  1  0.48661000  0.21234000  0.47327000  1.0
  N  N111  1  0.98661000  0.28766000  0.02674000  1.0
  N  N112  1  0.36944000  0.50715000  0.63604000  1.0
  N  N113  1  0.86943000  0.99285000  0.86395000  1.0
  N  N114  1  0.63056000  0.49285000  0.36396000  1.0
  N  N115  1  0.13057000  0.00715000  0.13605000  1.0
  N  N116  1  0.18943000  0.63993000  0.58425000  1.0
  N  N117  1  0.68943000  0.86007000  0.91575000  1.0
  N  N118  1  0.81057000  0.36007000  0.41575000  1.0
  N  N119  1  0.31057000  0.13993000  0.08425000  1.0
  Cl  Cl120  1  0.24134000  0.46181000  0.39825000  1.0
  Cl  Cl121  1  0.74135000  0.03819000  0.10176000  1.0
  Cl  Cl122  1  0.75866000  0.53819000  0.60176000  1.0
  Cl  Cl123  1  0.25866000  0.96182000  0.89824000  1.0
  O  O124  1  0.70797000  0.00431000  0.57448000  1.0
  O  O125  1  0.20798000  0.49570000  0.92551000  1.0
  O  O126  1  0.29203000  0.99570000  0.42552000  1.0
  O  O127  1  0.79202000  0.50429000  0.07449000  1.0
  O  O128  1  0.88260000  0.88656000  0.67270000  1.0
  O  O129  1  0.38260000  0.61344000  0.82729000  1.0
  O  O130  1  0.11740000  0.11344000  0.32729000  1.0
  O  O131  1  0.61740000  0.38656000  0.17271000  1.0
  O  O132  1  0.94465000  0.79769000  0.28121000  1.0
  O  O133  1  0.44464000  0.70231000  0.21879000  1.0
  O  O134  1  0.05535000  0.20232000  0.71879000  1.0
  O  O135  1  0.55535000  0.29769000  0.78121000  1.0
  O  O136  1  0.95796000  0.92231000  0.36838000  1.0
  O  O137  1  0.45796000  0.57769000  0.13162000  1.0
  O  O138  1  0.04204000  0.07770000  0.63162000  1.0
  O  O139  1  0.54204000  0.42231000  0.86838000  1.0
