# generated using pymatgen
data_KH5C14N4O
_symmetry_space_group_name_H-M   'P 1'
_cell_length_a   7.02575000
_cell_length_b   11.41100000
_cell_length_c   16.24160000
_cell_angle_alpha   90.00050000
_cell_angle_beta   90.00060000
_cell_angle_gamma   98.75490000
_symmetry_Int_Tables_number   1
_chemical_formula_structural   KH5C14N4O
_chemical_formula_sum   'K4 H20 C56 N16 O4'
_cell_volume   1286.93115288
_cell_formula_units_Z   4
loop_
 _symmetry_equiv_pos_site_id
 _symmetry_equiv_pos_as_xyz
  1  'x, y, z'
loop_
 _atom_site_type_symbol
 _atom_site_label
 _atom_site_symmetry_multiplicity
 _atom_site_fract_x
 _atom_site_fract_y
 _atom_site_fract_z
 _atom_site_occupancy
  K  K0  1  0.07641000  0.49624000  0.27019000  1.0
  K  K1  1  0.42364000  0.50375000  0.77018000  1.0
  K  K2  1  0.92363000  0.50375000  0.72982000  1.0
  K  K3  1  0.57641000  0.49624000  0.22981000  1.0
  H  H4  1  0.82443000  0.16751000  0.28843000  1.0
  H  H5  1  0.67556000  0.83250000  0.78843000  1.0
  H  H6  1  0.17557000  0.83249000  0.71157000  1.0
  H  H7  1  0.32443000  0.16751000  0.21158000  1.0
  H  H8  1  0.86164000  0.96547000  0.33462000  1.0
  H  H9  1  0.63836000  0.03453000  0.83462000  1.0
  H  H10  1  0.13837000  0.03452000  0.66538000  1.0
  H  H11  1  0.36163000  0.96547000  0.16538000  1.0
  H  H12  1  0.89345000  0.80803000  0.23099000  1.0
  H  H13  1  0.60657000  0.19198000  0.73098000  1.0
  H  H14  1  0.10657000  0.19197000  0.76901000  1.0
  H  H15  1  0.39344000  0.80803000  0.26902000  1.0
  H  H16  1  0.89070000  0.85468000  0.08105000  1.0
  H  H17  1  0.60934000  0.14534000  0.58105000  1.0
  H  H18  1  0.10933000  0.14532000  0.91895000  1.0
  H  H19  1  0.39070000  0.85468000  0.41896000  1.0
  H  H20  1  0.85890000  0.05614000  0.03463000  1.0
  H  H21  1  0.64113000  0.94388000  0.53462000  1.0
  H  H22  1  0.14112000  0.94386000  0.96537000  1.0
  H  H23  1  0.35889000  0.05614000  0.46538000  1.0
  C  C24  1  0.83160000  0.27640000  0.04134000  1.0
  C  C25  1  0.66838000  0.72360000  0.54134000  1.0
  C  C26  1  0.16837000  0.72360000  0.95866000  1.0
  C  C27  1  0.33160000  0.27640000  0.45866000  1.0
  C  C28  1  0.81673000  0.24450000  0.13266000  1.0
  C  C29  1  0.68326000  0.75551000  0.63266000  1.0
  C  C30  1  0.18325000  0.75550000  0.86734000  1.0
  C  C31  1  0.31673000  0.24449000  0.36734000  1.0
  C  C32  1  0.84060000  0.12535000  0.15874000  1.0
  C  C33  1  0.65940000  0.87466000  0.65874000  1.0
  C  C34  1  0.15939000  0.87465000  0.84125000  1.0
  C  C35  1  0.34061000  0.12534000  0.34126000  1.0
  C  C36  1  0.84085000  0.09869000  0.24359000  1.0
  C  C37  1  0.65916000  0.90132000  0.74359000  1.0
  C  C38  1  0.15915000  0.90131000  0.75640000  1.0
  C  C39  1  0.34085000  0.09869000  0.25641000  1.0
  C  C40  1  0.86079000  0.98518000  0.26900000  1.0
  C  C41  1  0.63921000  0.01483000  0.76899000  1.0
  C  C42  1  0.13922000  0.01482000  0.73100000  1.0
  C  C43  1  0.36079000  0.98517000  0.23101000  1.0
  C  C44  1  0.87898000  0.89725000  0.21056000  1.0
  C  C45  1  0.62104000  0.10277000  0.71055000  1.0
  C  C46  1  0.12103000  0.10275000  0.78944000  1.0
  C  C47  1  0.37898000  0.89724000  0.28945000  1.0
  C  C48  1  0.87850000  0.92320000  0.12652000  1.0
  C  C49  1  0.62153000  0.07681000  0.62652000  1.0
  C  C50  1  0.12152000  0.07680000  0.87348000  1.0
  C  C51  1  0.37850000  0.92320000  0.37349000  1.0
  C  C52  1  0.86081000  0.03697000  0.10030000  1.0
  C  C53  1  0.63921000  0.96304000  0.60030000  1.0
  C  C54  1  0.13920000  0.96303000  0.89970000  1.0
  C  C55  1  0.36081000  0.03697000  0.39971000  1.0
  C  C56  1  0.66553000  0.24732000  0.99334000  1.0
  C  C57  1  0.83445000  0.75268000  0.49334000  1.0
  C  C58  1  0.33444000  0.75268000  0.00666000  1.0
  C  C59  1  0.16554000  0.24733000  0.50665000  1.0
  C  C60  1  0.01179000  0.33810000  0.01629000  1.0
  C  C61  1  0.48820000  0.66190000  0.51628000  1.0
  C  C62  1  0.98819000  0.66189000  0.98372000  1.0
  C  C63  1  0.51179000  0.33810000  0.48371000  1.0
  C  C64  1  0.16074000  0.36759000  0.07446000  1.0
  C  C65  1  0.33925000  0.63241000  0.57445000  1.0
  C  C66  1  0.83924000  0.63241000  0.92555000  1.0
  C  C67  1  0.66075000  0.36759000  0.42554000  1.0
  C  C68  1  0.05980000  0.37184000  0.93453000  1.0
  C  C69  1  0.44018000  0.62815000  0.43452000  1.0
  C  C70  1  0.94018000  0.62816000  0.06548000  1.0
  C  C71  1  0.55981000  0.37184000  0.56547000  1.0
  C  C72  1  0.50004000  0.17520000  0.02546000  1.0
  C  C73  1  0.99995000  0.82480000  0.52545000  1.0
  C  C74  1  0.49993000  0.82480000  0.97455000  1.0
  C  C75  1  0.00004000  0.17521000  0.47454000  1.0
  C  C76  1  0.64521000  0.29019000  0.91267000  1.0
  C  C77  1  0.85477000  0.70982000  0.41267000  1.0
  C  C78  1  0.35474000  0.70982000  0.08734000  1.0
  C  C79  1  0.14522000  0.29019000  0.58733000  1.0
  N  N80  1  0.10703000  0.39864000  0.86707000  1.0
  N  N81  1  0.39297000  0.60135000  0.36706000  1.0
  N  N82  1  0.89297000  0.60136000  0.13294000  1.0
  N  N83  1  0.60703000  0.39864000  0.63293000  1.0
  N  N84  1  0.28349000  0.39357000  0.12287000  1.0
  N  N85  1  0.21651000  0.60643000  0.62287000  1.0
  N  N86  1  0.71650000  0.60643000  0.87712000  1.0
  N  N87  1  0.78349000  0.39357000  0.37713000  1.0
  N  N88  1  0.36144000  0.11550000  0.05010000  1.0
  N  N89  1  0.13856000  0.88449000  0.55009000  1.0
  N  N90  1  0.63854000  0.88448000  0.94990000  1.0
  N  N91  1  0.86144000  0.11551000  0.44990000  1.0
  N  N92  1  0.62133000  0.32775000  0.84698000  1.0
  N  N93  1  0.87864000  0.67225000  0.34698000  1.0
  N  N94  1  0.37864000  0.67225000  0.15302000  1.0
  N  N95  1  0.12135000  0.32775000  0.65302000  1.0
  O  O96  1  0.78902000  0.32489000  0.18060000  1.0
  O  O97  1  0.71098000  0.67512000  0.68059000  1.0
  O  O98  1  0.21097000  0.67510000  0.81941000  1.0
  O  O99  1  0.28902000  0.32488000  0.31940000  1.0
