# generated using pymatgen
data_FeH10(C2O)4
_symmetry_space_group_name_H-M   'P 1'
_cell_length_a   5.17146000
_cell_length_b   6.56208000
_cell_length_c   13.13880000
_cell_angle_alpha   99.75570000
_cell_angle_beta   99.14460000
_cell_angle_gamma   103.38200000
_symmetry_Int_Tables_number   1
_chemical_formula_structural   FeH10(C2O)4
_chemical_formula_sum   'Fe2 H20 C16 O8'
_cell_volume   418.26494983
_cell_formula_units_Z   2
loop_
 _symmetry_equiv_pos_site_id
 _symmetry_equiv_pos_as_xyz
  1  'x, y, z'
loop_
 _atom_site_type_symbol
 _atom_site_label
 _atom_site_symmetry_multiplicity
 _atom_site_fract_x
 _atom_site_fract_y
 _atom_site_fract_z
 _atom_site_occupancy
  Fe  Fe0  1  0.26398000  0.11216000  0.04386000  1.0
  Fe  Fe1  1  0.73630000  0.88782000  0.95616000  1.0
  H  H2  1  0.41531000  0.52627000  0.82082000  1.0
  H  H3  1  0.58468000  0.47380000  0.17915000  1.0
  H  H4  1  0.02531000  0.65172000  0.65668000  1.0
  H  H5  1  0.97467000  0.34843000  0.34331000  1.0
  H  H6  1  0.36242000  0.80476000  0.71623000  1.0
  H  H7  1  0.63760000  0.19523000  0.28377000  1.0
  H  H8  1  0.34039000  0.57963000  0.53893000  1.0
  H  H9  1  0.65968000  0.42035000  0.46107000  1.0
  H  H10  1  0.54931000  0.51571000  0.64204000  1.0
  H  H11  1  0.45054000  0.48423000  0.35800000  1.0
  H  H12  1  0.26141000  0.17919000  0.52334000  1.0
  H  H13  1  0.73861000  0.82081000  0.47667000  1.0
  H  H14  1  0.96495000  0.26476000  0.53193000  1.0
  H  H15  1  0.03497000  0.73516000  0.46798000  1.0
  H  H16  1  0.33642000  0.16310000  0.71259000  1.0
  H  H17  1  0.66352000  0.83714000  0.28745000  1.0
  H  H18  1  0.00373000  0.01053000  0.64840000  1.0
  H  H19  1  0.99630000  0.98945000  0.35162000  1.0
  H  H20  1  0.81783000  0.31234000  0.71835000  1.0
  H  H21  1  0.18207000  0.68770000  0.28164000  1.0
  C  C22  1  0.21153000  0.53745000  0.78752000  1.0
  C  C23  1  0.78844000  0.46254000  0.21244000  1.0
  C  C24  1  0.22944000  0.64064000  0.69086000  1.0
  C  C25  1  0.77045000  0.35939000  0.30913000  1.0
  C  C26  1  0.33682000  0.50793000  0.60868000  1.0
  C  C27  1  0.66308000  0.49205000  0.39132000  1.0
  C  C28  1  0.16812000  0.27400000  0.57684000  1.0
  C  C29  1  0.83180000  0.72598000  0.42314000  1.0
  C  C30  1  0.13730000  0.17452000  0.67291000  1.0
  C  C31  1  0.86256000  0.82549000  0.32709000  1.0
  C  C32  1  0.02386000  0.30914000  0.75418000  1.0
  C  C33  1  0.97601000  0.69082000  0.24581000  1.0
  C  C34  1  0.12596000  0.68403000  0.86968000  1.0
  C  C35  1  0.87418000  0.31594000  0.13033000  1.0
  C  C36  1  0.00284000  0.20136000  0.84702000  1.0
  C  C37  1  0.99715000  0.79861000  0.15298000  1.0
  O  O38  1  0.31317000  0.83582000  0.93541000  1.0
  O  O39  1  0.68710000  0.16411000  0.06461000  1.0
  O  O40  1  0.87620000  0.66345000  0.86824000  1.0
  O  O41  1  0.12395000  0.33654000  0.13183000  1.0
  O  O42  1  0.21286000  0.24879000  0.92090000  1.0
  O  O43  1  0.78719000  0.75112000  0.07908000  1.0
  O  O44  1  0.78246000  0.06272000  0.84484000  1.0
  O  O45  1  0.21753000  0.93727000  0.15516000  1.0
