# generated using pymatgen
data_Zn4H20C44Br8O13
_symmetry_space_group_name_H-M   'P 1'
_cell_length_a   23.72252094
_cell_length_b   23.71890000
_cell_length_c   23.72220000
_cell_angle_alpha   113.90610000
_cell_angle_beta   107.32365396
_cell_angle_gamma   107.28372633
_symmetry_Int_Tables_number   1
_chemical_formula_structural   Zn4H20C44Br8O13
_chemical_formula_sum   'Zn8 H40 C88 Br16 O26'
_cell_volume   10227.80027939
_cell_formula_units_Z   2
loop_
 _symmetry_equiv_pos_site_id
 _symmetry_equiv_pos_as_xyz
  1  'x, y, z'
loop_
 _atom_site_type_symbol
 _atom_site_label
 _atom_site_symmetry_multiplicity
 _atom_site_fract_x
 _atom_site_fract_y
 _atom_site_fract_z
 _atom_site_occupancy
  Zn  Zn0  1  0.94041000  0.89949000  0.45232000  1.0
  Zn  Zn1  1  0.94038000  0.04087000  0.48803000  1.0
  Zn  Zn2  1  0.05964000  0.04765000  0.60050000  1.0
  Zn  Zn3  1  0.05960000  0.01191000  0.45913000  1.0
  Zn  Zn4  1  0.05283000  0.60047000  0.04090000  1.0
  Zn  Zn5  1  0.94717000  0.45910000  0.89950000  1.0
  Zn  Zn6  1  0.05284000  0.45231000  0.01196000  1.0
  Zn  Zn7  1  0.94718000  0.48805000  0.04765000  1.0
  H  H8  1  0.07782000  0.73019000  0.96315000  1.0
  H  H9  1  0.92222000  0.53691000  0.76976000  1.0
  H  H10  1  0.07490000  0.96792000  0.72704000  1.0
  H  H11  1  0.92506000  0.77303000  0.53210000  1.0
  H  H12  1  0.92224000  0.38539000  0.15245000  1.0
  H  H13  1  0.07777000  0.34748000  0.11469000  1.0
  H  H14  1  0.92509000  0.15210000  0.39301000  1.0
  H  H15  1  0.07490000  0.10697000  0.34794000  1.0
  H  H16  1  0.25907000  0.72698000  0.15205000  1.0
  H  H17  1  0.25912000  0.53209000  0.10704000  1.0
  H  H18  1  0.73284000  0.96311000  0.38536000  1.0
  H  H19  1  0.73295000  0.76978000  0.34759000  1.0
  H  H20  1  0.74090000  0.34800000  0.77298000  1.0
  H  H21  1  0.74095000  0.39302000  0.96788000  1.0
  H  H22  1  0.26709000  0.11458000  0.53687000  1.0
  H  H23  1  0.26717000  0.15257000  0.73029000  1.0
  H  H24  1  0.13310000  0.92205000  0.33886000  1.0
  H  H25  1  0.05826000  0.92732000  0.31131000  1.0
  H  H26  1  0.08651000  0.89447000  0.25013000  1.0
  H  H27  1  0.91667000  0.57787000  0.21086000  1.0
  H  H28  1  0.88395000  0.57269000  0.13079000  1.0
  H  H29  1  0.85556000  0.60550000  0.19184000  1.0
  H  H30  1  0.08332000  0.79423000  0.16124000  1.0
  H  H31  1  0.11604000  0.74686000  0.18875000  1.0
  H  H32  1  0.14444000  0.83632000  0.24998000  1.0
  H  H33  1  0.86690000  0.70575000  0.28891000  1.0
  H  H34  1  0.94173000  0.75301000  0.36902000  1.0
  H  H35  1  0.91346000  0.66357000  0.30790000  1.0
  H  H36  1  0.13299000  0.21082000  0.79424000  1.0
  H  H37  1  0.05811000  0.13077000  0.74687000  1.0
  H  H38  1  0.08637000  0.19183000  0.83633000  1.0
  H  H39  1  0.91680000  0.33887000  0.70573000  1.0
  H  H40  1  0.88400000  0.31133000  0.75300000  1.0
  H  H41  1  0.85566000  0.25016000  0.66356000  1.0
  H  H42  1  0.08320000  0.28891000  0.92207000  1.0
  H  H43  1  0.11602000  0.36900000  0.92734000  1.0
  H  H44  1  0.14434000  0.30787000  0.89451000  1.0
  H  H45  1  0.86699000  0.16124000  0.57786000  1.0
  H  H46  1  0.94186000  0.18874000  0.57268000  1.0
  H  H47  1  0.91362000  0.24996000  0.60548000  1.0
  C  C48  1  0.81539000  0.90769000  0.40769000  1.0
  C  C49  1  0.00001000  0.13806000  0.63808000  1.0
  C  C50  1  0.00002000  0.91176000  0.58826000  1.0
  C  C51  1  0.18464000  0.09231000  0.59233000  1.0
  C  C52  1  0.00000000  0.86188000  0.36189000  1.0
  C  C53  1  0.00000000  0.08823000  0.41178000  1.0
  C  C54  1  0.99999000  0.59231000  0.90769000  1.0
  C  C55  1  0.00000000  0.36190000  0.86191000  1.0
  C  C56  1  0.17649000  0.58824000  0.08828000  1.0
  C  C57  1  0.00002000  0.40769000  0.09233000  1.0
  C  C58  1  0.00001000  0.63807000  0.13808000  1.0
  C  C59  1  0.82353000  0.41178000  0.91173000  1.0
  C  C60  1  0.00000000  0.80403000  0.30403000  1.0
  C  C61  1  0.00000000  0.69592000  0.19593000  1.0
  C  C62  1  0.04201000  0.82100000  0.27532000  1.0
  C  C63  1  0.95427000  0.67897000  0.22092000  1.0
  C  C64  1  0.04573000  0.76667000  0.22472000  1.0
  C  C65  1  0.95799000  0.73329000  0.27897000  1.0
  C  C66  1  1.00000000  0.19592000  0.69593000  1.0
  C  C67  1  0.00001000  0.30404000  0.80405000  1.0
  C  C68  1  0.04197000  0.22092000  0.76669000  1.0
  C  C69  1  0.95431000  0.27532000  0.73328000  1.0
  C  C70  1  0.04570000  0.27897000  0.82102000  1.0
  C  C71  1  0.95804000  0.22472000  0.67897000  1.0
  C  C72  1  0.00000000  0.62987000  0.87013000  1.0
  C  C73  1  0.04389000  0.70196000  0.90715000  1.0
  C  C74  1  0.04350000  0.73667000  0.87209000  1.0
  C  C75  1  0.00005000  0.70126000  0.79883000  1.0
  C  C76  1  0.95661000  0.62801000  0.76337000  1.0
  C  C77  1  0.95615000  0.59290000  0.79803000  1.0
  C  C78  1  0.00004000  0.73669000  0.76342000  1.0
  C  C79  1  0.99998000  0.76741000  0.73265000  1.0
  C  C80  1  0.99996000  0.80283000  0.69723000  1.0
  C  C81  1  0.04228000  0.87637000  0.73297000  1.0
  C  C82  1  0.04224000  0.91158000  0.69842000  1.0
  C  C83  1  0.99999000  0.87417000  0.62588000  1.0
  C  C84  1  0.95771000  0.80164000  0.58846000  1.0
  C  C85  1  0.95764000  0.76710000  0.62368000  1.0
  C  C86  1  0.00002000  0.37012000  0.12991000  1.0
  C  C87  1  0.95615000  0.36329000  0.15812000  1.0
  C  C88  1  0.95655000  0.32863000  0.19323000  1.0
  C  C89  1  0.99996000  0.29877000  0.20122000  1.0
  C  C90  1  0.04337000  0.30669000  0.17138000  1.0
  C  C91  1  0.04385000  0.34183000  0.13675000  1.0
  C  C92  1  0.99995000  0.26334000  0.23664000  1.0
  C  C93  1  0.99996000  0.23259000  0.26739000  1.0
  C  C94  1  0.99997000  0.19717000  0.30281000  1.0
  C  C95  1  0.95767000  0.19062000  0.33404000  1.0
  C  C96  1  0.95773000  0.15613000  0.36932000  1.0
  C  C97  1  1.00000000  0.12585000  0.37417000  1.0
  C  C98  1  0.04225000  0.13067000  0.34390000  1.0
  C  C99  1  0.04229000  0.16593000  0.30939000  1.0
  C  C100  1  0.25170000  0.62582000  0.12584000  1.0
  C  C101  1  0.28681000  0.69836000  0.15609000  1.0
  C  C102  1  0.35658000  0.73291000  0.19057000  1.0
  C  C103  1  0.39439000  0.69717000  0.19716000  1.0
  C  C104  1  0.35661000  0.62364000  0.16597000  1.0
  C  C105  1  0.28684000  0.58843000  0.13071000  1.0
  C  C106  1  0.46523000  0.73259000  0.23259000  1.0
  C  C107  1  0.52673000  0.76333000  0.26337000  1.0
  C  C108  1  0.59757000  0.79875000  0.29880000  1.0
  C  C109  1  0.63534000  0.87200000  0.32864000  1.0
  C  C110  1  0.70512000  0.90711000  0.36328000  1.0
  C  C111  1  0.74025000  0.87013000  0.37013000  1.0
  C  C112  1  0.70519000  0.79803000  0.34191000  1.0
  C  C113  1  0.63541000  0.76332000  0.30680000  1.0
  C  C114  1  0.74832000  0.37420000  0.87413000  1.0
  C  C115  1  0.71318000  0.34397000  0.80159000  1.0
  C  C116  1  0.64342000  0.30951000  0.76705000  1.0
  C  C117  1  0.60564000  0.30294000  0.80279000  1.0
  C  C118  1  0.64345000  0.33413000  0.87633000  1.0
  C  C119  1  0.71322000  0.36936000  0.91155000  1.0
  C  C120  1  0.53479000  0.26750000  0.76737000  1.0
  C  C121  1  0.47329000  0.23673000  0.73666000  1.0
  C  C122  1  0.40246000  0.20128000  0.70125000  1.0
  C  C123  1  0.36462000  0.17136000  0.62796000  1.0
  C  C124  1  0.29485000  0.13670000  0.59288000  1.0
  C  C125  1  0.25978000  0.12989000  0.62990000  1.0
  C  C126  1  0.29490000  0.15820000  0.70202000  1.0
  C  C127  1  0.36467000  0.19337000  0.73672000  1.0
  C  C128  1  0.08192000  0.89503000  0.29499000  1.0
  C  C129  1  0.89987000  0.60494000  0.18673000  1.0
  C  C130  1  0.10013000  0.78689000  0.20509000  1.0
  C  C131  1  0.91806000  0.71303000  0.31307000  1.0
  C  C132  1  0.08182000  0.18671000  0.78691000  1.0
  C  C133  1  0.89995000  0.29501000  0.71303000  1.0
  C  C134  1  0.10006000  0.31306000  0.89506000  1.0
  C  C135  1  0.91818000  0.20509000  0.60493000  1.0
  Br  Br136  1  0.89699000  0.57558000  0.66567000  1.0
  Br  Br137  1  0.10323000  0.83432000  0.92457000  1.0
  Br  Br138  1  0.89886000  0.66921000  0.57105000  1.0
  Br  Br139  1  0.10105000  0.92898000  0.83089000  1.0
  Br  Br140  1  0.10286000  0.26845000  0.17844000  1.0
  Br  Br141  1  0.89689000  0.32146000  0.23122000  1.0
  Br  Br142  1  0.10104000  0.17205000  0.27026000  1.0
  Br  Br143  1  0.89893000  0.22981000  0.32791000  1.0
  Br  Br144  1  0.40191000  0.57102000  0.17211000  1.0
  Br  Br145  1  0.40183000  0.83080000  0.22967000  1.0
  Br  Br146  1  0.59024000  0.66565000  0.26881000  1.0
  Br  Br147  1  0.59007000  0.92446000  0.32156000  1.0
  Br  Br148  1  0.59819000  0.32798000  0.92895000  1.0
  Br  Br149  1  0.59811000  0.27037000  0.66914000  1.0
  Br  Br150  1  0.40994000  0.23165000  0.83445000  1.0
  Br  Br151  1  0.40982000  0.17843000  0.57548000  1.0
  O  O152  1  0.00000000  0.99998000  0.50000000  1.0
  O  O153  1  0.84440000  0.87279000  0.41844000  1.0
  O  O154  1  0.94542000  0.09555000  0.57950000  1.0
  O  O155  1  0.03378000  0.97875000  0.62659000  1.0
  O  O156  1  0.84436000  0.97160000  0.42591000  1.0
  O  O157  1  0.96628000  0.87343000  0.52126000  1.0
  O  O158  1  0.05460000  0.13408000  0.65015000  1.0
  O  O159  1  0.15567000  0.08158000  0.62726000  1.0
  O  O160  1  0.05459000  0.92045000  0.40444000  1.0
  O  O161  1  0.15562000  0.07402000  0.52840000  1.0
  O  O162  1  0.94544000  0.84986000  0.36589000  1.0
  O  O163  1  0.96625000  0.09283000  0.44501000  1.0
  O  O164  1  0.03374000  0.05498000  0.40719000  1.0
  O  O165  1  0.00001000  0.49999000  0.00000000  1.0
  O  O166  1  0.04565000  0.62720000  0.97161000  1.0
  O  O167  1  0.98397000  0.40443000  0.84985000  1.0
  O  O168  1  0.14783000  0.52124000  0.05504000  1.0
  O  O169  1  0.95432000  0.52840000  0.87277000  1.0
  O  O170  1  0.14783000  0.62658000  0.09287000  1.0
  O  O171  1  0.01605000  0.36587000  0.92047000  1.0
  O  O172  1  0.04568000  0.41842000  0.07410000  1.0
  O  O173  1  0.98397000  0.57951000  0.13411000  1.0
  O  O174  1  0.95436000  0.42594000  0.08157000  1.0
  O  O175  1  0.01605000  0.65013000  0.09557000  1.0
  O  O176  1  0.85218000  0.40717000  0.87340000  1.0
  O  O177  1  0.85219000  0.44502000  0.97873000  1.0
