# generated using pymatgen
data_ZnH11C10N4ClO4
_symmetry_space_group_name_H-M   'P 1'
_cell_length_a   7.58038000
_cell_length_b   7.87492000
_cell_length_c   10.94280000
_cell_angle_alpha   84.20080000
_cell_angle_beta   88.48430000
_cell_angle_gamma   74.35700000
_symmetry_Int_Tables_number   1
_chemical_formula_structural   ZnH11C10N4ClO4
_chemical_formula_sum   'Zn2 H22 C20 N8 Cl2 O8'
_cell_volume   625.81436370
_cell_formula_units_Z   2
loop_
 _symmetry_equiv_pos_site_id
 _symmetry_equiv_pos_as_xyz
  1  'x, y, z'
loop_
 _atom_site_type_symbol
 _atom_site_label
 _atom_site_symmetry_multiplicity
 _atom_site_fract_x
 _atom_site_fract_y
 _atom_site_fract_z
 _atom_site_occupancy
  Zn  Zn0  1  0.69942000  0.33192000  0.77654000  1.0
  Zn  Zn1  1  0.30058000  0.66807000  0.22345000  1.0
  H  H2  1  0.61201000  0.08832000  0.28856000  1.0
  H  H3  1  0.38798000  0.91173000  0.71142000  1.0
  H  H4  1  0.97505000  0.13623000  0.41206000  1.0
  H  H5  1  0.02496000  0.86379000  0.58793000  1.0
  H  H6  1  0.95157000  0.36281000  0.41011000  1.0
  H  H7  1  0.04843000  0.63721000  0.58990000  1.0
  H  H8  1  0.29040000  0.05242000  0.25977000  1.0
  H  H9  1  0.70959000  0.94760000  0.74022000  1.0
  H  H10  1  0.63183000  0.25447000  0.47824000  1.0
  H  H11  1  0.36817000  0.74556000  0.52175000  1.0
  H  H12  1  0.32276000  0.32163000  0.57425000  1.0
  H  H13  1  0.67725000  0.67839000  0.42575000  1.0
  H  H14  1  0.86595000  0.84663000  0.11870000  1.0
  H  H15  1  0.13404000  0.15336000  0.88132000  1.0
  H  H16  1  0.63285000  0.87971000  0.09397000  1.0
  H  H17  1  0.36715000  0.12027000  0.90604000  1.0
  H  H18  1  0.54670000  0.64282000  0.94847000  1.0
  H  H19  1  0.45330000  0.35716000  0.05151000  1.0
  H  H20  1  0.06933000  0.46569000  0.78731000  1.0
  H  H21  1  0.93067000  0.53431000  0.21269000  1.0
  H  H22  1  0.07928000  0.72035000  0.91282000  1.0
  H  H23  1  0.92071000  0.27966000  0.08716000  1.0
  C  C24  1  0.97643000  0.22812000  0.59120000  1.0
  C  C25  1  0.02357000  0.77186000  0.40880000  1.0
  C  C26  1  0.02852000  0.23312000  0.45461000  1.0
  C  C27  1  0.97148000  0.76689000  0.54539000  1.0
  C  C28  1  0.22750000  0.19964000  0.42756000  1.0
  C  C29  1  0.77251000  0.80037000  0.57244000  1.0
  C  C30  1  0.32885000  0.11718000  0.33406000  1.0
  C  C31  1  0.67114000  0.88284000  0.66594000  1.0
  C  C32  1  0.51338000  0.22270000  0.44223000  1.0
  C  C33  1  0.48662000  0.77732000  0.55776000  1.0
  C  C34  1  0.74891000  0.06677000  0.99019000  1.0
  C  C35  1  0.25108000  0.93321000  0.00982000  1.0
  C  C36  1  0.76231000  0.87753000  0.04533000  1.0
  C  C37  1  0.23769000  0.12246000  0.95467000  1.0
  C  C38  1  0.79721000  0.73680000  0.96018000  1.0
  C  C39  1  0.20279000  0.26319000  0.03982000  1.0
  C  C40  1  0.68853000  0.63515000  0.92561000  1.0
  C  C41  1  0.31148000  0.36483000  0.07439000  1.0
  C  C42  1  0.95489000  0.54150000  0.83769000  1.0
  C  C43  1  0.04512000  0.45849000  0.16231000  1.0
  N  N44  1  0.50456000  0.13376000  0.34556000  1.0
  N  N45  1  0.49543000  0.86627000  0.65444000  1.0
  N  N46  1  0.34675000  0.26307000  0.49274000  1.0
  N  N47  1  0.65325000  0.73694000  0.50726000  1.0
  N  N48  1  0.78846000  0.51407000  0.84939000  1.0
  N  N49  1  0.21154000  0.48592000  0.15061000  1.0
  N  N50  1  0.96409000  0.67519000  0.90283000  1.0
  N  N51  1  0.03591000  0.32481000  0.09717000  1.0
  Cl  Cl52  1  0.39477000  0.43802000  0.73216000  1.0
  Cl  Cl53  1  0.60523000  0.56196000  0.26783000  1.0
  O  O54  1  0.80224000  0.29176000  0.60857000  1.0
  O  O55  1  0.19777000  0.70824000  0.39143000  1.0
  O  O56  1  0.09460000  0.16928000  0.67302000  1.0
  O  O57  1  0.90539000  0.83063000  0.32698000  1.0
  O  O58  1  0.73595000  0.09692000  0.87198000  1.0
  O  O59  1  0.26405000  0.90308000  0.12803000  1.0
  O  O60  1  0.74731000  0.18048000  0.06300000  1.0
  O  O61  1  0.25268000  0.81951000  0.93703000  1.0
