# generated using pymatgen
data_CuH17C11N5O4
_symmetry_space_group_name_H-M   'P 1'
_cell_length_a   5.23570000
_cell_length_b   15.31990000
_cell_length_c   18.28440000
_cell_angle_alpha   89.99420000
_cell_angle_beta   93.73340000
_cell_angle_gamma   89.99730000
_symmetry_Int_Tables_number   1
_chemical_formula_structural   CuH17C11N5O4
_chemical_formula_sum   'Cu4 H68 C44 N20 O16'
_cell_volume   1463.48666388
_cell_formula_units_Z   4
loop_
 _symmetry_equiv_pos_site_id
 _symmetry_equiv_pos_as_xyz
  1  'x, y, z'
loop_
 _atom_site_type_symbol
 _atom_site_label
 _atom_site_symmetry_multiplicity
 _atom_site_fract_x
 _atom_site_fract_y
 _atom_site_fract_z
 _atom_site_occupancy
  Cu  Cu0  1  0.53344000  0.14944000  0.75707000  1.0
  Cu  Cu1  1  0.46653000  0.64941000  0.74293000  1.0
  Cu  Cu2  1  0.46647000  0.85054000  0.24294000  1.0
  Cu  Cu3  1  0.53354000  0.35052000  0.25705000  1.0
  H  H4  1  0.55530000  0.99023000  0.82519000  1.0
  H  H5  1  0.44477000  0.49020000  0.67481000  1.0
  H  H6  1  0.44459000  0.00974000  0.17478000  1.0
  H  H7  1  0.55549000  0.50968000  0.32520000  1.0
  H  H8  1  0.65459000  0.07954000  0.87083000  1.0
  H  H9  1  0.34543000  0.57952000  0.62915000  1.0
  H  H10  1  0.34527000  0.92041000  0.12915000  1.0
  H  H11  1  0.65466000  0.42032000  0.37079000  1.0
  H  H12  1  0.27360000  0.05113000  0.92828000  1.0
  H  H13  1  0.72658000  0.55115000  0.57174000  1.0
  H  H14  1  0.72635000  0.94880000  0.07172000  1.0
  H  H15  1  0.27373000  0.44880000  0.42827000  1.0
  H  H16  1  0.13110000  0.01007000  0.84499000  1.0
  H  H17  1  0.86895000  0.51009000  0.65502000  1.0
  H  H18  1  0.86873000  0.98990000  0.15500000  1.0
  H  H19  1  0.13118000  0.48988000  0.34497000  1.0
  H  H20  1  0.19162000  0.33249000  0.82521000  1.0
  H  H21  1  0.80827000  0.83248000  0.67475000  1.0
  H  H22  1  0.80841000  0.66750000  0.17483000  1.0
  H  H23  1  0.19174000  0.16743000  0.32515000  1.0
  H  H24  1  0.96491000  0.28307000  0.76213000  1.0
  H  H25  1  0.03499000  0.78309000  0.73785000  1.0
  H  H26  1  0.03507000  0.71692000  0.23791000  1.0
  H  H27  1  0.96501000  0.21692000  0.26207000  1.0
  H  H28  1  0.22942000  0.11805000  0.58043000  1.0
  H  H29  1  0.77061000  0.61806000  0.91959000  1.0
  H  H30  1  0.77043000  0.88202000  0.41957000  1.0
  H  H31  1  0.22957000  0.38201000  0.08041000  1.0
  H  H32  1  0.20200000  0.76235000  0.57538000  1.0
  H  H33  1  0.79797000  0.26231000  0.92465000  1.0
  H  H34  1  0.79799000  0.23765000  0.42463000  1.0
  H  H35  1  0.20198000  0.73769000  0.07535000  1.0
  H  H36  1  0.85812000  0.97366000  0.74190000  1.0
  H  H37  1  0.14182000  0.47363000  0.75814000  1.0
  H  H38  1  0.14179000  0.02633000  0.25806000  1.0
  H  H39  1  0.85823000  0.52631000  0.24191000  1.0
  H  H40  1  0.87339000  0.21575000  0.63141000  1.0
  H  H41  1  0.12676000  0.71571000  0.86858000  1.0
  H  H42  1  0.12648000  0.78429000  0.36862000  1.0
  H  H43  1  0.87341000  0.28431000  0.13137000  1.0
  H  H44  1  0.46677000  0.96769000  0.62584000  1.0
  H  H45  1  0.53328000  0.46772000  0.87425000  1.0
  H  H46  1  0.53307000  0.03239000  0.37410000  1.0
  H  H47  1  0.46684000  0.53231000  0.12580000  1.0
  H  H48  1  0.28508000  0.89866000  0.68077000  1.0
  H  H49  1  0.71465000  0.39867000  0.81928000  1.0
  H  H50  1  0.71494000  0.10140000  0.31920000  1.0
  H  H51  1  0.28534000  0.60136000  0.18075000  1.0
  H  H52  1  0.94911000  0.88957000  0.57077000  1.0
  H  H53  1  0.05091000  0.38950000  0.92922000  1.0
  H  H54  1  0.05080000  0.11043000  0.42922000  1.0
  H  H55  1  0.94918000  0.61049000  0.07077000  1.0
  H  H56  1  0.17502000  0.94354000  0.51834000  1.0
  H  H57  1  0.82520000  0.44348000  0.98170000  1.0
  H  H58  1  0.82482000  0.05645000  0.48162000  1.0
  H  H59  1  0.17501000  0.55650000  0.01833000  1.0
  H  H60  1  0.45567000  0.66987000  0.51721000  1.0
  H  H61  1  0.54426000  0.16984000  0.98282000  1.0
  H  H62  1  0.54452000  0.33016000  0.48284000  1.0
  H  H63  1  0.45555000  0.83021000  0.01714000  1.0
  H  H64  1  0.54102000  0.71071000  0.43039000  1.0
  H  H65  1  0.45896000  0.21067000  0.06964000  1.0
  H  H66  1  0.45900000  0.28930000  0.56964000  1.0
  H  H67  1  0.54102000  0.78936000  0.93034000  1.0
  H  H68  1  0.76606000  0.71579000  0.50707000  1.0
  H  H69  1  0.23387000  0.21579000  0.99297000  1.0
  H  H70  1  0.23403000  0.28429000  0.49294000  1.0
  H  H71  1  0.76602000  0.78431000  0.00704000  1.0
  C  C72  1  0.25953000  0.06103000  0.86849000  1.0
  C  C73  1  0.74050000  0.56105000  0.63153000  1.0
  C  C74  1  0.74034000  0.93891000  0.13151000  1.0
  C  C75  1  0.25962000  0.43892000  0.36848000  1.0
  C  C76  1  0.13474000  0.14951000  0.85240000  1.0
  C  C77  1  0.86524000  0.64953000  0.64763000  1.0
  C  C78  1  0.86517000  0.85044000  0.14763000  1.0
  C  C79  1  0.13480000  0.35046000  0.35239000  1.0
  C  C80  1  0.16905000  0.28298000  0.78136000  1.0
  C  C81  1  0.83084000  0.78299000  0.71863000  1.0
  C  C82  1  0.83092000  0.71699000  0.21869000  1.0
  C  C83  1  0.16914000  0.21699000  0.28134000  1.0
  C  C84  1  0.32885000  0.31307000  0.71870000  1.0
  C  C85  1  0.67107000  0.81308000  0.78129000  1.0
  C  C86  1  0.67114000  0.68690000  0.28135000  1.0
  C  C87  1  0.32895000  0.18696000  0.21867000  1.0
  C  C88  1  0.91733000  0.02362000  0.70433000  1.0
  C  C89  1  0.08268000  0.52358000  0.79572000  1.0
  C  C90  1  0.08255000  0.97640000  0.29565000  1.0
  C  C91  1  0.91739000  0.47638000  0.20432000  1.0
  C  C92  1  0.91863000  0.14939000  0.64803000  1.0
  C  C93  1  0.08143000  0.64935000  0.85199000  1.0
  C  C94  1  0.08122000  0.85065000  0.35198000  1.0
  C  C95  1  0.91870000  0.35065000  0.14800000  1.0
  C  C96  1  0.10807000  0.02003000  0.65596000  1.0
  C  C97  1  0.89193000  0.52001000  0.84408000  1.0
  C  C98  1  0.89178000  0.98001000  0.34401000  1.0
  C  C99  1  0.10813000  0.48000000  0.15595000  1.0
  C  C100  1  0.27181000  0.94570000  0.63530000  1.0
  C  C101  1  0.72816000  0.44569000  0.86476000  1.0
  C  C102  1  0.72809000  0.05435000  0.36466000  1.0
  C  C103  1  0.27192000  0.55432000  0.13528000  1.0
  C  C104  1  0.15436000  0.90063000  0.56565000  1.0
  C  C105  1  0.84570000  0.40058000  0.93438000  1.0
  C  C106  1  0.84553000  0.09938000  0.43433000  1.0
  C  C107  1  0.15442000  0.59942000  0.06564000  1.0
  C  C108  1  0.46730000  0.81089000  0.50705000  1.0
  C  C109  1  0.53269000  0.31086000  0.99296000  1.0
  C  C110  1  0.53267000  0.18914000  0.49295000  1.0
  C  C111  1  0.46736000  0.68917000  0.00703000  1.0
  C  C112  1  0.56154000  0.72089000  0.49005000  1.0
  C  C113  1  0.43840000  0.22086000  0.00998000  1.0
  C  C114  1  0.43853000  0.27915000  0.50998000  1.0
  C  C115  1  0.56151000  0.77919000  0.99000000  1.0
  N  N116  1  0.50922000  0.05418000  0.83640000  1.0
  N  N117  1  0.49078000  0.55416000  0.66360000  1.0
  N  N118  1  0.49062000  0.94578000  0.16358000  1.0
  N  N119  1  0.50930000  0.44574000  0.33638000  1.0
  N  N120  1  0.25714000  0.19825000  0.80646000  1.0
  N  N121  1  0.74278000  0.69825000  0.69356000  1.0
  N  N122  1  0.74279000  0.80173000  0.19359000  1.0
  N  N123  1  0.25722000  0.30172000  0.30646000  1.0
  N  N124  1  0.80114000  0.10466000  0.69909000  1.0
  N  N125  1  0.19890000  0.60461000  0.80093000  1.0
  N  N126  1  0.19874000  0.89535000  0.30091000  1.0
  N  N127  1  0.80118000  0.39535000  0.19906000  1.0
  N  N128  1  0.10375000  0.10016000  0.62101000  1.0
  N  N129  1  0.89630000  0.60014000  0.87901000  1.0
  N  N130  1  0.89610000  0.89989000  0.37898000  1.0
  N  N131  1  0.10382000  0.39988000  0.12099000  1.0
  N  N132  1  0.27116000  0.81729000  0.55046000  1.0
  N  N133  1  0.72888000  0.31724000  0.94957000  1.0
  N  N134  1  0.72878000  0.18272000  0.44953000  1.0
  N  N135  1  0.27118000  0.68276000  0.05043000  1.0
  O  O136  1  0.92925000  0.16901000  0.88227000  1.0
  O  O137  1  0.07075000  0.66905000  0.61778000  1.0
  O  O138  1  0.07067000  0.83093000  0.11777000  1.0
  O  O139  1  0.92926000  0.33099000  0.38225000  1.0
  O  O140  1  0.51305000  0.26233000  0.70123000  1.0
  O  O141  1  0.48694000  0.76232000  0.79879000  1.0
  O  O142  1  0.48694000  0.73766000  0.29882000  1.0
  O  O143  1  0.51322000  0.23770000  0.20123000  1.0
  O  O144  1  0.27836000  0.38430000  0.68742000  1.0
  O  O145  1  0.72154000  0.88431000  0.81256000  1.0
  O  O146  1  0.72166000  0.61569000  0.31265000  1.0
  O  O147  1  0.27844000  0.11578000  0.18732000  1.0
  O  O148  1  0.56521000  0.87791000  0.48052000  1.0
  O  O149  1  0.43482000  0.37789000  0.01949000  1.0
  O  O150  1  0.43468000  0.12212000  0.51948000  1.0
  O  O151  1  0.56535000  0.62216000  0.98051000  1.0
