# generated using pymatgen
data_Yb2CuH18C22(NO9)2
_symmetry_space_group_name_H-M   'P 1'
_cell_length_a   6.58390000
_cell_length_b   7.95102000
_cell_length_c   13.05400000
_cell_angle_alpha   101.22100000
_cell_angle_beta   92.18220000
_cell_angle_gamma   102.38700000
_symmetry_Int_Tables_number   1
_chemical_formula_structural   Yb2CuH18C22(NO9)2
_chemical_formula_sum   'Yb2 Cu1 H18 C22 N2 O18'
_cell_volume   652.41692945
_cell_formula_units_Z   1
loop_
 _symmetry_equiv_pos_site_id
 _symmetry_equiv_pos_as_xyz
  1  'x, y, z'
loop_
 _atom_site_type_symbol
 _atom_site_label
 _atom_site_symmetry_multiplicity
 _atom_site_fract_x
 _atom_site_fract_y
 _atom_site_fract_z
 _atom_site_occupancy
  Yb  Yb0  1  0.56052000  0.92911000  0.35296000  1.0
  Yb  Yb1  1  0.43948000  0.07089000  0.64704000  1.0
  Cu  Cu2  1  0.00000000  0.50000000  0.00000000  1.0
  H  H3  1  0.16016000  0.79747000  0.42560000  1.0
  H  H4  1  0.83984000  0.20252000  0.57440000  1.0
  H  H5  1  0.10082000  0.72720000  0.30071000  1.0
  H  H6  1  0.89917000  0.27280000  0.69930000  1.0
  H  H7  1  0.67223000  0.24619000  0.17067000  1.0
  H  H8  1  0.32777000  0.75381000  0.82933000  1.0
  H  H9  1  0.37243000  0.02779000  0.06481000  1.0
  H  H10  1  0.62757000  0.97221000  0.93518000  1.0
  H  H11  1  0.08315000  0.13952000  0.98586000  1.0
  H  H12  1  0.91685000  0.86049000  0.01413000  1.0
  H  H13  1  0.37384000  0.48809000  0.43329000  1.0
  H  H14  1  0.62616000  0.51191000  0.56671000  1.0
  H  H15  1  0.20941000  0.37502000  0.51552000  1.0
  H  H16  1  0.79059000  0.62498000  0.48449000  1.0
  H  H17  1  0.01153000  0.44923000  0.36529000  1.0
  H  H18  1  0.98847000  0.55077000  0.63472000  1.0
  H  H19  1  0.14187000  0.32455000  0.27421000  1.0
  H  H20  1  0.85813000  0.67545000  0.72580000  1.0
  C  C21  1  0.37233000  0.51990000  0.11467000  1.0
  C  C22  1  0.62767000  0.48011000  0.88533000  1.0
  C  C23  1  0.54189000  0.47036000  0.15924000  1.0
  C  C24  1  0.45811000  0.52964000  0.84076000  1.0
  C  C25  1  0.54289000  0.29047000  0.13824000  1.0
  C  C26  1  0.45710000  0.70953000  0.86176000  1.0
  C  C27  1  0.37756000  0.16803000  0.07794000  1.0
  C  C28  1  0.62244000  0.83198000  0.92206000  1.0
  C  C29  1  0.21524000  0.22697000  0.03585000  1.0
  C  C30  1  0.78476000  0.77304000  0.96414000  1.0
  C  C31  1  0.34577000  0.70494000  0.12007000  1.0
  C  C32  1  0.65423000  0.29506000  0.87993000  1.0
  C  C33  1  0.72332000  0.59514000  0.22918000  1.0
  C  C34  1  0.27668000  0.40485000  0.77082000  1.0
  C  C35  1  0.37798000  0.21801000  0.41529000  1.0
  C  C36  1  0.62203000  0.78199000  0.58471000  1.0
  C  C37  1  0.26312000  0.36456000  0.43660000  1.0
  C  C38  1  0.73688000  0.63544000  0.56341000  1.0
  C  C39  1  0.08432000  0.33541000  0.35229000  1.0
  C  C40  1  0.91568000  0.66459000  0.64772000  1.0
  C  C41  1  0.91531000  0.17436000  0.35225000  1.0
  C  C42  1  0.08470000  0.82564000  0.64775000  1.0
  N  N43  1  0.21596000  0.39865000  0.05396000  1.0
  N  N44  1  0.78405000  0.60136000  0.94604000  1.0
  O  O45  1  0.21756000  0.78526000  0.35592000  1.0
  O  O46  1  0.78244000  0.21474000  0.64408000  1.0
  O  O47  1  0.20040000  0.72312000  0.05784000  1.0
  O  O48  1  0.79960000  0.27689000  0.94216000  1.0
  O  O49  1  0.46440000  0.83356000  0.18073000  1.0
  O  O50  1  0.53560000  0.16644000  0.81927000  1.0
  O  O51  1  0.90444000  0.59104000  0.20356000  1.0
  O  O52  1  0.09556000  0.40896000  0.79644000  1.0
  O  O53  1  0.68133000  0.68787000  0.31413000  1.0
  O  O54  1  0.31867000  0.31213000  0.68587000  1.0
  O  O55  1  0.42501000  0.14155000  0.48833000  1.0
  O  O56  1  0.57499000  0.85845000  0.51167000  1.0
  O  O57  1  0.42722000  0.16613000  0.32361000  1.0
  O  O58  1  0.57279000  0.83387000  0.67639000  1.0
  O  O59  1  0.82736000  0.07598000  0.26658000  1.0
  O  O60  1  0.17264000  0.92402000  0.73343000  1.0
  O  O61  1  0.85269000  0.13811000  0.43966000  1.0
  O  O62  1  0.14732000  0.86188000  0.56034000  1.0
