# generated using pymatgen
data_ZnH12C14NO5
_symmetry_space_group_name_H-M   'P 1'
_cell_length_a   7.50538000
_cell_length_b   11.01280000
_cell_length_c   16.55490000
_cell_angle_alpha   90.00000000
_cell_angle_beta   89.99980000
_cell_angle_gamma   102.47500000
_symmetry_Int_Tables_number   1
_chemical_formula_structural   ZnH12C14NO5
_chemical_formula_sum   'Zn4 H48 C56 N4 O20'
_cell_volume   1336.04313465
_cell_formula_units_Z   4
loop_
 _symmetry_equiv_pos_site_id
 _symmetry_equiv_pos_as_xyz
  1  'x, y, z'
loop_
 _atom_site_type_symbol
 _atom_site_label
 _atom_site_symmetry_multiplicity
 _atom_site_fract_x
 _atom_site_fract_y
 _atom_site_fract_z
 _atom_site_occupancy
  Zn  Zn0  1  0.40846000  0.97871000  0.92250000  1.0
  Zn  Zn1  1  0.09154000  0.52129000  0.42249000  1.0
  Zn  Zn2  1  0.59154000  0.02129000  0.07750000  1.0
  Zn  Zn3  1  0.90846000  0.47871000  0.57750000  1.0
  H  H4  1  0.15513000  0.86210000  0.23057000  1.0
  H  H5  1  0.34486000  0.63791000  0.73057000  1.0
  H  H6  1  0.84487000  0.13791000  0.76943000  1.0
  H  H7  1  0.65513000  0.36210000  0.26943000  1.0
  H  H8  1  0.91818000  0.69723000  0.29614000  1.0
  H  H9  1  0.58181000  0.80277000  0.79614000  1.0
  H  H10  1  0.08182000  0.30278000  0.70386000  1.0
  H  H11  1  0.41818000  0.19722000  0.20386000  1.0
  H  H12  1  0.67010000  0.57049000  0.21336000  1.0
  H  H13  1  0.82990000  0.92951000  0.71336000  1.0
  H  H14  1  0.32991000  0.42950000  0.78664000  1.0
  H  H15  1  0.17010000  0.07049000  0.28664000  1.0
  H  H16  1  0.89584000  0.77438000  0.00106000  1.0
  H  H17  1  0.60417000  0.72562000  0.50106000  1.0
  H  H18  1  0.10417000  0.22562000  0.99894000  1.0
  H  H19  1  0.39584000  0.27439000  0.49894000  1.0
  H  H20  1  0.69542000  0.41803000  0.09607000  1.0
  H  H21  1  0.80459000  0.08197000  0.59607000  1.0
  H  H22  1  0.30460000  0.58196000  0.90393000  1.0
  H  H23  1  0.19541000  0.91804000  0.40393000  1.0
  H  H24  1  0.47725000  0.17750000  0.80888000  1.0
  H  H25  1  0.02275000  0.32249000  0.30888000  1.0
  H  H26  1  0.52275000  0.82249000  0.19112000  1.0
  H  H27  1  0.97726000  0.67750000  0.69112000  1.0
  H  H28  1  0.39350000  0.27636000  0.63412000  1.0
  H  H29  1  0.10649000  0.22363000  0.13411000  1.0
  H  H30  1  0.60649000  0.72363000  0.36588000  1.0
  H  H31  1  0.89350000  0.77637000  0.86588000  1.0
  H  H32  1  0.59401000  0.22059000  0.61038000  1.0
  H  H33  1  0.90598000  0.27941000  0.11038000  1.0
  H  H34  1  0.40598000  0.77941000  0.38962000  1.0
  H  H35  1  0.09402000  0.72060000  0.88962000  1.0
  H  H36  1  0.57565000  0.29268000  0.70515000  1.0
  H  H37  1  0.92435000  0.20731000  0.20514000  1.0
  H  H38  1  0.42435000  0.70732000  0.29486000  1.0
  H  H39  1  0.07565000  0.79269000  0.79485000  1.0
  H  H40  1  0.43045000  0.99866000  0.59301000  1.0
  H  H41  1  0.06955000  0.50134000  0.09302000  1.0
  H  H42  1  0.56954000  0.00134000  0.40698000  1.0
  H  H43  1  0.93047000  0.49866000  0.90699000  1.0
  H  H44  1  0.21250000  0.03444000  0.61042000  1.0
  H  H45  1  0.28751000  0.46556000  0.11042000  1.0
  H  H46  1  0.78750000  0.96556000  0.38958000  1.0
  H  H47  1  0.71251000  0.53444000  0.88958000  1.0
  H  H48  1  0.29070000  0.92531000  0.67424000  1.0
  H  H49  1  0.20930000  0.57469000  0.17425000  1.0
  H  H50  1  0.70930000  0.07469000  0.32576000  1.0
  H  H51  1  0.79071000  0.42532000  0.82576000  1.0
  C  C52  1  0.19040000  0.91738000  0.07040000  1.0
  C  C53  1  0.30960000  0.58262000  0.57040000  1.0
  C  C54  1  0.80960000  0.08262000  0.92960000  1.0
  C  C55  1  0.69040000  0.41738000  0.42960000  1.0
  C  C56  1  0.03855000  0.82776000  0.11165000  1.0
  C  C57  1  0.46145000  0.67225000  0.61165000  1.0
  C  C58  1  0.96145000  0.17225000  0.88835000  1.0
  C  C59  1  0.53855000  0.32776000  0.38835000  1.0
  C  C60  1  0.04407000  0.80695000  0.19522000  1.0
  C  C61  1  0.45592000  0.69305000  0.69522000  1.0
  C  C62  1  0.95593000  0.19305000  0.80478000  1.0
  C  C63  1  0.54407000  0.30695000  0.30477000  1.0
  C  C64  1  0.91162000  0.71483000  0.23155000  1.0
  C  C65  1  0.58838000  0.78517000  0.73155000  1.0
  C  C66  1  0.08839000  0.28517000  0.76845000  1.0
  C  C67  1  0.41161000  0.21483000  0.26845000  1.0
  C  C68  1  0.77299000  0.64289000  0.18470000  1.0
  C  C69  1  0.72701000  0.85711000  0.68470000  1.0
  C  C70  1  0.22702000  0.35711000  0.81530000  1.0
  C  C71  1  0.27299000  0.14289000  0.31530000  1.0
  C  C72  1  0.76375000  0.66423000  0.10137000  1.0
  C  C73  1  0.73625000  0.83577000  0.60137000  1.0
  C  C74  1  0.23626000  0.33576000  0.89863000  1.0
  C  C75  1  0.26374000  0.16424000  0.39863000  1.0
  C  C76  1  0.89771000  0.75703000  0.06571000  1.0
  C  C77  1  0.60229000  0.74297000  0.56571000  1.0
  C  C78  1  0.10230000  0.24297000  0.93429000  1.0
  C  C79  1  0.39771000  0.25703000  0.43429000  1.0
  C  C80  1  0.62345000  0.58411000  0.05047000  1.0
  C  C81  1  0.87655000  0.91589000  0.55047000  1.0
  C  C82  1  0.37656000  0.41589000  0.94953000  1.0
  C  C83  1  0.12344000  0.08411000  0.44953000  1.0
  C  C84  1  0.51035000  0.62883000  0.99467000  1.0
  C  C85  1  0.98965000  0.87117000  0.49467000  1.0
  C  C86  1  0.48967000  0.37116000  0.00532000  1.0
  C  C87  1  0.01034000  0.12884000  0.50532000  1.0
  C  C88  1  0.60855000  0.45539000  0.05438000  1.0
  C  C89  1  0.89145000  0.04461000  0.55438000  1.0
  C  C90  1  0.39146000  0.54460000  0.94561000  1.0
  C  C91  1  0.10854000  0.95540000  0.44561000  1.0
  C  C92  1  0.49937000  0.76318000  0.98855000  1.0
  C  C93  1  0.00063000  0.73682000  0.48854000  1.0
  C  C94  1  0.50064000  0.23681000  0.01146000  1.0
  C  C95  1  0.99936000  0.26319000  0.51145000  1.0
  C  C96  1  0.40697000  0.09662000  0.77364000  1.0
  C  C97  1  0.09303000  0.40337000  0.27363000  1.0
  C  C98  1  0.59303000  0.90337000  0.22636000  1.0
  C  C99  1  0.90699000  0.59663000  0.72636000  1.0
  C  C100  1  0.49922000  0.23156000  0.65891000  1.0
  C  C101  1  0.00077000  0.26844000  0.15891000  1.0
  C  C102  1  0.50077000  0.76844000  0.34109000  1.0
  C  C103  1  0.99923000  0.73157000  0.84109000  1.0
  C  C104  1  0.33211000  0.01141000  0.63965000  1.0
  C  C105  1  0.16789000  0.48859000  0.13965000  1.0
  C  C106  1  0.66788000  0.98859000  0.36035000  1.0
  C  C107  1  0.83213000  0.51141000  0.86035000  1.0
  N  N108  1  0.41684000  0.11113000  0.69397000  1.0
  N  N109  1  0.08316000  0.38887000  0.19397000  1.0
  N  N110  1  0.58316000  0.88887000  0.30603000  1.0
  N  N111  1  0.91686000  0.61113000  0.80602000  1.0
  O  O112  1  0.18479000  0.92317000  0.99331000  1.0
  O  O113  1  0.31521000  0.57683000  0.49331000  1.0
  O  O114  1  0.81521000  0.07684000  0.00669000  1.0
  O  O115  1  0.68479000  0.42317000  0.50669000  1.0
  O  O116  1  0.31795000  0.97734000  0.11479000  1.0
  O  O117  1  0.18205000  0.52266000  0.61479000  1.0
  O  O118  1  0.68206000  0.02265000  0.88521000  1.0
  O  O119  1  0.81794000  0.47735000  0.38520000  1.0
  O  O120  1  0.54877000  0.83230000  0.04949000  1.0
  O  O121  1  0.95123000  0.66770000  0.54949000  1.0
  O  O122  1  0.45124000  0.16769000  0.95051000  1.0
  O  O123  1  0.04876000  0.33231000  0.45051000  1.0
  O  O124  1  0.43439000  0.79628000  0.92310000  1.0
  O  O125  1  0.06561000  0.70372000  0.42309000  1.0
  O  O126  1  0.56561000  0.20371000  0.07691000  1.0
  O  O127  1  0.93439000  0.29629000  0.57691000  1.0
  O  O128  1  0.32399000  0.99812000  0.80823000  1.0
  O  O129  1  0.17602000  0.50188000  0.30823000  1.0
  O  O130  1  0.67602000  0.00188000  0.19177000  1.0
  O  O131  1  0.82399000  0.49812000  0.69176000  1.0
