# generated using pymatgen
data_CuH14C20(NO)4
_symmetry_space_group_name_H-M   'P 1'
_cell_length_a   7.23736000
_cell_length_b   10.60500000
_cell_length_c   12.12790000
_cell_angle_alpha   89.99930000
_cell_angle_beta   82.52440000
_cell_angle_gamma   89.99990000
_symmetry_Int_Tables_number   1
_chemical_formula_structural   CuH14C20(NO)4
_chemical_formula_sum   'Cu2 H28 C40 N8 O8'
_cell_volume   922.93120711
_cell_formula_units_Z   2
loop_
 _symmetry_equiv_pos_site_id
 _symmetry_equiv_pos_as_xyz
  1  'x, y, z'
loop_
 _atom_site_type_symbol
 _atom_site_label
 _atom_site_symmetry_multiplicity
 _atom_site_fract_x
 _atom_site_fract_y
 _atom_site_fract_z
 _atom_site_occupancy
  Cu  Cu0  1  0.50000000  0.50000000  0.50000000  1.0
  Cu  Cu1  1  0.50000000  0.00000000  0.00000000  1.0
  H  H2  1  0.83162000  0.17031000  0.99781000  1.0
  H  H3  1  0.16840000  0.67033000  0.50220000  1.0
  H  H4  1  0.16838000  0.82969000  0.00218000  1.0
  H  H5  1  0.83162000  0.32968000  0.49781000  1.0
  H  H6  1  0.37948000  0.13603000  0.23242000  1.0
  H  H7  1  0.62050000  0.63603000  0.26756000  1.0
  H  H8  1  0.62052000  0.86396000  0.76757000  1.0
  H  H9  1  0.37950000  0.36397000  0.73243000  1.0
  H  H10  1  0.13615000  0.21003000  0.07665000  1.0
  H  H11  1  0.86385000  0.71005000  0.42336000  1.0
  H  H12  1  0.86384000  0.78997000  0.92335000  1.0
  H  H13  1  0.13617000  0.28995000  0.57665000  1.0
  H  H14  1  0.40876000  0.34965000  0.04786000  1.0
  H  H15  1  0.59124000  0.84967000  0.45213000  1.0
  H  H16  1  0.59124000  0.65034000  0.95214000  1.0
  H  H17  1  0.40877000  0.15033000  0.54788000  1.0
  H  H18  1  0.37833000  0.57850000  0.09362000  1.0
  H  H19  1  0.62167000  0.07852000  0.40638000  1.0
  H  H20  1  0.62168000  0.42149000  0.90638000  1.0
  H  H21  1  0.37832000  0.92147000  0.59363000  1.0
  H  H22  1  0.06333000  0.66839000  0.15951000  1.0
  H  H23  1  0.93668000  0.16841000  0.34050000  1.0
  H  H24  1  0.93667000  0.33160000  0.84049000  1.0
  H  H25  1  0.06331000  0.83159000  0.65950000  1.0
  H  H26  1  0.78745000  0.52863000  0.18141000  1.0
  H  H27  1  0.21256000  0.02865000  0.31860000  1.0
  H  H28  1  0.21256000  0.47137000  0.81859000  1.0
  H  H29  1  0.78744000  0.97136000  0.68140000  1.0
  C  C30  1  0.55669000  0.34053000  0.33359000  1.0
  C  C31  1  0.44328000  0.84053000  0.16640000  1.0
  C  C32  1  0.44330000  0.65947000  0.66640000  1.0
  C  C33  1  0.55673000  0.15947000  0.83360000  1.0
  C  C34  1  0.61943000  0.27061000  0.22947000  1.0
  C  C35  1  0.38055000  0.77062000  0.27053000  1.0
  C  C36  1  0.38056000  0.72939000  0.77053000  1.0
  C  C37  1  0.61945000  0.22938000  0.72947000  1.0
  C  C38  1  0.77817000  0.27871000  0.14873000  1.0
  C  C39  1  0.22182000  0.77871000  0.35127000  1.0
  C  C40  1  0.22182000  0.72130000  0.85127000  1.0
  C  C41  1  0.77819000  0.22129000  0.64872000  1.0
  C  C42  1  0.51263000  0.17106000  0.19400000  1.0
  C  C43  1  0.48736000  0.67107000  0.30599000  1.0
  C  C44  1  0.48737000  0.82894000  0.80599000  1.0
  C  C45  1  0.51265000  0.32894000  0.69400000  1.0
  C  C46  1  0.94287000  0.35992000  0.13473000  1.0
  C  C47  1  0.05713000  0.85994000  0.36527000  1.0
  C  C48  1  0.05712000  0.64007000  0.86526000  1.0
  C  C49  1  0.94288000  0.14007000  0.63473000  1.0
  C  C50  1  0.11897000  0.31035000  0.09518000  1.0
  C  C51  1  0.88102000  0.81037000  0.40483000  1.0
  C  C52  1  0.88102000  0.68965000  0.90482000  1.0
  C  C53  1  0.11899000  0.18964000  0.59519000  1.0
  C  C54  1  0.27393000  0.38946000  0.07970000  1.0
  C  C55  1  0.72606000  0.88948000  0.42030000  1.0
  C  C56  1  0.72607000  0.61053000  0.92030000  1.0
  C  C57  1  0.27394000  0.11052000  0.57971000  1.0
  C  C58  1  0.25601000  0.51766000  0.10439000  1.0
  C  C59  1  0.74400000  0.01768000  0.39561000  1.0
  C  C60  1  0.74399000  0.48234000  0.89561000  1.0
  C  C61  1  0.25601000  0.98232000  0.60440000  1.0
  C  C62  1  0.08044000  0.56790000  0.14194000  1.0
  C  C63  1  0.91956000  0.06792000  0.35807000  1.0
  C  C64  1  0.91956000  0.43210000  0.85807000  1.0
  C  C65  1  0.08044000  0.93209000  0.64193000  1.0
  C  C66  1  0.92505000  0.48973000  0.15619000  1.0
  C  C67  1  0.07495000  0.98974000  0.34382000  1.0
  C  C68  1  0.07495000  0.51027000  0.84381000  1.0
  C  C69  1  0.92505000  0.01026000  0.65619000  1.0
  N  N70  1  0.75600000  0.18678000  0.07331000  1.0
  N  N71  1  0.24400000  0.68679000  0.42670000  1.0
  N  N72  1  0.24399000  0.81322000  0.92669000  1.0
  N  N73  1  0.75601000  0.31321000  0.57330000  1.0
  N  N74  1  0.59561000  0.12139000  0.09955000  1.0
  N  N75  1  0.40440000  0.62140000  0.40044000  1.0
  N  N76  1  0.40439000  0.87860000  0.90044000  1.0
  N  N77  1  0.59561000  0.37860000  0.59955000  1.0
  O  O78  1  0.39744000  0.31748000  0.38340000  1.0
  O  O79  1  0.60254000  0.81749000  0.11660000  1.0
  O  O80  1  0.60255000  0.68252000  0.61660000  1.0
  O  O81  1  0.39747000  0.18252000  0.88340000  1.0
  O  O82  1  0.66979000  0.42252000  0.36922000  1.0
  O  O83  1  0.33018000  0.92252000  0.13077000  1.0
  O  O84  1  0.33020000  0.57748000  0.63077000  1.0
  O  O85  1  0.66983000  0.07748000  0.86923000  1.0
