# generated using pymatgen
data_ZnH12C12S4(NO2)2
_symmetry_space_group_name_H-M   'P 1'
_cell_length_a   7.45225000
_cell_length_b   8.55787124
_cell_length_c   13.52180000
_cell_angle_alpha   81.35730955
_cell_angle_beta   89.97370000
_cell_angle_gamma   64.22294145
_symmetry_Int_Tables_number   1
_chemical_formula_structural   ZnH12C12S4(NO2)2
_chemical_formula_sum   'Zn2 H24 C24 S8 N4 O8'
_cell_volume   765.68744994
_cell_formula_units_Z   2
loop_
 _symmetry_equiv_pos_site_id
 _symmetry_equiv_pos_as_xyz
  1  'x, y, z'
loop_
 _atom_site_type_symbol
 _atom_site_label
 _atom_site_symmetry_multiplicity
 _atom_site_fract_x
 _atom_site_fract_y
 _atom_site_fract_z
 _atom_site_occupancy
  Zn  Zn0  1  0.80049000  0.99964000  0.75018000  1.0
  Zn  Zn1  1  0.19950000  0.00037000  0.24982000  1.0
  H  H2  1  0.79209000  0.32504000  0.62468000  1.0
  H  H3  1  0.11795000  0.67448000  0.87542000  1.0
  H  H4  1  0.20789000  0.67497000  0.37532000  1.0
  H  H5  1  0.88206000  0.32552000  0.12457000  1.0
  H  H6  1  0.90940000  0.55489000  0.62190000  1.0
  H  H7  1  0.46493000  0.44502000  0.87787000  1.0
  H  H8  1  0.09060000  0.44510000  0.37810000  1.0
  H  H9  1  0.53508000  0.55498000  0.12213000  1.0
  H  H10  1  0.73774000  0.78101000  0.60212000  1.0
  H  H11  1  0.51946000  0.21878000  0.89786000  1.0
  H  H12  1  0.26226000  0.21899000  0.39788000  1.0
  H  H13  1  0.48056000  0.78121000  0.10214000  1.0
  H  H14  1  0.79660000  0.66441000  0.49992000  1.0
  H  H15  1  0.46158000  0.33562000  0.99994000  1.0
  H  H16  1  0.20340000  0.33558000  0.50008000  1.0
  H  H17  1  0.53844000  0.66437000  0.00006000  1.0
  H  H18  1  0.27655000  0.94408000  0.49401000  1.0
  H  H19  1  0.22134000  0.05522000  0.00601000  1.0
  H  H20  1  0.72345000  0.05592000  0.50600000  1.0
  H  H21  1  0.77865000  0.94478000  0.99399000  1.0
  H  H22  1  0.39745000  0.96626000  0.59831000  1.0
  H  H23  1  0.36472000  0.03315000  0.90179000  1.0
  H  H24  1  0.60255000  0.03375000  0.40169000  1.0
  H  H25  1  0.63528000  0.96685000  0.09822000  1.0
  C  C26  1  0.09794000  0.00411000  0.61771000  1.0
  C  C27  1  0.10325000  0.99492000  0.88231000  1.0
  C  C28  1  0.90206000  0.99589000  0.38229000  1.0
  C  C29  1  0.89675000  0.00508000  0.11769000  1.0
  C  C30  1  0.40457000  0.71223000  0.60486000  1.0
  C  C31  1  0.11788000  0.28697000  0.89516000  1.0
  C  C32  1  0.59542000  0.28777000  0.39514000  1.0
  C  C33  1  0.88213000  0.71302000  0.10484000  1.0
  C  C34  1  0.49008000  0.39398000  0.64534000  1.0
  C  C35  1  0.88499000  0.60512000  0.85488000  1.0
  C  C36  1  0.50991000  0.60603000  0.35466000  1.0
  C  C37  1  0.11503000  0.39488000  0.14512000  1.0
  C  C38  1  0.60449000  0.60465000  0.60287000  1.0
  C  C39  1  0.21001000  0.39484000  0.89713000  1.0
  C  C40  1  0.39551000  0.39535000  0.39713000  1.0
  C  C41  1  0.79000000  0.60516000  0.10287000  1.0
  C  C42  1  0.77039000  0.65378000  0.58013000  1.0
  C  C43  1  0.42487000  0.34605000  0.91975000  1.0
  C  C44  1  0.22962000  0.34621000  0.41987000  1.0
  C  C45  1  0.57513000  0.65395000  0.08025000  1.0
  C  C46  1  0.30098000  0.90780000  0.57652000  1.0
  C  C47  1  0.20985000  0.09138000  0.92350000  1.0
  C  C48  1  0.69902000  0.09220000  0.42347000  1.0
  C  C49  1  0.79015000  0.90862000  0.07650000  1.0
  S  S50  1  0.27576000  0.58693000  0.63845000  1.0
  S  S51  1  0.86385000  0.41200000  0.86169000  1.0
  S  S52  1  0.72424000  0.41308000  0.36154000  1.0
  S  S53  1  0.13616000  0.58799000  0.13832000  1.0
  S  S54  1  0.48795000  0.19425000  0.67525000  1.0
  S  S55  1  0.68299000  0.80457000  0.82522000  1.0
  S  S56  1  0.51204000  0.80575000  0.32475000  1.0
  S  S57  1  0.31701000  0.19543000  0.17478000  1.0
  N  N58  1  0.64752000  0.42771000  0.62567000  1.0
  N  N59  1  0.07601000  0.57170000  0.87446000  1.0
  N  N60  1  0.35246000  0.57230000  0.37433000  1.0
  N  N61  1  0.92400000  0.42830000  0.12554000  1.0
  O  O62  1  0.01721000  0.90590000  0.65888000  1.0
  O  O63  1  0.92426000  0.09288000  0.84142000  1.0
  O  O64  1  0.98278000  0.09410000  0.34112000  1.0
  O  O65  1  0.07574000  0.90712000  0.15859000  1.0
  O  O66  1  0.02164000  0.16846000  0.60758000  1.0
  O  O67  1  0.19151000  0.83060000  0.89226000  1.0
  O  O68  1  0.97836000  0.83155000  0.39243000  1.0
  O  O69  1  0.80849000  0.16940000  0.10774000  1.0
