# generated using pymatgen
data_Zn2H24C39(NO4)2
_symmetry_space_group_name_H-M   'P 1'
_cell_length_a   10.84700000
_cell_length_b   12.67710000
_cell_length_c   13.47590000
_cell_angle_alpha   81.58840000
_cell_angle_beta   89.55260000
_cell_angle_gamma   79.91850000
_symmetry_Int_Tables_number   1
_chemical_formula_structural   Zn2H24C39(NO4)2
_chemical_formula_sum   'Zn2 H24 C39 N2 O8'
_cell_volume   1804.51193685
_cell_formula_units_Z   1
loop_
 _symmetry_equiv_pos_site_id
 _symmetry_equiv_pos_as_xyz
  1  'x, y, z'
loop_
 _atom_site_type_symbol
 _atom_site_label
 _atom_site_symmetry_multiplicity
 _atom_site_fract_x
 _atom_site_fract_y
 _atom_site_fract_z
 _atom_site_occupancy
  Zn  Zn0  1  0.46639000  0.61227000  0.51331000  1.0
  Zn  Zn1  1  0.51825000  0.38800000  0.48568000  1.0
  H  H2  1  0.04768000  0.63424000  0.36168000  1.0
  H  H3  1  0.60787000  0.30167000  0.31269000  1.0
  H  H4  1  0.87358000  0.67139000  0.51786000  1.0
  H  H5  1  0.55024000  0.97354000  0.32281000  1.0
  H  H6  1  0.61877000  0.13641000  0.22908000  1.0
  H  H7  1  0.40663000  0.24207000  0.60910000  1.0
  H  H8  1  0.04981000  0.53567000  0.65681000  1.0
  H  H9  1  0.93916000  0.35555000  0.62322000  1.0
  H  H10  1  0.11511000  0.31756000  0.46826000  1.0
  H  H11  1  0.93859000  0.45289000  0.32802000  1.0
  H  H12  1  0.70774000  0.27357000  0.78643000  1.0
  H  H13  1  0.45986000  0.56567000  0.82303000  1.0
  H  H14  1  0.77341000  0.31927000  0.12899000  1.0
  H  H15  1  0.78176000  0.25273000  0.96491000  1.0
  H  H16  1  0.65475000  0.72964000  0.47243000  1.0
  H  H17  1  0.57821000  0.80169000  0.36256000  1.0
  H  H18  1  0.67486000  0.86637000  0.43292000  1.0
  H  H19  1  0.33906000  0.74990000  0.20798000  1.0
  H  H20  1  0.40159000  0.67815000  0.90746000  1.0
  H  H21  1  0.30020000  0.79943000  0.02245000  1.0
  H  H22  1  0.66784000  0.44118000  0.24223000  1.0
  H  H23  1  0.31413000  0.72235000  0.65563000  1.0
  H  H24  1  0.30739000  0.09408000  0.69804000  1.0
  H  H25  1  0.26791000  0.90433000  0.71486000  1.0
  C  C26  1  0.47772000  0.57432000  0.30652000  1.0
  C  C27  1  0.50861000  0.56277000  0.02392000  1.0
  C  C28  1  0.53812000  0.53939000  0.12877000  1.0
  C  C29  1  0.73372000  0.48738000  0.48665000  1.0
  C  C30  1  0.56592000  0.48727000  0.95837000  1.0
  C  C31  1  0.65871000  0.39661000  0.99774000  1.0
  C  C32  1  0.69652000  0.38445000  0.10090000  1.0
  C  C33  1  0.63781000  0.45176000  0.16389000  1.0
  C  C34  1  0.52972000  0.49801000  0.85698000  1.0
  C  C35  1  0.66996000  0.33233000  0.83526000  1.0
  C  C36  1  0.47076000  0.60624000  0.19460000  1.0
  C  C37  1  0.06000000  0.39598000  0.47872000  1.0
  C  C38  1  0.33012000  0.89083000  0.65230000  1.0
  C  C39  1  0.57769000  0.22913000  0.35101000  1.0
  C  C40  1  0.58516000  0.13598000  0.30547000  1.0
  C  C41  1  0.53351000  0.43998000  0.68908000  1.0
  C  C42  1  0.54787000  0.04538000  0.35842000  1.0
  C  C43  1  0.50215000  0.04776000  0.45672000  1.0
  C  C44  1  0.48601000  0.14928000  0.49343000  1.0
  C  C45  1  0.46160000  0.95648000  0.51783000  1.0
  C  C46  1  0.38381000  0.97656000  0.60122000  1.0
  C  C47  1  0.36465000  0.08136000  0.63247000  1.0
  C  C48  1  0.96445000  0.47137000  0.40110000  1.0
  C  C49  1  0.41859000  0.16329000  0.58371000  1.0
  C  C50  1  0.49878000  0.84685000  0.50153000  1.0
  C  C51  1  0.35685000  0.79040000  0.62182000  1.0
  C  C52  1  0.25424000  0.50140000  0.50219000  1.0
  C  C53  1  0.92807000  0.59311000  0.50633000  1.0
  C  C54  1  0.02210000  0.57222000  0.41957000  1.0
  C  C55  1  0.11858000  0.49612000  0.49641000  1.0
  C  C56  1  0.02333000  0.51760000  0.58375000  1.0
  C  C57  1  0.96584000  0.41704000  0.56530000  1.0
  C  C58  1  0.60785000  0.81051000  0.43833000  1.0
  C  C59  1  0.86924000  0.49357000  0.48739000  1.0
  C  C60  1  0.71010000  0.32117000  0.93402000  1.0
  C  C61  1  0.57861000  0.42209000  0.79608000  1.0
  C  C62  1  0.38791000  0.69942000  0.15593000  1.0
  C  C63  1  0.36523000  0.72598000  0.05209000  1.0
  C  C64  1  0.42263000  0.65769000  0.98759000  1.0
  N  N65  1  0.44276000  0.76831000  0.55058000  1.0
  N  N66  1  0.52827000  0.23627000  0.44121000  1.0
  O  O67  1  0.47653000  0.64995000  0.35949000  1.0
  O  O68  1  0.47875000  0.47500000  0.33981000  1.0
  O  O69  1  0.65992000  0.56293000  0.52110000  1.0
  O  O70  1  0.70124000  0.40619000  0.45464000  1.0
  O  O71  1  0.46650000  0.53174000  0.65782000  1.0
  O  O72  1  0.56569000  0.36351000  0.63700000  1.0
  O  O73  1  0.28319000  0.59529000  0.49713000  1.0
  O  O74  1  0.33049000  0.41145000  0.51196000  1.0
