# generated using pymatgen
data_Zn5P2H16(C4O5)4
_symmetry_space_group_name_H-M   'P 1'
_cell_length_a   7.26546000
_cell_length_b   9.58656000
_cell_length_c   10.96190000
_cell_angle_alpha   67.04540000
_cell_angle_beta   75.75280000
_cell_angle_gamma   73.40210000
_symmetry_Int_Tables_number   1
_chemical_formula_structural   Zn5P2H16(C4O5)4
_chemical_formula_sum   'Zn5 P2 H16 C16 O20'
_cell_volume   665.85661235
_cell_formula_units_Z   1
loop_
 _symmetry_equiv_pos_site_id
 _symmetry_equiv_pos_as_xyz
  1  'x, y, z'
loop_
 _atom_site_type_symbol
 _atom_site_label
 _atom_site_symmetry_multiplicity
 _atom_site_fract_x
 _atom_site_fract_y
 _atom_site_fract_z
 _atom_site_occupancy
  Zn  Zn0  1  0.43696000  0.65552000  0.70685000  1.0
  Zn  Zn1  1  0.56304000  0.34448000  0.29315000  1.0
  Zn  Zn2  1  0.07350000  0.72587000  0.96518000  1.0
  Zn  Zn3  1  0.92650000  0.27413000  0.03482000  1.0
  Zn  Zn4  1  0.50000000  0.50000000  0.00000000  1.0
  P  P5  1  0.86255000  0.62178000  0.80344000  1.0
  P  P6  1  0.13744000  0.37823000  0.19656000  1.0
  H  H7  1  0.72190000  0.90493000  0.58612000  1.0
  H  H8  1  0.27810000  0.09507000  0.41388000  1.0
  H  H9  1  0.18586000  0.49652000  0.62857000  1.0
  H  H10  1  0.81413000  0.50347000  0.37143000  1.0
  H  H11  1  0.14665000  0.86109000  0.24570000  1.0
  H  H12  1  0.85334000  0.13890000  0.75430000  1.0
  H  H13  1  0.20763000  0.49839000  0.88503000  1.0
  H  H14  1  0.79237000  0.50161000  0.11497000  1.0
  H  H15  1  0.41829000  0.80842000  0.96296000  1.0
  H  H16  1  0.58172000  0.19158000  0.03704000  1.0
  H  H17  1  0.38586000  0.71177000  0.12126000  1.0
  H  H18  1  0.61414000  0.28823000  0.87874000  1.0
  H  H19  1  0.82231000  0.77452000  0.15367000  1.0
  H  H20  1  0.17770000  0.22547000  0.84633000  1.0
  H  H21  1  0.88734000  0.93039000  0.11966000  1.0
  H  H22  1  0.11266000  0.06961000  0.88034000  1.0
  C  C23  1  0.85108000  0.83683000  0.54424000  1.0
  C  C24  1  0.14892000  0.16317000  0.45576000  1.0
  C  C25  1  0.94803000  0.69435000  0.62536000  1.0
  C  C26  1  0.05196000  0.30565000  0.37464000  1.0
  C  C27  1  0.11242000  0.60973000  0.56766000  1.0
  C  C28  1  0.88757000  0.39027000  0.43233000  1.0
  C  C29  1  0.91807000  0.89384000  0.40652000  1.0
  C  C30  1  0.08193000  0.10616000  0.59348000  1.0
  C  C31  1  0.18587000  0.67084000  0.43144000  1.0
  C  C32  1  0.81412000  0.32915000  0.56856000  1.0
  C  C33  1  0.36248000  0.58438000  0.36803000  1.0
  C  C34  1  0.63752000  0.41562000  0.63198000  1.0
  C  C35  1  0.08879000  0.81292000  0.35131000  1.0
  C  C36  1  0.91121000  0.18708000  0.64869000  1.0
  C  C37  1  0.81077000  0.04201000  0.31876000  1.0
  C  C38  1  0.18923000  0.95799000  0.68125000  1.0
  O  O39  1  0.28266000  0.57024000  0.88438000  1.0
  O  O40  1  0.71735000  0.42976000  0.11562000  1.0
  O  O41  1  0.64625000  0.61461000  0.81739000  1.0
  O  O42  1  0.35375000  0.38539000  0.18261000  1.0
  O  O43  1  0.35508000  0.72727000  0.03040000  1.0
  O  O44  1  0.64493000  0.27273000  0.96960000  1.0
  O  O45  1  0.87434000  0.85732000  0.07924000  1.0
  O  O46  1  0.12567000  0.14268000  0.92076000  1.0
  O  O47  1  0.40752000  0.43632000  0.42722000  1.0
  O  O48  1  0.59248000  0.56367000  0.57278000  1.0
  O  O49  1  0.45652000  0.65607000  0.25829000  1.0
  O  O50  1  0.54347000  0.34392000  0.74171000  1.0
  O  O51  1  0.69043000  0.13008000  0.37840000  1.0
  O  O52  1  0.30957000  0.86992000  0.62160000  1.0
  O  O53  1  0.84286000  0.07118000  0.19192000  1.0
  O  O54  1  0.15714000  0.92882000  0.80808000  1.0
  O  O55  1  0.86781000  0.73748000  0.86596000  1.0
  O  O56  1  0.13219000  0.26253000  0.13403000  1.0
  O  O57  1  0.98931000  0.45860000  0.85936000  1.0
  O  O58  1  0.01068000  0.54141000  0.14064000  1.0
