# generated using pymatgen
data_Zr3H27C31O16
_symmetry_space_group_name_H-M   'P 1'
_cell_length_a   14.75851824
_cell_length_b   14.76950000
_cell_length_c   14.77590000
_cell_angle_alpha   119.95640000
_cell_angle_beta   119.86248652
_cell_angle_gamma   89.86733730
_symmetry_Int_Tables_number   1
_chemical_formula_structural   Zr3H27C31O16
_chemical_formula_sum   'Zr6 H54 C62 O32'
_cell_volume   2286.26309326
_cell_formula_units_Z   2
loop_
 _symmetry_equiv_pos_site_id
 _symmetry_equiv_pos_as_xyz
  1  'x, y, z'
loop_
 _atom_site_type_symbol
 _atom_site_label
 _atom_site_symmetry_multiplicity
 _atom_site_fract_x
 _atom_site_fract_y
 _atom_site_fract_z
 _atom_site_occupancy
  Zr  Zr0  1  0.61834000  0.11684000  0.49550000  1.0
  Zr  Zr1  1  0.38363000  0.88184000  0.50330000  1.0
  Zr  Zr2  1  0.62127000  0.11813000  0.73651000  1.0
  Zr  Zr3  1  0.37996000  0.87584000  0.25957000  1.0
  Zr  Zr4  1  0.38077000  0.11730000  0.49714000  1.0
  Zr  Zr5  1  0.62092000  0.87867000  0.49848000  1.0
  H  H6  1  0.59195000  0.28008000  0.68137000  1.0
  H  H7  1  0.21886000  0.90500000  0.31339000  1.0
  H  H8  1  0.59878000  0.90677000  0.68956000  1.0
  H  H9  1  0.59333000  0.90041000  0.30808000  1.0
  H  H10  1  0.41724000  0.44764000  0.58088000  1.0
  H  H11  1  0.56292000  0.53459000  0.38740000  1.0
  H  H12  1  0.96746000  0.94151000  0.61501000  1.0
  H  H13  1  0.05016000  0.08102000  0.41410000  1.0
  H  H14  1  0.09659000  0.86068000  0.94924000  1.0
  H  H15  1  0.92444000  0.15004000  0.04333000  1.0
  H  H16  1  0.35183000  0.57959000  0.95317000  1.0
  H  H17  1  0.63002000  0.39540000  0.04419000  1.0
  H  H18  1  0.98286000  0.35177000  0.72235000  1.0
  H  H19  1  0.89935000  0.43710000  0.70428000  1.0
  H  H20  1  0.07009000  0.60688000  0.87746000  1.0
  H  H21  1  0.15374000  0.52141000  0.89414000  1.0
  H  H22  1  0.63391000  0.13843000  0.22867000  1.0
  H  H23  1  0.35979000  0.86539000  0.76891000  1.0
  H  H24  1  0.45589000  0.72890000  0.68475000  1.0
  H  H25  1  0.32160000  0.64135000  0.54997000  1.0
  H  H26  1  0.39143000  0.61543000  0.66932000  1.0
  H  H27  1  0.55730000  0.34662000  0.27066000  1.0
  H  H28  1  0.66341000  0.35749000  0.40942000  1.0
  H  H29  1  0.53576000  0.25135000  0.30425000  1.0
  H  H30  1  0.14427000  0.93030000  0.71609000  1.0
  H  H31  1  0.16061000  0.84694000  0.59048000  1.0
  H  H32  1  0.25066000  0.98327000  0.71342000  1.0
  H  H33  1  0.76998000  0.04359000  0.31363000  1.0
  H  H34  1  0.85694000  0.17823000  0.44788000  1.0
  H  H35  1  0.88267000  0.10831000  0.32809000  1.0
  H  H36  1  0.97901000  0.77150000  0.73695000  1.0
  H  H37  1  0.83917000  0.76603000  0.68181000  1.0
  H  H38  1  0.91639000  0.84823000  0.67403000  1.0
  H  H39  1  0.05370000  0.24979000  0.25471000  1.0
  H  H40  1  0.09704000  0.16846000  0.31628000  1.0
  H  H41  1  0.18942000  0.23902000  0.31302000  1.0
  H  H42  1  0.25423000  0.45431000  0.74068000  1.0
  H  H43  1  0.33639000  0.40682000  0.68085000  1.0
  H  H44  1  0.25905000  0.31638000  0.68015000  1.0
  H  H45  1  0.71441000  0.50730000  0.25610000  1.0
  H  H46  1  0.73062000  0.64892000  0.31263000  1.0
  H  H47  1  0.64150000  0.57966000  0.32027000  1.0
  H  H48  1  0.72220000  0.23756000  0.20314000  1.0
  H  H49  1  0.73304000  0.15799000  0.07201000  1.0
  H  H50  1  0.64432000  0.23721000  0.06373000  1.0
  H  H51  1  0.26213000  0.77556000  0.79459000  1.0
  H  H52  1  0.34220000  0.76511000  0.92573000  1.0
  H  H53  1  0.26224000  0.85309000  0.93407000  1.0
  H  H54  1  0.04406000  0.53871000  0.27694000  1.0
  H  H55  1  0.17536000  0.60214000  0.32335000  1.0
  H  H56  1  0.08326000  0.67724000  0.32504000  1.0
  H  H57  1  0.88359000  0.51384000  0.16102000  1.0
  H  H58  1  0.77920000  0.40951000  0.99891000  1.0
  H  H59  1  0.88203000  0.37435000  0.09149000  1.0
  C  C60  1  0.49311000  0.29492000  0.48257000  1.0
  C  C61  1  0.20379000  0.00633000  0.51348000  1.0
  C  C62  1  0.49663000  0.69274000  0.49659000  1.0
  C  C63  1  0.80774000  0.00524000  0.50339000  1.0
  C  C64  1  0.80336000  0.30195000  0.80126000  1.0
  C  C65  1  0.49230000  0.99491000  0.18883000  1.0
  C  C66  1  0.20206000  0.69161000  0.20124000  1.0
  C  C67  1  0.50332000  0.00723000  0.80895000  1.0
  C  C68  1  0.49296000  0.29737000  0.79916000  1.0
  C  C69  1  0.81158000  0.00026000  0.79866000  1.0
  C  C70  1  0.49811000  0.68688000  0.19812000  1.0
  C  C71  1  0.20083000  0.00302000  0.19497000  1.0
  C  C72  1  0.49166000  0.58991000  0.49291000  1.0
  C  C73  1  0.49095000  0.39354000  0.47778000  1.0
  C  C74  1  0.44761000  0.56710000  0.54809000  1.0
  C  C75  1  0.53199000  0.41493000  0.41966000  1.0
  C  C76  1  0.44901000  0.46828000  0.53847000  1.0
  C  C77  1  0.53152000  0.51426000  0.43025000  1.0
  C  C78  1  0.10573000  0.00963000  0.51954000  1.0
  C  C79  1  0.91063000  0.01048000  0.50708000  1.0
  C  C80  1  0.08569000  0.97049000  0.57992000  1.0
  C  C81  1  0.93237000  0.05312000  0.45028000  1.0
  C  C82  1  0.98690000  0.97155000  0.57059000  1.0
  C  C83  1  0.03058000  0.05079000  0.45832000  1.0
  C  C84  1  0.91538000  0.99991000  0.89653000  1.0
  C  C85  1  0.10407000  0.00940000  0.09623000  1.0
  C  C86  1  0.96402000  0.91620000  0.86564000  1.0
  C  C87  1  0.05785000  0.09532000  0.12698000  1.0
  C  C88  1  0.05737000  0.92416000  0.96814000  1.0
  C  C89  1  0.96382000  0.08671000  0.02449000  1.0
  C  C90  1  0.48648000  0.39402000  0.89807000  1.0
  C  C91  1  0.49713000  0.58272000  0.09918000  1.0
  C  C92  1  0.40355000  0.44361000  0.86809000  1.0
  C  C93  1  0.57759000  0.53065000  0.12903000  1.0
  C  C94  1  0.41267000  0.53749000  0.97130000  1.0
  C  C95  1  0.56903000  0.43730000  0.02588000  1.0
  C  C96  1  0.90032000  0.40520000  0.90672000  1.0
  C  C97  1  0.10107000  0.59200000  0.10467000  1.0
  C  C98  1  0.96255000  0.44568000  0.88038000  1.0
  C  C99  1  0.04135000  0.55024000  0.13538000  1.0
  C  C100  1  0.05765000  0.53791000  0.97565000  1.0
  C  C101  1  0.93804000  0.46354000  0.03716000  1.0
  C  C102  1  0.96926000  0.42901000  0.77422000  1.0
  C  C103  1  0.07649000  0.53511000  0.88239000  1.0
  C  C104  1  0.50343000  0.00936000  0.91117000  1.0
  C  C105  1  0.48995000  0.99486000  0.08650000  1.0
  C  C106  1  0.58329000  0.09022000  0.04297000  1.0
  C  C107  1  0.40894000  0.91513000  0.95471000  1.0
  C  C108  1  0.57369000  0.07895000  0.12641000  1.0
  C  C109  1  0.41958000  0.92531000  0.87121000  1.0
  C  C110  1  0.40213000  0.64226000  0.61703000  1.0
  C  C111  1  0.57354000  0.33796000  0.34658000  1.0
  C  C112  1  0.16447000  0.93095000  0.65417000  1.0
  C  C113  1  0.85646000  0.09780000  0.38096000  1.0
  C  C114  1  0.92267000  0.82034000  0.73265000  1.0
  C  C115  1  0.10179000  0.19355000  0.25976000  1.0
  C  C116  1  0.30807000  0.40326000  0.73546000  1.0
  C  C117  1  0.67092000  0.56830000  0.26143000  1.0
  C  C118  1  0.67582000  0.18596000  0.09872000  1.0
  C  C119  1  0.31367000  0.82216000  0.89904000  1.0
  C  C120  1  0.08760000  0.59419000  0.27207000  1.0
  C  C121  1  0.86724000  0.43905000  0.07419000  1.0
  O  O122  1  0.57129000  0.25616000  0.48544000  1.0
  O  O123  1  0.24301000  0.92873000  0.51205000  1.0
  O  O124  1  0.42266000  0.73636000  0.50087000  1.0
  O  O125  1  0.76469000  0.08007000  0.50116000  1.0
  O  O126  1  0.76443000  0.25437000  0.83298000  1.0
  O  O127  1  0.41869000  0.91752000  0.15508000  1.0
  O  O128  1  0.23875000  0.72861000  0.15939000  1.0
  O  O129  1  0.58044000  0.08111000  0.84261000  1.0
  O  O130  1  0.42000000  0.25918000  0.68248000  1.0
  O  O131  1  0.76803000  0.92286000  0.68131000  1.0
  O  O132  1  0.57685000  0.73109000  0.31497000  1.0
  O  O133  1  0.23947000  0.07675000  0.31172000  1.0
  O  O134  1  0.77127000  0.07605000  0.83765000  1.0
  O  O135  1  0.42167000  0.72687000  0.16000000  1.0
  O  O136  1  0.23771000  0.92333000  0.15695000  1.0
  O  O137  1  0.57251000  0.26048000  0.83751000  1.0
  O  O138  1  0.76623000  0.26546000  0.68634000  1.0
  O  O139  1  0.42632000  0.92998000  0.69336000  1.0
  O  O140  1  0.24454000  0.73648000  0.31925000  1.0
  O  O141  1  0.56939000  0.07225000  0.30438000  1.0
  O  O142  1  0.76988000  0.92696000  0.50258000  1.0
  O  O143  1  0.41880000  0.25849000  0.48816000  1.0
  O  O144  1  0.23931000  0.07940000  0.50581000  1.0
  O  O145  1  0.57371000  0.73000000  0.49521000  1.0
  O  O146  1  0.56733000  0.92881000  0.36249000  1.0
  O  O147  1  0.57050000  0.93249000  0.63497000  1.0
  O  O148  1  0.29902000  0.93137000  0.36595000  1.0
  O  O149  1  0.56666000  0.19993000  0.62993000  1.0
  O  O150  1  0.45227000  0.04962000  0.59903000  1.0
  O  O151  1  0.44979000  0.04568000  0.39706000  1.0
  O  O152  1  0.45217000  0.84988000  0.40169000  1.0
  O  O153  1  0.64888000  0.04738000  0.59516000  1.0
