# generated using pymatgen
data_SmH8(CO)9
_symmetry_space_group_name_H-M   'P 1'
_cell_length_a   7.75361000
_cell_length_b   8.46801000
_cell_length_c   9.68717000
_cell_angle_alpha   68.33880000
_cell_angle_beta   76.36600000
_cell_angle_gamma   76.27940000
_symmetry_Int_Tables_number   1
_chemical_formula_structural   SmH8(CO)9
_chemical_formula_sum   'Sm2 H16 C18 O18'
_cell_volume   566.46759623
_cell_formula_units_Z   2
loop_
 _symmetry_equiv_pos_site_id
 _symmetry_equiv_pos_as_xyz
  1  'x, y, z'
loop_
 _atom_site_type_symbol
 _atom_site_label
 _atom_site_symmetry_multiplicity
 _atom_site_fract_x
 _atom_site_fract_y
 _atom_site_fract_z
 _atom_site_occupancy
  Sm  Sm0  1  0.25296000  0.27479000  0.45363000  1.0
  Sm  Sm1  1  0.74704000  0.72521000  0.54636000  1.0
  H  H2  1  0.01857000  0.31309000  0.23188000  1.0
  H  H3  1  0.98142000  0.68691000  0.76812000  1.0
  H  H4  1  0.89126000  0.38620000  0.36021000  1.0
  H  H5  1  0.10873000  0.61380000  0.63979000  1.0
  H  H6  1  0.84265000  0.59436000  0.02424000  1.0
  H  H7  1  0.15735000  0.40563000  0.97577000  1.0
  H  H8  1  0.68606000  0.74106000  0.19252000  1.0
  H  H9  1  0.31395000  0.25894000  0.80748000  1.0
  H  H10  1  0.99137000  0.97545000  0.75888000  1.0
  H  H11  1  0.00865000  0.02454000  0.24112000  1.0
  H  H12  1  0.63546000  0.29428000  0.00177000  1.0
  H  H13  1  0.36454000  0.70571000  0.99822000  1.0
  H  H14  1  0.32710000  0.91527000  0.48588000  1.0
  H  H15  1  0.67290000  0.08472000  0.51412000  1.0
  H  H16  1  0.12707000  0.88963000  0.57048000  1.0
  H  H17  1  0.87292000  0.11037000  0.42952000  1.0
  C  C18  1  0.52983000  0.03203000  0.25405000  1.0
  C  C19  1  0.47017000  0.96798000  0.74594000  1.0
  C  C20  1  0.64948000  0.01919000  0.11172000  1.0
  C  C21  1  0.35052000  0.98082000  0.88828000  1.0
  C  C22  1  0.72140000  0.85552000  0.10006000  1.0
  C  C23  1  0.27860000  0.14449000  0.89993000  1.0
  C  C24  1  0.84059000  0.84065000  0.97185000  1.0
  C  C25  1  0.15941000  0.15934000  0.02815000  1.0
  C  C26  1  0.89337000  0.98628000  0.85707000  1.0
  C  C27  1  0.10664000  0.01372000  0.14293000  1.0
  C  C28  1  0.81887000  0.14973000  0.86763000  1.0
  C  C29  1  0.18114000  0.85027000  0.13238000  1.0
  C  C30  1  0.69405000  0.16709000  0.99387000  1.0
  C  C31  1  0.30596000  0.83292000  0.00612000  1.0
  C  C32  1  0.87386000  0.30488000  0.74038000  1.0
  C  C33  1  0.12614000  0.69512000  0.25962000  1.0
  C  C34  1  0.42422000  0.52787000  0.55868000  1.0
  C  C35  1  0.57578000  0.47212000  0.44130000  1.0
  O  O36  1  0.42458000  0.17172000  0.25278000  1.0
  O  O37  1  0.57541000  0.82828000  0.74722000  1.0
  O  O38  1  0.20926000  0.97567000  0.52312000  1.0
  O  O39  1  0.79073000  0.02433000  0.47688000  1.0
  O  O40  1  0.54069000  0.89766000  0.37292000  1.0
  O  O41  1  0.45931000  0.10235000  0.62708000  1.0
  O  O42  1  0.98761000  0.28937000  0.34203000  1.0
  O  O43  1  0.01238000  0.71063000  0.65798000  1.0
  O  O44  1  0.91461000  0.68109000  0.95558000  1.0
  O  O45  1  0.08539000  0.31891000  0.04443000  1.0
  O  O46  1  0.00088000  0.27983000  0.63614000  1.0
  O  O47  1  0.99912000  0.72017000  0.36386000  1.0
  O  O48  1  0.78992000  0.45266000  0.74177000  1.0
  O  O49  1  0.21006000  0.54734000  0.25823000  1.0
  O  O50  1  0.27412000  0.47793000  0.57889000  1.0
  O  O51  1  0.72589000  0.52207000  0.42112000  1.0
  O  O52  1  0.45664000  0.61693000  0.62521000  1.0
  O  O53  1  0.54334000  0.38307000  0.37479000  1.0
