# generated using pymatgen
data_ZnH14C18SN4O5
_symmetry_space_group_name_H-M   'P 1'
_cell_length_a   10.10180000
_cell_length_b   10.26280000
_cell_length_c   10.58840000
_cell_angle_alpha   108.89800000
_cell_angle_beta   109.19400000
_cell_angle_gamma   103.94300000
_symmetry_Int_Tables_number   1
_chemical_formula_structural   ZnH14C18SN4O5
_chemical_formula_sum   'Zn2 H28 C36 S2 N8 O10'
_cell_volume   903.63481739
_cell_formula_units_Z   2
loop_
 _symmetry_equiv_pos_site_id
 _symmetry_equiv_pos_as_xyz
  1  'x, y, z'
loop_
 _atom_site_type_symbol
 _atom_site_label
 _atom_site_symmetry_multiplicity
 _atom_site_fract_x
 _atom_site_fract_y
 _atom_site_fract_z
 _atom_site_occupancy
  Zn  Zn0  1  0.75399000  0.90216000  0.76184000  1.0
  Zn  Zn1  1  0.24601000  0.09784000  0.23816000  1.0
  H  H2  1  0.12785000  0.70125000  0.88468000  1.0
  H  H3  1  0.87215000  0.29876000  0.11532000  1.0
  H  H4  1  0.20198000  0.48195000  0.92584000  1.0
  H  H5  1  0.79802000  0.51806000  0.07416000  1.0
  H  H6  1  0.56581000  0.05203000  0.90077000  1.0
  H  H7  1  0.43419000  0.94796000  0.09923000  1.0
  H  H8  1  0.25685000  0.90436000  0.80862000  1.0
  H  H9  1  0.74315000  0.09564000  0.19138000  1.0
  H  H10  1  0.41563000  0.61805000  0.56095000  1.0
  H  H11  1  0.58437000  0.38194000  0.43905000  1.0
  H  H12  1  0.22592000  0.43938000  0.59192000  1.0
  H  H13  1  0.77408000  0.56062000  0.40808000  1.0
  H  H14  1  0.96814000  0.23731000  0.45095000  1.0
  H  H15  1  0.03186000  0.76268000  0.54905000  1.0
  H  H16  1  0.91088000  0.02914000  0.58160000  1.0
  H  H17  1  0.08912000  0.97086000  0.41840000  1.0
  H  H18  1  0.82506000  0.87293000  0.27873000  1.0
  H  H19  1  0.17494000  0.12707000  0.72128000  1.0
  H  H20  1  0.52391000  0.63280000  0.40046000  1.0
  H  H21  1  0.47609000  0.36720000  0.59954000  1.0
  H  H22  1  0.49117000  0.43186000  0.20296000  1.0
  H  H23  1  0.50883000  0.56814000  0.79704000  1.0
  H  H24  1  0.36890000  0.23615000  0.94572000  1.0
  H  H25  1  0.63110000  0.76385000  0.05428000  1.0
  H  H26  1  0.87133000  0.92642000  0.05355000  1.0
  H  H27  1  0.12867000  0.07358000  0.94645000  1.0
  H  H28  1  0.92859000  0.08837000  0.07034000  1.0
  H  H29  1  0.07141000  0.91163000  0.92966000  1.0
  C  C30  1  0.80345000  0.63886000  0.74149000  1.0
  C  C31  1  0.19655000  0.36114000  0.25851000  1.0
  C  C32  1  0.89041000  0.54991000  0.78189000  1.0
  C  C33  1  0.10959000  0.45009000  0.21811000  1.0
  C  C34  1  0.04658000  0.59072000  0.85065000  1.0
  C  C35  1  0.95342000  0.40928000  0.14935000  1.0
  C  C36  1  0.08637000  0.47452000  0.87292000  1.0
  C  C37  1  0.91363000  0.52548000  0.12709000  1.0
  C  C38  1  0.95994000  0.34750000  0.82342000  1.0
  C  C39  1  0.04006000  0.65250000  0.17658000  1.0
  C  C40  1  0.95420000  0.20653000  0.83484000  1.0
  C  C41  1  0.04580000  0.79347000  0.16516000  1.0
  C  C42  1  0.48784000  0.94065000  0.81554000  1.0
  C  C43  1  0.51217000  0.05935000  0.18447000  1.0
  C  C44  1  0.33516000  0.86978000  0.76930000  1.0
  C  C45  1  0.66484000  0.13022000  0.23069000  1.0
  C  C46  1  0.41782000  0.71682000  0.64245000  1.0
  C  C47  1  0.58218000  0.28318000  0.35755000  1.0
  C  C48  1  0.14416000  0.61266000  0.57863000  1.0
  C  C49  1  0.85584000  0.38734000  0.42136000  1.0
  C  C50  1  0.12673000  0.46524000  0.55032000  1.0
  C  C51  1  0.87326000  0.53476000  0.44968000  1.0
  C  C52  1  0.98230000  0.35194000  0.47131000  1.0
  C  C53  1  0.01770000  0.64806000  0.52869000  1.0
  C  C54  1  0.81672000  0.92483000  0.49909000  1.0
  C  C55  1  0.18328000  0.07517000  0.50091000  1.0
  C  C56  1  0.77450000  0.85223000  0.34984000  1.0
  C  C57  1  0.22550000  0.14777000  0.65015000  1.0
  C  C58  1  0.61793000  0.72187000  0.41217000  1.0
  C  C59  1  0.38207000  0.27813000  0.58783000  1.0
  C  C60  1  0.57035000  0.61079000  0.14591000  1.0
  C  C61  1  0.42965000  0.38921000  0.85409000  1.0
  C  C62  1  0.49610000  0.46223000  0.11465000  1.0
  C  C63  1  0.50390000  0.53776000  0.88535000  1.0
  C  C64  1  0.42621000  0.35144000  0.96896000  1.0
  C  C65  1  0.57379000  0.64856000  0.03104000  1.0
  S  S66  1  0.79311000  0.36975000  0.74663000  1.0
  S  S67  1  0.20689000  0.63025000  0.25337000  1.0
  N  N68  1  0.53750000  0.84453000  0.73607000  1.0
  N  N69  1  0.46250000  0.15547000  0.26393000  1.0
  N  N70  1  0.29232000  0.72767000  0.65963000  1.0
  N  N71  1  0.70768000  0.27232000  0.34037000  1.0
  N  N72  1  0.71902000  0.84288000  0.53661000  1.0
  N  N73  1  0.28098000  0.15712000  0.46339000  1.0
  N  N74  1  0.64771000  0.72328000  0.29524000  1.0
  N  N75  1  0.35229000  0.27672000  0.70476000  1.0
  O  O76  1  0.83515000  0.99579000  0.01653000  1.0
  O  O77  1  0.16485000  0.00421000  0.98347000  1.0
  O  O78  1  0.88136000  0.78096000  0.79458000  1.0
  O  O79  1  0.11863000  0.21904000  0.20541000  1.0
  O  O80  1  0.66186000  0.57594000  0.66081000  1.0
  O  O81  1  0.33813000  0.42406000  0.33919000  1.0
  O  O82  1  0.07525000  0.18275000  0.87057000  1.0
  O  O83  1  0.92475000  0.81725000  0.12943000  1.0
  O  O84  1  0.82184000  0.11823000  0.80399000  1.0
  O  O85  1  0.17817000  0.88177000  0.19601000  1.0
