# generated using pymatgen
data_AgH12C20(NO)3
_symmetry_space_group_name_H-M   'P 1'
_cell_length_a   5.28374000
_cell_length_b   9.54499703
_cell_length_c   17.43420000
_cell_angle_alpha   88.28270342
_cell_angle_beta   84.44160000
_cell_angle_gamma   74.01754527
_symmetry_Int_Tables_number   1
_chemical_formula_structural   AgH12C20(NO)3
_chemical_formula_sum   'Ag2 H24 C40 N6 O6'
_cell_volume   841.29741750
_cell_formula_units_Z   2
loop_
 _symmetry_equiv_pos_site_id
 _symmetry_equiv_pos_as_xyz
  1  'x, y, z'
loop_
 _atom_site_type_symbol
 _atom_site_label
 _atom_site_symmetry_multiplicity
 _atom_site_fract_x
 _atom_site_fract_y
 _atom_site_fract_z
 _atom_site_occupancy
  Ag  Ag0  1  0.46177000  0.07555000  0.25015000  1.0
  Ag  Ag1  1  0.53823000  0.92445000  0.74985000  1.0
  H  H2  1  0.97035000  0.22067000  0.16623000  1.0
  H  H3  1  0.80587000  0.22109000  0.33429000  1.0
  H  H4  1  0.02966000  0.77932000  0.83376000  1.0
  H  H5  1  0.19413000  0.77890000  0.66571000  1.0
  H  H6  1  0.39122000  0.39117000  0.90866000  1.0
  H  H7  1  0.21296000  0.39206000  0.59085000  1.0
  H  H8  1  0.60880000  0.60883000  0.09134000  1.0
  H  H9  1  0.78705000  0.60794000  0.40915000  1.0
  H  H10  1  0.39367000  0.78731000  0.18513000  1.0
  H  H11  1  0.82089000  0.78696000  0.31483000  1.0
  H  H12  1  0.60632000  0.21269000  0.81487000  1.0
  H  H13  1  0.17911000  0.21304000  0.68517000  1.0
  H  H14  1  0.73798000  0.89470000  0.04431000  1.0
  H  H15  1  0.36884000  0.89528000  0.45532000  1.0
  H  H16  1  0.26202000  0.10530000  0.95569000  1.0
  H  H17  1  0.63115000  0.10473000  0.54468000  1.0
  H  H18  1  0.98726000  0.42712000  0.13851000  1.0
  H  H19  1  0.58882000  0.42690000  0.36182000  1.0
  H  H20  1  0.01275000  0.57288000  0.86149000  1.0
  H  H21  1  0.41118000  0.57310000  0.63818000  1.0
  H  H22  1  0.10663000  0.70678000  0.10066000  1.0
  H  H23  1  0.19029000  0.70680000  0.39892000  1.0
  H  H24  1  0.89337000  0.29322000  0.89934000  1.0
  H  H25  1  0.80971000  0.29320000  0.60109000  1.0
  C  C26  1  0.99860000  0.10895000  0.14834000  1.0
  C  C27  1  0.89078000  0.10919000  0.35194000  1.0
  C  C28  1  0.00140000  0.89105000  0.85166000  1.0
  C  C29  1  0.10923000  0.89081000  0.64806000  1.0
  C  C30  1  0.82513000  0.07389000  0.10031000  1.0
  C  C31  1  0.10017000  0.07438000  0.39970000  1.0
  C  C32  1  0.17487000  0.92611000  0.89969000  1.0
  C  C33  1  0.89982000  0.92562000  0.60030000  1.0
  C  C34  1  0.86733000  0.92605000  0.08157000  1.0
  C  C35  1  0.20750000  0.92645000  0.41823000  1.0
  C  C36  1  0.13268000  0.07394000  0.91843000  1.0
  C  C37  1  0.79249000  0.07355000  0.58177000  1.0
  C  C38  1  0.07243000  0.82218000  0.11228000  1.0
  C  C39  1  0.10735000  0.82224000  0.38750000  1.0
  C  C40  1  0.92757000  0.17782000  0.88772000  1.0
  C  C41  1  0.89263000  0.17777000  0.61250000  1.0
  C  C42  1  0.23418000  0.86664000  0.15932000  1.0
  C  C43  1  0.90037000  0.86643000  0.34067000  1.0
  C  C44  1  0.76582000  0.13336000  0.84069000  1.0
  C  C45  1  0.09962000  0.13357000  0.65933000  1.0
  C  C46  1  0.61476000  0.18545000  0.07330000  1.0
  C  C47  1  0.19837000  0.18620000  0.42669000  1.0
  C  C48  1  0.38525000  0.81455000  0.92671000  1.0
  C  C49  1  0.80161000  0.81381000  0.57331000  1.0
  C  C50  1  0.43235000  0.28297000  0.05198000  1.0
  C  C51  1  0.28358000  0.28369000  0.44791000  1.0
  C  C52  1  0.56767000  0.71702000  0.94803000  1.0
  C  C53  1  0.71642000  0.71632000  0.55208000  1.0
  C  C54  1  0.21689000  0.39340000  0.02660000  1.0
  C  C55  1  0.38888000  0.39393000  0.47333000  1.0
  C  C56  1  0.78312000  0.60660000  0.97340000  1.0
  C  C57  1  0.61112000  0.60607000  0.52666000  1.0
  C  C58  1  0.99357000  0.45772000  0.07777000  1.0
  C  C59  1  0.55060000  0.45760000  0.42243000  1.0
  C  C60  1  0.00643000  0.54229000  0.92223000  1.0
  C  C61  1  0.44942000  0.54240000  0.57756000  1.0
  C  C62  1  0.21952000  0.43840000  0.94876000  1.0
  C  C63  1  0.33934000  0.43898000  0.55101000  1.0
  C  C64  1  0.78049000  0.56160000  0.05124000  1.0
  C  C65  1  0.66065000  0.56103000  0.44899000  1.0
  N  N66  1  0.19973000  0.00809000  0.17622000  1.0
  N  N67  1  0.79152000  0.00801000  0.32403000  1.0
  N  N68  1  0.80027000  0.99191000  0.82378000  1.0
  N  N69  1  0.20848000  0.99199000  0.67597000  1.0
  N  N70  1  0.29376000  0.41084000  0.25037000  1.0
  N  N71  1  0.70624000  0.58916000  0.74963000  1.0
  O  O72  1  0.53804000  0.34040000  0.24618000  1.0
  O  O73  1  0.12065000  0.33969000  0.25406000  1.0
  O  O74  1  0.46196000  0.65959000  0.75382000  1.0
  O  O75  1  0.87935000  0.66032000  0.74594000  1.0
  O  O76  1  0.22477000  0.54803000  0.25084000  1.0
  O  O77  1  0.77524000  0.45197000  0.74916000  1.0
