# generated using pymatgen
data_Ag2H4C5SN2O7
_symmetry_space_group_name_H-M   'P 1'
_cell_length_a   5.47370000
_cell_length_b   9.49834000
_cell_length_c   19.01360000
_cell_angle_alpha   89.99970000
_cell_angle_beta   89.99970000
_cell_angle_gamma   80.60350000
_symmetry_Int_Tables_number   1
_chemical_formula_structural   Ag2H4C5SN2O7
_chemical_formula_sum   'Ag8 H16 C20 S4 N8 O28'
_cell_volume   975.27322983
_cell_formula_units_Z   4
loop_
 _symmetry_equiv_pos_site_id
 _symmetry_equiv_pos_as_xyz
  1  'x, y, z'
loop_
 _atom_site_type_symbol
 _atom_site_label
 _atom_site_symmetry_multiplicity
 _atom_site_fract_x
 _atom_site_fract_y
 _atom_site_fract_z
 _atom_site_occupancy
  Ag  Ag0  1  0.25533000  0.60169000  0.47979000  1.0
  Ag  Ag1  1  0.74467000  0.89831000  0.97979000  1.0
  Ag  Ag2  1  0.74467000  0.39831000  0.52021000  1.0
  Ag  Ag3  1  0.25533000  0.10169000  0.02021000  1.0
  Ag  Ag4  1  0.26998000  0.20438000  0.47655000  1.0
  Ag  Ag5  1  0.73001000  0.29562000  0.97655000  1.0
  Ag  Ag6  1  0.73002000  0.79561000  0.52345000  1.0
  Ag  Ag7  1  0.26998000  0.70438000  0.02345000  1.0
  H  H8  1  0.48482000  0.56168000  0.84673000  1.0
  H  H9  1  0.51517000  0.93833000  0.34673000  1.0
  H  H10  1  0.51517000  0.43833000  0.15327000  1.0
  H  H11  1  0.48483000  0.06168000  0.65327000  1.0
  H  H12  1  0.25285000  0.43553000  0.77737000  1.0
  H  H13  1  0.74714000  0.06447000  0.27737000  1.0
  H  H14  1  0.74714000  0.56447000  0.22263000  1.0
  H  H15  1  0.25286000  0.93553000  0.72263000  1.0
  H  H16  1  0.80175000  0.74386000  0.67431000  1.0
  H  H17  1  0.19826000  0.75613000  0.17431000  1.0
  H  H18  1  0.19825000  0.25614000  0.32569000  1.0
  H  H19  1  0.80174000  0.24387000  0.82569000  1.0
  H  H20  1  0.77248000  0.70622000  0.80429000  1.0
  H  H21  1  0.22752000  0.79378000  0.30429000  1.0
  H  H22  1  0.22751000  0.29378000  0.19571000  1.0
  H  H23  1  0.77248000  0.20622000  0.69571000  1.0
  C  C24  1  0.37248000  0.50038000  0.75141000  1.0
  C  C25  1  0.62752000  0.99962000  0.25141000  1.0
  C  C26  1  0.62752000  0.49962000  0.24859000  1.0
  C  C27  1  0.37249000  0.00038000  0.74859000  1.0
  C  C28  1  0.38451000  0.51232000  0.67948000  1.0
  C  C29  1  0.61549000  0.98768000  0.17948000  1.0
  C  C30  1  0.61549000  0.48768000  0.32052000  1.0
  C  C31  1  0.38452000  0.01232000  0.82052000  1.0
  C  C32  1  0.53238000  0.60738000  0.64767000  1.0
  C  C33  1  0.46763000  0.89261000  0.14767000  1.0
  C  C34  1  0.46763000  0.39262000  0.35233000  1.0
  C  C35  1  0.53237000  0.10739000  0.85233000  1.0
  C  C36  1  0.67750000  0.67557000  0.69549000  1.0
  C  C37  1  0.32250000  0.82442000  0.19548000  1.0
  C  C38  1  0.32250000  0.32442000  0.30452000  1.0
  C  C39  1  0.67750000  0.17558000  0.80451000  1.0
  C  C40  1  0.66368000  0.65596000  0.76672000  1.0
  C  C41  1  0.33633000  0.84404000  0.26672000  1.0
  C  C42  1  0.33632000  0.34404000  0.23328000  1.0
  C  C43  1  0.66368000  0.15596000  0.73328000  1.0
  S  S44  1  0.22285000  0.40086000  0.62873000  1.0
  S  S45  1  0.77715000  0.09914000  0.12873000  1.0
  S  S46  1  0.77716000  0.59914000  0.37127000  1.0
  S  S47  1  0.22286000  0.90086000  0.87127000  1.0
  N  N48  1  0.50879000  0.57135000  0.79338000  1.0
  N  N49  1  0.49121000  0.92865000  0.29337000  1.0
  N  N50  1  0.49121000  0.42865000  0.20663000  1.0
  N  N51  1  0.50879000  0.07135000  0.70663000  1.0
  N  N52  1  0.17175000  0.91389000  0.57084000  1.0
  N  N53  1  0.82825000  0.58611000  0.07084000  1.0
  N  N54  1  0.82824000  0.08611000  0.42916000  1.0
  N  N55  1  0.17175000  0.41389000  0.92916000  1.0
  O  O56  1  0.06181000  0.49752000  0.58018000  1.0
  O  O57  1  0.93819000  0.00248000  0.08018000  1.0
  O  O58  1  0.93819000  0.50248000  0.41982000  1.0
  O  O59  1  0.06181000  0.99752000  0.91982000  1.0
  O  O60  1  0.08470000  0.32542000  0.67713000  1.0
  O  O61  1  0.91528000  0.17458000  0.17712000  1.0
  O  O62  1  0.91530000  0.67457000  0.32287000  1.0
  O  O63  1  0.08471000  0.82542000  0.82287000  1.0
  O  O64  1  0.41918000  0.30486000  0.58962000  1.0
  O  O65  1  0.58081000  0.19514000  0.08961000  1.0
  O  O66  1  0.58083000  0.69514000  0.41038000  1.0
  O  O67  1  0.41918000  0.80486000  0.91039000  1.0
  O  O68  1  0.53633000  0.62866000  0.58069000  1.0
  O  O69  1  0.46368000  0.87133000  0.08068000  1.0
  O  O70  1  0.46367000  0.37134000  0.41932000  1.0
  O  O71  1  0.53633000  0.12867000  0.91931000  1.0
  O  O72  1  0.37141000  0.96660000  0.57323000  1.0
  O  O73  1  0.62859000  0.53340000  0.07323000  1.0
  O  O74  1  0.62860000  0.03340000  0.42677000  1.0
  O  O75  1  0.37140000  0.46660000  0.92677000  1.0
  O  O76  1  0.11700000  0.85818000  0.51232000  1.0
  O  O77  1  0.88300000  0.64181000  0.01232000  1.0
  O  O78  1  0.88299000  0.14182000  0.48768000  1.0
  O  O79  1  0.11700000  0.35818000  0.98768000  1.0
  O  O80  1  0.03159000  0.91640000  0.62292000  1.0
  O  O81  1  0.96841000  0.58360000  0.12292000  1.0
  O  O82  1  0.96841000  0.08360000  0.37708000  1.0
  O  O83  1  0.03159000  0.41640000  0.87708000  1.0
