# generated using pymatgen
data_CoH22C37Br2N2(ClO2)2
_symmetry_space_group_name_H-M   'P 1'
_cell_length_a   8.96944000
_cell_length_b   15.62080000
_cell_length_c   16.72550000
_cell_angle_alpha   113.95000000
_cell_angle_beta   91.52280000
_cell_angle_gamma   91.12490000
_symmetry_Int_Tables_number   1
_chemical_formula_structural   CoH22C37Br2N2(ClO2)2
_chemical_formula_sum   'Co2 H44 C74 Br4 N4 Cl4 O8'
_cell_volume   2139.69621927
_cell_formula_units_Z   2
loop_
 _symmetry_equiv_pos_site_id
 _symmetry_equiv_pos_as_xyz
  1  'x, y, z'
loop_
 _atom_site_type_symbol
 _atom_site_label
 _atom_site_symmetry_multiplicity
 _atom_site_fract_x
 _atom_site_fract_y
 _atom_site_fract_z
 _atom_site_occupancy
  Co  Co0  1  0.55218000  0.23147000  0.47948000  1.0
  Co  Co1  1  0.44782000  0.76853000  0.52052000  1.0
  H  H2  1  0.77539000  0.27821000  0.62407000  1.0
  H  H3  1  0.22461000  0.72178000  0.37593000  1.0
  H  H4  1  0.88525000  0.57299000  0.71294000  1.0
  H  H5  1  0.11473000  0.42700000  0.28706000  1.0
  H  H6  1  0.72357000  0.57279000  0.58581000  1.0
  H  H7  1  0.27643000  0.42721000  0.41419000  1.0
  H  H8  1  0.59725000  0.42099000  0.48436000  1.0
  H  H9  1  0.40275000  0.57900000  0.51564000  1.0
  H  H10  1  0.89129000  0.39271000  0.91126000  1.0
  H  H11  1  0.10870000  0.60728000  0.08874000  1.0
  H  H12  1  0.03951000  0.35924000  0.02234000  1.0
  H  H13  1  0.96049000  0.64075000  0.97766000  1.0
  H  H14  1  0.35524000  0.21264000  0.82787000  1.0
  H  H15  1  0.64476000  0.78736000  0.17213000  1.0
  H  H16  1  0.21100000  0.25095000  0.71776000  1.0
  H  H17  1  0.78900000  0.74905000  0.28224000  1.0
  H  H18  1  0.24374000  0.46506000  0.10362000  1.0
  H  H19  1  0.75626000  0.53494000  0.89638000  1.0
  H  H20  1  0.70857000  0.55560000  0.13501000  1.0
  H  H21  1  0.29143000  0.44440000  0.86499000  1.0
  H  H22  1  0.78360000  0.39179000  0.05507000  1.0
  H  H23  1  0.21639000  0.60821000  0.94493000  1.0
  H  H24  1  0.80097000  0.20752000  0.96576000  1.0
  H  H25  1  0.19903000  0.79248000  0.03423000  1.0
  H  H26  1  0.76010000  0.03453000  0.88997000  1.0
  H  H27  1  0.23991000  0.96548000  0.11003000  1.0
  H  H28  1  0.28281000  0.06534000  0.91389000  1.0
  H  H29  1  0.71719000  0.93466000  0.08611000  1.0
  H  H30  1  0.05157000  0.15563000  0.96437000  1.0
  H  H31  1  0.94843000  0.84437000  0.03563000  1.0
  H  H32  1  0.90484000  0.10595000  0.06240000  1.0
  H  H33  1  0.09516000  0.89405000  0.93760000  1.0
  H  H34  1  0.20688000  0.26615000  0.27827000  1.0
  H  H35  1  0.79312000  0.73385000  0.72172000  1.0
  H  H36  1  0.35026000  0.32075000  0.18095000  1.0
  H  H37  1  0.64973000  0.67925000  0.81905000  1.0
  H  H38  1  0.77274000  0.20492000  0.34379000  1.0
  H  H39  1  0.22726000  0.79509000  0.65621000  1.0
  H  H40  1  0.59576000  0.03756000  0.45974000  1.0
  H  H41  1  0.40425000  0.96245000  0.54027000  1.0
  H  H42  1  0.73107000  0.89898000  0.36189000  1.0
  H  H43  1  0.26893000  0.10102000  0.63812000  1.0
  H  H44  1  0.89695000  0.91632000  0.24770000  1.0
  H  H45  1  0.10304000  0.08368000  0.75231000  1.0
  C  C46  1  0.76897000  0.34433000  0.61702000  1.0
  C  C47  1  0.23103000  0.65566000  0.38299000  1.0
  C  C48  1  0.84463000  0.42524000  0.67608000  1.0
  C  C49  1  0.15537000  0.57475000  0.32392000  1.0
  C  C50  1  0.82919000  0.50921000  0.66584000  1.0
  C  C51  1  0.17081000  0.49078000  0.33416000  1.0
  C  C52  1  0.74063000  0.50894000  0.59603000  1.0
  C  C53  1  0.25936000  0.49106000  0.40397000  1.0
  C  C54  1  0.66911000  0.42556000  0.53971000  1.0
  C  C55  1  0.33089000  0.57444000  0.46029000  1.0
  C  C56  1  0.93707000  0.42522000  0.75122000  1.0
  C  C57  1  0.06293000  0.57477000  0.24878000  1.0
  C  C58  1  0.04348000  0.32227000  0.80855000  1.0
  C  C59  1  0.95653000  0.67772000  0.19145000  1.0
  C  C60  1  0.99355000  0.35389000  0.89374000  1.0
  C  C61  1  0.00645000  0.64611000  0.10626000  1.0
  C  C62  1  0.07663000  0.33395000  0.95528000  1.0
  C  C63  1  0.92337000  0.66605000  0.04472000  1.0
  C  C64  1  0.20718000  0.28242000  0.93252000  1.0
  C  C65  1  0.79282000  0.71758000  0.06748000  1.0
  C  C66  1  0.25345000  0.25161000  0.84647000  1.0
  C  C67  1  0.74655000  0.74839000  0.15353000  1.0
  C  C68  1  0.17261000  0.27191000  0.78419000  1.0
  C  C69  1  0.82740000  0.72809000  0.21581000  1.0
  C  C70  1  0.30299000  0.26851000  0.00330000  1.0
  C  C71  1  0.69701000  0.73148000  0.99670000  1.0
  C  C72  1  0.40391000  0.35675000  0.04683000  1.0
  C  C73  1  0.59610000  0.64326000  0.95318000  1.0
  C  C74  1  0.36069000  0.44828000  0.09216000  1.0
  C  C75  1  0.63931000  0.55172000  0.90784000  1.0
  C  C76  1  0.47279000  0.51857000  0.12325000  1.0
  C  C77  1  0.52721000  0.48143000  0.87675000  1.0
  C  C78  1  0.62394000  0.49928000  0.10992000  1.0
  C  C79  1  0.37606000  0.50072000  0.89007000  1.0
  C  C80  1  0.66558000  0.40678000  0.06421000  1.0
  C  C81  1  0.33442000  0.59322000  0.93579000  1.0
  C  C82  1  0.55538000  0.33522000  0.03216000  1.0
  C  C83  1  0.44463000  0.66479000  0.96783000  1.0
  C  C84  1  0.56509000  0.23388000  0.98298000  1.0
  C  C85  1  0.43491000  0.76612000  0.01702000  1.0
  C  C86  1  0.68796000  0.17697000  0.95452000  1.0
  C  C87  1  0.31205000  0.82304000  0.04547000  1.0
  C  C88  1  0.66528000  0.07983000  0.91189000  1.0
  C  C89  1  0.33472000  0.92017000  0.08811000  1.0
  C  C90  1  0.51974000  0.04139000  0.89846000  1.0
  C  C91  1  0.48027000  0.95861000  0.10154000  1.0
  C  C92  1  0.39497000  0.09700000  0.92458000  1.0
  C  C93  1  0.60504000  0.90300000  0.07542000  1.0
  C  C94  1  0.41954000  0.19336000  0.96624000  1.0
  C  C95  1  0.58046000  0.80664000  0.03376000  1.0
  C  C96  1  0.20901000  0.24383000  0.06629000  1.0
  C  C97  1  0.79099000  0.75617000  0.93371000  1.0
  C  C98  1  0.08465000  0.18213000  0.03361000  1.0
  C  C99  1  0.91535000  0.81787000  0.96639000  1.0
  C  C100  1  0.00217000  0.15300000  0.08799000  1.0
  C  C101  1  0.99783000  0.84699000  0.91201000  1.0
  C  C102  1  0.04718000  0.18577000  0.17590000  1.0
  C  C103  1  0.95282000  0.81423000  0.82409000  1.0
  C  C104  1  0.17151000  0.24527000  0.20995000  1.0
  C  C105  1  0.82848000  0.75474000  0.79004000  1.0
  C  C106  1  0.25194000  0.27449000  0.15477000  1.0
  C  C107  1  0.74807000  0.72550000  0.84523000  1.0
  C  C108  1  0.94241000  0.07205000  0.22115000  1.0
  C  C109  1  0.05759000  0.92796000  0.77885000  1.0
  C  C110  1  0.84796000  0.06214000  0.28870000  1.0
  C  C111  1  0.15204000  0.93786000  0.71131000  1.0
  C  C112  1  0.76796000  0.13635000  0.34624000  1.0
  C  C113  1  0.23205000  0.86366000  0.65376000  1.0
  C  C114  1  0.66877000  0.04202000  0.41039000  1.0
  C  C115  1  0.33124000  0.95799000  0.58961000  1.0
  C  C116  1  0.74540000  0.96511000  0.35529000  1.0
  C  C117  1  0.25461000  0.03489000  0.64472000  1.0
  C  C118  1  0.83602000  0.97476000  0.29309000  1.0
  C  C119  1  0.16398000  0.02525000  0.70691000  1.0
  Br  Br120  1  0.41608000  0.64469000  0.18706000  1.0
  Br  Br121  1  0.58392000  0.35531000  0.81294000  1.0
  Br  Br122  1  0.49061000  0.90868000  0.84352000  1.0
  Br  Br123  1  0.50940000  0.09132000  0.15648000  1.0
  N  N124  1  0.68183000  0.34449000  0.55027000  1.0
  N  N125  1  0.31817000  0.65551000  0.44973000  1.0
  N  N126  1  0.67943000  0.12657000  0.40603000  1.0
  N  N127  1  0.32057000  0.87343000  0.59398000  1.0
  Cl  Cl128  1  0.44684000  0.18739000  0.57463000  1.0
  Cl  Cl129  1  0.55315000  0.81261000  0.42538000  1.0
  Cl  Cl130  1  0.41769000  0.27268000  0.38987000  1.0
  Cl  Cl131  1  0.58231000  0.72731000  0.61013000  1.0
  O  O132  1  0.98530000  0.49570000  0.81240000  1.0
  O  O133  1  0.01468000  0.50430000  0.18760000  1.0
  O  O134  1  0.96143000  0.33580000  0.74214000  1.0
  O  O135  1  0.03857000  0.66419000  0.25787000  1.0
  O  O136  1  0.96351000  0.16375000  0.23545000  1.0
  O  O137  1  0.03649000  0.83625000  0.76454000  1.0
  O  O138  1  0.99446000  0.00606000  0.16111000  1.0
  O  O139  1  0.00552000  0.99393000  0.83889000  1.0
