# generated using pymatgen
data_Cu2H6C5(IN)2
_symmetry_space_group_name_H-M   'P 1'
_cell_length_a   4.09054000
_cell_length_b   15.12980000
_cell_length_c   15.96790000
_cell_angle_alpha   66.40100000
_cell_angle_beta   89.99910000
_cell_angle_gamma   89.99940000
_symmetry_Int_Tables_number   1
_chemical_formula_structural   Cu2H6C5(IN)2
_chemical_formula_sum   'Cu8 H24 C20 I8 N8'
_cell_volume   905.59155470
_cell_formula_units_Z   4
loop_
 _symmetry_equiv_pos_site_id
 _symmetry_equiv_pos_as_xyz
  1  'x, y, z'
loop_
 _atom_site_type_symbol
 _atom_site_label
 _atom_site_symmetry_multiplicity
 _atom_site_fract_x
 _atom_site_fract_y
 _atom_site_fract_z
 _atom_site_occupancy
  Cu  Cu0  1  0.08734000  0.47843000  0.30943000  1.0
  Cu  Cu1  1  0.41266000  0.47842000  0.80943000  1.0
  Cu  Cu2  1  0.91266000  0.52157000  0.69057000  1.0
  Cu  Cu3  1  0.58734000  0.52158000  0.19056000  1.0
  Cu  Cu4  1  0.06838000  0.06757000  0.70415000  1.0
  Cu  Cu5  1  0.43163000  0.06756000  0.20415000  1.0
  Cu  Cu6  1  0.93161000  0.93243000  0.29585000  1.0
  Cu  Cu7  1  0.56838000  0.93244000  0.79585000  1.0
  H  H8  1  0.35004000  0.27905000  0.36607000  1.0
  H  H9  1  0.14993000  0.27905000  0.86607000  1.0
  H  H10  1  0.64993000  0.72095000  0.63393000  1.0
  H  H11  1  0.85007000  0.72095000  0.13393000  1.0
  H  H12  1  0.81849000  0.41718000  0.50046000  1.0
  H  H13  1  0.68151000  0.41718000  0.00046000  1.0
  H  H14  1  0.18150000  0.58282000  0.49954000  1.0
  H  H15  1  0.31851000  0.58282000  0.99954000  1.0
  H  H16  1  0.81282000  0.26413000  0.64225000  1.0
  H  H17  1  0.68719000  0.26413000  0.14225000  1.0
  H  H18  1  0.18719000  0.73587000  0.35775000  1.0
  H  H19  1  0.31283000  0.73587000  0.85775000  1.0
  H  H20  1  0.22878000  0.04517000  0.51886000  1.0
  H  H21  1  0.27124000  0.04516000  0.01887000  1.0
  H  H22  1  0.77121000  0.95484000  0.48114000  1.0
  H  H23  1  0.72878000  0.95484000  0.98113000  1.0
  H  H24  1  0.57870000  0.07505000  0.56615000  1.0
  H  H25  1  0.92131000  0.07504000  0.06616000  1.0
  H  H26  1  0.42130000  0.92495000  0.43385000  1.0
  H  H27  1  0.07871000  0.92496000  0.93384000  1.0
  H  H28  1  0.53553000  0.11866000  0.44414000  1.0
  H  H29  1  0.96448000  0.11866000  0.94415000  1.0
  H  H30  1  0.46447000  0.88134000  0.55586000  1.0
  H  H31  1  0.03553000  0.88134000  0.05585000  1.0
  C  C32  1  0.23614000  0.19023000  0.50741000  1.0
  C  C33  1  0.26386000  0.19023000  0.00741000  1.0
  C  C34  1  0.76385000  0.80977000  0.49259000  1.0
  C  C35  1  0.73615000  0.80977000  0.99259000  1.0
  C  C36  1  0.23231000  0.27572000  0.42858000  1.0
  C  C37  1  0.26768000  0.27571000  0.92858000  1.0
  C  C38  1  0.76767000  0.72429000  0.57142000  1.0
  C  C39  1  0.73233000  0.72428000  0.07142000  1.0
  C  C40  1  0.93825000  0.35209000  0.50216000  1.0
  C  C41  1  0.56175000  0.35209000  0.00216000  1.0
  C  C42  1  0.06174000  0.64791000  0.49784000  1.0
  C  C43  1  0.43826000  0.64791000  0.99783000  1.0
  C  C44  1  0.93619000  0.26751000  0.58051000  1.0
  C  C45  1  0.56381000  0.26751000  0.08051000  1.0
  C  C46  1  0.06379000  0.73249000  0.41949000  1.0
  C  C47  1  0.43620000  0.73249000  0.91949000  1.0
  C  C48  1  0.40608000  0.10308000  0.50861000  1.0
  C  C49  1  0.09392000  0.10307000  0.00861000  1.0
  C  C50  1  0.59389000  0.89692000  0.49139000  1.0
  C  C51  1  0.90609000  0.89693000  0.99139000  1.0
  I  I52  1  0.55695000  0.10441000  0.79477000  1.0
  I  I53  1  0.94304000  0.10441000  0.29477000  1.0
  I  I54  1  0.44304000  0.89559000  0.20523000  1.0
  I  I55  1  0.05697000  0.89559000  0.70523000  1.0
  I  I56  1  0.08802000  0.41649000  0.17738000  1.0
  I  I57  1  0.41199000  0.41648000  0.67738000  1.0
  I  I58  1  0.91198000  0.58351000  0.82262000  1.0
  I  I59  1  0.58800000  0.58351000  0.32262000  1.0
  N  N60  1  0.08023000  0.18580000  0.58420000  1.0
  N  N61  1  0.41977000  0.18579000  0.08420000  1.0
  N  N62  1  0.91977000  0.81420000  0.41580000  1.0
  N  N63  1  0.58024000  0.81421000  0.91580000  1.0
  N  N64  1  0.08338000  0.35652000  0.42480000  1.0
  N  N65  1  0.41660000  0.35652000  0.92481000  1.0
  N  N66  1  0.91660000  0.64348000  0.57520000  1.0
  N  N67  1  0.58341000  0.64348000  0.07519000  1.0
