# generated using pymatgen
data_AlH10C12O5
_symmetry_space_group_name_H-M   'P 1'
_cell_length_a   6.57585000
_cell_length_b   11.00647299
_cell_length_c   11.04930000
_cell_angle_alpha   87.23338871
_cell_angle_beta   73.22610000
_cell_angle_gamma   73.96168221
_symmetry_Int_Tables_number   1
_chemical_formula_structural   AlH10C12O5
_chemical_formula_sum   'Al2 H20 C24 O10'
_cell_volume   735.45416712
_cell_formula_units_Z   2
loop_
 _symmetry_equiv_pos_site_id
 _symmetry_equiv_pos_as_xyz
  1  'x, y, z'
loop_
 _atom_site_type_symbol
 _atom_site_label
 _atom_site_symmetry_multiplicity
 _atom_site_fract_x
 _atom_site_fract_y
 _atom_site_fract_z
 _atom_site_occupancy
  Al  Al0  1  0.00142000  0.50219000  0.50211000  1.0
  Al  Al1  1  0.50153000  0.50213000  0.50227000  1.0
  H  H2  1  0.35965000  0.34897000  0.43410000  1.0
  H  H3  1  0.64546000  0.65734000  0.56270000  1.0
  H  H4  1  0.59846000  0.57224000  0.11553000  1.0
  H  H5  1  0.40318000  0.44198000  0.88915000  1.0
  H  H6  1  0.73026000  0.57291000  0.87761000  1.0
  H  H7  1  0.27143000  0.44124000  0.12714000  1.0
  H  H8  1  0.52482000  0.22962000  0.67766000  1.0
  H  H9  1  0.78186000  0.76142000  0.66320000  1.0
  H  H10  1  0.42756000  0.90391000  0.22851000  1.0
  H  H11  1  0.45964000  0.76936000  0.32349000  1.0
  H  H12  1  0.56322000  0.89611000  0.34630000  1.0
  H  H13  1  0.43149000  0.13731000  0.37193000  1.0
  H  H14  1  0.20094000  0.24342000  0.33377000  1.0
  H  H15  1  0.34757000  0.10205000  0.24322000  1.0
  H  H16  1  0.08787000  0.10621000  0.80348000  1.0
  H  H17  1  0.19692000  0.23010000  0.82985000  1.0
  H  H18  1  0.20405000  0.09867000  0.93022000  1.0
  H  H19  1  0.34006000  0.86689000  0.92213000  1.0
  H  H20  1  0.45250000  0.74568000  0.80116000  1.0
  H  H21  1  0.21321000  0.86963000  0.80084000  1.0
  C  C22  1  0.86134000  0.27552000  0.51464000  1.0
  C  C23  1  0.85148000  0.50297000  0.27456000  1.0
  C  C24  1  0.14256000  0.72850000  0.48882000  1.0
  C  C25  1  0.15043000  0.50535000  0.72990000  1.0
  C  C26  1  0.92806000  0.50629000  0.13398000  1.0
  C  C27  1  0.07359000  0.50707000  0.87069000  1.0
  C  C28  1  0.77398000  0.54405000  0.06479000  1.0
  C  C29  1  0.22774000  0.47048000  0.93995000  1.0
  C  C30  1  0.84660000  0.54447000  0.93354000  1.0
  C  C31  1  0.15511000  0.46998000  0.07119000  1.0
  C  C32  1  0.93321000  0.13420000  0.50823000  1.0
  C  C33  1  0.78988000  0.06635000  0.58611000  1.0
  C  C34  1  0.13718000  0.07253000  0.42570000  1.0
  C  C35  1  0.58117000  0.12661000  0.67139000  1.0
  C  C36  1  0.44461000  0.05930000  0.74583000  1.0
  C  C37  1  0.07197000  0.86972000  0.49468000  1.0
  C  C38  1  0.20797000  0.93728000  0.41838000  1.0
  C  C39  1  0.86226000  0.93116000  0.58012000  1.0
  C  C40  1  0.72362000  0.86412000  0.66152000  1.0
  C  C41  1  0.51803000  0.92406000  0.74080000  1.0
  C  C42  1  0.42495000  0.87237000  0.32488000  1.0
  C  C43  1  0.28496000  0.14358000  0.33980000  1.0
  C  C44  1  0.22240000  0.12740000  0.83166000  1.0
  C  C45  1  0.37441000  0.84744000  0.82027000  1.0
  O  O46  1  0.98569000  0.33297000  0.54321000  1.0
  O  O47  1  0.64409000  0.52806000  0.32729000  1.0
  O  O48  1  0.32071000  0.67357000  0.51614000  1.0
  O  O49  1  0.00176000  0.53259000  0.67242000  1.0
  O  O50  1  0.01763000  0.67134000  0.46048000  1.0
  O  O51  1  0.35808000  0.47793000  0.67724000  1.0
  O  O52  1  0.68177000  0.33046000  0.48865000  1.0
  O  O53  1  0.00048000  0.47278000  0.33180000  1.0
  O  O54  1  0.30633000  0.43999000  0.44874000  1.0
  O  O55  1  0.69626000  0.56557000  0.55536000  1.0
