# generated using pymatgen
data_ZnH5C13Br2NO5
_symmetry_space_group_name_H-M   'P 1'
_cell_length_a   10.59900000
_cell_length_b   11.89680000
_cell_length_c   17.39710000
_cell_angle_alpha   93.66850000
_cell_angle_beta   98.54960000
_cell_angle_gamma   90.09270000
_symmetry_Int_Tables_number   1
_chemical_formula_structural   ZnH5C13Br2NO5
_chemical_formula_sum   'Zn2 H10 C26 Br4 N2 O10'
_cell_volume   2164.71330953
_cell_formula_units_Z   2
loop_
 _symmetry_equiv_pos_site_id
 _symmetry_equiv_pos_as_xyz
  1  'x, y, z'
loop_
 _atom_site_type_symbol
 _atom_site_label
 _atom_site_symmetry_multiplicity
 _atom_site_fract_x
 _atom_site_fract_y
 _atom_site_fract_z
 _atom_site_occupancy
  Zn  Zn0  1  0.36860000  0.49969000  0.49724000  1.0
  Zn  Zn1  1  0.63163000  0.50022000  0.50259000  1.0
  H  H2  1  0.61474000  0.36313000  0.26537000  1.0
  H  H3  1  0.26498000  0.26260000  0.93503000  1.0
  H  H4  1  0.38358000  0.63761000  0.73281000  1.0
  H  H5  1  0.30571000  0.58374000  0.09459000  1.0
  H  H6  1  0.69547000  0.42429000  0.90685000  1.0
  H  H7  1  0.62470000  0.75445000  0.97393000  1.0
  H  H8  1  0.75720000  0.65950000  0.98033000  1.0
  H  H9  1  0.73040000  0.74692000  0.06416000  1.0
  H  H10  1  0.23816000  0.35324000  0.01738000  1.0
  H  H11  1  0.36674000  0.25422000  0.02663000  1.0
  C  C12  1  0.50029000  0.28090000  0.49954000  1.0
  C  C13  1  0.52579000  0.51266000  0.65108000  1.0
  C  C14  1  0.46015000  0.48010000  0.26127000  1.0
  C  C15  1  0.53999000  0.52245000  0.73858000  1.0
  C  C16  1  0.54479000  0.40885000  0.22730000  1.0
  C  C17  1  0.45403000  0.59345000  0.77159000  1.0
  C  C18  1  0.54122000  0.39883000  0.14703000  1.0
  C  C19  1  0.45701000  0.60521000  0.85177000  1.0
  C  C20  1  0.45632000  0.46245000  0.09782000  1.0
  C  C21  1  0.54273000  0.54364000  0.90190000  1.0
  C  C22  1  0.37101000  0.53263000  0.13185000  1.0
  C  C23  1  0.49979000  0.71906000  0.50027000  1.0
  C  C24  1  0.62952000  0.47388000  0.86885000  1.0
  C  C25  1  0.37127000  0.54046000  0.21228000  1.0
  C  C26  1  0.62976000  0.46426000  0.78849000  1.0
  C  C27  1  0.46199000  0.46492000  0.01336000  1.0
  C  C28  1  0.53645000  0.54212000  0.98635000  1.0
  C  C29  1  0.68411000  0.69841000  0.01192000  1.0
  C  C30  1  0.31114000  0.31103000  0.98734000  1.0
  C  C31  1  0.50029000  0.15957000  0.49998000  1.0
  C  C32  1  0.49990000  0.84040000  0.49988000  1.0
  C  C33  1  0.50027000  0.05673000  0.49995000  1.0
  C  C34  1  0.50003000  0.94323000  0.49992000  1.0
  C  C35  1  0.93658000  0.50047000  0.50210000  1.0
  C  C36  1  0.06368000  0.49988000  0.49786000  1.0
  C  C37  1  0.47462000  0.48812000  0.34877000  1.0
  Br  Br38  1  0.74810000  0.36219000  0.75095000  1.0
  Br  Br39  1  0.25509000  0.64320000  0.25140000  1.0
  Br  Br40  1  0.33920000  0.70403000  0.89340000  1.0
  Br  Br41  1  0.65730000  0.29986000  0.10390000  1.0
  N  N42  1  0.82767000  0.50093000  0.50592000  1.0
  N  N43  1  0.17258000  0.49927000  0.49397000  1.0
  O  O44  1  0.39236000  0.32824000  0.49839000  1.0
  O  O45  1  0.39213000  0.39081000  0.95948000  1.0
  O  O46  1  0.60765000  0.67165000  0.50124000  1.0
  O  O47  1  0.60830000  0.32850000  0.50019000  1.0
  O  O48  1  0.39179000  0.67153000  0.49978000  1.0
  O  O49  1  0.37387000  0.48978000  0.38016000  1.0
  O  O50  1  0.62659000  0.51065000  0.61974000  1.0
  O  O51  1  0.58908000  0.49042000  0.38373000  1.0
  O  O52  1  0.41135000  0.50951000  0.61605000  1.0
  O  O53  1  0.60810000  0.61502000  0.04022000  1.0
