# generated using pymatgen
data_ErPH4C2SO6
_symmetry_space_group_name_H-M   'P 1'
_cell_length_a   5.45352000
_cell_length_b   7.75080000
_cell_length_c   8.61962000
_cell_angle_alpha   90.00060000
_cell_angle_beta   90.00140000
_cell_angle_gamma   97.92280000
_symmetry_Int_Tables_number   1
_chemical_formula_structural   ErPH4C2SO6
_chemical_formula_sum   'Er2 P2 H8 C4 S2 O12'
_cell_volume   360.86617301
_cell_formula_units_Z   2
loop_
 _symmetry_equiv_pos_site_id
 _symmetry_equiv_pos_as_xyz
  1  'x, y, z'
loop_
 _atom_site_type_symbol
 _atom_site_label
 _atom_site_symmetry_multiplicity
 _atom_site_fract_x
 _atom_site_fract_y
 _atom_site_fract_z
 _atom_site_occupancy
  Er  Er0  1  0.74175000  0.60867000  0.76185000  1.0
  Er  Er1  1  0.24176000  0.10866000  0.23816000  1.0
  P  P2  1  0.17644000  0.34173000  0.88314000  1.0
  P  P3  1  0.67645000  0.84172000  0.11687000  1.0
  H  H4  1  0.06879000  0.19243000  0.64675000  1.0
  H  H5  1  0.56875000  0.69240000  0.35324000  1.0
  H  H6  1  0.97026000  0.06007000  0.81114000  1.0
  H  H7  1  0.47027000  0.56006000  0.18883000  1.0
  H  H8  1  0.51612000  0.14815000  0.70491000  1.0
  H  H9  1  0.01613000  0.64816000  0.29507000  1.0
  H  H10  1  0.40511000  0.00351000  0.85961000  1.0
  H  H11  1  0.90512000  0.50350000  0.14039000  1.0
  C  C12  1  0.12445000  0.14914000  0.76128000  1.0
  C  C13  1  0.62444000  0.64914000  0.23871000  1.0
  C  C14  1  0.35597000  0.06003000  0.74873000  1.0
  C  C15  1  0.85597000  0.56003000  0.25127000  1.0
  S  S16  1  0.31378000  0.88274000  0.61605000  1.0
  S  S17  1  0.81377000  0.38276000  0.38395000  1.0
  O  O18  1  0.39279000  0.46261000  0.81160000  1.0
  O  O19  1  0.89278000  0.96261000  0.18842000  1.0
  O  O20  1  0.93625000  0.42438000  0.88166000  1.0
  O  O21  1  0.43623000  0.92435000  0.11835000  1.0
  O  O22  1  0.23863000  0.28572000  0.04781000  1.0
  O  O23  1  0.73863000  0.78573000  0.95219000  1.0
  O  O24  1  0.54434000  0.80298000  0.61573000  1.0
  O  O25  1  0.04438000  0.30299000  0.38426000  1.0
  O  O26  1  0.26578000  0.95197000  0.46182000  1.0
  O  O27  1  0.76582000  0.45200000  0.53819000  1.0
  O  O28  1  0.10021000  0.76136000  0.67022000  1.0
  O  O29  1  0.60022000  0.26137000  0.32980000  1.0
