# generated using pymatgen
data_Zn4H4C24S4Br2Cl2O13
_symmetry_space_group_name_H-M   'P 1'
_cell_length_a   19.69570000
_cell_length_b   19.73290000
_cell_length_c   33.40730000
_cell_angle_alpha   78.97840000
_cell_angle_beta   79.08420000
_cell_angle_gamma   63.86500000
_symmetry_Int_Tables_number   1
_chemical_formula_structural   Zn4H4C24S4Br2Cl2O13
_chemical_formula_sum   'Zn16 H16 C96 S16 Br8 Cl8 O52'
_cell_volume   11359.61654411
_cell_formula_units_Z   4
loop_
 _symmetry_equiv_pos_site_id
 _symmetry_equiv_pos_as_xyz
  1  'x, y, z'
loop_
 _atom_site_type_symbol
 _atom_site_label
 _atom_site_symmetry_multiplicity
 _atom_site_fract_x
 _atom_site_fract_y
 _atom_site_fract_z
 _atom_site_occupancy
  Zn  Zn0  1  0.05570000  0.40027000  0.47798000  1.0
  Zn  Zn1  1  0.98586000  0.48420000  0.56026000  1.0
  Zn  Zn2  1  0.05775000  0.56206000  0.48182000  1.0
  Zn  Zn3  1  0.90015000  0.55483000  0.48029000  1.0
  Zn  Zn4  1  0.69525000  0.34944000  0.27182000  1.0
  Zn  Zn5  1  0.68841000  0.19051000  0.26605000  1.0
  Zn  Zn6  1  0.77010000  0.26559000  0.19011000  1.0
  Zn  Zn7  1  0.84736000  0.19302000  0.27213000  1.0
  Zn  Zn8  1  0.26610000  0.76636000  0.68950000  1.0
  Zn  Zn9  1  0.34895000  0.69768000  0.77181000  1.0
  Zn  Zn10  1  0.19175000  0.84881000  0.77135000  1.0
  Zn  Zn11  1  0.19283000  0.68754000  0.76805000  1.0
  Zn  Zn12  1  0.56038000  0.06049000  0.98398000  1.0
  Zn  Zn13  1  0.40135000  0.05453000  0.97751000  1.0
  Zn  Zn14  1  0.55691000  0.90140000  0.97899000  1.0
  Zn  Zn15  1  0.48219000  0.98175000  0.05997000  1.0
  H  H16  1  0.75058000  0.44827000  0.34889000  1.0
  H  H17  1  0.00004000  0.30203000  0.40074000  1.0
  H  H18  1  0.20191000  0.69986000  0.60152000  1.0
  H  H19  1  0.04921000  0.55148000  0.64784000  1.0
  H  H20  1  0.46373000  0.23984000  0.34117000  1.0
  H  H21  1  0.47992000  0.70285000  0.60100000  1.0
  H  H22  1  0.20377000  0.97915000  0.60103000  1.0
  H  H23  1  0.94654000  0.97025000  0.34754000  1.0
  H  H24  1  0.64763000  0.14875000  0.04966000  1.0
  H  H25  1  0.60206000  0.10115000  0.20043000  1.0
  H  H26  1  0.54660000  0.77009000  0.14869000  1.0
  H  H27  1  0.16141000  0.14263000  0.04012000  1.0
  H  H28  1  0.30238000  0.99989000  0.90114000  1.0
  H  H29  1  0.44659000  0.75137000  0.84900000  1.0
  H  H30  1  0.30086000  0.28093000  0.90196000  1.0
  H  H31  1  0.78745000  0.01111000  0.90833000  1.0
  C  C32  1  0.06189000  0.31651000  0.56158000  1.0
  C  C33  1  0.07016000  0.57185000  0.56755000  1.0
  C  C34  1  0.18338000  0.43940000  0.43844000  1.0
  C  C35  1  0.93567000  0.68437000  0.43871000  1.0
  C  C36  1  0.92922000  0.43195000  0.43132000  1.0
  C  C37  1  0.81748000  0.56101000  0.56318000  1.0
  C  C38  1  0.56586000  0.31123000  0.31128000  1.0
  C  C39  1  0.68280000  0.18099000  0.17983000  1.0
  C  C40  1  0.69009000  0.43304000  0.18843000  1.0
  C  C41  1  0.93585000  0.18709000  0.18984000  1.0
  C  C42  1  0.82061000  0.31751000  0.31918000  1.0
  C  C43  1  0.80986000  0.06540000  0.31102000  1.0
  C  C44  1  0.43320000  0.68967000  0.68801000  1.0
  C  C45  1  0.31584000  0.82251000  0.81916000  1.0
  C  C46  1  0.18819000  0.93337000  0.68789000  1.0
  C  C47  1  0.06573000  0.80914000  0.81134000  1.0
  C  C48  1  0.18108000  0.67922000  0.68187000  1.0
  C  C49  1  0.31512000  0.56624000  0.81197000  1.0
  C  C50  1  0.43796000  0.18369000  0.93864000  1.0
  C  C51  1  0.43311000  0.92865000  0.93098000  1.0
  C  C52  1  0.68462000  0.94032000  0.93919000  1.0
  C  C53  1  0.56131000  0.81558000  0.06192000  1.0
  C  C54  1  0.56793000  0.06792000  0.07025000  1.0
  C  C55  1  0.31502000  0.06139000  0.06026000  1.0
  C  C56  1  0.89874000  0.40574000  0.40219000  1.0
  C  C57  1  0.85170000  0.34438000  0.34764000  1.0
  C  C58  1  0.82740000  0.44741000  0.38700000  1.0
  C  C59  1  0.92331000  0.30300000  0.36254000  1.0
  C  C60  1  0.80560000  0.41613000  0.36041000  1.0
  C  C61  1  0.94498000  0.33415000  0.38926000  1.0
  C  C62  1  0.10017000  0.60099000  0.59540000  1.0
  C  C63  1  0.15093000  0.65035000  0.65395000  1.0
  C  C64  1  0.14402000  0.64355000  0.58237000  1.0
  C  C65  1  0.10705000  0.60781000  0.66698000  1.0
  C  C66  1  0.16817000  0.66710000  0.61160000  1.0
  C  C67  1  0.08290000  0.58428000  0.63774000  1.0
  C  C68  1  0.30466000  0.45450000  0.40094000  1.0
  C  C69  1  0.44653000  0.29657000  0.34906000  1.0
  C  C70  1  0.25853000  0.41565000  0.41394000  1.0
  C  C71  1  0.49114000  0.33661000  0.33643000  1.0
  C  C72  1  0.37838000  0.33944000  0.37269000  1.0
  C  C73  1  0.37288000  0.41124000  0.37745000  1.0
  C  C74  1  0.72576000  0.57526000  0.63105000  1.0
  C  C75  1  0.52428000  0.67366000  0.62122000  1.0
  C  C76  1  0.74333000  0.58472000  0.58861000  1.0
  C  C77  1  0.50850000  0.66381000  0.66355000  1.0
  C  C78  1  0.60367000  0.64132000  0.60922000  1.0
  C  C79  1  0.64628000  0.60750000  0.64286000  1.0
  C  C80  1  0.07624000  0.22526000  0.62965000  1.0
  C  C81  1  0.17437000  0.02381000  0.62093000  1.0
  C  C82  1  0.08602000  0.24238000  0.58714000  1.0
  C  C83  1  0.16356000  0.00851000  0.66326000  1.0
  C  C84  1  0.14244000  0.10300000  0.60853000  1.0
  C  C85  1  0.10818000  0.14598000  0.64189000  1.0
  C  C86  1  0.84067000  0.80127000  0.39713000  1.0
  C  C87  1  0.90229000  0.94975000  0.35221000  1.0
  C  C88  1  0.90914000  0.75879000  0.41366000  1.0
  C  C89  1  0.83372000  0.99077000  0.33604000  1.0
  C  C90  1  0.90502000  0.88044000  0.37456000  1.0
  C  C91  1  0.83820000  0.87059000  0.37483000  1.0
  C  C92  1  0.65437000  0.15377000  0.15021000  1.0
  C  C93  1  0.59567000  0.09580000  0.09988000  1.0
  C  C94  1  0.66693000  0.16738000  0.10693000  1.0
  C  C95  1  0.58269000  0.08262000  0.14317000  1.0
  C  C96  1  0.63775000  0.13830000  0.08296000  1.0
  C  C97  1  0.61208000  0.11148000  0.16714000  1.0
  C  C98  1  0.67430000  0.52390000  0.12026000  1.0
  C  C99  1  0.57589000  0.72535000  0.12884000  1.0
  C  C100  1  0.66507000  0.50700000  0.16279000  1.0
  C  C101  1  0.58638000  0.74048000  0.08648000  1.0
  C  C102  1  0.60807000  0.64622000  0.14130000  1.0
  C  C103  1  0.64207000  0.60314000  0.10796000  1.0
  C  C104  1  0.08338000  0.12318000  0.17809000  1.0
  C  C105  1  0.16949000  0.12569000  0.07242000  1.0
  C  C106  1  0.01103000  0.16218000  0.16553000  1.0
  C  C107  1  0.24079000  0.08653000  0.08571000  1.0
  C  C108  1  0.11184000  0.13918000  0.10613000  1.0
  C  C109  1  0.14092000  0.10993000  0.14429000  1.0
  C  C110  1  0.34295000  0.85282000  0.84790000  1.0
  C  C111  1  0.40590000  0.89836000  0.90230000  1.0
  C  C112  1  0.30198000  0.92402000  0.86300000  1.0
  C  C113  1  0.44689000  0.82713000  0.88721000  1.0
  C  C114  1  0.33400000  0.94502000  0.88959000  1.0
  C  C115  1  0.41488000  0.80617000  0.86060000  1.0
  C  C116  1  0.40963000  0.44781000  0.85325000  1.0
  C  C117  1  0.34573000  0.30055000  0.89749000  1.0
  C  C118  1  0.34138000  0.49132000  0.83665000  1.0
  C  C119  1  0.41413000  0.25854000  0.91372000  1.0
  C  C120  1  0.34393000  0.36974000  0.87533000  1.0
  C  C121  1  0.41123000  0.37855000  0.87528000  1.0
  C  C122  1  0.94430000  0.79484000  0.84943000  1.0
  C  C123  1  0.80404000  0.95428000  0.90077000  1.0
  C  C124  1  0.99084000  0.83311000  0.83599000  1.0
  C  C125  1  0.75901000  0.91481000  0.91388000  1.0
  C  C126  1  0.87177000  0.91061000  0.87715000  1.0
  C  C127  1  0.87646000  0.83885000  0.87290000  1.0
  S  S128  1  0.29928000  0.32589000  0.39735000  1.0
  S  S129  1  0.45113000  0.42610000  0.35304000  1.0
  S  S130  1  0.66212000  0.63300000  0.56326000  1.0
  S  S131  1  0.58916000  0.61545000  0.68907000  1.0
  S  S132  1  0.13464000  0.16089000  0.56231000  1.0
  S  S133  1  0.11494000  0.08943000  0.68834000  1.0
  S  S134  1  0.97045000  0.80395000  0.40174000  1.0
  S  S135  1  0.77224000  0.94610000  0.34771000  1.0
  S  S136  1  0.61639000  0.58852000  0.18757000  1.0
  S  S137  1  0.63492000  0.65951000  0.06145000  1.0
  S  S138  1  0.01376000  0.18285000  0.11227000  1.0
  S  S139  1  0.23873000  0.06593000  0.13884000  1.0
  S  S140  1  0.27924000  0.44702000  0.84813000  1.0
  S  S141  1  0.47653000  0.30223000  0.90234000  1.0
  S  S142  1  0.95104000  0.92325000  0.85205000  1.0
  S  S143  1  0.79798000  0.82499000  0.89777000  1.0
  Br  Br144  1  0.28461000  0.55199000  0.41167000  1.0
  Br  Br145  1  0.79458000  0.52661000  0.67030000  1.0
  Br  Br146  1  0.02759000  0.29426000  0.66865000  1.0
  Br  Br147  1  0.75881000  0.77461000  0.40166000  1.0
  Br  Br148  1  0.72206000  0.45471000  0.08133000  1.0
  Br  Br149  1  0.10758000  0.09049000  0.23223000  1.0
  Br  Br150  1  0.49253000  0.47283000  0.84884000  1.0
  Br  Br151  1  0.96364000  0.69740000  0.83903000  1.0
  Cl  Cl152  1  0.76315000  0.53678000  0.39881000  1.0
  Cl  Cl153  1  0.98849000  0.21450000  0.34983000  1.0
  Cl  Cl154  1  0.17136000  0.66904000  0.53168000  1.0
  Cl  Cl155  1  0.07976000  0.58212000  0.71764000  1.0
  Cl  Cl156  1  0.71634000  0.21917000  0.08050000  1.0
  Cl  Cl157  1  0.53173000  0.03238000  0.16964000  1.0
  Cl  Cl158  1  0.21309000  0.98925000  0.85068000  1.0
  Cl  Cl159  1  0.53598000  0.76207000  0.89929000  1.0
  O  O160  1  0.00075000  0.49892000  0.49990000  1.0
  O  O161  1  0.07788000  0.31476000  0.52264000  1.0
  O  O162  1  0.03482000  0.53112000  0.58516000  1.0
  O  O163  1  0.15380000  0.50586000  0.44939000  1.0
  O  O164  1  0.02752000  0.37547000  0.58021000  1.0
  O  O165  1  0.15439000  0.39077000  0.44647000  1.0
  O  O166  1  0.08173000  0.58973000  0.52912000  1.0
  O  O167  1  0.00347000  0.65804000  0.44835000  1.0
  O  O168  1  0.88656000  0.49580000  0.44407000  1.0
  O  O169  1  0.88981000  0.65268000  0.44871000  1.0
  O  O170  1  0.99584000  0.38744000  0.44098000  1.0
  O  O171  1  0.87715000  0.52677000  0.58142000  1.0
  O  O172  1  0.81488000  0.57759000  0.52430000  1.0
  O  O173  1  0.74898000  0.25044000  0.25030000  1.0
  O  O174  1  0.59720000  0.35779000  0.30342000  1.0
  O  O175  1  0.66254000  0.16630000  0.21796000  1.0
  O  O176  1  0.72689000  0.37404000  0.16997000  1.0
  O  O177  1  0.59247000  0.24535000  0.29965000  1.0
  O  O178  1  0.67254000  0.43489000  0.22732000  1.0
  O  O179  1  0.72457000  0.21589000  0.16496000  1.0
  O  O180  1  0.87877000  0.22430000  0.16933000  1.0
  O  O181  1  0.86118000  0.25159000  0.30849000  1.0
  O  O182  1  0.93349000  0.16979000  0.22865000  1.0
  O  O183  1  0.75537000  0.36339000  0.30811000  1.0
  O  O184  1  0.74364000  0.09351000  0.29916000  1.0
  O  O185  1  0.85746000  0.09525000  0.30338000  1.0
  O  O186  1  0.25023000  0.75033000  0.74983000  1.0
  O  O187  1  0.37509000  0.72407000  0.66836000  1.0
  O  O188  1  0.36233000  0.75787000  0.80779000  1.0
  O  O189  1  0.17093000  0.93344000  0.72680000  1.0
  O  O190  1  0.43326000  0.67509000  0.72703000  1.0
  O  O191  1  0.22423000  0.87532000  0.66844000  1.0
  O  O192  1  0.24964000  0.86271000  0.80851000  1.0
  O  O193  1  0.09355000  0.85873000  0.80252000  1.0
  O  O194  1  0.16846000  0.66195000  0.72028000  1.0
  O  O195  1  0.09647000  0.74216000  0.80101000  1.0
  O  O196  1  0.21748000  0.71904000  0.66440000  1.0
  O  O197  1  0.35989000  0.59927000  0.80342000  1.0
  O  O198  1  0.24820000  0.59165000  0.80123000  1.0
  O  O199  1  0.49973000  0.00057000  0.99981000  1.0
  O  O200  1  0.50415000  0.15620000  0.95047000  1.0
  O  O201  1  0.38808000  0.99465000  0.94112000  1.0
  O  O202  1  0.65427000  0.89293000  0.94758000  1.0
  O  O203  1  0.39094000  0.15310000  0.94619000  1.0
  O  O204  1  0.65715000  0.00654000  0.95050000  1.0
  O  O205  1  0.49808000  0.88693000  0.94285000  1.0
  O  O206  1  0.57964000  0.81597000  0.02303000  1.0
  O  O207  1  0.52997000  0.02909000  0.08517000  1.0
  O  O208  1  0.52371000  0.87343000  0.08139000  1.0
  O  O209  1  0.58514000  0.08573000  0.03208000  1.0
  O  O210  1  0.31489000  0.07783000  0.02139000  1.0
  O  O211  1  0.37329000  0.02490000  0.07982000  1.0
