# generated using pymatgen
data_ZnH11C33N5O9
_symmetry_space_group_name_H-M   'P 1'
_cell_length_a   14.13880000
_cell_length_b   15.10340000
_cell_length_c   23.77280000
_cell_angle_alpha   88.10990000
_cell_angle_beta   89.84950000
_cell_angle_gamma   89.17020000
_symmetry_Int_Tables_number   1
_chemical_formula_structural   ZnH11C33N5O9
_chemical_formula_sum   'Zn2 H22 C66 N10 O18'
_cell_volume   5073.23183452
_cell_formula_units_Z   2
loop_
 _symmetry_equiv_pos_site_id
 _symmetry_equiv_pos_as_xyz
  1  'x, y, z'
loop_
 _atom_site_type_symbol
 _atom_site_label
 _atom_site_symmetry_multiplicity
 _atom_site_fract_x
 _atom_site_fract_y
 _atom_site_fract_z
 _atom_site_occupancy
  Zn  Zn0  1  0.39631000  0.50341000  0.49984000  1.0
  Zn  Zn1  1  0.60380000  0.49660000  0.50019000  1.0
  H  H2  1  0.42756000  0.28282000  0.96173000  1.0
  H  H3  1  0.57234000  0.71722000  0.03829000  1.0
  H  H4  1  0.43206000  0.29402000  0.06769000  1.0
  H  H5  1  0.56786000  0.70600000  0.93234000  1.0
  H  H6  1  0.65707000  0.52710000  0.21425000  1.0
  H  H7  1  0.64778000  0.47884000  0.78678000  1.0
  H  H8  1  0.65611000  0.53402000  0.31771000  1.0
  H  H9  1  0.65049000  0.47044000  0.68333000  1.0
  H  H10  1  0.34954000  0.52973000  0.31675000  1.0
  H  H11  1  0.34394000  0.46579000  0.68228000  1.0
  H  H12  1  0.35215000  0.52133000  0.21331000  1.0
  H  H13  1  0.34287000  0.47274000  0.78573000  1.0
  H  H14  1  0.37790000  0.77815000  0.56024000  1.0
  H  H15  1  0.62210000  0.22185000  0.43975000  1.0
  H  H16  1  0.30544000  0.91960000  0.58544000  1.0
  H  H17  1  0.69452000  0.08044000  0.41454000  1.0
  H  H18  1  0.31735000  0.54749000  0.40712000  1.0
  H  H19  1  0.68280000  0.45261000  0.59292000  1.0
  H  H20  1  0.31847000  0.44996000  0.59104000  1.0
  H  H21  1  0.68167000  0.54987000  0.40896000  1.0
  H  H22  1  0.67991000  0.79063000  0.42682000  1.0
  H  H23  1  0.31987000  0.20945000  0.57301000  1.0
  C  C24  1  0.50264000  0.33382000  0.48730000  1.0
  C  C25  1  0.49739000  0.66621000  0.51270000  1.0
  C  C26  1  0.59013000  0.52741000  0.23704000  1.0
  C  C27  1  0.58172000  0.47553000  0.76352000  1.0
  C  C28  1  0.58909000  0.53164000  0.29538000  1.0
  C  C29  1  0.58280000  0.47086000  0.70526000  1.0
  C  C30  1  0.50265000  0.53199000  0.32472000  1.0
  C  C31  1  0.49740000  0.46801000  0.67532000  1.0
  C  C32  1  0.41721000  0.52925000  0.29480000  1.0
  C  C33  1  0.41093000  0.46826000  0.70463000  1.0
  C  C34  1  0.41823000  0.52458000  0.23654000  1.0
  C  C35  1  0.40983000  0.47251000  0.76296000  1.0
  C  C36  1  0.50466000  0.52307000  0.20811000  1.0
  C  C37  1  0.49525000  0.47696000  0.79192000  1.0
  C  C38  1  0.57183000  0.80917000  0.47654000  1.0
  C  C39  1  0.42805000  0.19087000  0.52337000  1.0
  C  C40  1  0.50136000  0.76521000  0.50897000  1.0
  C  C41  1  0.49859000  0.23481000  0.49099000  1.0
  C  C42  1  0.43229000  0.81368000  0.53645000  1.0
  C  C43  1  0.56767000  0.18634000  0.46351000  1.0
  C  C44  1  0.43089000  0.90649000  0.53377000  1.0
  C  C45  1  0.56903000  0.09353000  0.46617000  1.0
  C  C46  1  0.50122000  0.53110000  0.38699000  1.0
  C  C47  1  0.49890000  0.46890000  0.61305000  1.0
  C  C48  1  0.50150000  0.95262000  0.50162000  1.0
  C  C49  1  0.49841000  0.04742000  0.49832000  1.0
  C  C50  1  0.57333000  0.90355000  0.47305000  1.0
  C  C51  1  0.42657000  0.09649000  0.52688000  1.0
  C  C52  1  0.35946000  0.95537000  0.56148000  1.0
  C  C53  1  0.64047000  0.04467000  0.43846000  1.0
  C  C54  1  0.35609000  0.04664000  0.55842000  1.0
  C  C55  1  0.64384000  0.95340000  0.44152000  1.0
  C  C56  1  0.20038000  0.52486000  0.45225000  1.0
  C  C57  1  0.79976000  0.47503000  0.54774000  1.0
  C  C58  1  0.20122000  0.47181000  0.54632000  1.0
  C  C59  1  0.79891000  0.52805000  0.45367000  1.0
  C  C60  1  0.10092000  0.47631000  0.54987000  1.0
  C  C61  1  0.89920000  0.52352000  0.45012000  1.0
  C  C62  1  0.10010000  0.52148000  0.44931000  1.0
  C  C63  1  0.90003000  0.47836000  0.55068000  1.0
  C  C64  1  0.05060000  0.49941000  0.49978000  1.0
  C  C65  1  0.94952000  0.50041000  0.50020000  1.0
  C  C66  1  0.05033000  0.46075000  0.60185000  1.0
  C  C67  1  0.94979000  0.53912000  0.39814000  1.0
  C  C68  1  0.04862000  0.53817000  0.39774000  1.0
  C  C69  1  0.95150000  0.46171000  0.60225000  1.0
  C  C70  1  0.52110000  0.56628000  0.87360000  1.0
  C  C71  1  0.47878000  0.43375000  0.12642000  1.0
  C  C72  1  0.46925000  0.40777000  0.88460000  1.0
  C  C73  1  0.53061000  0.59226000  0.11543000  1.0
  C  C74  1  0.47166000  0.41616000  0.94654000  1.0
  C  C75  1  0.52821000  0.58388000  0.05349000  1.0
  C  C76  1  0.49867000  0.49685000  0.97018000  1.0
  C  C77  1  0.50119000  0.50319000  0.02985000  1.0
  C  C78  1  0.52321000  0.57137000  0.93575000  1.0
  C  C79  1  0.47667000  0.42867000  0.06428000  1.0
  C  C80  1  0.44795000  0.34398000  0.98124000  1.0
  C  C81  1  0.55194000  0.65606000  0.01878000  1.0
  C  C82  1  0.45048000  0.35020000  0.04004000  1.0
  C  C83  1  0.54941000  0.64983000  0.95999000  1.0
  C  C84  1  0.27918000  0.08891000  0.58609000  1.0
  C  C85  1  0.72077000  0.91112000  0.41387000  1.0
  C  C86  1  0.09771000  0.45043000  0.65469000  1.0
  C  C87  1  0.90240000  0.54952000  0.34531000  1.0
  C  C88  1  0.09494000  0.54863000  0.34454000  1.0
  C  C89  1  0.90517000  0.45132000  0.65545000  1.0
  N  N90  1  0.49487000  0.48392000  0.85224000  1.0
  N  N91  1  0.50498000  0.51612000  0.14779000  1.0
  N  N92  1  0.24862000  0.49886000  0.49930000  1.0
  N  N93  1  0.75150000  0.50103000  0.50070000  1.0
  N  N94  1  0.21555000  0.12432000  0.60828000  1.0
  N  N95  1  0.78442000  0.87574000  0.39170000  1.0
  N  N96  1  0.13192000  0.44474000  0.69939000  1.0
  N  N97  1  0.86819000  0.55527000  0.30061000  1.0
  N  N98  1  0.12799000  0.55539000  0.29952000  1.0
  N  N99  1  0.87212000  0.44463000  0.70048000  1.0
  O  O100  1  0.42507000  0.37688000  0.48321000  1.0
  O  O101  1  0.57503000  0.62320000  0.51659000  1.0
  O  O102  1  0.41495000  0.63287000  0.51211000  1.0
  O  O103  1  0.58511000  0.36709000  0.48812000  1.0
  O  O104  1  0.42219000  0.53336000  0.41317000  1.0
  O  O105  1  0.57797000  0.46697000  0.58690000  1.0
  O  O106  1  0.42077000  0.47418000  0.58584000  1.0
  O  O107  1  0.57938000  0.52548000  0.41415000  1.0
  O  O108  1  0.54055000  0.62899000  0.84166000  1.0
  O  O109  1  0.45939000  0.37103000  0.15837000  1.0
  O  O110  1  0.44738000  0.33934000  0.86171000  1.0
  O  O111  1  0.55250000  0.66069000  0.13832000  1.0
  O  O112  1  0.24544000  0.55504000  0.40722000  1.0
  O  O113  1  0.75469000  0.44490000  0.59278000  1.0
  O  O114  1  0.24718000  0.43985000  0.59073000  1.0
  O  O115  1  0.75294000  0.56003000  0.40927000  1.0
  O  O116  1  0.63243000  0.75680000  0.44840000  1.0
  O  O117  1  0.36734000  0.24327000  0.55141000  1.0
