# generated using pymatgen
data_CuH8C12IN2O
_symmetry_space_group_name_H-M   'P 1'
_cell_length_a   3.96719000
_cell_length_b   14.65060000
_cell_length_c   20.56440000
_cell_angle_alpha   104.20700000
_cell_angle_beta   89.99960000
_cell_angle_gamma   89.99940000
_symmetry_Int_Tables_number   1
_chemical_formula_structural   CuH8C12IN2O
_chemical_formula_sum   'Cu4 H32 C48 I4 N8 O4'
_cell_volume   1158.68225744
_cell_formula_units_Z   4
loop_
 _symmetry_equiv_pos_site_id
 _symmetry_equiv_pos_as_xyz
  1  'x, y, z'
loop_
 _atom_site_type_symbol
 _atom_site_label
 _atom_site_symmetry_multiplicity
 _atom_site_fract_x
 _atom_site_fract_y
 _atom_site_fract_z
 _atom_site_occupancy
  Cu  Cu0  1  0.25713000  0.56146000  0.00148000  1.0
  Cu  Cu1  1  0.25715000  0.93854000  0.49852000  1.0
  Cu  Cu2  1  0.74284000  0.43853000  0.99852000  1.0
  Cu  Cu3  1  0.74286000  0.06147000  0.50148000  1.0
  H  H4  1  0.33865000  0.90064000  0.98290000  1.0
  H  H5  1  0.33868000  0.59936000  0.51710000  1.0
  H  H6  1  0.66135000  0.09935000  0.01709000  1.0
  H  H7  1  0.66134000  0.40064000  0.48290000  1.0
  H  H8  1  0.56653000  0.13850000  0.71994000  1.0
  H  H9  1  0.56649000  0.36151000  0.78007000  1.0
  H  H10  1  0.43349000  0.86151000  0.28007000  1.0
  H  H11  1  0.43345000  0.63850000  0.21993000  1.0
  H  H12  1  0.53056000  0.96590000  0.70806000  1.0
  H  H13  1  0.53054000  0.53411000  0.79194000  1.0
  H  H14  1  0.46943000  0.03411000  0.29194000  1.0
  H  H15  1  0.46944000  0.46590000  0.20807000  1.0
  H  H16  1  0.45005000  0.76284000  0.03128000  1.0
  H  H17  1  0.45009000  0.73716000  0.46872000  1.0
  H  H18  1  0.54992000  0.23715000  0.96872000  1.0
  H  H19  1  0.54994000  0.26284000  0.53128000  1.0
  H  H20  1  0.13096000  0.17880000  0.90474000  1.0
  H  H21  1  0.13092000  0.32119000  0.59526000  1.0
  H  H22  1  0.86908000  0.82119000  0.09526000  1.0
  H  H23  1  0.86905000  0.67881000  0.40475000  1.0
  H  H24  1  0.86185000  0.24284000  0.81662000  1.0
  H  H25  1  0.86179000  0.25717000  0.68338000  1.0
  H  H26  1  0.13822000  0.75716000  0.18338000  1.0
  H  H27  1  0.13815000  0.74284000  0.31662000  1.0
  H  H28  1  0.88924000  0.70636000  0.81161000  1.0
  H  H29  1  0.88924000  0.79363000  0.68839000  1.0
  H  H30  1  0.11079000  0.29362000  0.18838000  1.0
  H  H31  1  0.11075000  0.20637000  0.31162000  1.0
  H  H32  1  0.01246000  0.57710000  0.86912000  1.0
  H  H33  1  0.01245000  0.92290000  0.63088000  1.0
  H  H34  1  0.98752000  0.42289000  0.13088000  1.0
  H  H35  1  0.98754000  0.07710000  0.36911000  1.0
  C  C36  1  0.26254000  0.83018000  0.95569000  1.0
  C  C37  1  0.26256000  0.66983000  0.54431000  1.0
  C  C38  1  0.73747000  0.16981000  0.04430000  1.0
  C  C39  1  0.73747000  0.33018000  0.45569000  1.0
  C  C40  1  0.81391000  0.97500000  0.80009000  1.0
  C  C41  1  0.81388000  0.52501000  0.69991000  1.0
  C  C42  1  0.18610000  0.02500000  0.19991000  1.0
  C  C43  1  0.18609000  0.47500000  0.30010000  1.0
  C  C44  1  0.68416000  0.10818000  0.75768000  1.0
  C  C45  1  0.68412000  0.39183000  0.74232000  1.0
  C  C46  1  0.31587000  0.89183000  0.24233000  1.0
  C  C47  1  0.31583000  0.60818000  0.25768000  1.0
  C  C48  1  0.66243000  0.01128000  0.75031000  1.0
  C  C49  1  0.66241000  0.48873000  0.74969000  1.0
  C  C50  1  0.33757000  0.98872000  0.24969000  1.0
  C  C51  1  0.33754000  0.51128000  0.25031000  1.0
  C  C52  1  0.32484000  0.75393000  0.98288000  1.0
  C  C53  1  0.32485000  0.74607000  0.51712000  1.0
  C  C54  1  0.67517000  0.24606000  0.01712000  1.0
  C  C55  1  0.67517000  0.25393000  0.48288000  1.0
  C  C56  1  0.09814000  0.81446000  0.89343000  1.0
  C  C57  1  0.09816000  0.68554000  0.60657000  1.0
  C  C58  1  0.90190000  0.18553000  0.10656000  1.0
  C  C59  1  0.90187000  0.31446000  0.39344000  1.0
  C  C60  1  0.00025000  0.13236000  0.86296000  1.0
  C  C61  1  0.00022000  0.36765000  0.63704000  1.0
  C  C62  1  0.99977000  0.86764000  0.13704000  1.0
  C  C63  1  0.99974000  0.63236000  0.36296000  1.0
  C  C64  1  0.97671000  0.03593000  0.85484000  1.0
  C  C65  1  0.97669000  0.46408000  0.64516000  1.0
  C  C66  1  0.02329000  0.96407000  0.14516000  1.0
  C  C67  1  0.02327000  0.53593000  0.35484000  1.0
  C  C68  1  0.84919000  0.16735000  0.81264000  1.0
  C  C69  1  0.84914000  0.33266000  0.68737000  1.0
  C  C70  1  0.15084000  0.83265000  0.18737000  1.0
  C  C71  1  0.15080000  0.66735000  0.31264000  1.0
  C  C72  1  0.00876000  0.89015000  0.86278000  1.0
  C  C73  1  0.00877000  0.60985000  0.63722000  1.0
  C  C74  1  0.99126000  0.10984000  0.13721000  1.0
  C  C75  1  0.99124000  0.39015000  0.36278000  1.0
  C  C76  1  0.01090000  0.72151000  0.86069000  1.0
  C  C77  1  0.01091000  0.77849000  0.63931000  1.0
  C  C78  1  0.98912000  0.27847000  0.13930000  1.0
  C  C79  1  0.98910000  0.22152000  0.36069000  1.0
  C  C80  1  0.08070000  0.65006000  0.89203000  1.0
  C  C81  1  0.08070000  0.84994000  0.60797000  1.0
  C  C82  1  0.91931000  0.34993000  0.10796000  1.0
  C  C83  1  0.91931000  0.15006000  0.39203000  1.0
  I  I84  1  0.24615000  0.40112000  0.91105000  1.0
  I  I85  1  0.24615000  0.09888000  0.58895000  1.0
  I  I86  1  0.75383000  0.59887000  0.08895000  1.0
  I  I87  1  0.75385000  0.90112000  0.41106000  1.0
  N  N88  1  0.23284000  0.66503000  0.95259000  1.0
  N  N89  1  0.23286000  0.83497000  0.54742000  1.0
  N  N90  1  0.76715000  0.33496000  0.04741000  1.0
  N  N91  1  0.76716000  0.16503000  0.45259000  1.0
  N  N92  1  0.83965000  0.88334000  0.80715000  1.0
  N  N93  1  0.83965000  0.61666000  0.69284000  1.0
  N  N94  1  0.16037000  0.11666000  0.19284000  1.0
  N  N95  1  0.16035000  0.38334000  0.30716000  1.0
  O  O96  1  0.10210000  0.98152000  0.89554000  1.0
  O  O97  1  0.10211000  0.51848000  0.60446000  1.0
  O  O98  1  0.89790000  0.01847000  0.10446000  1.0
  O  O99  1  0.89789000  0.48152000  0.39554000  1.0
