# generated using pymatgen
data_CaH12C8O7
_symmetry_space_group_name_H-M   'P 1'
_cell_length_a   6.05038000
_cell_length_b   8.45612000
_cell_length_c   10.37220000
_cell_angle_alpha   72.53560000
_cell_angle_beta   85.01970000
_cell_angle_gamma   74.93640000
_symmetry_Int_Tables_number   1
_chemical_formula_structural   CaH12C8O7
_chemical_formula_sum   'Ca2 H24 C16 O14'
_cell_volume   488.79143410
_cell_formula_units_Z   2
loop_
 _symmetry_equiv_pos_site_id
 _symmetry_equiv_pos_as_xyz
  1  'x, y, z'
loop_
 _atom_site_type_symbol
 _atom_site_label
 _atom_site_symmetry_multiplicity
 _atom_site_fract_x
 _atom_site_fract_y
 _atom_site_fract_z
 _atom_site_occupancy
  Ca  Ca0  1  0.20522000  0.09927000  0.07933000  1.0
  Ca  Ca1  1  0.79477000  0.90074000  0.92067000  1.0
  H  H2  1  0.21885000  0.53572000  0.36352000  1.0
  H  H3  1  0.78115000  0.46428000  0.63648000  1.0
  H  H4  1  0.56098000  0.58412000  0.41523000  1.0
  H  H5  1  0.43904000  0.41586000  0.58477000  1.0
  H  H6  1  0.49434000  0.93675000  0.37951000  1.0
  H  H7  1  0.50566000  0.06325000  0.62050000  1.0
  H  H8  1  0.25685000  0.89265000  0.59083000  1.0
  H  H9  1  0.74316000  0.10734000  0.40918000  1.0
  H  H10  1  0.41407000  0.68056000  0.60638000  1.0
  H  H11  1  0.58592000  0.31944000  0.39361000  1.0
  H  H12  1  0.07055000  0.61249000  0.56359000  1.0
  H  H13  1  0.92945000  0.38751000  0.43641000  1.0
  H  H14  1  0.92043000  0.82334000  0.56186000  1.0
  H  H15  1  0.07958000  0.17665000  0.43814000  1.0
  H  H16  1  0.89043000  0.84482000  0.31684000  1.0
  H  H17  1  0.10956000  0.15519000  0.68316000  1.0
  H  H18  1  0.80937000  0.36509000  0.04088000  1.0
  H  H19  1  0.19062000  0.63491000  0.95912000  1.0
  H  H20  1  0.85969000  0.39855000  0.17570000  1.0
  H  H21  1  0.14032000  0.60144000  0.82430000  1.0
  H  H22  1  0.59257000  0.22268000  0.16449000  1.0
  H  H23  1  0.40743000  0.77732000  0.83551000  1.0
  H  H24  1  0.36308000  0.35752000  0.16122000  1.0
  H  H25  1  0.63693000  0.64248000  0.83878000  1.0
  C  C26  1  0.22998000  0.66648000  0.30931000  1.0
  C  C27  1  0.77002000  0.33353000  0.69069000  1.0
  C  C28  1  0.19717000  0.69368000  0.15945000  1.0
  C  C29  1  0.80284000  0.30633000  0.84055000  1.0
  C  C30  1  0.46527000  0.69630000  0.33933000  1.0
  C  C31  1  0.53474000  0.30369000  0.66068000  1.0
  C  C32  1  0.61645000  0.72740000  0.21304000  1.0
  C  C33  1  0.38355000  0.27260000  0.78696000  1.0
  C  C34  1  0.38071000  0.85044000  0.39731000  1.0
  C  C35  1  0.61928000  0.14957000  0.60269000  1.0
  C  C36  1  0.29265000  0.79001000  0.54226000  1.0
  C  C37  1  0.70734000  0.20999000  0.45774000  1.0
  C  C38  1  0.06687000  0.74829000  0.51845000  1.0
  C  C39  1  0.93313000  0.25171000  0.48155000  1.0
  C  C40  1  0.05902000  0.80131000  0.36363000  1.0
  C  C41  1  0.94097000  0.19868000  0.63637000  1.0
  O  O42  1  0.27753000  0.56878000  0.11186000  1.0
  O  O43  1  0.72248000  0.43121000  0.88813000  1.0
  O  O44  1  0.09521000  0.84265000  0.08734000  1.0
  O  O45  1  0.90479000  0.15735000  0.91267000  1.0
  O  O46  1  0.78256000  0.60852000  0.19903000  1.0
  O  O47  1  0.21742000  0.39149000  0.80095000  1.0
  O  O48  1  0.56326000  0.87594000  0.12565000  1.0
  O  O49  1  0.43673000  0.12406000  0.87435000  1.0
  O  O50  1  0.16908000  0.94387000  0.32380000  1.0
  O  O51  1  0.83091000  0.05613000  0.67620000  1.0
  O  O52  1  0.87778000  0.30483000  0.13410000  1.0
  O  O53  1  0.12222000  0.69517000  0.86589000  1.0
  O  O54  1  0.42660000  0.23255000  0.17310000  1.0
  O  O55  1  0.57340000  0.76744000  0.82690000  1.0
