# generated using pymatgen
data_CuH20C28(NO4)2
_symmetry_space_group_name_H-M   'P 1'
_cell_length_a   11.88190000
_cell_length_b   11.90630000
_cell_length_c   12.24300000
_cell_angle_alpha   65.87900000
_cell_angle_beta   65.82630000
_cell_angle_gamma   67.42540000
_symmetry_Int_Tables_number   1
_chemical_formula_structural   CuH20C28(NO4)2
_chemical_formula_sum   'Cu2 H40 C56 N4 O16'
_cell_volume   1392.53806109
_cell_formula_units_Z   2
loop_
 _symmetry_equiv_pos_site_id
 _symmetry_equiv_pos_as_xyz
  1  'x, y, z'
loop_
 _atom_site_type_symbol
 _atom_site_label
 _atom_site_symmetry_multiplicity
 _atom_site_fract_x
 _atom_site_fract_y
 _atom_site_fract_z
 _atom_site_occupancy
  Cu  Cu0  1  0.16871000  0.83125000  0.75003000  1.0
  Cu  Cu1  1  0.83129000  0.16875000  0.24996000  1.0
  H  H2  1  0.87762000  0.02681000  0.56261000  1.0
  H  H3  1  0.97308000  0.12293000  0.93731000  1.0
  H  H4  1  0.12238000  0.97319000  0.43739000  1.0
  H  H5  1  0.02692000  0.87707000  0.06269000  1.0
  H  H6  1  0.67082000  0.11356000  0.50841000  1.0
  H  H7  1  0.88636000  0.32929000  0.99169000  1.0
  H  H8  1  0.32919000  0.88643000  0.49159000  1.0
  H  H9  1  0.11364000  0.67071000  0.00831000  1.0
  H  H10  1  0.46719000  0.96298000  0.87780000  1.0
  H  H11  1  0.03716000  0.53219000  0.62225000  1.0
  H  H12  1  0.53282000  0.03702000  0.12220000  1.0
  H  H13  1  0.96283000  0.46781000  0.37775000  1.0
  H  H14  1  0.66666667  0.87148000  0.94663000  1.0
  H  H15  1  0.12863000  0.33318000  0.55324000  1.0
  H  H16  1  0.33329000  0.12852000  0.05338000  1.0
  H  H17  1  0.87137000  0.66683000  0.44676000  1.0
  H  H18  1  0.47101000  0.10948000  0.55803000  1.0
  H  H19  1  0.89062000  0.52889000  0.94197000  1.0
  H  H20  1  0.52899000  0.89052000  0.44198000  1.0
  H  H21  1  0.10938000  0.47111000  0.05803000  1.0
  H  H22  1  0.38409000  0.03439000  0.71341000  1.0
  H  H23  1  0.96624000  0.61526000  0.78655000  1.0
  H  H24  1  0.61592000  0.96561000  0.28659000  1.0
  H  H25  1  0.03375000  0.38474000  0.21344000  1.0
  H  H26  1  0.46811000  0.33487000  0.49351000  1.0
  H  H27  1  0.66505000  0.53201000  0.00634000  1.0
  H  H28  1  0.53189000  0.66512000  0.50649000  1.0
  H  H29  1  0.33496000  0.46799000  0.99366000  1.0
  H  H30  1  0.36889000  0.54489000  0.53928000  1.0
  H  H31  1  0.45454000  0.63125000  0.96079000  1.0
  H  H32  1  0.63111000  0.45511000  0.46072000  1.0
  H  H33  1  0.54545000  0.36874000  0.03921000  1.0
  H  H34  1  0.18362000  0.35589000  0.92028000  1.0
  H  H35  1  0.64422000  0.81624000  0.57992000  1.0
  H  H36  1  0.81638000  0.64411000  0.07972000  1.0
  H  H37  1  0.35577000  0.18375000  0.42008000  1.0
  H  H38  1  0.27509000  0.15023000  0.87586000  1.0
  H  H39  1  0.85037000  0.72473000  0.62412000  1.0
  H  H40  1  0.72490000  0.84977000  0.12415000  1.0
  H  H41  1  0.14962000  0.27527000  0.37588000  1.0
  C  C42  1  0.90651000  0.88744000  0.80024000  1.0
  C  C43  1  0.11257000  0.09366000  0.69966000  1.0
  C  C44  1  0.09349000  0.11256000  0.19975000  1.0
  C  C45  1  0.88743000  0.90635000  0.30035000  1.0
  C  C46  1  0.78641000  0.94442000  0.75996000  1.0
  C  C47  1  0.05562000  0.21368000  0.73996000  1.0
  C  C48  1  0.21359000  0.05558000  0.24005000  1.0
  C  C49  1  0.94438000  0.78633000  0.26003000  1.0
  C  C50  1  0.78861000  0.01316000  0.63568000  1.0
  C  C51  1  0.98677000  0.21171000  0.86426000  1.0
  C  C52  1  0.21139000  0.98684000  0.36432000  1.0
  C  C53  1  0.01323000  0.78829000  0.13574000  1.0
  C  C54  1  0.67615000  0.06200000  0.60383000  1.0
  C  C55  1  0.93796000  0.32395000  0.89621000  1.0
  C  C56  1  0.32385000  0.93801000  0.39617000  1.0
  C  C57  1  0.06203000  0.67605000  0.10379000  1.0
  C  C58  1  0.56037000  0.97546000  0.81373000  1.0
  C  C59  1  0.02467000  0.43923000  0.68629000  1.0
  C  C60  1  0.43963000  0.02454000  0.18627000  1.0
  C  C61  1  0.97533000  0.56077000  0.31371000  1.0
  C  C62  1  0.66965000  0.92628000  0.84976000  1.0
  C  C63  1  0.07381000  0.33017000  0.65019000  1.0
  C  C64  1  0.33035000  0.07372000  0.15024000  1.0
  C  C65  1  0.92619000  0.66984000  0.34981000  1.0
  C  C66  1  0.44428000  0.10100000  0.65751000  1.0
  C  C67  1  0.89933000  0.55538000  0.84247000  1.0
  C  C68  1  0.55572000  0.89900000  0.34249000  1.0
  C  C69  1  0.10067000  0.44462000  0.15752000  1.0
  C  C70  1  0.38088000  0.22841000  0.68194000  1.0
  C  C71  1  0.77181000  0.61902000  0.81797000  1.0
  C  C72  1  0.61912000  0.77159000  0.31806000  1.0
  C  C73  1  0.22819000  0.38098000  0.18203000  1.0
  C  C74  1  0.40565000  0.34024000  0.58700000  1.0
  C  C75  1  0.65965000  0.59440000  0.91295000  1.0
  C  C76  1  0.59436000  0.65975000  0.41301000  1.0
  C  C77  1  0.34035000  0.40559000  0.08705000  1.0
  C  C78  1  0.35111000  0.45709000  0.61233000  1.0
  C  C79  1  0.54258000  0.64898000  0.88772000  1.0
  C  C80  1  0.64889000  0.54290000  0.38766000  1.0
  C  C81  1  0.45742000  0.35102000  0.11228000  1.0
  C  C82  1  0.27271000  0.46323000  0.73304000  1.0
  C  C83  1  0.53664000  0.72730000  0.76707000  1.0
  C  C84  1  0.72729000  0.53676000  0.26696000  1.0
  C  C85  1  0.46336000  0.27270000  0.23294000  1.0
  C  C86  1  0.24725000  0.35127000  0.82729000  1.0
  C  C87  1  0.64888000  0.75268000  0.67281000  1.0
  C  C88  1  0.75275000  0.64873000  0.17271000  1.0
  C  C89  1  0.35112000  0.24732000  0.32719000  1.0
  C  C90  1  0.30013000  0.23508000  0.80175000  1.0
  C  C91  1  0.76530000  0.69974000  0.69824000  1.0
  C  C92  1  0.69987000  0.76492000  0.19825000  1.0
  C  C93  1  0.23470000  0.30026000  0.30175000  1.0
  C  C94  1  0.21452000  0.58696000  0.76476000  1.0
  C  C95  1  0.41282000  0.78553000  0.73535000  1.0
  C  C96  1  0.78548000  0.41304000  0.23523000  1.0
  C  C97  1  0.58718000  0.21446000  0.26466000  1.0
  N  N98  1  0.56505000  0.04253000  0.69252000  1.0
  N  N99  1  0.95757000  0.43473000  0.80754000  1.0
  N  N100  1  0.43495000  0.95747000  0.30748000  1.0
  N  N101  1  0.04243000  0.56527000  0.19246000  1.0
  O  O102  1  0.89458000  0.85265000  0.91442000  1.0
  O  O103  1  0.14733000  0.10559000  0.58546000  1.0
  O  O104  1  0.10543000  0.14736000  0.08558000  1.0
  O  O105  1  0.85267000  0.89442000  0.41454000  1.0
  O  O106  1  0.01040000  0.88118000  0.70775000  1.0
  O  O107  1  0.11881000  0.98999000  0.79200000  1.0
  O  O108  1  0.98961000  0.11882000  0.29224000  1.0
  O  O109  1  0.88120000  0.01002000  0.20800000  1.0
  O  O110  1  0.14375000  0.58628000  0.87446000  1.0
  O  O111  1  0.41356000  0.85621000  0.62572000  1.0
  O  O112  1  0.85625000  0.41372000  0.12553000  1.0
  O  O113  1  0.58643000  0.14378000  0.37429000  1.0
  O  O114  1  0.24118000  0.68759000  0.67609000  1.0
  O  O115  1  0.31192000  0.75894000  0.82404000  1.0
  O  O116  1  0.75882000  0.31241000  0.32390000  1.0
  O  O117  1  0.68808000  0.24105000  0.17597000  1.0
