# generated using pymatgen
data_CuH9C8SN2ClO3
_symmetry_space_group_name_H-M   'P 1'
_cell_length_a   8.27027000
_cell_length_b   8.29169000
_cell_length_c   9.03642000
_cell_angle_alpha   105.06500000
_cell_angle_beta   98.81950000
_cell_angle_gamma   114.66500000
_symmetry_Int_Tables_number   1
_chemical_formula_structural   CuH9C8SN2ClO3
_chemical_formula_sum   'Cu2 H18 C16 S2 N4 Cl2 O6'
_cell_volume   519.01672427
_cell_formula_units_Z   2
loop_
 _symmetry_equiv_pos_site_id
 _symmetry_equiv_pos_as_xyz
  1  'x, y, z'
loop_
 _atom_site_type_symbol
 _atom_site_label
 _atom_site_symmetry_multiplicity
 _atom_site_fract_x
 _atom_site_fract_y
 _atom_site_fract_z
 _atom_site_occupancy
  Cu  Cu0  1  0.49666000  0.28891000  0.40025000  1.0
  Cu  Cu1  1  0.50333000  0.71110000  0.59975000  1.0
  H  H2  1  0.16595000  0.32722000  0.22938000  1.0
  H  H3  1  0.83405000  0.67279000  0.77063000  1.0
  H  H4  1  0.91223000  0.09185000  0.51186000  1.0
  H  H5  1  0.08777000  0.90815000  0.48814000  1.0
  H  H6  1  0.66631000  0.97665000  0.42111000  1.0
  H  H7  1  0.33369000  0.02335000  0.57888000  1.0
  H  H8  1  0.72320000  0.21136000  0.06599000  1.0
  H  H9  1  0.27680000  0.78863000  0.93401000  1.0
  H  H10  1  0.50508000  0.22774000  0.84131000  1.0
  H  H11  1  0.49493000  0.77227000  0.15869000  1.0
  H  H12  1  0.94683000  0.36814000  0.42392000  1.0
  H  H13  1  0.05317000  0.63186000  0.57609000  1.0
  H  H14  1  0.87555000  0.15360000  0.26601000  1.0
  H  H15  1  0.12445000  0.84641000  0.73399000  1.0
  H  H16  1  0.04930000  0.31359000  0.95004000  1.0
  H  H17  1  0.95070000  0.68640000  0.04995000  1.0
  H  H18  1  0.22600000  0.26873000  0.75378000  1.0
  H  H19  1  0.77400000  0.73126000  0.24622000  1.0
  C  C20  1  0.23307000  0.30065000  0.13819000  1.0
  C  C21  1  0.76693000  0.69935000  0.86181000  1.0
  C  C22  1  0.47667000  0.25161000  0.07802000  1.0
  C  C23  1  0.52334000  0.74839000  0.92198000  1.0
  C  C24  1  0.79345000  0.11469000  0.47421000  1.0
  C  C25  1  0.20655000  0.88531000  0.52579000  1.0
  C  C26  1  0.63643000  0.23084000  0.14203000  1.0
  C  C27  1  0.36357000  0.76916000  0.85796000  1.0
  C  C28  1  0.42375000  0.24648000  0.92211000  1.0
  C  C29  1  0.57625000  0.75353000  0.07789000  1.0
  C  C30  1  0.83081000  0.22289000  0.36025000  1.0
  C  C31  1  0.16919000  0.77711000  0.63975000  1.0
  C  C32  1  0.17096000  0.29527000  0.98325000  1.0
  C  C33  1  0.82904000  0.70473000  0.01675000  1.0
  C  C34  1  0.26759000  0.26834000  0.87416000  1.0
  C  C35  1  0.73241000  0.73165000  0.12584000  1.0
  S  S36  1  0.77061000  0.24198000  0.65575000  1.0
  S  S37  1  0.22939000  0.75802000  0.34425000  1.0
  N  N38  1  0.67021000  0.23707000  0.28780000  1.0
  N  N39  1  0.32979000  0.76293000  0.71220000  1.0
  N  N40  1  0.38142000  0.27836000  0.18367000  1.0
  N  N41  1  0.61859000  0.72164000  0.81634000  1.0
  Cl  Cl42  1  0.27682000  0.32727000  0.50439000  1.0
  Cl  Cl43  1  0.72318000  0.67273000  0.49561000  1.0
  O  O44  1  0.60282000  0.26746000  0.60368000  1.0
  O  O45  1  0.39718000  0.73255000  0.39631000  1.0
  O  O46  1  0.94202000  0.42356000  0.73244000  1.0
  O  O47  1  0.05798000  0.57645000  0.26755000  1.0
  O  O48  1  0.72967000  0.11977000  0.75141000  1.0
  O  O49  1  0.27032000  0.88024000  0.24859000  1.0
