# generated using pymatgen
data_ZnH23C28N3O4
_symmetry_space_group_name_H-M   'P 1'
_cell_length_a   8.22172000
_cell_length_b   15.13640000
_cell_length_c   23.04000000
_cell_angle_alpha   94.96140000
_cell_angle_beta   89.98670000
_cell_angle_gamma   105.76300000
_symmetry_Int_Tables_number   1
_chemical_formula_structural   ZnH23C28N3O4
_chemical_formula_sum   'Zn4 H92 C112 N12 O16'
_cell_volume   2748.28870864
_cell_formula_units_Z   4
loop_
 _symmetry_equiv_pos_site_id
 _symmetry_equiv_pos_as_xyz
  1  'x, y, z'
loop_
 _atom_site_type_symbol
 _atom_site_label
 _atom_site_symmetry_multiplicity
 _atom_site_fract_x
 _atom_site_fract_y
 _atom_site_fract_z
 _atom_site_occupancy
  Zn  Zn0  1  0.65758000  0.06875000  0.49769000  1.0
  Zn  Zn1  1  0.58876000  0.93123000  0.00227000  1.0
  Zn  Zn2  1  0.34242000  0.93125000  0.50231000  1.0
  Zn  Zn3  1  0.41124000  0.06877000  0.99773000  1.0
  H  H4  1  0.87418000  0.97349000  0.33342000  1.0
  H  H5  1  0.89995000  0.02642000  0.16656000  1.0
  H  H6  1  0.12581000  0.02651000  0.66658000  1.0
  H  H7  1  0.10005000  0.97358000  0.83344000  1.0
  H  H8  1  0.94511000  0.87548000  0.25078000  1.0
  H  H9  1  0.06901000  0.12425000  0.24918000  1.0
  H  H10  1  0.05489000  0.12452000  0.74922000  1.0
  H  H11  1  0.93100000  0.87575000  0.75082000  1.0
  H  H12  1  0.47349000  0.66954000  0.27086000  1.0
  H  H13  1  0.80389000  0.33048000  0.22927000  1.0
  H  H14  1  0.52651000  0.33046000  0.72914000  1.0
  H  H15  1  0.19612000  0.66952000  0.77073000  1.0
  H  H16  1  0.40706000  0.76897000  0.35430000  1.0
  H  H17  1  0.63781000  0.23111000  0.14589000  1.0
  H  H18  1  0.59293000  0.23104000  0.64569000  1.0
  H  H19  1  0.36220000  0.76889000  0.85411000  1.0
  H  H20  1  0.65991000  0.60120000  0.11002000  1.0
  H  H21  1  0.05814000  0.39870000  0.39003000  1.0
  H  H22  1  0.34009000  0.39880000  0.88998000  1.0
  H  H23  1  0.94187000  0.60130000  0.60997000  1.0
  H  H24  1  0.55555000  0.43022000  0.10119000  1.0
  H  H25  1  0.12500000  0.56974000  0.39887000  1.0
  H  H26  1  0.44446000  0.56978000  0.89882000  1.0
  H  H27  1  0.87501000  0.43026000  0.60113000  1.0
  H  H28  1  0.52647000  0.34422000  0.18968000  1.0
  H  H29  1  0.18231000  0.65574000  0.31039000  1.0
  H  H30  1  0.47353000  0.65578000  0.81032000  1.0
  H  H31  1  0.81769000  0.34426000  0.68961000  1.0
  H  H32  1  0.61971000  0.43072000  0.28681000  1.0
  H  H33  1  0.18912000  0.56923000  0.21326000  1.0
  H  H34  1  0.38029000  0.56927000  0.71319000  1.0
  H  H35  1  0.81087000  0.43077000  0.78674000  1.0
  H  H36  1  0.72665000  0.60082000  0.29530000  1.0
  H  H37  1  0.12576000  0.39912000  0.20478000  1.0
  H  H38  1  0.27335000  0.39918000  0.70470000  1.0
  H  H39  1  0.87424000  0.60088000  0.79522000  1.0
  H  H40  1  0.72972000  0.84503000  0.14257000  1.0
  H  H41  1  0.88471000  0.15478000  0.35739000  1.0
  H  H42  1  0.27027000  0.15497000  0.85743000  1.0
  H  H43  1  0.11529000  0.84522000  0.64261000  1.0
  H  H44  1  0.94881000  0.92480000  0.07685000  1.0
  H  H45  1  0.02403000  0.07498000  0.42306000  1.0
  H  H46  1  0.05119000  0.07520000  0.92316000  1.0
  H  H47  1  0.97598000  0.92502000  0.57694000  1.0
  H  H48  1  0.26266000  0.75174000  0.11684000  1.0
  H  H49  1  0.51100000  0.24813000  0.38309000  1.0
  H  H50  1  0.73734000  0.24826000  0.88316000  1.0
  H  H51  1  0.48900000  0.75187000  0.61691000  1.0
  H  H52  1  0.04000000  0.66901000  0.18300000  1.0
  H  H53  1  0.37101000  0.33095000  0.31700000  1.0
  H  H54  1  0.96000000  0.33099000  0.81701000  1.0
  H  H55  1  0.62899000  0.66906000  0.68300000  1.0
  H  H56  1  0.96017000  0.09918000  0.57314000  1.0
  H  H57  1  0.86100000  0.90085000  0.92692000  1.0
  H  H58  1  0.03984000  0.90082000  0.42686000  1.0
  H  H59  1  0.13901000  0.09916000  0.07308000  1.0
  H  H60  1  0.20014000  0.23218000  0.61234000  1.0
  H  H61  1  0.96803000  0.76788000  0.88763000  1.0
  H  H62  1  0.79987000  0.76782000  0.38766000  1.0
  H  H63  1  0.03198000  0.23213000  0.11237000  1.0
  H  H64  1  0.02378000  0.40199000  0.49980000  1.0
  H  H65  1  0.62187000  0.59799000  0.00018000  1.0
  H  H66  1  0.97620000  0.59802000  0.50021000  1.0
  H  H67  1  0.37815000  0.40201000  0.99981000  1.0
  H  H68  1  0.78538000  0.26169000  0.46683000  1.0
  H  H69  1  0.52379000  0.73829000  0.03327000  1.0
  H  H70  1  0.21460000  0.73832000  0.53317000  1.0
  H  H71  1  0.47621000  0.26171000  0.96673000  1.0
  H  H72  1  0.36422000  0.33543000  0.48423000  1.0
  H  H73  1  0.02864000  0.66454000  0.01578000  1.0
  H  H74  1  0.63577000  0.66457000  0.51577000  1.0
  H  H75  1  0.97137000  0.33547000  0.98421000  1.0
  H  H76  1  0.55069000  0.38891000  0.52737000  1.0
  H  H77  1  0.16169000  0.61111000  0.97262000  1.0
  H  H78  1  0.44931000  0.61109000  0.47262000  1.0
  H  H79  1  0.83832000  0.38890000  0.02738000  1.0
  H  H80  1  0.60784000  0.41050000  0.42414000  1.0
  H  H81  1  0.19703000  0.58953000  0.07588000  1.0
  H  H82  1  0.39216000  0.58950000  0.57586000  1.0
  H  H83  1  0.80297000  0.41047000  0.92412000  1.0
  H  H84  1  0.43100000  0.45629000  0.41696000  1.0
  H  H85  1  0.97443000  0.54361000  0.08300000  1.0
  H  H86  1  0.56899000  0.54371000  0.58304000  1.0
  H  H87  1  0.02558000  0.45639000  0.91700000  1.0
  H  H88  1  0.21710000  0.45940000  0.60810000  1.0
  H  H89  1  0.75766000  0.54053000  0.89188000  1.0
  H  H90  1  0.78291000  0.54060000  0.39190000  1.0
  H  H91  1  0.24235000  0.45947000  0.10812000  1.0
  H  H92  1  0.35869000  0.38898000  0.60987000  1.0
  H  H93  1  0.96967000  0.61095000  0.89008000  1.0
  H  H94  1  0.64132000  0.61102000  0.39013000  1.0
  H  H95  1  0.03034000  0.38905000  0.10992000  1.0
  C  C96  1  0.59642000  0.93279000  0.40129000  1.0
  C  C97  1  0.66301000  0.06738000  0.09876000  1.0
  C  C98  1  0.40358000  0.06721000  0.59871000  1.0
  C  C99  1  0.33698000  0.93263000  0.90124000  1.0
  C  C100  1  0.63586000  0.87729000  0.34923000  1.0
  C  C101  1  0.75804000  0.12273000  0.15083000  1.0
  C  C102  1  0.36412000  0.12271000  0.65077000  1.0
  C  C103  1  0.24196000  0.87727000  0.84917000  1.0
  C  C104  1  0.78647000  0.90705000  0.31920000  1.0
  C  C105  1  0.87880000  0.09287000  0.18081000  1.0
  C  C106  1  0.21352000  0.09295000  0.68080000  1.0
  C  C107  1  0.12120000  0.90712000  0.81919000  1.0
  C  C108  1  0.82607000  0.85207000  0.27289000  1.0
  C  C109  1  0.97355000  0.14782000  0.22710000  1.0
  C  C110  1  0.17392000  0.14793000  0.72711000  1.0
  C  C111  1  0.02645000  0.85218000  0.77290000  1.0
  C  C112  1  0.71405000  0.76544000  0.25481000  1.0
  C  C113  1  0.94848000  0.23451000  0.24525000  1.0
  C  C114  1  0.28594000  0.23456000  0.74519000  1.0
  C  C115  1  0.05152000  0.76549000  0.75475000  1.0
  C  C116  1  0.56148000  0.73609000  0.28439000  1.0
  C  C117  1  0.82528000  0.26392000  0.21571000  1.0
  C  C118  1  0.43851000  0.26391000  0.71561000  1.0
  C  C119  1  0.17473000  0.73608000  0.78428000  1.0
  C  C120  1  0.52416000  0.79134000  0.33086000  1.0
  C  C121  1  0.73253000  0.20869000  0.16929000  1.0
  C  C122  1  0.47583000  0.20867000  0.66914000  1.0
  C  C123  1  0.26748000  0.79131000  0.83071000  1.0
  C  C124  1  0.69514000  0.61249000  0.20359000  1.0
  C  C125  1  0.08245000  0.38746000  0.29648000  1.0
  C  C126  1  0.30487000  0.38751000  0.79642000  1.0
  C  C127  1  0.91755000  0.61254000  0.70352000  1.0
  C  C128  1  0.64900000  0.56349000  0.14873000  1.0
  C  C129  1  0.08510000  0.43643000  0.35133000  1.0
  C  C130  1  0.35101000  0.43651000  0.85127000  1.0
  C  C131  1  0.91491000  0.56357000  0.64867000  1.0
  C  C132  1  0.59055000  0.46757000  0.14397000  1.0
  C  C133  1  0.12271000  0.53236000  0.35610000  1.0
  C  C134  1  0.40945000  0.53243000  0.85603000  1.0
  C  C135  1  0.87729000  0.46764000  0.64390000  1.0
  C  C136  1  0.57531000  0.41907000  0.19353000  1.0
  C  C137  1  0.15628000  0.58089000  0.30655000  1.0
  C  C138  1  0.42470000  0.58093000  0.80647000  1.0
  C  C139  1  0.84371000  0.41911000  0.69345000  1.0
  C  C140  1  0.62504000  0.46765000  0.24791000  1.0
  C  C141  1  0.15752000  0.53232000  0.25216000  1.0
  C  C142  1  0.37496000  0.53234000  0.75209000  1.0
  C  C143  1  0.84248000  0.46768000  0.74784000  1.0
  C  C144  1  0.68559000  0.56336000  0.25303000  1.0
  C  C145  1  0.12222000  0.43662000  0.24704000  1.0
  C  C146  1  0.31441000  0.43664000  0.74697000  1.0
  C  C147  1  0.87779000  0.56337000  0.75296000  1.0
  C  C148  1  0.87261000  0.75213000  0.16693000  1.0
  C  C149  1  0.12055000  0.24779000  0.33309000  1.0
  C  C150  1  0.12739000  0.24786000  0.83307000  1.0
  C  C151  1  0.87946000  0.75221000  0.66691000  1.0
  C  C152  1  0.84556000  0.82363000  0.13671000  1.0
  C  C153  1  0.02195000  0.17622000  0.36326000  1.0
  C  C154  1  0.15444000  0.17637000  0.86329000  1.0
  C  C155  1  0.97805000  0.82379000  0.63674000  1.0
  C  C156  1  0.96894000  0.86880000  0.10004000  1.0
  C  C157  1  0.10014000  0.13102000  0.39989000  1.0
  C  C158  1  0.03106000  0.13119000  0.89996000  1.0
  C  C159  1  0.89986000  0.86899000  0.60011000  1.0
  C  C160  1  0.11942000  0.84284000  0.09279000  1.0
  C  C161  1  0.27657000  0.15694000  0.40709000  1.0
  C  C162  1  0.88058000  0.15716000  0.90721000  1.0
  C  C163  1  0.72343000  0.84306000  0.59291000  1.0
  C  C164  1  0.14374000  0.76993000  0.12214000  1.0
  C  C165  1  0.37390000  0.22991000  0.37778000  1.0
  C  C166  1  0.85625000  0.23006000  0.87785000  1.0
  C  C167  1  0.62610000  0.77009000  0.62222000  1.0
  C  C168  1  0.02115000  0.72450000  0.15891000  1.0
  C  C169  1  0.29675000  0.27541000  0.34108000  1.0
  C  C170  1  0.97885000  0.27550000  0.84109000  1.0
  C  C171  1  0.70325000  0.72460000  0.65892000  1.0
  C  C172  1  0.25574000  0.89452000  0.05576000  1.0
  C  C173  1  0.36100000  0.10517000  0.44410000  1.0
  C  C174  1  0.74426000  0.10548000  0.94425000  1.0
  C  C175  1  0.63899000  0.89484000  0.55590000  1.0
  C  C176  1  0.97877000  0.16786000  0.55868000  1.0
  C  C177  1  0.81098000  0.83216000  0.94139000  1.0
  C  C178  1  0.02123000  0.83214000  0.44132000  1.0
  C  C179  1  0.18903000  0.16784000  0.05861000  1.0
  C  C180  1  0.11101000  0.24222000  0.58024000  1.0
  C  C181  1  0.86893000  0.75782000  0.91977000  1.0
  C  C182  1  0.88900000  0.75778000  0.41975000  1.0
  C  C183  1  0.13107000  0.24218000  0.08023000  1.0
  C  C184  1  0.12923000  0.32823000  0.55955000  1.0
  C  C185  1  0.80105000  0.67176000  0.94041000  1.0
  C  C186  1  0.87077000  0.67177000  0.44045000  1.0
  C  C187  1  0.19896000  0.32824000  0.05958000  1.0
  C  C188  1  0.01188000  0.33606000  0.51751000  1.0
  C  C189  1  0.67582000  0.66393000  0.98247000  1.0
  C  C190  1  0.98812000  0.66394000  0.48249000  1.0
  C  C191  1  0.32418000  0.33607000  0.01753000  1.0
  C  C192  1  0.88218000  0.25910000  0.49851000  1.0
  C  C193  1  0.62313000  0.74088000  0.00156000  1.0
  C  C194  1  0.11780000  0.74091000  0.50150000  1.0
  C  C195  1  0.37688000  0.25912000  0.99844000  1.0
  C  C196  1  0.45108000  0.40242000  0.49951000  1.0
  C  C197  1  0.04856000  0.59758000  0.00048000  1.0
  C  C198  1  0.54892000  0.59758000  0.50049000  1.0
  C  C199  1  0.95145000  0.40243000  0.99952000  1.0
  C  C200  1  0.53200000  0.45121000  0.44758000  1.0
  C  C201  1  0.08061000  0.54877000  0.05241000  1.0
  C  C202  1  0.46800000  0.54879000  0.55242000  1.0
  C  C203  1  0.91940000  0.45123000  0.94759000  1.0
  C  C204  1  0.27082000  0.41080000  0.58114000  1.0
  C  C205  1  0.85999000  0.58914000  0.91883000  1.0
  C  C206  1  0.72918000  0.58920000  0.41886000  1.0
  C  C207  1  0.14002000  0.41087000  0.08117000  1.0
  N  N208  1  0.75360000  0.70987000  0.20792000  1.0
  N  N209  1  0.04375000  0.29006000  0.29212000  1.0
  N  N210  1  0.24640000  0.29013000  0.79208000  1.0
  N  N211  1  0.95625000  0.70993000  0.70788000  1.0
  N  N212  1  0.86634000  0.17627000  0.51863000  1.0
  N  N213  1  0.69011000  0.82373000  0.98144000  1.0
  N  N214  1  0.13365000  0.82374000  0.48137000  1.0
  N  N215  1  0.30989000  0.17627000  0.01856000  1.0
  N  N216  1  0.35694000  0.45823000  0.53284000  1.0
  N  N217  1  0.89866000  0.54175000  0.96715000  1.0
  N  N218  1  0.64306000  0.54178000  0.46716000  1.0
  N  N219  1  0.10135000  0.45826000  0.03285000  1.0
  O  O220  1  0.38085000  0.86126000  0.04570000  1.0
  O  O221  1  0.51941000  0.13836000  0.45414000  1.0
  O  O222  1  0.61914000  0.13874000  0.95430000  1.0
  O  O223  1  0.48058000  0.86163000  0.54586000  1.0
  O  O224  1  0.23683000  0.96834000  0.03773000  1.0
  O  O225  1  0.26819000  0.03139000  0.46216000  1.0
  O  O226  1  0.76318000  0.03167000  0.96228000  1.0
  O  O227  1  0.73179000  0.96861000  0.53785000  1.0
  O  O228  1  0.45561000  0.90031000  0.42513000  1.0
  O  O229  1  0.55490000  0.10004000  0.07496000  1.0
  O  O230  1  0.54438000  0.09969000  0.57487000  1.0
  O  O231  1  0.44510000  0.89997000  0.92503000  1.0
  O  O232  1  0.70683000  0.00759000  0.41894000  1.0
  O  O233  1  0.69855000  0.99258000  0.08103000  1.0
  O  O234  1  0.29316000  0.99240000  0.58106000  1.0
  O  O235  1  0.30143000  0.00743000  0.91896000  1.0
