# generated using pymatgen
data_Zn4H12C40I8O13
_symmetry_space_group_name_H-M   'P 1'
_cell_length_a   15.03020000
_cell_length_b   15.12960000
_cell_length_c   15.68270000
_cell_angle_alpha   81.50530000
_cell_angle_beta   83.20210000
_cell_angle_gamma   89.90350000
_symmetry_Int_Tables_number   1
_chemical_formula_structural   Zn4H12C40I8O13
_chemical_formula_sum   'Zn4 H12 C40 I8 O13'
_cell_volume   3501.88711884
_cell_formula_units_Z   1
loop_
 _symmetry_equiv_pos_site_id
 _symmetry_equiv_pos_as_xyz
  1  'x, y, z'
loop_
 _atom_site_type_symbol
 _atom_site_label
 _atom_site_symmetry_multiplicity
 _atom_site_fract_x
 _atom_site_fract_y
 _atom_site_fract_z
 _atom_site_occupancy
  Zn  Zn0  1  0.56357000  0.55398000  0.58042000  1.0
  Zn  Zn1  1  0.57487000  0.44162000  0.41939000  1.0
  Zn  Zn2  1  0.42963000  0.59481000  0.43632000  1.0
  Zn  Zn3  1  0.41604000  0.41127000  0.57639000  1.0
  H  H4  1  0.53160000  0.87270000  0.40907000  1.0
  H  H5  1  0.47698000  0.35506000  0.07944000  1.0
  H  H6  1  0.43449000  0.24614000  0.99017000  1.0
  H  H7  1  0.50895000  0.60538000  0.77963000  1.0
  H  H8  1  0.58079000  0.18700000  0.36702000  1.0
  H  H9  1  0.57457000  0.02525000  0.35021000  1.0
  H  H10  1  0.46811000  0.80121000  0.68431000  1.0
  H  H11  1  0.82683000  0.64518000  0.50462000  1.0
  H  H12  1  0.99224000  0.66222000  0.50501000  1.0
  H  H13  1  0.56569000  0.70799000  0.86661000  1.0
  H  H14  1  0.13904000  0.60071000  0.49506000  1.0
  H  H15  1  0.42046000  0.29411000  0.83236000  1.0
  C  C16  1  0.50674000  0.26671000  0.49396000  1.0
  C  C17  1  0.48740000  0.52435000  0.12399000  1.0
  C  C18  1  0.57829000  0.65672000  0.12783000  1.0
  C  C19  1  0.48966000  0.73129000  0.53341000  1.0
  C  C20  1  0.46132000  0.42936000  0.83491000  1.0
  C  C21  1  0.50610000  0.16760000  0.49454000  1.0
  C  C22  1  0.49026000  0.82761000  0.54414000  1.0
  C  C23  1  0.47030000  0.94213000  0.63792000  1.0
  C  C24  1  0.47471000  0.85300000  0.62775000  1.0
  C  C25  1  0.51286000  0.89207000  0.47298000  1.0
  C  C26  1  0.51432000  0.98351000  0.48224000  1.0
  C  C27  1  0.44526000  0.31602000  0.96144000  1.0
  C  C28  1  0.48183000  0.01158000  0.56442000  1.0
  C  C29  1  0.46582000  0.10536000  0.56320000  1.0
  C  C30  1  0.55011000  0.13693000  0.41917000  1.0
  C  C31  1  0.73400000  0.50313000  0.49167000  1.0
  C  C32  1  0.54814000  0.04819000  0.41085000  1.0
  C  C33  1  0.83439000  0.50707000  0.48502000  1.0
  C  C34  1  0.17172000  0.47029000  0.46618000  1.0
  C  C35  1  0.04973000  0.38475000  0.42545000  1.0
  C  C36  1  0.14022000  0.39386000  0.43457000  1.0
  C  C37  1  0.11331000  0.53869000  0.47892000  1.0
  C  C38  1  0.46793000  0.37812000  0.01216000  1.0
  C  C39  1  0.02050000  0.52918000  0.47555000  1.0
  C  C40  1  0.98507000  0.44623000  0.45755000  1.0
  C  C41  1  0.88955000  0.43459000  0.47266000  1.0
  C  C42  1  0.87212000  0.59080000  0.49317000  1.0
  C  C43  1  0.26555000  0.48303000  0.48631000  1.0
  C  C44  1  0.96286000  0.60028000  0.49236000  1.0
  C  C45  1  0.51848000  0.56100000  0.26879000  1.0
  C  C46  1  0.46902000  0.44852000  0.73821000  1.0
  C  C47  1  0.58096000  0.67892000  0.03827000  1.0
  C  C48  1  0.52790000  0.58098000  0.17090000  1.0
  C  C49  1  0.48229000  0.46951000  0.97793000  1.0
  C  C50  1  0.43847000  0.34226000  0.87302000  1.0
  C  C51  1  0.48411000  0.49464000  0.88607000  1.0
  C  C52  1  0.50307000  0.53576000  0.03173000  1.0
  C  C53  1  0.54317000  0.61949000  0.98918000  1.0
  C  C54  1  0.54165000  0.64176000  0.89751000  1.0
  C  C55  1  0.51024000  0.58410000  0.84875000  1.0
  I  I56  1  0.64549000  0.73241000  0.20380000  1.0
  I  I57  1  0.47150000  0.96373000  0.76815000  1.0
  I  I58  1  0.83097000  0.30523000  0.50893000  1.0
  I  I59  1  0.01174000  0.29795000  0.34214000  1.0
  I  I60  1  0.23664000  0.30376000  0.39093000  1.0
  I  I61  1  0.64195000  0.79995000  0.97405000  1.0
  I  I62  1  0.38754000  0.43616000  0.20041000  1.0
  I  I63  1  0.35823000  0.14191000  0.65002000  1.0
  O  O64  1  0.49551000  0.50141000  0.50110000  1.0
  O  O65  1  0.56994000  0.50099000  0.29963000  1.0
  O  O66  1  0.40729000  0.41712000  0.70107000  1.0
  O  O67  1  0.46107000  0.60574000  0.30987000  1.0
  O  O68  1  0.53859000  0.49217000  0.69969000  1.0
  O  O69  1  0.69249000  0.54999000  0.54474000  1.0
  O  O70  1  0.29816000  0.41832000  0.53369000  1.0
  O  O71  1  0.54330000  0.31474000  0.42447000  1.0
  O  O72  1  0.45707000  0.71245000  0.46666000  1.0
  O  O73  1  0.47458000  0.29675000  0.56254000  1.0
  O  O74  1  0.52215000  0.67651000  0.59127000  1.0
  O  O75  1  0.69943000  0.45779000  0.44165000  1.0
  O  O76  1  0.30181000  0.55936000  0.45753000  1.0
