# generated using pymatgen
data_Zn4C40Br20O13
_symmetry_space_group_name_H-M   'P 1'
_cell_length_a   24.05993403
_cell_length_b   24.06020000
_cell_length_c   24.05860000
_cell_angle_alpha   66.46160000
_cell_angle_beta   72.52098863
_cell_angle_gamma   107.47620157
_symmetry_Int_Tables_number   1
_chemical_formula_structural   Zn4C40Br20O13
_chemical_formula_sum   'Zn8 C80 Br40 O26'
_cell_volume   10680.12200261
_cell_formula_units_Z   2
loop_
 _symmetry_equiv_pos_site_id
 _symmetry_equiv_pos_as_xyz
  1  'x, y, z'
loop_
 _atom_site_type_symbol
 _atom_site_label
 _atom_site_symmetry_multiplicity
 _atom_site_fract_x
 _atom_site_fract_y
 _atom_site_fract_z
 _atom_site_occupancy
  Zn  Zn0  1  0.05657000  0.09903000  0.45753000  1.0
  Zn  Zn1  1  0.05657000  0.95754000  0.48589000  1.0
  Zn  Zn2  1  0.94343000  0.95753000  0.59904000  1.0
  Zn  Zn3  1  0.94344000  0.98591000  0.45753000  1.0
  Zn  Zn4  1  0.94344000  0.40098000  0.04246000  1.0
  Zn  Zn5  1  0.05657000  0.54247000  0.90096000  1.0
  Zn  Zn6  1  0.94344000  0.54247000  0.01410000  1.0
  Zn  Zn7  1  0.05655000  0.51409000  0.04248000  1.0
  C  C8  1  0.18045000  0.09022000  0.40977000  1.0
  C  C9  1  1.00000000  0.86309000  0.63691000  1.0
  C  C10  1  0.99999000  0.09021000  0.59023000  1.0
  C  C11  1  0.81956000  0.90980000  0.59020000  1.0
  C  C12  1  0.00001000  0.13693000  0.36308000  1.0
  C  C13  1  0.99999000  0.90977000  0.40978000  1.0
  C  C14  1  0.00001000  0.40980000  0.90976000  1.0
  C  C15  1  0.00001000  0.63692000  0.86308000  1.0
  C  C16  1  0.81956000  0.40978000  0.09023000  1.0
  C  C17  1  0.99999000  0.59023000  0.09022000  1.0
  C  C18  1  0.99999000  0.36308000  0.13692000  1.0
  C  C19  1  0.18044000  0.59022000  0.90980000  1.0
  C  C20  1  0.00001000  0.19495000  0.30505000  1.0
  C  C21  1  1.00000000  0.30506000  0.19494000  1.0
  C  C22  1  0.95736000  0.18048000  0.27688000  1.0
  C  C23  1  0.04264000  0.31951000  0.22313000  1.0
  C  C24  1  0.95736000  0.23423000  0.22313000  1.0
  C  C25  1  0.04265000  0.26577000  0.27687000  1.0
  C  C26  1  1.00000000  0.80506000  0.69494000  1.0
  C  C27  1  0.00001000  0.69495000  0.80505000  1.0
  C  C28  1  0.95736000  0.77687000  0.76578000  1.0
  C  C29  1  0.04264000  0.72313000  0.73422000  1.0
  C  C30  1  0.95737000  0.72313000  0.81952000  1.0
  C  C31  1  0.04264000  0.77688000  0.68048000  1.0
  C  C32  1  1.00000000  0.37209000  0.87206000  1.0
  C  C33  1  0.95702000  0.29953000  0.90772000  1.0
  C  C34  1  0.95735000  0.26504000  0.87239000  1.0
  C  C35  1  0.99999000  0.30039000  0.80038000  1.0
  C  C36  1  0.04264000  0.37239000  0.76502000  1.0
  C  C37  1  0.04297000  0.40773000  0.79951000  1.0
  C  C38  1  0.99998000  0.26522000  0.76521000  1.0
  C  C39  1  0.99997000  0.23478000  0.73478000  1.0
  C  C40  1  0.99997000  0.19961000  0.69961000  1.0
  C  C41  1  0.95735000  0.12761000  0.73497000  1.0
  C  C42  1  0.95702000  0.09227000  0.70048000  1.0
  C  C43  1  0.99997000  0.12791000  0.62793000  1.0
  C  C44  1  0.04293000  0.20047000  0.59227000  1.0
  C  C45  1  0.04259000  0.23496000  0.62761000  1.0
  C  C46  1  0.00001000  0.62795000  0.12790000  1.0
  C  C47  1  0.04299000  0.63529000  0.15746000  1.0
  C  C48  1  0.04265000  0.67028000  0.19230000  1.0
  C  C49  1  1.00000000  0.69963000  0.19960000  1.0
  C  C50  1  0.95737000  0.69235000  0.17023000  1.0
  C  C51  1  0.95704000  0.65753000  0.13522000  1.0
  C  C52  1  0.99999000  0.73478000  0.23478000  1.0
  C  C53  1  0.99998000  0.76521000  0.26523000  1.0
  C  C54  1  0.99997000  0.80037000  0.30041000  1.0
  C  C55  1  0.04260000  0.80764000  0.32978000  1.0
  C  C56  1  0.04293000  0.84246000  0.36479000  1.0
  C  C57  1  0.99998000  0.87206000  0.37209000  1.0
  C  C58  1  0.95701000  0.86474000  0.34251000  1.0
  C  C59  1  0.95735000  0.82974000  0.30768000  1.0
  C  C60  1  0.74416000  0.37209000  0.12792000  1.0
  C  C61  1  0.70725000  0.29953000  0.15752000  1.0
  C  C62  1  0.63742000  0.26504000  0.19235000  1.0
  C  C63  1  0.60078000  0.30040000  0.19962000  1.0
  C  C64  1  0.63742000  0.37239000  0.17024000  1.0
  C  C65  1  0.70725000  0.40773000  0.13523000  1.0
  C  C66  1  0.53043000  0.26521000  0.23480000  1.0
  C  C67  1  0.46957000  0.23478000  0.26524000  1.0
  C  C68  1  0.39922000  0.19960000  0.30042000  1.0
  C  C69  1  0.36258000  0.12760000  0.32978000  1.0
  C  C70  1  0.29276000  0.09227000  0.36477000  1.0
  C  C71  1  0.25585000  0.12791000  0.37210000  1.0
  C  C72  1  0.29275000  0.20046000  0.34254000  1.0
  C  C73  1  0.36258000  0.23495000  0.30771000  1.0
  C  C74  1  0.25585000  0.62794000  0.87209000  1.0
  C  C75  1  0.29275000  0.65754000  0.79954000  1.0
  C  C76  1  0.36258000  0.69236000  0.76504000  1.0
  C  C77  1  0.39922000  0.69963000  0.80040000  1.0
  C  C78  1  0.36258000  0.67025000  0.87240000  1.0
  C  C79  1  0.29274000  0.63523000  0.90775000  1.0
  C  C80  1  0.46957000  0.73481000  0.76522000  1.0
  C  C81  1  0.53043000  0.76524000  0.73478000  1.0
  C  C82  1  0.60078000  0.80041000  0.69959000  1.0
  C  C83  1  0.63743000  0.82977000  0.62759000  1.0
  C  C84  1  0.70725000  0.86477000  0.59226000  1.0
  C  C85  1  0.74415000  0.87210000  0.62791000  1.0
  C  C86  1  0.70725000  0.84252000  0.70046000  1.0
  C  C87  1  0.63742000  0.80769000  0.73495000  1.0
  Br  Br88  1  0.89730000  0.08860000  0.30869000  1.0
  Br  Br89  1  0.10271000  0.41141000  0.19130000  1.0
  Br  Br90  1  0.89729000  0.20600000  0.19130000  1.0
  Br  Br91  1  0.10273000  0.29401000  0.30868000  1.0
  Br  Br92  1  0.89729000  0.80869000  0.79403000  1.0
  Br  Br93  1  0.10270000  0.69129000  0.70597000  1.0
  Br  Br94  1  0.89730000  0.69129000  0.91143000  1.0
  Br  Br95  1  0.10270000  0.80870000  0.58858000  1.0
  Br  Br96  1  0.89622000  0.24258000  0.00403000  1.0
  Br  Br97  1  0.10377000  0.50404000  0.74253000  1.0
  Br  Br98  1  0.09901000  0.41856000  0.66925000  1.0
  Br  Br99  1  0.90097000  0.16928000  0.91857000  1.0
  Br  Br100  1  0.90100000  0.08143000  0.83075000  1.0
  Br  Br101  1  0.09895000  0.33073000  0.58141000  1.0
  Br  Br102  1  0.10367000  0.25744000  0.49595000  1.0
  Br  Br103  1  0.89623000  0.99596000  0.75747000  1.0
  Br  Br104  1  0.10382000  0.59983000  0.15358000  1.0
  Br  Br105  1  0.89626000  0.65372000  0.09970000  1.0
  Br  Br106  1  0.90099000  0.73173000  0.18043000  1.0
  Br  Br107  1  0.09903000  0.68049000  0.23168000  1.0
  Br  Br108  1  0.09895000  0.76822000  0.31961000  1.0
  Br  Br109  1  0.90100000  0.81958000  0.26826000  1.0
  Br  Br110  1  0.89622000  0.90024000  0.34634000  1.0
  Br  Br111  1  0.10369000  0.84624000  0.40034000  1.0
  Br  Br112  1  0.74659000  0.24257000  0.15372000  1.0
  Br  Br113  1  0.74658000  0.50404000  0.09968000  1.0
  Br  Br114  1  0.58783000  0.41857000  0.18042000  1.0
  Br  Br115  1  0.58784000  0.16927000  0.23176000  1.0
  Br  Br116  1  0.41217000  0.08143000  0.31958000  1.0
  Br  Br117  1  0.41217000  0.33071000  0.26833000  1.0
  Br  Br118  1  0.25341000  0.25740000  0.34643000  1.0
  Br  Br119  1  0.25343000  0.99597000  0.40030000  1.0
  Br  Br120  1  0.25343000  0.65377000  0.74254000  1.0
  Br  Br121  1  0.25341000  0.59969000  0.00407000  1.0
  Br  Br122  1  0.41216000  0.68042000  0.91859000  1.0
  Br  Br123  1  0.41217000  0.73178000  0.66926000  1.0
  Br  Br124  1  0.58784000  0.81957000  0.58141000  1.0
  Br  Br125  1  0.58782000  0.76830000  0.83073000  1.0
  Br  Br126  1  0.74658000  0.84636000  0.75742000  1.0
  Br  Br127  1  0.74659000  0.90031000  0.49594000  1.0
  O  O128  1  0.00000000  0.00000000  0.50000000  1.0
  O  O129  1  0.15102000  0.12533000  0.41435000  1.0
  O  O130  1  0.03938000  0.88560000  0.57503000  1.0
  O  O131  1  0.96026000  0.02567000  0.62534000  1.0
  O  O132  1  0.15102000  0.02568000  0.43459000  1.0
  O  O133  1  0.03973000  0.12530000  0.52570000  1.0
  O  O134  1  0.96062000  0.88559000  0.65378000  1.0
  O  O135  1  0.84899000  0.91438000  0.62531000  1.0
  O  O136  1  0.96064000  0.07505000  0.38558000  1.0
  O  O137  1  0.84899000  0.93462000  0.52566000  1.0
  O  O138  1  0.03937000  0.15378000  0.38560000  1.0
  O  O139  1  0.03972000  0.91440000  0.43458000  1.0
  O  O140  1  0.96029000  0.93461000  0.41437000  1.0
  O  O141  1  1.00000000  0.50000000  1.00000000  1.0
  O  O142  1  0.96030000  0.37469000  0.97431000  1.0
  O  O143  1  0.03940000  0.61443000  0.84621000  1.0
  O  O144  1  0.84899000  0.47432000  0.06543000  1.0
  O  O145  1  0.03971000  0.47433000  0.87466000  1.0
  O  O146  1  0.84899000  0.37469000  0.08561000  1.0
  O  O147  1  0.96062000  0.61439000  0.92497000  1.0
  O  O148  1  0.96029000  0.58564000  0.06538000  1.0
  O  O149  1  0.03937000  0.42497000  0.11441000  1.0
  O  O150  1  0.03967000  0.56536000  0.08565000  1.0
  O  O151  1  0.96063000  0.34623000  0.11440000  1.0
  O  O152  1  0.15101000  0.58559000  0.87470000  1.0
  O  O153  1  0.15101000  0.56542000  0.97433000  1.0
