# generated using pymatgen
data_Zn4H13C45N3O13F2
_symmetry_space_group_name_H-M   'P 1'
_cell_length_a   25.61491587
_cell_length_b   25.61710000
_cell_length_c   25.62391089
_cell_angle_alpha   60.06210187
_cell_angle_beta   60.04929228
_cell_angle_gamma   60.08135229
_symmetry_Int_Tables_number   1
_chemical_formula_structural   Zn4H13C45N3O13F2
_chemical_formula_sum   'Zn8 H26 C90 N6 O26 F4'
_cell_volume   11906.52855901
_cell_formula_units_Z   2
loop_
 _symmetry_equiv_pos_site_id
 _symmetry_equiv_pos_as_xyz
  1  'x, y, z'
loop_
 _atom_site_type_symbol
 _atom_site_label
 _atom_site_symmetry_multiplicity
 _atom_site_fract_x
 _atom_site_fract_y
 _atom_site_fract_z
 _atom_site_occupancy
  Zn  Zn0  1  0.28162000  0.28215000  0.15580000  1.0
  Zn  Zn1  1  0.71838000  0.71785000  0.84420000  1.0
  Zn  Zn2  1  0.15575000  0.28199000  0.28160000  1.0
  Zn  Zn3  1  0.84425000  0.71801000  0.71840000  1.0
  Zn  Zn4  1  0.28126000  0.28184000  0.28124000  1.0
  Zn  Zn5  1  0.71874000  0.71816000  0.71876000  1.0
  Zn  Zn6  1  0.28128000  0.15612000  0.28171000  1.0
  Zn  Zn7  1  0.71872000  0.84388000  0.71829000  1.0
  H  H8  1  0.98213000  0.06305000  0.39699000  1.0
  H  H9  1  0.93224000  0.47884000  0.47596000  1.0
  H  H10  1  0.06315000  0.39698000  0.98215000  1.0
  H  H11  1  0.93685000  0.60302000  0.01785000  1.0
  H  H12  1  0.06757000  0.51781000  0.88746000  1.0
  H  H13  1  0.93242000  0.48220000  0.11254000  1.0
  H  H14  1  0.52334000  0.06832000  0.88720000  1.0
  H  H15  1  0.47667000  0.93168000  0.11280000  1.0
  H  H16  1  0.55485000  0.39947000  0.06817000  1.0
  H  H17  1  0.44515000  0.60053000  0.93183000  1.0
  H  H18  1  0.60105000  0.44476000  0.93257000  1.0
  H  H19  1  0.01787000  0.93695000  0.60301000  1.0
  H  H20  1  0.39895000  0.55524000  0.06743000  1.0
  H  H21  1  0.52224000  0.52321000  0.06756000  1.0
  H  H22  1  0.47776000  0.47679000  0.93244000  1.0
  H  H23  1  0.40011000  0.06923000  0.55492000  1.0
  H  H24  1  0.59989000  0.93077000  0.44508000  1.0
  H  H25  1  0.52485000  0.06849000  0.51975000  1.0
  H  H26  1  0.47515000  0.93151000  0.48025000  1.0
  H  H27  1  0.88744000  0.06745000  0.51783000  1.0
  H  H28  1  0.11256000  0.93255000  0.48217000  1.0
  H  H29  1  0.06916000  0.55427000  0.39992000  1.0
  H  H30  1  0.93084000  0.44573000  0.60008000  1.0
  H  H31  1  0.93356000  0.60157000  0.44425000  1.0
  H  H32  1  0.06644000  0.39843000  0.55575000  1.0
  H  H33  1  0.06776000  0.52116000  0.52404000  1.0
  C  C34  1  0.15027000  0.15057000  0.34934000  1.0
  C  C35  1  0.44426000  0.53117000  0.03711000  1.0
  C  C36  1  0.53095000  0.44454000  0.03753000  1.0
  C  C37  1  0.46905000  0.55546000  0.96247000  1.0
  C  C38  1  0.38953000  0.38940000  0.11080000  1.0
  C  C39  1  0.61047000  0.61060000  0.88920000  1.0
  C  C40  1  0.48801000  0.48748000  0.96199000  1.0
  C  C41  1  0.51199000  0.51252000  0.03801000  1.0
  C  C42  1  0.46210000  0.46206000  0.03756000  1.0
  C  C43  1  0.53790000  0.53794000  0.96244000  1.0
  C  C44  1  0.42314000  0.42307000  0.07702000  1.0
  C  C45  1  0.84973000  0.84943000  0.65066000  1.0
  C  C46  1  0.57686000  0.57693000  0.92298000  1.0
  C  C47  1  0.46938000  0.96425000  0.55518000  1.0
  C  C48  1  0.53062000  0.03575000  0.44482000  1.0
  C  C49  1  0.34996000  0.34982000  0.15020000  1.0
  C  C50  1  0.65004000  0.65018000  0.84980000  1.0
  C  C51  1  0.44478000  0.03862000  0.53065000  1.0
  C  C52  1  0.55522000  0.96138000  0.46935000  1.0
  C  C53  1  0.38888000  0.11066000  0.38970000  1.0
  C  C54  1  0.61112000  0.88934000  0.61030000  1.0
  C  C55  1  0.48662000  0.96165000  0.48887000  1.0
  C  C56  1  0.48712000  0.96189000  0.06270000  1.0
  C  C57  1  0.51338000  0.03835000  0.51113000  1.0
  C  C58  1  0.46088000  0.03738000  0.46270000  1.0
  C  C59  1  0.53912000  0.96262000  0.53730000  1.0
  C  C60  1  0.42188000  0.07667000  0.42386000  1.0
  C  C61  1  0.57812000  0.92333000  0.57614000  1.0
  C  C62  1  0.01523000  0.95995000  0.47006000  1.0
  C  C63  1  0.98476000  0.04006000  0.52994000  1.0
  C  C64  1  0.98955000  0.03510000  0.44315000  1.0
  C  C65  1  0.01045000  0.96490000  0.55685000  1.0
  C  C66  1  0.11034000  0.11081000  0.38923000  1.0
  C  C67  1  0.51288000  0.03811000  0.93730000  1.0
  C  C68  1  0.88966000  0.88919000  0.61077000  1.0
  C  C69  1  0.06234000  0.96235000  0.49061000  1.0
  C  C70  1  0.93766000  0.03765000  0.50939000  1.0
  C  C71  1  0.03846000  0.03753000  0.46161000  1.0
  C  C72  1  0.96155000  0.96247000  0.53838000  1.0
  C  C73  1  0.15047000  0.34945000  0.15028000  1.0
  C  C74  1  0.84953000  0.65055000  0.84972000  1.0
  C  C75  1  0.07704000  0.07694000  0.42255000  1.0
  C  C76  1  0.92296000  0.92306000  0.57745000  1.0
  C  C77  1  0.96343000  0.55603000  0.46855000  1.0
  C  C78  1  0.46210000  0.03731000  0.03921000  1.0
  C  C79  1  0.03657000  0.44397000  0.53145000  1.0
  C  C80  1  0.03807000  0.53062000  0.44478000  1.0
  C  C81  1  0.96193000  0.46938000  0.55522000  1.0
  C  C82  1  0.11062000  0.38944000  0.38951000  1.0
  C  C83  1  0.88938000  0.61056000  0.61049000  1.0
  C  C84  1  0.96190000  0.48862000  0.48699000  1.0
  C  C85  1  0.03810000  0.51138000  0.51301000  1.0
  C  C86  1  0.03749000  0.46209000  0.46207000  1.0
  C  C87  1  0.96251000  0.53791000  0.53793000  1.0
  C  C88  1  0.07689000  0.42309000  0.42312000  1.0
  C  C89  1  0.53790000  0.96269000  0.96079000  1.0
  C  C90  1  0.92311000  0.57691000  0.57688000  1.0
  C  C91  1  0.95999000  0.46999000  0.01523000  1.0
  C  C92  1  0.04001000  0.53001000  0.98477000  1.0
  C  C93  1  0.03517000  0.44314000  0.98956000  1.0
  C  C94  1  0.96483000  0.55686000  0.01044000  1.0
  C  C95  1  0.11067000  0.38935000  0.11041000  1.0
  C  C96  1  0.88933000  0.61065000  0.88959000  1.0
  C  C97  1  0.34950000  0.15027000  0.34974000  1.0
  C  C98  1  0.65050000  0.84972000  0.65026000  1.0
  C  C99  1  0.96229000  0.49062000  0.06233000  1.0
  C  C100  1  0.42326000  0.07643000  0.07792000  1.0
  C  C101  1  0.03771000  0.50938000  0.93767000  1.0
  C  C102  1  0.03750000  0.46168000  0.03847000  1.0
  C  C103  1  0.96250000  0.53832000  0.96153000  1.0
  C  C104  1  0.07687000  0.42266000  0.07707000  1.0
  C  C105  1  0.92313000  0.57734000  0.92293000  1.0
  C  C106  1  0.15008000  0.34985000  0.34991000  1.0
  C  C107  1  0.84992000  0.65015000  0.65009000  1.0
  C  C108  1  0.34927000  0.15065000  0.15058000  1.0
  C  C109  1  0.65072000  0.84936000  0.84942000  1.0
  C  C110  1  0.55443000  0.96223000  0.01291000  1.0
  C  C111  1  0.57674000  0.92357000  0.92208000  1.0
  C  C112  1  0.44558000  0.03777000  0.98709000  1.0
  C  C113  1  0.53186000  0.03764000  0.98740000  1.0
  C  C114  1  0.46814000  0.96237000  0.01260000  1.0
  C  C115  1  0.38953000  0.11066000  0.11078000  1.0
  C  C116  1  0.61047000  0.88934000  0.88922000  1.0
  C  C117  1  0.56485000  0.07571000  0.97530000  1.0
  C  C118  1  0.43515000  0.92429000  0.02470000  1.0
  C  C119  1  0.03043000  0.91806000  0.43964000  1.0
  C  C120  1  0.96957000  0.08194000  0.56036000  1.0
  C  C121  1  0.91818000  0.43943000  0.03047000  1.0
  C  C122  1  0.55574000  0.46883000  0.96289000  1.0
  C  C123  1  0.08182000  0.56057000  0.96953000  1.0
  N  N124  1  0.59221000  0.10651000  0.96587000  1.0
  N  N125  1  0.40779000  0.89349000  0.03413000  1.0
  N  N126  1  0.04276000  0.88357000  0.41485000  1.0
  N  N127  1  0.95723000  0.11644000  0.58515000  1.0
  N  N128  1  0.88376000  0.41449000  0.04286000  1.0
  N  N129  1  0.11624000  0.58551000  0.95714000  1.0
  O  O130  1  0.24983000  0.24993000  0.24986000  1.0
  O  O131  1  0.66593000  0.66603000  0.78942000  1.0
  O  O132  1  0.21039000  0.12114000  0.33400000  1.0
  O  O133  1  0.78961000  0.87886000  0.66600000  1.0
  O  O134  1  0.33437000  0.33419000  0.12094000  1.0
  O  O135  1  0.66563000  0.66581000  0.87906000  1.0
  O  O136  1  0.12113000  0.33407000  0.21039000  1.0
  O  O137  1  0.87887000  0.66593000  0.78961000  1.0
  O  O138  1  0.33375000  0.21048000  0.33408000  1.0
  O  O139  1  0.66625000  0.78952000  0.66592000  1.0
  O  O140  1  0.12082000  0.33447000  0.33407000  1.0
  O  O141  1  0.75018000  0.75007000  0.75013000  1.0
  O  O142  1  0.87918000  0.66553000  0.66593000  1.0
  O  O143  1  0.33389000  0.12119000  0.21062000  1.0
  O  O144  1  0.66611000  0.87881000  0.78938000  1.0
  O  O145  1  0.21044000  0.33380000  0.33430000  1.0
  O  O146  1  0.78956000  0.66620000  0.66570000  1.0
  O  O147  1  0.33366000  0.21062000  0.12133000  1.0
  O  O148  1  0.66634000  0.78938000  0.87867000  1.0
  O  O149  1  0.21057000  0.33381000  0.12112000  1.0
  O  O150  1  0.78943000  0.66619000  0.87888000  1.0
  O  O151  1  0.33422000  0.12084000  0.33407000  1.0
  O  O152  1  0.66578000  0.87916000  0.66593000  1.0
  O  O153  1  0.12125000  0.21065000  0.33366000  1.0
  O  O154  1  0.87875000  0.78935000  0.66634000  1.0
  O  O155  1  0.33407000  0.33397000  0.21058000  1.0
  F  F156  1  0.60971000  0.92419000  0.02557000  1.0
  F  F157  1  0.39029000  0.07581000  0.97443000  1.0
  F  F158  1  0.43840000  0.92750000  0.61199000  1.0
  F  F159  1  0.56160000  0.07250000  0.38801000  1.0
