# generated using pymatgen
data_CsNi2H40C38I3(NO2)4
_symmetry_space_group_name_H-M   'P 1'
_cell_length_a   9.62062000
_cell_length_b   9.85429000
_cell_length_c   11.20760000
_cell_angle_alpha   101.41300000
_cell_angle_beta   91.02570000
_cell_angle_gamma   101.39000000
_symmetry_Int_Tables_number   1
_chemical_formula_structural   CsNi2H40C38I3(NO2)4
_chemical_formula_sum   'Cs1 Ni2 H40 C38 I3 N4 O8'
_cell_volume   1019.21082586
_cell_formula_units_Z   1
loop_
 _symmetry_equiv_pos_site_id
 _symmetry_equiv_pos_as_xyz
  1  'x, y, z'
loop_
 _atom_site_type_symbol
 _atom_site_label
 _atom_site_symmetry_multiplicity
 _atom_site_fract_x
 _atom_site_fract_y
 _atom_site_fract_z
 _atom_site_occupancy
  Cs  Cs0  1  0.00000000  0.50000000  0.50000000  1.0
  Ni  Ni1  1  0.36396000  0.39257000  0.37935000  1.0
  Ni  Ni2  1  0.63604000  0.60743000  0.62065000  1.0
  H  H3  1  0.19322000  0.92847000  0.24130000  1.0
  H  H4  1  0.80678000  0.07153000  0.75870000  1.0
  H  H5  1  0.28830000  0.85453000  0.04085000  1.0
  H  H6  1  0.71170000  0.14547000  0.95915000  1.0
  H  H7  1  0.37938000  0.62973000  0.99549000  1.0
  H  H8  1  0.62062000  0.37027000  0.00451000  1.0
  H  H9  1  0.39261000  0.41005000  0.04334000  1.0
  H  H10  1  0.60738000  0.58994000  0.95666000  1.0
  H  H11  1  0.40377000  0.20653000  0.05681000  1.0
  H  H12  1  0.59623000  0.79347000  0.94319000  1.0
  H  H13  1  0.32546000  0.14570000  0.18334000  1.0
  H  H14  1  0.67455000  0.85430000  0.81666000  1.0
  H  H15  1  0.54390000  0.07540000  0.18310000  1.0
  H  H16  1  0.45611000  0.92461000  0.81690000  1.0
  H  H17  1  0.64089000  0.22903000  0.14081000  1.0
  H  H18  1  0.35912000  0.77099000  0.85919000  1.0
  H  H19  1  0.67316000  0.20690000  0.36826000  1.0
  H  H20  1  0.32684000  0.79311000  0.63174000  1.0
  H  H21  1  0.65660000  0.37117000  0.33572000  1.0
  H  H22  1  0.34341000  0.62884000  0.66429000  1.0
  H  H23  1  0.55286000  0.14012000  0.50327000  1.0
  H  H24  1  0.44714000  0.85988000  0.49673000  1.0
  H  H25  1  0.45238000  0.05247000  0.66803000  1.0
  H  H26  1  0.54761000  0.94753000  0.33197000  1.0
  H  H27  1  0.30295000  0.07602000  0.84874000  1.0
  H  H28  1  0.69704000  0.92397000  0.15126000  1.0
  H  H29  1  0.16093000  0.26134000  0.88313000  1.0
  H  H30  1  0.83906000  0.73866000  0.11687000  1.0
  H  H31  1  0.07771000  0.91170000  0.53799000  1.0
  H  H32  1  0.92228000  0.08829000  0.46201000  1.0
  H  H33  1  0.02421000  0.88916000  0.37893000  1.0
  H  H34  1  0.97579000  0.11084000  0.62107000  1.0
  H  H35  1  0.19057000  0.00186000  0.44044000  1.0
  H  H36  1  0.80943000  0.99814000  0.55956000  1.0
  H  H37  1  0.02191000  0.55884000  0.84104000  1.0
  H  H38  1  0.97809000  0.44116000  0.15895000  1.0
  H  H39  1  0.14785000  0.49862000  0.92682000  1.0
  H  H40  1  0.85215000  0.50138000  0.07318000  1.0
  H  H41  1  0.99187000  0.37620000  0.85285000  1.0
  H  H42  1  0.00813000  0.62381000  0.14715000  1.0
  C  C43  1  0.28739000  0.62281000  0.28982000  1.0
  C  C44  1  0.71261000  0.37719000  0.71018000  1.0
  C  C45  1  0.23418000  0.75145000  0.31201000  1.0
  C  C46  1  0.76582000  0.24855000  0.68799000  1.0
  C  C47  1  0.23666000  0.83272000  0.22380000  1.0
  C  C48  1  0.76333000  0.16728000  0.77620000  1.0
  C  C49  1  0.29057000  0.79026000  0.10925000  1.0
  C  C50  1  0.70942000  0.20974000  0.89074000  1.0
  C  C51  1  0.34022000  0.66617000  0.08441000  1.0
  C  C52  1  0.65978000  0.33382000  0.91560000  1.0
  C  C53  1  0.33944000  0.58151000  0.17307000  1.0
  C  C54  1  0.66056000  0.41849000  0.82693000  1.0
  C  C55  1  0.37943000  0.44772000  0.14064000  1.0
  C  C56  1  0.62057000  0.55227000  0.85936000  1.0
  C  C57  1  0.41412000  0.22063000  0.15664000  1.0
  C  C58  1  0.58588000  0.77937000  0.84336000  1.0
  C  C59  1  0.55537000  0.19071000  0.19702000  1.0
  C  C60  1  0.44464000  0.80930000  0.80298000  1.0
  C  C61  1  0.59986000  0.26160000  0.32952000  1.0
  C  C62  1  0.40014000  0.73840000  0.67049000  1.0
  C  C63  1  0.47290000  0.20430000  0.49754000  1.0
  C  C64  1  0.52710000  0.79570000  0.50246000  1.0
  C  C65  1  0.38088000  0.21608000  0.59579000  1.0
  C  C66  1  0.61912000  0.78393000  0.40421000  1.0
  C  C67  1  0.38403000  0.12951000  0.68247000  1.0
  C  C68  1  0.61597000  0.87048000  0.31754000  1.0
  C  C69  1  0.30480000  0.14477000  0.78351000  1.0
  C  C70  1  0.69519000  0.85523000  0.21649000  1.0
  C  C71  1  0.22381000  0.25086000  0.80321000  1.0
  C  C72  1  0.77618000  0.74914000  0.19679000  1.0
  C  C73  1  0.22139000  0.33940000  0.72128000  1.0
  C  C74  1  0.77861000  0.66061000  0.27872000  1.0
  C  C75  1  0.29778000  0.32203000  0.61197000  1.0
  C  C76  1  0.70222000  0.67797000  0.38804000  1.0
  C  C77  1  0.11435000  0.90428000  0.44542000  1.0
  C  C78  1  0.88565000  0.09572000  0.55458000  1.0
  C  C79  1  0.07281000  0.46990000  0.84633000  1.0
  C  C80  1  0.92719000  0.53011000  0.15367000  1.0
  I  I81  1  0.97882000  0.82226000  0.75587000  1.0
  I  I82  1  0.02119000  0.17774000  0.24414000  1.0
  I  I83  1  0.00000000  0.99999000  0.00000000  1.0
  N  N84  1  0.39475000  0.36278000  0.21344000  1.0
  N  N85  1  0.60525000  0.63721000  0.78656000  1.0
  N  N86  1  0.47803000  0.26848000  0.40613000  1.0
  N  N87  1  0.52198000  0.73152000  0.59388000  1.0
  O  O88  1  0.28054000  0.54884000  0.37544000  1.0
  O  O89  1  0.71946000  0.45116000  0.62456000  1.0
  O  O90  1  0.28971000  0.40508000  0.53473000  1.0
  O  O91  1  0.71029000  0.59493000  0.46528000  1.0
  O  O92  1  0.18026000  0.78377000  0.42420000  1.0
  O  O93  1  0.81974000  0.21623000  0.57580000  1.0
  O  O94  1  0.14628000  0.44596000  0.73595000  1.0
  O  O95  1  0.85372000  0.55404000  0.26405000  1.0
