# generated using pymatgen
data_Zn4H53C71N19O4
_symmetry_space_group_name_H-M   'P 1'
_cell_length_a   18.58120000
_cell_length_b   19.84665460
_cell_length_c   19.99630000
_cell_angle_alpha   108.85319110
_cell_angle_beta   108.50700000
_cell_angle_gamma   108.80646160
_symmetry_Int_Tables_number   1
_chemical_formula_structural   Zn4H53C71N19O4
_chemical_formula_sum   'Zn4 H53 C71 N19 O4'
_cell_volume   5828.66323877
_cell_formula_units_Z   1
loop_
 _symmetry_equiv_pos_site_id
 _symmetry_equiv_pos_as_xyz
  1  'x, y, z'
loop_
 _atom_site_type_symbol
 _atom_site_label
 _atom_site_symmetry_multiplicity
 _atom_site_fract_x
 _atom_site_fract_y
 _atom_site_fract_z
 _atom_site_occupancy
  Zn  Zn0  1  0.86872000  0.87141000  0.49687000  1.0
  Zn  Zn1  1  0.09842000  0.08262000  0.49878000  1.0
  Zn  Zn2  1  0.08633000  0.97529000  0.59898000  1.0
  Zn  Zn3  1  0.89540000  0.98955000  0.40103000  1.0
  H  H4  1  0.82713000  0.86368000  0.64611000  1.0
  H  H5  1  0.86837000  0.47912000  0.30351000  1.0
  H  H6  1  0.50588000  0.33863000  0.92620000  1.0
  H  H7  1  0.43172000  0.50599000  0.86789000  1.0
  H  H8  1  0.55843000  0.61978000  0.99537000  1.0
  H  H9  1  0.85708000  0.05505000  0.93336000  1.0
  H  H10  1  0.14956000  0.14629000  0.14203000  1.0
  H  H11  1  0.84217000  0.11171000  0.48828000  1.0
  H  H12  1  0.16621000  0.24877000  0.62474000  1.0
  H  H13  1  0.81055000  0.96779000  0.61043000  1.0
  H  H14  1  0.86171000  0.13916000  0.35214000  1.0
  H  H15  1  0.28866000  0.11785000  0.51377000  1.0
  H  H16  1  0.10098000  0.02621000  0.76744000  1.0
  H  H17  1  0.69281000  0.69942000  0.33749000  1.0
  H  H18  1  0.81379000  0.92848000  0.23321000  1.0
  H  H19  1  0.75711000  0.93313000  0.11787000  1.0
  H  H20  1  0.84580000  0.92106000  0.10981000  1.0
  H  H21  1  0.85312000  0.01851000  0.14697000  1.0
  H  H22  1  0.15537000  0.36924000  0.54198000  1.0
  H  H23  1  0.18888000  0.35057000  0.46671000  1.0
  H  H24  1  0.32368000  0.36016000  0.56329000  1.0
  H  H25  1  0.31636000  0.45066000  0.60184000  1.0
  H  H26  1  0.13035000  0.86191000  0.48168000  1.0
  H  H27  1  0.29042000  0.38046000  0.63865000  1.0
  H  H28  1  0.76469000  0.34721000  0.21971000  1.0
  H  H29  1  0.77345000  0.38323000  0.31763000  1.0
  H  H30  1  0.71918000  0.24108000  0.29901000  1.0
  H  H31  1  0.64339000  0.24701000  0.22286000  1.0
  H  H32  1  0.71014000  0.20541000  0.20119000  1.0
  H  H33  1  0.75096000  0.54870000  0.09005000  1.0
  H  H34  1  0.74437000  0.45361000  0.03589000  1.0
  H  H35  1  0.76381000  0.43052000  0.15613000  1.0
  H  H36  1  0.85258000  0.52036000  0.18064000  1.0
  H  H37  1  0.15302000  0.07513000  0.36510000  1.0
  H  H38  1  0.77268000  0.52698000  0.20939000  1.0
  H  H39  1  0.81733000  0.08408000  0.03243000  1.0
  H  H40  1  0.83256000  0.15802000  0.15776000  1.0
  H  H41  1  0.91910000  0.22574000  0.15271000  1.0
  H  H42  1  0.93795000  0.17160000  0.20630000  1.0
  H  H43  1  0.12233000  0.10432000  0.94079000  1.0
  H  H44  1  0.26941000  0.17485000  0.03005000  1.0
  H  H45  1  0.23815000  0.11989000  0.08009000  1.0
  H  H46  1  0.24878000  0.21902000  0.10967000  1.0
  H  H47  1  0.29892000  0.22711000  0.88010000  1.0
  H  H48  1  0.85559000  0.70791000  0.37604000  1.0
  H  H49  1  0.35180000  0.19041000  0.82851000  1.0
  H  H50  1  0.31694000  0.07276000  0.85736000  1.0
  H  H51  1  0.37558000  0.16593000  0.94792000  1.0
  H  H52  1  0.26225000  0.10767000  0.90752000  1.0
  H  H53  1  0.81440000  0.83254000  0.23662000  1.0
  H  H54  1  0.28890000  0.98324000  0.64665000  1.0
  H  H55  1  0.14653000  0.47484000  0.41236000  1.0
  H  H56  1  0.14513000  0.59749000  0.40572000  1.0
  C  C57  1  0.89474000  0.89786000  0.66355000  1.0
  C  C58  1  0.92101000  0.75711000  0.40884000  1.0
  C  C59  1  0.78894000  0.81385000  0.27316000  1.0
  C  C60  1  0.07040000  0.21518000  0.45986000  1.0
  C  C61  1  0.27468000  0.01438000  0.61256000  1.0
  C  C62  1  0.73467000  0.73478000  0.25430000  1.0
  C  C63  1  0.32567000  0.05563000  0.58487000  1.0
  C  C64  1  0.99691000  0.75474000  0.41144000  1.0
  C  C65  1  0.01890000  0.03890000  0.27767000  1.0
  C  C66  1  0.74786000  0.07813000  0.58139000  1.0
  C  C67  1  0.68902000  0.08616000  0.59261000  1.0
  C  C68  1  0.00371000  0.22567000  0.41289000  1.0
  C  C69  1  0.62009000  0.08809000  0.59922000  1.0
  C  C70  1  0.55275000  0.08373000  0.60076000  1.0
  C  C71  1  0.47758000  0.07592000  0.59863000  1.0
  C  C72  1  0.19123000  0.14605000  0.72225000  1.0
  C  C73  1  0.40691000  0.06641000  0.59371000  1.0
  C  C74  1  0.08510000  0.54424000  0.38399000  1.0
  C  C75  1  0.00662000  0.54663000  0.35544000  1.0
  C  C76  1  0.92857000  0.47683000  0.32592000  1.0
  C  C77  1  0.92947000  0.40796000  0.32881000  1.0
  C  C78  1  0.00909000  0.40727000  0.36271000  1.0
  C  C79  1  0.22586000  0.22180000  0.72334000  1.0
  C  C80  1  0.08566000  0.47575000  0.38765000  1.0
  C  C81  1  0.00539000  0.61963000  0.36318000  1.0
  C  C82  1  0.00954000  0.34146000  0.37511000  1.0
  C  C83  1  0.00836000  0.28765000  0.39263000  1.0
  C  C84  1  0.84130000  0.07005000  0.51261000  1.0
  C  C85  1  0.00396000  0.68401000  0.38058000  1.0
  C  C86  1  0.51655000  0.40001000  0.94061000  1.0
  C  C87  1  0.45665000  0.41393000  0.89037000  1.0
  C  C88  1  0.47566000  0.49447000  0.90808000  1.0
  C  C89  1  0.54657000  0.55777000  0.97879000  1.0
  C  C90  1  0.80427000  0.05411000  0.56104000  1.0
  C  C91  1  0.60165000  0.54408000  0.03408000  1.0
  C  C92  1  0.58897000  0.46385000  0.01092000  1.0
  C  C93  1  0.37683000  0.34845000  0.82695000  1.0
  C  C94  1  0.65882000  0.60812000  0.11290000  1.0
  C  C95  1  0.69520000  0.66528000  0.18011000  1.0
  C  C96  1  0.16483000  0.20761000  0.64986000  1.0
  C  C97  1  0.30515000  0.29119000  0.77905000  1.0
  C  C98  1  0.93685000  0.09958000  0.05904000  1.0
  C  C99  1  0.01835000  0.11565000  0.11538000  1.0
  C  C100  1  0.08681000  0.12976000  0.09636000  1.0
  C  C101  1  0.72787000  0.74497000  0.32478000  1.0
  C  C102  1  0.07337000  0.11455000  0.01895000  1.0
  C  C103  1  0.98629000  0.07755000  0.95744000  1.0
  C  C104  1  0.92173000  0.07685000  0.97999000  1.0
  C  C105  1  0.02651000  0.10315000  0.18247000  1.0
  C  C106  1  0.96911000  0.03871000  0.87711000  1.0
  C  C107  1  0.96304000  0.99968000  0.81208000  1.0
  C  C108  1  0.82563000  0.99620000  0.57514000  1.0
  C  C109  1  0.02673000  0.07434000  0.22823000  1.0
  C  C110  1  0.92817000  0.15624000  0.38960000  1.0
  C  C111  1  0.03472000  0.98020000  0.72571000  1.0
  C  C112  1  0.27426000  0.08305000  0.54432000  1.0
  C  C113  1  0.96262000  0.96045000  0.73930000  1.0
  C  C114  1  0.82759000  0.96023000  0.14648000  1.0
  C  C115  1  0.19377000  0.34466000  0.52062000  1.0
  C  C116  1  0.28640000  0.38606000  0.58485000  1.0
  C  C117  1  0.77519000  0.33562000  0.27152000  1.0
  C  C118  1  0.70804000  0.25225000  0.24724000  1.0
  C  C119  1  0.73298000  0.48765000  0.08372000  1.0
  C  C120  1  0.78329000  0.49150000  0.16209000  1.0
  C  C121  1  0.89176000  0.16737000  0.15273000  1.0
  C  C122  1  0.22779000  0.16190000  0.05762000  1.0
  C  C123  1  0.06178000  0.83559000  0.46261000  1.0
  C  C124  1  0.30089000  0.17245000  0.84572000  1.0
  C  C125  1  0.31439000  0.12677000  0.89207000  1.0
  C  C126  1  0.94140000  0.99227000  0.27633000  1.0
  C  C127  1  0.08379000  0.04461000  0.34308000  1.0
  N  N128  1  0.92392000  0.88312000  0.60933000  1.0
  N  N129  1  0.11738000  0.09287000  0.65400000  1.0
  N  N130  1  0.87886000  0.02312000  0.49783000  1.0
  N  N131  1  0.10129000  0.13031000  0.60826000  1.0
  N  N132  1  0.86932000  0.97796000  0.53626000  1.0
  N  N133  1  0.94844000  0.10972000  0.41949000  1.0
  N  N134  1  0.01159000  0.93469000  0.64870000  1.0
  N  N135  1  0.77346000  0.82376000  0.38029000  1.0
  N  N136  1  0.85751000  0.96940000  0.22738000  1.0
  N  N137  1  0.87142000  0.09841000  0.08018000  1.0
  N  N138  1  0.13974000  0.13052000  0.99999000  1.0
  N  N139  1  0.20000000  0.06020000  0.54807000  1.0
  N  N140  1  0.02667000  0.88136000  0.48948000  1.0
  N  N141  1  0.96085000  0.97439000  0.33775000  1.0
  N  N142  1  0.04977000  0.00759000  0.37973000  1.0
  N  N143  1  0.94034000  0.83270000  0.45620000  1.0
  N  N144  1  0.81086000  0.86652000  0.34739000  1.0
  N  N145  1  0.20026000  0.01750000  0.59025000  1.0
  N  N146  1  0.03685000  0.14647000  0.46339000  1.0
  O  O147  1  0.15735000  0.25940000  0.49904000  1.0
  O  O148  1  0.85775000  0.33860000  0.30308000  1.0
  O  O149  1  0.64160000  0.44544000  0.05914000  1.0
  O  O150  1  0.21885000  0.11847000  0.77355000  1.0
