# generated using pymatgen
data_ZnH11C20N3O4
_symmetry_space_group_name_H-M   'P 1'
_cell_length_a   13.97530000
_cell_length_b   15.31280000
_cell_length_c   17.16620000
_cell_angle_alpha   91.33950000
_cell_angle_beta   94.72520000
_cell_angle_gamma   90.00680000
_symmetry_Int_Tables_number   1
_chemical_formula_structural   ZnH11C20N3O4
_chemical_formula_sum   'Zn2 H22 C40 N6 O8'
_cell_volume   3660.08976274
_cell_formula_units_Z   2
loop_
 _symmetry_equiv_pos_site_id
 _symmetry_equiv_pos_as_xyz
  1  'x, y, z'
loop_
 _atom_site_type_symbol
 _atom_site_label
 _atom_site_symmetry_multiplicity
 _atom_site_fract_x
 _atom_site_fract_y
 _atom_site_fract_z
 _atom_site_occupancy
  Zn  Zn0  1  0.39965000  0.49946000  0.49628000  1.0
  Zn  Zn1  1  0.60036000  0.49802000  0.50137000  1.0
  H  H2  1  0.36721000  0.54857000  0.74088000  1.0
  H  H3  1  0.63206000  0.50352000  0.25773000  1.0
  H  H4  1  0.74723000  0.37646000  0.44609000  1.0
  H  H5  1  0.25961000  0.56384000  0.60460000  1.0
  H  H6  1  0.75781000  0.62028000  0.55487000  1.0
  H  H7  1  0.23528000  0.43599000  0.38907000  1.0
  H  H8  1  0.93716000  0.62693000  0.55657000  1.0
  H  H9  1  0.05550000  0.43292000  0.38549000  1.0
  H  H10  1  0.37544000  0.56047000  0.88776000  1.0
  H  H11  1  0.62733000  0.51890000  0.11161000  1.0
  H  H12  1  0.31984000  0.53464000  0.09998000  1.0
  H  H13  1  0.67974000  0.51719000  0.89796000  1.0
  H  H14  1  0.32468000  0.51686000  0.24626000  1.0
  H  H15  1  0.67058000  0.50295000  0.75047000  1.0
  H  H16  1  0.37312000  0.22946000  0.57053000  1.0
  H  H17  1  0.64349000  0.77355000  0.57241000  1.0
  H  H18  1  0.63681000  0.21399000  0.45985000  1.0
  H  H19  1  0.35932000  0.77955000  0.45808000  1.0
  H  H20  1  0.63566000  0.05167000  0.46948000  1.0
  H  H21  1  0.35951000  0.94267000  0.46870000  1.0
  H  H22  1  0.92613000  0.37149000  0.44254000  1.0
  H  H23  1  0.08097000  0.56671000  0.61121000  1.0
  C  C24  1  0.50371000  0.32864000  0.50472000  1.0
  C  C25  1  0.50322000  0.66947000  0.50377000  1.0
  C  C26  1  0.43028000  0.19013000  0.54833000  1.0
  C  C27  1  0.58164000  0.81099000  0.54949000  1.0
  C  C28  1  0.50433000  0.23124000  0.51336000  1.0
  C  C29  1  0.50197000  0.76714000  0.51315000  1.0
  C  C30  1  0.57911000  0.18096000  0.48647000  1.0
  C  C31  1  0.42125000  0.81497000  0.48564000  1.0
  C  C32  1  0.57851000  0.09058000  0.49241000  1.0
  C  C33  1  0.42160000  0.90570000  0.49210000  1.0
  C  C34  1  0.50401000  0.04771000  0.52604000  1.0
  C  C35  1  0.50195000  0.95129000  0.52640000  1.0
  C  C36  1  0.89208000  0.42857000  0.46733000  1.0
  C  C37  1  0.11165000  0.53778000  0.56027000  1.0
  C  C38  1  0.79292000  0.43036000  0.46927000  1.0
  C  C39  1  0.21073000  0.53632000  0.55751000  1.0
  C  C40  1  0.79900000  0.56674000  0.53131000  1.0
  C  C41  1  0.19720000  0.46356000  0.43690000  1.0
  C  C42  1  0.89843000  0.56951000  0.53209000  1.0
  C  C43  1  0.09768000  0.46196000  0.43574000  1.0
  C  C44  1  0.94717000  0.49932000  0.49934000  1.0
  C  C45  1  0.05274000  0.49975000  0.49846000  1.0
  C  C46  1  0.48313000  0.49973000  0.34699000  1.0
  C  C47  1  0.51115000  0.51146000  0.65059000  1.0
  C  C48  1  0.47868000  0.50885000  0.26011000  1.0
  C  C49  1  0.51811000  0.52347000  0.73763000  1.0
  C  C50  1  0.56422000  0.51012000  0.22227000  1.0
  C  C51  1  0.43505000  0.54137000  0.77617000  1.0
  C  C52  1  0.56195000  0.51906000  0.14203000  1.0
  C  C53  1  0.43931000  0.54817000  0.85696000  1.0
  C  C54  1  0.47301000  0.52805000  0.09809000  1.0
  C  C55  1  0.52805000  0.53747000  0.90078000  1.0
  C  C56  1  0.38748000  0.52758000  0.13568000  1.0
  C  C57  1  0.61193000  0.52373000  0.86243000  1.0
  C  C58  1  0.39031000  0.51763000  0.21618000  1.0
  C  C59  1  0.60683000  0.51595000  0.78130000  1.0
  C  C60  1  0.42998000  0.09900000  0.55543000  1.0
  C  C61  1  0.58211000  0.90240000  0.55678000  1.0
  C  C62  1  0.35514000  0.05920000  0.59420000  1.0
  C  C63  1  0.66402000  0.94449000  0.59660000  1.0
  N  N64  1  0.46179000  0.53472000  0.01596000  1.0
  N  N65  1  0.53986000  0.53634000  0.98322000  1.0
  N  N66  1  0.74727000  0.49832000  0.50059000  1.0
  N  N67  1  0.25263000  0.49991000  0.49685000  1.0
  N  N68  1  0.29351000  0.02800000  0.62641000  1.0
  N  N69  1  0.73200000  0.97664000  0.62975000  1.0
  O  O70  1  0.42535000  0.36796000  0.51481000  1.0
  O  O71  1  0.58392000  0.63197000  0.51836000  1.0
  O  O72  1  0.58176000  0.36393000  0.48800000  1.0
  O  O73  1  0.42385000  0.63226000  0.48205000  1.0
  O  O74  1  0.40526000  0.48249000  0.37757000  1.0
  O  O75  1  0.58705000  0.48877000  0.61911000  1.0
  O  O76  1  0.56514000  0.51084000  0.38413000  1.0
  O  O77  1  0.42921000  0.52447000  0.61413000  1.0
