# generated using pymatgen
data_TbP3H33C18(NO5)3
_symmetry_space_group_name_H-M   'P 1'
_cell_length_a   12.33910000
_cell_length_b   12.33890000
_cell_length_c   18.71650000
_cell_angle_alpha   90.00010000
_cell_angle_beta   89.99960000
_cell_angle_gamma   89.99940000
_symmetry_Int_Tables_number   1
_chemical_formula_structural   TbP3H33C18(NO5)3
_chemical_formula_sum   'Tb4 P12 H132 C72 N12 O60'
_cell_volume   2849.60436248
_cell_formula_units_Z   4
loop_
 _symmetry_equiv_pos_site_id
 _symmetry_equiv_pos_as_xyz
  1  'x, y, z'
loop_
 _atom_site_type_symbol
 _atom_site_label
 _atom_site_symmetry_multiplicity
 _atom_site_fract_x
 _atom_site_fract_y
 _atom_site_fract_z
 _atom_site_occupancy
  Tb  Tb0  1  0.03748000  0.07024000  0.88331000  1.0
  Tb  Tb1  1  0.96252000  0.92976000  0.38332000  1.0
  Tb  Tb2  1  0.07026000  0.96251000  0.63331000  1.0
  Tb  Tb3  1  0.92974000  0.03749000  0.13331000  1.0
  P  P4  1  0.97058000  0.20051000  0.71044000  1.0
  P  P5  1  0.02941000  0.79949000  0.21043000  1.0
  P  P6  1  0.20052000  0.02942000  0.46045000  1.0
  P  P7  1  0.79948000  0.97058000  0.96045000  1.0
  P  P8  1  0.92612000  0.26611000  0.01153000  1.0
  P  P9  1  0.07387000  0.73388000  0.51153000  1.0
  P  P10  1  0.26611000  0.07388000  0.76154000  1.0
  P  P11  1  0.73388000  0.92613000  0.26153000  1.0
  P  P12  1  0.18631000  0.07298000  0.05804000  1.0
  P  P13  1  0.81368000  0.92703000  0.55805000  1.0
  P  P14  1  0.07298000  0.81367000  0.80804000  1.0
  P  P15  1  0.92702000  0.18633000  0.30803000  1.0
  H  H16  1  0.84695000  0.30295000  0.65082000  1.0
  H  H17  1  0.15305000  0.69705000  0.15082000  1.0
  H  H18  1  0.30296000  0.15305000  0.40083000  1.0
  H  H19  1  0.69704000  0.84694000  0.90083000  1.0
  H  H20  1  0.81659000  0.39039000  0.95028000  1.0
  H  H21  1  0.18341000  0.60961000  0.45028000  1.0
  H  H22  1  0.39037000  0.18341000  0.70029000  1.0
  H  H23  1  0.60963000  0.81659000  0.20029000  1.0
  H  H24  1  0.32477000  0.18894000  0.02029000  1.0
  H  H25  1  0.67523000  0.81106000  0.52029000  1.0
  H  H26  1  0.18892000  0.67521000  0.77030000  1.0
  H  H27  1  0.81108000  0.32480000  0.27030000  1.0
  H  H28  1  0.05718000  0.38337000  0.62382000  1.0
  H  H29  1  0.94282000  0.61663000  0.12382000  1.0
  H  H30  1  0.38339000  0.94282000  0.37383000  1.0
  H  H31  1  0.61661000  0.05718000  0.87383000  1.0
  H  H32  1  0.02998000  0.45917000  0.95331000  1.0
  H  H33  1  0.97002000  0.54084000  0.45331000  1.0
  H  H34  1  0.45915000  0.97000000  0.70331000  1.0
  H  H35  1  0.54085000  0.02999000  0.20330000  1.0
  H  H36  1  0.38810000  0.96968000  0.01654000  1.0
  H  H37  1  0.61190000  0.03032000  0.51653000  1.0
  H  H38  1  0.96968000  0.61188000  0.76653000  1.0
  H  H39  1  0.03032000  0.38812000  0.26653000  1.0
  H  H40  1  0.26263000  0.39649000  0.70659000  1.0
  H  H41  1  0.73737000  0.60351000  0.20659000  1.0
  H  H42  1  0.39650000  0.73736000  0.45659000  1.0
  H  H43  1  0.60349000  0.26264000  0.95659000  1.0
  H  H44  1  0.24085000  0.53003000  0.57228000  1.0
  H  H45  1  0.75915000  0.46997000  0.07228000  1.0
  H  H46  1  0.53004000  0.75914000  0.32228000  1.0
  H  H47  1  0.46996000  0.24086000  0.82228000  1.0
  H  H48  1  0.35405000  0.45788000  0.60661000  1.0
  H  H49  1  0.64595000  0.54213000  0.10661000  1.0
  H  H50  1  0.45789000  0.64594000  0.35661000  1.0
  H  H51  1  0.54211000  0.35406000  0.85661000  1.0
  H  H52  1  0.30700000  0.31726000  0.52447000  1.0
  H  H53  1  0.69300000  0.68274000  0.02447000  1.0
  H  H54  1  0.31727000  0.69300000  0.27447000  1.0
  H  H55  1  0.68273000  0.30700000  0.77447000  1.0
  H  H56  1  0.18194000  0.38192000  0.50574000  1.0
  H  H57  1  0.81806000  0.61808000  0.00575000  1.0
  H  H58  1  0.38194000  0.81806000  0.25575000  1.0
  H  H59  1  0.61806000  0.18194000  0.75575000  1.0
  H  H60  1  0.23437000  0.22316000  0.62659000  1.0
  H  H61  1  0.76564000  0.77685000  0.12660000  1.0
  H  H62  1  0.22317000  0.76564000  0.37660000  1.0
  H  H63  1  0.77683000  0.23436000  0.87660000  1.0
  H  H64  1  0.11701000  0.22584000  0.57152000  1.0
  H  H65  1  0.88300000  0.77417000  0.07152000  1.0
  H  H66  1  0.22586000  0.88301000  0.32153000  1.0
  H  H67  1  0.77415000  0.11699000  0.82153000  1.0
  H  H68  1  0.05666000  0.36039000  0.75394000  1.0
  H  H69  1  0.94334000  0.63961000  0.25394000  1.0
  H  H70  1  0.36040000  0.94335000  0.50394000  1.0
  H  H71  1  0.63959000  0.05665000  0.00394000  1.0
  H  H72  1  0.15280000  0.25344000  0.74287000  1.0
  H  H73  1  0.84721000  0.74656000  0.24287000  1.0
  H  H74  1  0.25346000  0.84721000  0.49288000  1.0
  H  H75  1  0.74654000  0.15279000  0.99288000  1.0
  H  H76  1  0.23442000  0.44645000  0.03766000  1.0
  H  H77  1  0.76557000  0.55356000  0.53766000  1.0
  H  H78  1  0.44645000  0.76556000  0.78767000  1.0
  H  H79  1  0.55355000  0.23443000  0.28767000  1.0
  H  H80  1  0.18109000  0.59829000  0.91269000  1.0
  H  H81  1  0.81891000  0.40171000  0.41269000  1.0
  H  H82  1  0.59826000  0.81892000  0.66268000  1.0
  H  H83  1  0.40174000  0.18108000  0.16268000  1.0
  H  H84  1  0.31034000  0.56732000  0.94889000  1.0
  H  H85  1  0.68966000  0.43268000  0.44889000  1.0
  H  H86  1  0.56732000  0.68966000  0.69888000  1.0
  H  H87  1  0.43268000  0.31034000  0.19888000  1.0
  H  H88  1  0.31428000  0.39441000  0.89044000  1.0
  H  H89  1  0.68572000  0.60558000  0.39043000  1.0
  H  H90  1  0.39439000  0.68571000  0.64045000  1.0
  H  H91  1  0.60561000  0.31429000  0.14045000  1.0
  H  H92  1  0.21576000  0.45444000  0.83385000  1.0
  H  H93  1  0.78425000  0.54555000  0.33385000  1.0
  H  H94  1  0.45440000  0.78424000  0.58386000  1.0
  H  H95  1  0.54560000  0.21577000  0.08386000  1.0
  H  H96  1  0.08802000  0.32819000  0.88173000  1.0
  H  H97  1  0.91198000  0.67181000  0.38173000  1.0
  H  H98  1  0.32815000  0.91197000  0.63174000  1.0
  H  H99  1  0.67185000  0.08803000  0.13174000  1.0
  H  H100  1  0.18810000  0.28197000  0.94367000  1.0
  H  H101  1  0.81189000  0.71803000  0.44367000  1.0
  H  H102  1  0.28195000  0.81188000  0.69370000  1.0
  H  H103  1  0.71805000  0.18812000  0.19369000  1.0
  H  H104  1  0.02008000  0.40015000  0.08045000  1.0
  H  H105  1  0.97992000  0.59985000  0.58045000  1.0
  H  H106  1  0.40018000  0.97994000  0.83046000  1.0
  H  H107  1  0.59983000  0.02006000  0.33046000  1.0
  H  H108  1  0.10863000  0.29089000  0.05610000  1.0
  H  H109  1  0.89137000  0.70911000  0.55610000  1.0
  H  H110  1  0.29090000  0.89138000  0.80613000  1.0
  H  H111  1  0.70910000  0.10862000  0.30612000  1.0
  H  H112  1  0.34883000  0.76401000  0.09500000  1.0
  H  H113  1  0.65117000  0.23600000  0.59500000  1.0
  H  H114  1  0.76400000  0.65119000  0.84498000  1.0
  H  H115  1  0.23600000  0.34880000  0.34498000  1.0
  H  H116  1  0.54086000  0.76921000  0.99660000  1.0
  H  H117  1  0.45914000  0.23080000  0.49660000  1.0
  H  H118  1  0.76921000  0.45914000  0.74659000  1.0
  H  H119  1  0.23079000  0.54085000  0.24659000  1.0
  H  H120  1  0.44292000  0.66644000  0.01087000  1.0
  H  H121  1  0.55709000  0.33357000  0.51087000  1.0
  H  H122  1  0.66643000  0.55710000  0.76086000  1.0
  H  H123  1  0.33357000  0.44290000  0.26086000  1.0
  H  H124  1  0.36590000  0.73099000  0.89955000  1.0
  H  H125  1  0.63410000  0.26901000  0.39955000  1.0
  H  H126  1  0.73100000  0.63411000  0.64955000  1.0
  H  H127  1  0.26901000  0.36588000  0.14954000  1.0
  H  H128  1  0.44218000  0.85263000  0.90717000  1.0
  H  H129  1  0.55781000  0.14736000  0.40717000  1.0
  H  H130  1  0.85263000  0.55781000  0.65716000  1.0
  H  H131  1  0.14738000  0.44218000  0.15716000  1.0
  H  H132  1  0.25854000  0.91773000  0.93255000  1.0
  H  H133  1  0.74145000  0.08227000  0.43255000  1.0
  H  H134  1  0.91775000  0.74144000  0.68254000  1.0
  H  H135  1  0.08226000  0.25856000  0.18254000  1.0
  H  H136  1  0.22816000  0.79912000  0.98273000  1.0
  H  H137  1  0.77184000  0.20088000  0.48273000  1.0
  H  H138  1  0.79915000  0.77184000  0.73271000  1.0
  H  H139  1  0.20086000  0.22815000  0.23271000  1.0
  H  H140  1  0.29340000  0.96194000  0.13510000  1.0
  H  H141  1  0.70660000  0.03807000  0.63510000  1.0
  H  H142  1  0.96192000  0.70658000  0.88510000  1.0
  H  H143  1  0.03808000  0.29342000  0.38510000  1.0
  H  H144  1  0.19138000  0.88445000  0.09053000  1.0
  H  H145  1  0.80861000  0.11555000  0.59053000  1.0
  H  H146  1  0.88445000  0.80861000  0.84053000  1.0
  H  H147  1  0.11554000  0.19139000  0.34052000  1.0
  C  C148  1  0.20707000  0.43385000  0.66775000  1.0
  C  C149  1  0.79293000  0.56616000  0.16776000  1.0
  C  C150  1  0.43386000  0.79292000  0.41776000  1.0
  C  C151  1  0.56614000  0.20707000  0.91776000  1.0
  C  C152  1  0.26666000  0.45352000  0.59655000  1.0
  C  C153  1  0.73334000  0.54648000  0.09656000  1.0
  C  C154  1  0.45353000  0.73334000  0.34656000  1.0
  C  C155  1  0.54647000  0.26666000  0.84656000  1.0
  C  C156  1  0.23631000  0.35587000  0.54878000  1.0
  C  C157  1  0.76369000  0.64412000  0.04878000  1.0
  C  C158  1  0.35590000  0.76369000  0.29878000  1.0
  C  C159  1  0.64411000  0.23631000  0.79878000  1.0
  C  C160  1  0.17824000  0.27592000  0.59760000  1.0
  C  C161  1  0.82176000  0.72409000  0.09760000  1.0
  C  C162  1  0.27593000  0.82176000  0.34760000  1.0
  C  C163  1  0.72407000  0.17824000  0.84760000  1.0
  C  C164  1  0.08413000  0.29546000  0.71814000  1.0
  C  C165  1  0.91587000  0.70454000  0.21814000  1.0
  C  C166  1  0.29548000  0.91588000  0.46814000  1.0
  C  C167  1  0.70452000  0.08412000  0.96814000  1.0
  C  C168  1  0.15771000  0.53428000  0.70248000  1.0
  C  C169  1  0.84229000  0.46572000  0.20247000  1.0
  C  C170  1  0.53431000  0.84227000  0.45247000  1.0
  C  C171  1  0.46568000  0.15773000  0.95247000  1.0
  C  C172  1  0.17634000  0.49408000  0.00608000  1.0
  C  C173  1  0.82366000  0.50591000  0.50608000  1.0
  C  C174  1  0.49408000  0.82365000  0.75608000  1.0
  C  C175  1  0.50593000  0.17635000  0.25608000  1.0
  C  C176  1  0.22995000  0.53406000  0.93743000  1.0
  C  C177  1  0.77005000  0.46594000  0.43743000  1.0
  C  C178  1  0.53405000  0.77005000  0.68742000  1.0
  C  C179  1  0.46595000  0.22995000  0.18742000  1.0
  C  C180  1  0.23413000  0.43273000  0.88925000  1.0
  C  C181  1  0.76587000  0.56727000  0.38925000  1.0
  C  C182  1  0.43271000  0.76586000  0.63926000  1.0
  C  C183  1  0.56729000  0.23414000  0.13926000  1.0
  C  C184  1  0.14989000  0.35357000  0.91997000  1.0
  C  C185  1  0.85010000  0.64643000  0.41997000  1.0
  C  C186  1  0.35354000  0.85009000  0.66999000  1.0
  C  C187  1  0.64646000  0.14991000  0.16999000  1.0
  C  C188  1  0.04509000  0.34603000  0.03704000  1.0
  C  C189  1  0.95491000  0.65397000  0.53704000  1.0
  C  C190  1  0.34604000  0.95492000  0.78706000  1.0
  C  C191  1  0.65396000  0.04508000  0.28705000  1.0
  C  C192  1  0.12698000  0.58213000  0.05361000  1.0
  C  C193  1  0.87302000  0.41787000  0.55361000  1.0
  C  C194  1  0.58212000  0.87301000  0.80360000  1.0
  C  C195  1  0.41788000  0.12698000  0.30360000  1.0
  C  C196  1  0.40594000  0.81634000  0.06593000  1.0
  C  C197  1  0.59406000  0.18367000  0.56593000  1.0
  C  C198  1  0.81633000  0.59407000  0.81592000  1.0
  C  C199  1  0.18367000  0.40593000  0.31592000  1.0
  C  C200  1  0.45383000  0.75359000  0.00207000  1.0
  C  C201  1  0.54617000  0.24642000  0.50207000  1.0
  C  C202  1  0.75358000  0.54617000  0.75207000  1.0
  C  C203  1  0.24642000  0.45382000  0.25206000  1.0
  C  C204  1  0.39099000  0.79528000  0.93639000  1.0
  C  C205  1  0.60900000  0.20472000  0.43639000  1.0
  C  C206  1  0.79528000  0.60900000  0.68638000  1.0
  C  C207  1  0.20473000  0.39100000  0.18638000  1.0
  C  C208  1  0.29311000  0.85462000  0.96648000  1.0
  C  C209  1  0.70689000  0.14538000  0.46647000  1.0
  C  C210  1  0.85463000  0.70688000  0.71646000  1.0
  C  C211  1  0.14538000  0.29311000  0.21646000  1.0
  C  C212  1  0.25388000  0.94694000  0.08356000  1.0
  C  C213  1  0.74612000  0.05307000  0.58356000  1.0
  C  C214  1  0.94693000  0.74611000  0.83356000  1.0
  C  C215  1  0.05307000  0.25389000  0.33356000  1.0
  C  C216  1  0.48886000  0.85953000  0.11890000  1.0
  C  C217  1  0.51114000  0.14047000  0.61890000  1.0
  C  C218  1  0.85951000  0.51116000  0.86889000  1.0
  C  C219  1  0.14049000  0.48884000  0.36889000  1.0
  N  N220  1  0.12352000  0.34833000  0.65162000  1.0
  N  N221  1  0.87648000  0.65167000  0.15161000  1.0
  N  N222  1  0.34835000  0.87648000  0.40162000  1.0
  N  N223  1  0.65165000  0.12352000  0.90162000  1.0
  N  N224  1  0.09258000  0.41473000  0.97914000  1.0
  N  N225  1  0.90741000  0.58527000  0.47914000  1.0
  N  N226  1  0.41472000  0.90740000  0.72915000  1.0
  N  N227  1  0.58528000  0.09260000  0.22914000  1.0
  N  N228  1  0.33762000  0.90521000  0.03340000  1.0
  N  N229  1  0.66238000  0.09479000  0.53340000  1.0
  N  N230  1  0.90521000  0.66237000  0.78339000  1.0
  N  N231  1  0.09480000  0.33763000  0.28339000  1.0
  O  O232  1  0.96710000  0.14510000  0.78288000  1.0
  O  O233  1  0.03290000  0.85491000  0.28287000  1.0
  O  O234  1  0.14509000  0.03290000  0.53287000  1.0
  O  O235  1  0.85491000  0.96710000  0.03287000  1.0
  O  O236  1  0.98646000  0.12636000  0.64644000  1.0
  O  O237  1  0.01355000  0.87363000  0.14643000  1.0
  O  O238  1  0.12639000  0.01355000  0.39643000  1.0
  O  O239  1  0.87361000  0.98645000  0.89643000  1.0
  O  O240  1  0.86579000  0.27181000  0.70161000  1.0
  O  O241  1  0.13421000  0.72820000  0.20161000  1.0
  O  O242  1  0.27182000  0.13421000  0.45162000  1.0
  O  O243  1  0.72818000  0.86579000  0.95162000  1.0
  O  O244  1  0.22869000  0.60239000  0.72416000  1.0
  O  O245  1  0.77131000  0.39761000  0.22415000  1.0
  O  O246  1  0.60241000  0.77128000  0.47415000  1.0
  O  O247  1  0.39758000  0.22872000  0.97415000  1.0
  O  O248  1  0.05630000  0.54183000  0.70843000  1.0
  O  O249  1  0.94371000  0.45817000  0.20843000  1.0
  O  O250  1  0.54187000  0.94369000  0.45843000  1.0
  O  O251  1  0.45813000  0.05631000  0.95843000  1.0
  O  O252  1  0.95508000  0.20708000  0.94264000  1.0
  O  O253  1  0.04492000  0.79292000  0.44263000  1.0
  O  O254  1  0.20705000  0.04492000  0.69266000  1.0
  O  O255  1  0.79295000  0.95507000  0.19266000  1.0
  O  O256  1  0.89876000  0.19564000  0.07558000  1.0
  O  O257  1  0.10123000  0.80436000  0.57557000  1.0
  O  O258  1  0.19565000  0.10125000  0.82559000  1.0
  O  O259  1  0.80435000  0.89875000  0.32560000  1.0
  O  O260  1  0.82968000  0.34585000  0.00066000  1.0
  O  O261  1  0.17031000  0.65415000  0.50066000  1.0
  O  O262  1  0.34585000  0.17032000  0.75067000  1.0
  O  O263  1  0.65415000  0.82968000  0.25067000  1.0
  O  O264  1  0.19536000  0.64152000  0.08635000  1.0
  O  O265  1  0.80464000  0.35848000  0.58636000  1.0
  O  O266  1  0.64152000  0.80463000  0.83635000  1.0
  O  O267  1  0.35848000  0.19536000  0.33635000  1.0
  O  O268  1  0.02513000  0.58761000  0.05662000  1.0
  O  O269  1  0.97487000  0.41240000  0.55662000  1.0
  O  O270  1  0.58760000  0.97486000  0.80663000  1.0
  O  O271  1  0.41241000  0.02514000  0.30662000  1.0
  O  O272  1  0.14138000  0.06191000  0.98266000  1.0
  O  O273  1  0.85862000  0.93809000  0.48266000  1.0
  O  O274  1  0.06191000  0.85862000  0.73267000  1.0
  O  O275  1  0.93808000  0.14140000  0.23266000  1.0
  O  O276  1  0.10251000  0.08761000  0.11658000  1.0
  O  O277  1  0.89748000  0.91239000  0.61658000  1.0
  O  O278  1  0.08761000  0.89747000  0.86658000  1.0
  O  O279  1  0.91239000  0.10253000  0.36658000  1.0
  O  O280  1  0.26995000  0.16739000  0.06477000  1.0
  O  O281  1  0.73005000  0.83261000  0.56476000  1.0
  O  O282  1  0.16739000  0.73004000  0.81477000  1.0
  O  O283  1  0.83261000  0.26996000  0.31477000  1.0
  O  O284  1  0.55038000  0.78569000  0.14422000  1.0
  O  O285  1  0.44963000  0.21431000  0.64422000  1.0
  O  O286  1  0.78566000  0.44966000  0.89422000  1.0
  O  O287  1  0.21434000  0.55033000  0.39422000  1.0
  O  O288  1  0.48937000  0.95909000  0.13376000  1.0
  O  O289  1  0.51062000  0.04091000  0.63377000  1.0
  O  O290  1  0.95907000  0.51064000  0.88376000  1.0
  O  O291  1  0.04094000  0.48936000  0.38376000  1.0
