# generated using pymatgen
data_InH9(C2O)6
_symmetry_space_group_name_H-M   'P 1'
_cell_length_a   5.95423000
_cell_length_b   7.50868000
_cell_length_c   12.42750000
_cell_angle_alpha   89.98390000
_cell_angle_beta   90.66950000
_cell_angle_gamma   89.99710000
_symmetry_Int_Tables_number   1
_chemical_formula_structural   InH9(C2O)6
_chemical_formula_sum   'In2 H18 C24 O12'
_cell_volume   555.57578319
_cell_formula_units_Z   2
loop_
 _symmetry_equiv_pos_site_id
 _symmetry_equiv_pos_as_xyz
  1  'x, y, z'
loop_
 _atom_site_type_symbol
 _atom_site_label
 _atom_site_symmetry_multiplicity
 _atom_site_fract_x
 _atom_site_fract_y
 _atom_site_fract_z
 _atom_site_occupancy
  In  In0  1  0.00048000  0.16628000  0.50235000  1.0
  In  In1  1  0.50047000  0.83369000  0.50234000  1.0
  H  H2  1  0.59141000  0.33446000  0.72972000  1.0
  H  H3  1  0.11061000  0.66332000  0.27256000  1.0
  H  H4  1  0.09096000  0.66571000  0.72973000  1.0
  H  H5  1  0.61021000  0.33644000  0.27254000  1.0
  H  H6  1  0.79467000  0.39261000  0.90172000  1.0
  H  H7  1  0.30067000  0.60582000  0.10022000  1.0
  H  H8  1  0.29452000  0.60743000  0.90167000  1.0
  H  H9  1  0.80056000  0.39403000  0.10028000  1.0
  H  H10  1  0.02585000  0.12605000  0.90083000  1.0
  H  H11  1  0.53267000  0.87358000  0.10470000  1.0
  H  H12  1  0.52567000  0.87402000  0.90102000  1.0
  H  H13  1  0.03250000  0.12639000  0.10452000  1.0
  H  H14  1  0.06227000  0.83150000  0.45786000  1.0
  H  H15  1  0.56214000  0.16875000  0.45822000  1.0
  H  H16  1  0.85669000  0.52327000  0.43777000  1.0
  H  H17  1  0.33499000  0.48679000  0.56130000  1.0
  H  H18  1  0.35639000  0.47694000  0.43752000  1.0
  H  H19  1  0.83463000  0.51296000  0.56149000  1.0
  C  C20  1  0.17068000  0.21495000  0.70255000  1.0
  C  C21  1  0.69249000  0.78389000  0.30300000  1.0
  C  C22  1  0.67019000  0.78521000  0.70270000  1.0
  C  C23  1  0.19203000  0.21602000  0.30288000  1.0
  C  C24  1  0.29296000  0.23297000  0.80655000  1.0
  C  C25  1  0.80693000  0.76767000  0.19814000  1.0
  C  C26  1  0.79267000  0.76715000  0.80666000  1.0
  C  C27  1  0.30660000  0.23223000  0.19804000  1.0
  C  C28  1  0.51332000  0.30541000  0.80648000  1.0
  C  C29  1  0.02688000  0.69445000  0.19662000  1.0
  C  C30  1  0.01301000  0.69472000  0.80652000  1.0
  C  C31  1  0.52656000  0.30541000  0.19658000  1.0
  C  C32  1  0.62635000  0.33545000  0.90177000  1.0
  C  C33  1  0.13295000  0.66397000  0.10084000  1.0
  C  C34  1  0.12622000  0.66458000  0.90177000  1.0
  C  C35  1  0.63279000  0.33592000  0.10084000  1.0
  C  C36  1  0.52434000  0.29653000  0.00155000  1.0
  C  C37  1  0.02434000  0.70345000  0.00159000  1.0
  C  C38  1  0.30361000  0.21809000  0.00221000  1.0
  C  C39  1  0.80365000  0.78190000  0.00231000  1.0
  C  C40  1  0.19305000  0.18517000  0.90243000  1.0
  C  C41  1  0.69996000  0.81476000  0.10258000  1.0
  C  C42  1  0.69289000  0.81490000  0.90256000  1.0
  C  C43  1  0.19978000  0.18520000  0.10245000  1.0
  O  O44  1  0.15931000  0.91532000  0.49738000  1.0
  O  O45  1  0.65934000  0.08462000  0.49739000  1.0
  O  O46  1  0.98392000  0.13532000  0.69355000  1.0
  O  O47  1  0.49355000  0.84246000  0.31090000  1.0
  O  O48  1  0.48358000  0.86505000  0.69371000  1.0
  O  O49  1  0.99322000  0.15722000  0.31078000  1.0
  O  O50  1  0.26013000  0.28490000  0.61761000  1.0
  O  O51  1  0.79909000  0.73230000  0.38935000  1.0
  O  O52  1  0.75942000  0.71504000  0.61778000  1.0
  O  O53  1  0.29846000  0.26782000  0.38922000  1.0
  O  O54  1  0.84893000  0.43503000  0.49724000  1.0
  O  O55  1  0.34903000  0.56495000  0.49709000  1.0
