# generated using pymatgen
data_CuH7C10N2O7
_symmetry_space_group_name_H-M   'P 1'
_cell_length_a   6.62257000
_cell_length_b   9.50881000
_cell_length_c   9.64427000
_cell_angle_alpha   96.42910000
_cell_angle_beta   94.35330000
_cell_angle_gamma   109.52300000
_symmetry_Int_Tables_number   1
_chemical_formula_structural   CuH7C10N2O7
_chemical_formula_sum   'Cu2 H14 C20 N4 O14'
_cell_volume   564.63042708
_cell_formula_units_Z   2
loop_
 _symmetry_equiv_pos_site_id
 _symmetry_equiv_pos_as_xyz
  1  'x, y, z'
loop_
 _atom_site_type_symbol
 _atom_site_label
 _atom_site_symmetry_multiplicity
 _atom_site_fract_x
 _atom_site_fract_y
 _atom_site_fract_z
 _atom_site_occupancy
  Cu  Cu0  1  0.57650000  0.54785000  0.13140000  1.0
  Cu  Cu1  1  0.42350000  0.45215000  0.86860000  1.0
  H  H2  1  0.60556000  0.87017000  0.01967000  1.0
  H  H3  1  0.39445000  0.12983000  0.98033000  1.0
  H  H4  1  0.95858000  0.61906000  0.66663000  1.0
  H  H5  1  0.04142000  0.38094000  0.33333333  1.0
  H  H6  1  0.99845000  0.96936000  0.80923000  1.0
  H  H7  1  0.00155000  0.03064000  0.19076000  1.0
  H  H8  1  0.35277000  0.83114000  0.38008000  1.0
  H  H9  1  0.64722000  0.16886000  0.61992000  1.0
  H  H10  1  0.74036000  0.71527000  0.43849000  1.0
  H  H11  1  0.25963000  0.28472000  0.56151000  1.0
  H  H12  1  0.74556000  0.55137000  0.42763000  1.0
  H  H13  1  0.25443000  0.44863000  0.57237000  1.0
  H  H14  1  0.98932000  0.69676000  0.26607000  1.0
  H  H15  1  0.01068000  0.30325000  0.73393000  1.0
  C  C16  1  0.23405000  0.76613000  0.13511000  1.0
  C  C17  1  0.76596000  0.23387000  0.86489000  1.0
  C  C18  1  0.26147000  0.75930000  0.98592000  1.0
  C  C19  1  0.73853000  0.24070000  0.01408000  1.0
  C  C20  1  0.46537000  0.81886000  0.94118000  1.0
  C  C21  1  0.53464000  0.18114000  0.05883000  1.0
  C  C22  1  0.48787000  0.80956000  0.79803000  1.0
  C  C23  1  0.51214000  0.19044000  0.20197000  1.0
  C  C24  1  0.30305000  0.73900000  0.69805000  1.0
  C  C25  1  0.69695000  0.26100000  0.30195000  1.0
  C  C26  1  0.10143000  0.67762000  0.74189000  1.0
  C  C27  1  0.89857000  0.32238000  0.25811000  1.0
  C  C28  1  0.07904000  0.68841000  0.88564000  1.0
  C  C29  1  0.92096000  0.31159000  0.11436000  1.0
  C  C30  1  0.86694000  0.62361000  0.93058000  1.0
  C  C31  1  0.13306000  0.37640000  0.06942000  1.0
  C  C32  1  0.70332000  0.86299000  0.74794000  1.0
  C  C33  1  0.29669000  0.13701000  0.25207000  1.0
  C  C34  1  0.31374000  0.72092000  0.54252000  1.0
  C  C35  1  0.68625000  0.27908000  0.45748000  1.0
  N  N36  1  0.02931000  0.70184000  0.16417000  1.0
  N  N37  1  0.97070000  0.29816000  0.83583000  1.0
  N  N38  1  0.84673000  0.63250000  0.06818000  1.0
  N  N39  1  0.15327000  0.36750000  0.93182000  1.0
  O  O40  1  0.39058000  0.82847000  0.23110000  1.0
  O  O41  1  0.60942000  0.17153000  0.76890000  1.0
  O  O42  1  0.70423000  0.55927000  0.83566000  1.0
  O  O43  1  0.29577000  0.44073000  0.16434000  1.0
  O  O44  1  0.73912000  0.83725000  0.62669000  1.0
  O  O45  1  0.26088000  0.16275000  0.37330000  1.0
  O  O46  1  0.86366000  0.94358000  0.85222000  1.0
  O  O47  1  0.13634000  0.05643000  0.14778000  1.0
  O  O48  1  0.33274000  0.84366000  0.48744000  1.0
  O  O49  1  0.66726000  0.15634000  0.51256000  1.0
  O  O50  1  0.29187000  0.59584000  0.47697000  1.0
  O  O51  1  0.70813000  0.40416000  0.52303000  1.0
  O  O52  1  0.77566000  0.64048000  0.37626000  1.0
  O  O53  1  0.22433000  0.35952000  0.62374000  1.0
