# generated using pymatgen
data_AlC27N7(OF2)6
_symmetry_space_group_name_H-M   'P 1'
_cell_length_a   3.96799000
_cell_length_b   17.47449879
_cell_length_c   18.04916121
_cell_angle_alpha   118.45009636
_cell_angle_beta   94.68773883
_cell_angle_gamma   90.94590471
_symmetry_Int_Tables_number   1
_chemical_formula_structural   AlC27N7(OF2)6
_chemical_formula_sum   'Al1 C27 N7 O6 F12'
_cell_volume   1094.48504416
_cell_formula_units_Z   1
loop_
 _symmetry_equiv_pos_site_id
 _symmetry_equiv_pos_as_xyz
  1  'x, y, z'
loop_
 _atom_site_type_symbol
 _atom_site_label
 _atom_site_symmetry_multiplicity
 _atom_site_fract_x
 _atom_site_fract_y
 _atom_site_fract_z
 _atom_site_occupancy
  Al  Al0  1  0.48996000  0.99929000  0.49669000  1.0
  C  C1  1  0.93526000  0.93439000  0.36710000  1.0
  C  C2  1  0.01785000  0.93258000  0.56443000  1.0
  C  C3  1  0.01754000  0.13287000  0.56232000  1.0
  C  C4  1  0.83932000  0.75189000  0.13890000  1.0
  C  C5  1  0.78648000  0.79683000  0.09185000  1.0
  C  C6  1  0.21147000  0.88157000  0.74618000  1.0
  C  C7  1  0.24703000  0.79044000  0.70391000  1.0
  C  C8  1  0.91388000  0.41351000  0.70135000  1.0
  C  C9  1  0.87049000  0.36606000  0.61163000  1.0
  C  C10  1  0.18527000  0.74775000  0.61434000  1.0
  C  C11  1  0.10618000  0.79404000  0.57089000  1.0
  C  C12  1  0.07268000  0.88405000  0.61348000  1.0
  C  C13  1  0.12124000  0.92659000  0.70180000  1.0
  C  C14  1  0.90958000  0.27662000  0.56813000  1.0
  C  C15  1  0.00413000  0.22977000  0.61053000  1.0
  C  C16  1  0.05910000  0.27617000  0.69885000  1.0
  C  C17  1  0.01090000  0.36532000  0.74342000  1.0
  C  C18  1  0.78577000  0.88859000  0.13822000  1.0
  C  C19  1  0.83868000  0.93249000  0.22644000  1.0
  C  C20  1  0.88805000  0.88724000  0.27220000  1.0
  C  C21  1  0.88606000  0.79646000  0.22714000  1.0
  C  C22  1  0.83458000  0.62998000  0.87543000  1.0
  C  C23  1  0.50438000  0.74728000  0.87715000  1.0
  C  C24  1  0.73523000  0.74985000  0.99831000  1.0
  C  C25  1  0.84540000  0.50693000  0.74793000  1.0
  C  C26  1  0.59887000  0.62214000  0.74356000  1.0
  C  C27  1  0.36028000  0.74296000  0.74992000  1.0
  N  N28  1  0.64580000  0.66655000  0.83224000  1.0
  N  N29  1  0.53714000  0.78651000  0.96147000  1.0
  N  N30  1  0.89240000  0.67520000  0.95949000  1.0
  N  N31  1  0.95319000  0.55122000  0.83113000  1.0
  N  N32  1  0.67757000  0.53937000  0.70243000  1.0
  N  N33  1  0.34022000  0.78243000  0.83413000  1.0
  N  N34  1  0.47754000  0.66412000  0.70298000  1.0
  O  O35  1  0.26773000  0.09747000  0.57898000  1.0
  O  O36  1  0.19114000  0.98805000  0.40238000  1.0
  O  O37  1  0.22257000  0.91712000  0.50898000  1.0
  O  O38  1  0.76768000  0.09282000  0.50708000  1.0
  O  O39  1  0.78112000  0.98426000  0.58058000  1.0
  O  O40  1  0.71363000  0.91654000  0.40441000  1.0
  F  F41  1  0.83502000  0.02015000  0.26778000  1.0
  F  F42  1  0.74612000  0.93748000  0.09953000  1.0
  F  F43  1  0.93470000  0.75051000  0.26911000  1.0
  F  F44  1  0.83416000  0.66457000  0.10105000  1.0
  F  F45  1  0.05073000  0.40176000  0.82809000  1.0
  F  F46  1  0.14341000  0.23448000  0.74340000  1.0
  F  F47  1  0.79325000  0.40373000  0.56349000  1.0
  F  F48  1  0.86106000  0.23605000  0.48302000  1.0
  F  F49  1  0.27590000  0.92994000  0.83041000  1.0
  F  F50  1  0.10028000  0.01357000  0.74592000  1.0
  F  F51  1  0.19444000  0.66134000  0.56675000  1.0
  F  F52  1  0.05435000  0.74961000  0.48579000  1.0
