# generated using pymatgen
data_CuH23C23N5O4
_symmetry_space_group_name_H-M   'P 1'
_cell_length_a   8.51396000
_cell_length_b   10.76300000
_cell_length_c   16.33810000
_cell_angle_alpha   82.38980000
_cell_angle_beta   74.90800000
_cell_angle_gamma   66.70200000
_symmetry_Int_Tables_number   1
_chemical_formula_structural   CuH23C23N5O4
_chemical_formula_sum   'Cu2 H46 C46 N10 O8'
_cell_volume   1326.91615046
_cell_formula_units_Z   2
loop_
 _symmetry_equiv_pos_site_id
 _symmetry_equiv_pos_as_xyz
  1  'x, y, z'
loop_
 _atom_site_type_symbol
 _atom_site_label
 _atom_site_symmetry_multiplicity
 _atom_site_fract_x
 _atom_site_fract_y
 _atom_site_fract_z
 _atom_site_occupancy
  Cu  Cu0  1  0.00000000  0.00000000  0.50000000  1.0
  Cu  Cu1  1  0.50000000  0.50000000  0.00000000  1.0
  H  H2  1  0.13608000  0.23884000  0.54881000  1.0
  H  H3  1  0.92317000  0.26145000  0.95124000  1.0
  H  H4  1  0.86392000  0.76116000  0.45119000  1.0
  H  H5  1  0.07683000  0.73855000  0.04876000  1.0
  H  H6  1  0.73452000  0.04380000  0.66370000  1.0
  H  H7  1  0.44175000  0.45617000  0.83632000  1.0
  H  H8  1  0.26548000  0.95620000  0.33630000  1.0
  H  H9  1  0.55825000  0.54383000  0.16368000  1.0
  H  H10  1  0.40875000  0.13701000  0.71283000  1.0
  H  H11  1  0.25824000  0.36298000  0.78724000  1.0
  H  H12  1  0.59125000  0.86299000  0.28717000  1.0
  H  H13  1  0.74176000  0.63701000  0.21277000  1.0
  H  H14  1  0.38453000  0.21277000  0.44862000  1.0
  H  H15  1  0.04522000  0.28775000  0.05146000  1.0
  H  H16  1  0.61547000  0.78723000  0.55137000  1.0
  H  H17  1  0.95478000  0.71225000  0.94854000  1.0
  H  H18  1  0.71144000  0.12275000  0.41139000  1.0
  H  H19  1  0.24519000  0.37749000  0.08866000  1.0
  H  H20  1  0.28856000  0.87725000  0.58861000  1.0
  H  H21  1  0.75481000  0.62251000  0.91134000  1.0
  H  H22  1  0.87348000  0.23815000  0.61290000  1.0
  H  H23  1  0.72424000  0.26195000  0.88699000  1.0
  H  H24  1  0.12652000  0.76185000  0.38710000  1.0
  H  H25  1  0.27576000  0.73805000  0.11301000  1.0
  H  H26  1  0.64832000  0.25002000  0.74990000  1.0
  H  H27  1  0.35169000  0.74998000  0.25010000  1.0
  H  H28  1  0.11301000  0.75478000  0.74454000  1.0
  H  H29  1  0.61259000  0.74495000  0.75531000  1.0
  H  H30  1  0.88699000  0.24522000  0.25546000  1.0
  H  H31  1  0.38741000  0.25505000  0.24469000  1.0
  H  H32  1  0.01196000  0.64306000  0.80269000  1.0
  H  H33  1  0.45788000  0.85666000  0.69724000  1.0
  H  H34  1  0.98804000  0.35694000  0.19731000  1.0
  H  H35  1  0.54212000  0.14334000  0.30276000  1.0
  H  H36  1  0.88394000  0.81590000  0.78152000  1.0
  H  H37  1  0.48154000  0.68382000  0.71838000  1.0
  H  H38  1  0.11606000  0.18410000  0.21848000  1.0
  H  H39  1  0.51846000  0.31618000  0.28162000  1.0
  H  H40  1  0.94558000  0.50404000  0.72208000  1.0
  H  H41  1  0.17206000  0.99579000  0.77801000  1.0
  H  H42  1  0.05442000  0.49596000  0.27792000  1.0
  H  H43  1  0.82794000  0.00420000  0.22199000  1.0
  H  H44  1  0.94247000  0.54914000  0.60781000  1.0
  H  H45  1  0.10002000  0.95058000  0.89227000  1.0
  H  H46  1  0.05752000  0.45086000  0.39220000  1.0
  H  H47  1  0.89998000  0.04941000  0.10773000  1.0
  C  C48  1  0.65137000  0.08460000  0.61828000  1.0
  C  C49  1  0.35384000  0.41552000  0.88176000  1.0
  C  C50  1  0.34863000  0.91540000  0.38172000  1.0
  C  C51  1  0.64616000  0.58447000  0.11824000  1.0
  C  C52  1  0.47015000  0.13585000  0.64557000  1.0
  C  C53  1  0.25109000  0.36430000  0.85450000  1.0
  C  C54  1  0.52986000  0.86415000  0.35443000  1.0
  C  C55  1  0.74891000  0.63570000  0.14550000  1.0
  C  C56  1  0.36661000  0.18320000  0.58460000  1.0
  C  C57  1  0.13384000  0.31709000  0.91548000  1.0
  C  C58  1  0.63339000  0.81681000  0.41540000  1.0
  C  C59  1  0.86617000  0.68291000  0.08452000  1.0
  C  C60  1  0.45769000  0.17815000  0.49841000  1.0
  C  C61  1  0.13362000  0.32226000  0.00166000  1.0
  C  C62  1  0.54231000  0.82185000  0.50159000  1.0
  C  C63  1  0.86638000  0.67774000  0.99834000  1.0
  C  C64  1  0.63866000  0.12724000  0.47721000  1.0
  C  C65  1  0.24268000  0.37301000  0.02284000  1.0
  C  C66  1  0.36134000  0.87276000  0.52279000  1.0
  C  C67  1  0.75732000  0.62699000  0.97716000  1.0
  C  C68  1  0.06413000  0.23995000  0.67769000  1.0
  C  C69  1  0.98149000  0.26013000  0.82235000  1.0
  C  C70  1  0.93587000  0.76005000  0.32231000  1.0
  C  C71  1  0.01852000  0.73987000  0.17765000  1.0
  C  C72  1  0.89937000  0.24309000  0.67396000  1.0
  C  C73  1  0.81621000  0.25703000  0.82596000  1.0
  C  C74  1  0.10062000  0.75691000  0.32604000  1.0
  C  C75  1  0.18379000  0.74298000  0.17404000  1.0
  C  C76  1  0.77627000  0.25006000  0.74994000  1.0
  C  C77  1  0.22373000  0.74994000  0.25007000  1.0
  C  C78  1  0.98833000  0.77962000  0.59781000  1.0
  C  C79  1  0.36634000  0.71995000  0.90208000  1.0
  C  C80  1  0.01167000  0.22038000  0.40219000  1.0
  C  C81  1  0.63366000  0.28005000  0.09791000  1.0
  C  C82  1  0.98066000  0.68661000  0.67447000  1.0
  C  C83  1  0.34216000  0.81309000  0.82550000  1.0
  C  C84  1  0.01933000  0.31340000  0.32554000  1.0
  C  C85  1  0.65784000  0.18691000  0.17450000  1.0
  C  C86  1  0.99862000  0.72647000  0.75509000  1.0
  C  C87  1  0.48039000  0.77323000  0.74482000  1.0
  C  C88  1  0.00138000  0.27353000  0.24491000  1.0
  C  C89  1  0.51961000  0.22676000  0.25518000  1.0
  C  C90  1  0.95460000  0.57366000  0.66791000  1.0
  C  C91  1  0.19667000  0.92610000  0.83214000  1.0
  C  C92  1  0.04539000  0.42633000  0.33209000  1.0
  C  C93  1  0.80334000  0.07389000  0.16786000  1.0
  N  N94  1  0.73738000  0.07958000  0.53585000  1.0
  N  N95  1  0.35249000  0.42054000  0.96419000  1.0
  N  N96  1  0.26262000  0.92042000  0.46415000  1.0
  N  N97  1  0.64751000  0.57946000  0.03581000  1.0
  N  N98  1  0.18765000  0.22783000  0.60123000  1.0
  N  N99  1  0.01621000  0.27238000  0.89885000  1.0
  N  N100  1  0.81235000  0.77218000  0.39877000  1.0
  N  N101  1  0.98379000  0.72762000  0.10115000  1.0
  N  N102  1  0.10474000  0.25000000  0.75006000  1.0
  N  N103  1  0.89527000  0.75000000  0.24994000  1.0
  O  O104  1  0.00893000  0.88913000  0.60828000  1.0
  O  O105  1  0.50690000  0.61046000  0.89160000  1.0
  O  O106  1  0.99107000  0.11087000  0.39172000  1.0
  O  O107  1  0.49310000  0.38954000  0.10840000  1.0
  O  O108  1  0.97414000  0.75164000  0.52835000  1.0
  O  O109  1  0.25476000  0.74785000  0.97157000  1.0
  O  O110  1  0.02587000  0.24836000  0.47165000  1.0
  O  O111  1  0.74524000  0.25215000  0.02843000  1.0
