# generated using pymatgen
data_CdH24C26(N4Cl)2
_symmetry_space_group_name_H-M   'P 1'
_cell_length_a   8.81074000
_cell_length_b   12.73570000
_cell_length_c   14.07140000
_cell_angle_alpha   63.44480000
_cell_angle_beta   80.34950000
_cell_angle_gamma   71.42180000
_symmetry_Int_Tables_number   1
_chemical_formula_structural   CdH24C26(N4Cl)2
_chemical_formula_sum   'Cd2 H48 C52 N16 Cl4'
_cell_volume   1338.19889121
_cell_formula_units_Z   2
loop_
 _symmetry_equiv_pos_site_id
 _symmetry_equiv_pos_as_xyz
  1  'x, y, z'
loop_
 _atom_site_type_symbol
 _atom_site_label
 _atom_site_symmetry_multiplicity
 _atom_site_fract_x
 _atom_site_fract_y
 _atom_site_fract_z
 _atom_site_occupancy
  Cd  Cd0  1  0.26021000  0.44104000  0.25310000  1.0
  Cd  Cd1  1  0.73979000  0.55895000  0.74690000  1.0
  H  H2  1  0.34321000  0.02554000  0.04941000  1.0
  H  H3  1  0.65679000  0.97446000  0.95059000  1.0
  H  H4  1  0.22373000  0.22199000  0.06607000  1.0
  H  H5  1  0.77628000  0.77801000  0.93394000  1.0
  H  H6  1  0.80198000  0.10786000  0.21716000  1.0
  H  H7  1  0.19803000  0.89213000  0.78286000  1.0
  H  H8  1  0.91690000  0.91414000  0.19590000  1.0
  H  H9  1  0.08310000  0.08586000  0.80410000  1.0
  H  H10  1  0.10793000  0.71950000  0.25150000  1.0
  H  H11  1  0.89206000  0.28050000  0.74850000  1.0
  H  H12  1  0.43614000  0.65455000  0.01578000  1.0
  H  H13  1  0.56386000  0.34545000  0.98422000  1.0
  H  H14  1  0.35061000  0.90207000  0.96669000  1.0
  H  H15  1  0.64939000  0.09792000  0.03331000  1.0
  H  H16  1  0.02879000  0.32397000  0.17245000  1.0
  H  H17  1  0.97121000  0.67603000  0.82756000  1.0
  H  H18  1  0.90079000  0.37317000  0.06815000  1.0
  H  H19  1  0.09923000  0.62682000  0.93186000  1.0
  H  H20  1  0.61425000  0.41250000  0.09890000  1.0
  H  H21  1  0.38576000  0.58750000  0.90110000  1.0
  H  H22  1  0.57259000  0.27944000  0.43258000  1.0
  H  H23  1  0.42741000  0.72056000  0.56742000  1.0
  H  H24  1  0.89779000  0.21744000  0.37148000  1.0
  H  H25  1  0.10221000  0.78256000  0.62853000  1.0
  H  H26  1  0.15080000  0.87374000  0.41160000  1.0
  H  H27  1  0.84920000  0.12626000  0.58840000  1.0
  H  H28  1  0.27489000  0.67330000  0.39957000  1.0
  H  H29  1  0.72511000  0.32670000  0.60043000  1.0
  H  H30  1  0.71630000  0.77053000  0.28370000  1.0
  H  H31  1  0.28370000  0.22948000  0.71629000  1.0
  H  H32  1  0.59653000  0.96679000  0.30184000  1.0
  H  H33  1  0.40346000  0.03322000  0.69815000  1.0
  H  H34  1  0.36905000  0.17529000  0.22543000  1.0
  H  H35  1  0.63094000  0.82471000  0.77457000  1.0
  H  H36  1  0.13339000  0.21532000  0.49773000  1.0
  H  H37  1  0.86662000  0.78468000  0.50228000  1.0
  H  H38  1  0.20319000  0.96928000  0.53392000  1.0
  H  H39  1  0.79681000  0.03072000  0.46608000  1.0
  H  H40  1  0.60713000  0.51948000  0.42832000  1.0
  H  H41  1  0.39287000  0.48053000  0.57167000  1.0
  H  H42  1  0.49120000  0.55336000  0.32178000  1.0
  H  H43  1  0.50880000  0.44665000  0.67821000  1.0
  H  H44  1  0.90237000  0.49077000  0.40166000  1.0
  H  H45  1  0.09762000  0.50924000  0.59834000  1.0
  H  H46  1  0.95484000  0.57857000  0.07315000  1.0
  H  H47  1  0.04517000  0.42142000  0.92685000  1.0
  H  H48  1  0.63030000  0.64294000  0.12611000  1.0
  H  H49  1  0.36971000  0.35706000  0.87388000  1.0
  C  C50  1  0.13709000  0.95785000  0.12100000  1.0
  C  C51  1  0.86292000  0.04215000  0.87901000  1.0
  C  C52  1  0.22311000  0.04476000  0.08419000  1.0
  C  C53  1  0.77689000  0.95524000  0.91581000  1.0
  C  C54  1  0.15684000  0.15402000  0.09449000  1.0
  C  C55  1  0.84316000  0.84597000  0.90552000  1.0
  C  C56  1  0.00481000  0.17822000  0.14258000  1.0
  C  C57  1  0.99520000  0.82177000  0.85743000  1.0
  C  C58  1  0.92083000  0.09006000  0.18024000  1.0
  C  C59  1  0.07918000  0.90994000  0.81978000  1.0
  C  C60  1  0.98535000  0.98076000  0.16901000  1.0
  C  C61  1  0.01466000  0.01924000  0.83099000  1.0
  C  C62  1  0.18322000  0.73470000  0.17997000  1.0
  C  C63  1  0.81678000  0.26530000  0.82002000  1.0
  C  C64  1  0.35369000  0.70472000  0.05769000  1.0
  C  C65  1  0.64631000  0.29527000  0.94231000  1.0
  C  C66  1  0.31530000  0.82722000  0.03291000  1.0
  C  C67  1  0.68470000  0.17278000  0.96710000  1.0
  C  C68  1  0.93692000  0.30052000  0.14767000  1.0
  C  C69  1  0.06309000  0.69948000  0.85234000  1.0
  C  C70  1  0.64280000  0.36506000  0.18242000  1.0
  C  C71  1  0.35721000  0.63494000  0.81758000  1.0
  C  C72  1  0.62952000  0.29508000  0.35479000  1.0
  C  C73  1  0.37047000  0.70492000  0.64521000  1.0
  C  C74  1  0.78927000  0.26335000  0.32625000  1.0
  C  C75  1  0.21073000  0.73665000  0.67375000  1.0
  C  C76  1  0.36728000  0.93095000  0.35842000  1.0
  C  C77  1  0.63272000  0.06905000  0.64158000  1.0
  C  C78  1  0.27510000  0.85005000  0.38440000  1.0
  C  C79  1  0.72490000  0.14995000  0.61560000  1.0
  C  C80  1  0.34369000  0.73938000  0.37647000  1.0
  C  C81  1  0.65631000  0.26063000  0.62352000  1.0
  C  C82  1  0.50327000  0.70941000  0.34099000  1.0
  C  C83  1  0.49672000  0.29059000  0.65900000  1.0
  C  C84  1  0.59182000  0.79367000  0.31070000  1.0
  C  C85  1  0.40817000  0.20634000  0.68930000  1.0
  C  C86  1  0.52507000  0.90382000  0.31996000  1.0
  C  C87  1  0.47493000  0.09619000  0.68004000  1.0
  C  C88  1  0.31508000  0.15361000  0.30466000  1.0
  C  C89  1  0.68492000  0.84639000  0.69535000  1.0
  C  C90  1  0.18971000  0.17001000  0.44613000  1.0
  C  C91  1  0.81030000  0.82999000  0.55388000  1.0
  C  C92  1  0.22197000  0.04930000  0.46504000  1.0
  C  C93  1  0.77803000  0.95070000  0.53496000  1.0
  C  C94  1  0.57717000  0.58302000  0.34536000  1.0
  C  C95  1  0.42283000  0.41698000  0.65463000  1.0
  C  C96  1  0.87584000  0.52124000  0.31917000  1.0
  C  C97  1  0.12415000  0.47877000  0.68082000  1.0
  C  C98  1  0.89604000  0.57205000  0.14876000  1.0
  C  C99  1  0.10397000  0.42794000  0.85123000  1.0
  C  C100  1  0.73544000  0.60379000  0.17373000  1.0
  C  C101  1  0.26456000  0.39621000  0.82626000  1.0
  N  N102  1  0.20569000  0.84599000  0.11102000  1.0
  N  N103  1  0.79431000  0.15401000  0.88898000  1.0
  N  N104  1  0.27130000  0.64844000  0.14984000  1.0
  N  N105  1  0.72870000  0.35156000  0.85016000  1.0
  N  N106  1  0.79525000  0.30873000  0.21650000  1.0
  N  N107  1  0.20475000  0.69127000  0.78350000  1.0
  N  N108  1  0.54013000  0.35833000  0.26434000  1.0
  N  N109  1  0.45987000  0.64167000  0.73566000  1.0
  N  N110  1  0.30247000  0.03995000  0.37414000  1.0
  N  N111  1  0.69753000  0.96005000  0.62586000  1.0
  N  N112  1  0.24722000  0.23357000  0.34588000  1.0
  N  N113  1  0.75278000  0.76643000  0.65412000  1.0
  N  N114  1  0.72447000  0.57034000  0.28205000  1.0
  N  N115  1  0.27553000  0.42966000  0.71793000  1.0
  N  N116  1  0.98193000  0.52084000  0.23982000  1.0
  N  N117  1  0.01807000  0.47916000  0.76018000  1.0
  Cl  Cl118  1  0.28768000  0.41640000  0.07118000  1.0
  Cl  Cl119  1  0.71232000  0.58360000  0.92882000  1.0
  Cl  Cl120  1  0.23297000  0.46213000  0.43209000  1.0
  Cl  Cl121  1  0.76701000  0.53788000  0.56790000  1.0
