# generated using pymatgen
data_H4PbC6(NO2)2
_symmetry_space_group_name_H-M   'P 1'
_cell_length_a   6.94078000
_cell_length_b   7.09947000
_cell_length_c   16.17120000
_cell_angle_alpha   89.99960000
_cell_angle_beta   89.99640000
_cell_angle_gamma   77.75300000
_symmetry_Int_Tables_number   1
_chemical_formula_structural   H4PbC6(NO2)2
_chemical_formula_sum   'H16 Pb4 C24 N8 O16'
_cell_volume   778.71523963
_cell_formula_units_Z   4
loop_
 _symmetry_equiv_pos_site_id
 _symmetry_equiv_pos_as_xyz
  1  'x, y, z'
loop_
 _atom_site_type_symbol
 _atom_site_label
 _atom_site_symmetry_multiplicity
 _atom_site_fract_x
 _atom_site_fract_y
 _atom_site_fract_z
 _atom_site_occupancy
  H  H0  1  0.93763000  0.08012000  0.25116000  1.0
  H  H1  1  0.56239000  0.91989000  0.75116000  1.0
  H  H2  1  0.06237000  0.91988000  0.74884000  1.0
  H  H3  1  0.43763000  0.08013000  0.24885000  1.0
  H  H4  1  0.86762000  0.30671000  0.46701000  1.0
  H  H5  1  0.63233000  0.69329000  0.96700000  1.0
  H  H6  1  0.13234000  0.69328000  0.53299000  1.0
  H  H7  1  0.36768000  0.30669000  0.03300000  1.0
  H  H8  1  0.01128000  0.10257000  0.41382000  1.0
  H  H9  1  0.48873000  0.89745000  0.91382000  1.0
  H  H10  1  0.98874000  0.89744000  0.58619000  1.0
  H  H11  1  0.51123000  0.10251000  0.08618000  1.0
  H  H12  1  0.75616000  0.11838000  0.42932000  1.0
  H  H13  1  0.74385000  0.88159000  0.92932000  1.0
  H  H14  1  0.24386000  0.88157000  0.57068000  1.0
  H  H15  1  0.25611000  0.11844000  0.07068000  1.0
  Pb  Pb16  1  0.50152000  0.74246000  0.41560000  1.0
  Pb  Pb17  1  0.99848000  0.25756000  0.91560000  1.0
  Pb  Pb18  1  0.49848000  0.25755000  0.58439000  1.0
  Pb  Pb19  1  0.00152000  0.74245000  0.08440000  1.0
  C  C20  1  0.73313000  0.53306000  0.24311000  1.0
  C  C21  1  0.76688000  0.46694000  0.74310000  1.0
  C  C22  1  0.26687000  0.46695000  0.75689000  1.0
  C  C23  1  0.23312000  0.53306000  0.25688000  1.0
  C  C24  1  0.81843000  0.36400000  0.20096000  1.0
  C  C25  1  0.68159000  0.63600000  0.70095000  1.0
  C  C26  1  0.18156000  0.63601000  0.79904000  1.0
  C  C27  1  0.31843000  0.36401000  0.29904000  1.0
  C  C28  1  0.82531000  0.30775000  0.33667000  1.0
  C  C29  1  0.67470000  0.69224000  0.83667000  1.0
  C  C30  1  0.17468000  0.69223000  0.66334000  1.0
  C  C31  1  0.32530000  0.30776000  0.16334000  1.0
  C  C32  1  0.63764000  0.72964000  0.21362000  1.0
  C  C33  1  0.86236000  0.27037000  0.71362000  1.0
  C  C34  1  0.36237000  0.27037000  0.78638000  1.0
  C  C35  1  0.13764000  0.72964000  0.28639000  1.0
  C  C36  1  0.85421000  0.31158000  0.11237000  1.0
  C  C37  1  0.64581000  0.68843000  0.61236000  1.0
  C  C38  1  0.14578000  0.68842000  0.88764000  1.0
  C  C39  1  0.35422000  0.31159000  0.38764000  1.0
  C  C40  1  0.86808000  0.20377000  0.41644000  1.0
  C  C41  1  0.63190000  0.79621000  0.91644000  1.0
  C  C42  1  0.13190000  0.79622000  0.58356000  1.0
  C  C43  1  0.36809000  0.20377000  0.08356000  1.0
  N  N44  1  0.73807000  0.49359000  0.32689000  1.0
  N  N45  1  0.76191000  0.50641000  0.82687000  1.0
  N  N46  1  0.26191000  0.50639000  0.67312000  1.0
  N  N47  1  0.23809000  0.49360000  0.17313000  1.0
  N  N48  1  0.87222000  0.22588000  0.26145000  1.0
  N  N49  1  0.62779000  0.77413000  0.76145000  1.0
  N  N50  1  0.12778000  0.77411000  0.73855000  1.0
  N  N51  1  0.37221000  0.22588000  0.23855000  1.0
  O  O52  1  0.53333000  0.84055000  0.26717000  1.0
  O  O53  1  0.96671000  0.15945000  0.76716000  1.0
  O  O54  1  0.46669000  0.15946000  0.73283000  1.0
  O  O55  1  0.03330000  0.84056000  0.23283000  1.0
  O  O56  1  0.65884000  0.78168000  0.13999000  1.0
  O  O57  1  0.84112000  0.21830000  0.63999000  1.0
  O  O58  1  0.34115000  0.21831000  0.86000000  1.0
  O  O59  1  0.15885000  0.78171000  0.36000000  1.0
  O  O60  1  0.86797000  0.44458000  0.06022000  1.0
  O  O61  1  0.63211000  0.55541000  0.56022000  1.0
  O  O62  1  0.13209000  0.55540000  0.93978000  1.0
  O  O63  1  0.36791000  0.44462000  0.43978000  1.0
  O  O64  1  0.87218000  0.13685000  0.09229000  1.0
  O  O65  1  0.62780000  0.86316000  0.59229000  1.0
  O  O66  1  0.12777000  0.86316000  0.90771000  1.0
  O  O67  1  0.37223000  0.13687000  0.40772000  1.0
