# generated using pymatgen
data_ZnH27C28N4O5
_symmetry_space_group_name_H-M   'P 1'
_cell_length_a   9.28744000
_cell_length_b   16.32720000
_cell_length_c   19.94650000
_cell_angle_alpha   90.00030000
_cell_angle_beta   90.00040000
_cell_angle_gamma   96.25950000
_symmetry_Int_Tables_number   1
_chemical_formula_structural   ZnH27C28N4O5
_chemical_formula_sum   'Zn4 H108 C112 N16 O20'
_cell_volume   3006.61307352
_cell_formula_units_Z   4
loop_
 _symmetry_equiv_pos_site_id
 _symmetry_equiv_pos_as_xyz
  1  'x, y, z'
loop_
 _atom_site_type_symbol
 _atom_site_label
 _atom_site_symmetry_multiplicity
 _atom_site_fract_x
 _atom_site_fract_y
 _atom_site_fract_z
 _atom_site_occupancy
  Zn  Zn0  1  0.93401000  0.72337000  0.17433000  1.0
  Zn  Zn1  1  0.56599000  0.77662000  0.67432000  1.0
  Zn  Zn2  1  0.06600000  0.27662000  0.82567000  1.0
  Zn  Zn3  1  0.43400000  0.22337000  0.32568000  1.0
  H  H4  1  0.19989000  0.94005000  0.23640000  1.0
  H  H5  1  0.30012000  0.55996000  0.73639000  1.0
  H  H6  1  0.80009000  0.05995000  0.76359000  1.0
  H  H7  1  0.69989000  0.44006000  0.26360000  1.0
  H  H8  1  0.62486000  0.05849000  0.19641000  1.0
  H  H9  1  0.87514000  0.44152000  0.69642000  1.0
  H  H10  1  0.37512000  0.94152000  0.80358000  1.0
  H  H11  1  0.12487000  0.55848000  0.30359000  1.0
  H  H12  1  0.47025000  0.83294000  0.09215000  1.0
  H  H13  1  0.02972000  0.66706000  0.59216000  1.0
  H  H14  1  0.52973000  0.16705000  0.90785000  1.0
  H  H15  1  0.97026000  0.33295000  0.40785000  1.0
  H  H16  1  0.83975000  0.02135000  0.15487000  1.0
  H  H17  1  0.66023000  0.47863000  0.65486000  1.0
  H  H18  1  0.16023000  0.97863000  0.84515000  1.0
  H  H19  1  0.33975000  0.52137000  0.34514000  1.0
  H  H20  1  0.73435000  0.07446000  0.09754000  1.0
  H  H21  1  0.76567000  0.42554000  0.59753000  1.0
  H  H22  1  0.26568000  0.92554000  0.90246000  1.0
  H  H23  1  0.23432000  0.57446000  0.40246000  1.0
  H  H24  1  0.06293000  0.97478000  0.11893000  1.0
  H  H25  1  0.43708000  0.52523000  0.61892000  1.0
  H  H26  1  0.93709000  0.02521000  0.88109000  1.0
  H  H27  1  0.56291000  0.47477000  0.38108000  1.0
  H  H28  1  0.75912000  0.04354000  0.97099000  1.0
  H  H29  1  0.74088000  0.45644000  0.47098000  1.0
  H  H30  1  0.24090000  0.95644000  0.02903000  1.0
  H  H31  1  0.25911000  0.54355000  0.52901000  1.0
  H  H32  1  0.89873000  0.88557000  0.23929000  1.0
  H  H33  1  0.60129000  0.61443000  0.73928000  1.0
  H  H34  1  0.10128000  0.11442000  0.76071000  1.0
  H  H35  1  0.39873000  0.38557000  0.26071000  1.0
  H  H36  1  0.74793000  0.94189000  0.32899000  1.0
  H  H37  1  0.75209000  0.55810000  0.82898000  1.0
  H  H38  1  0.25207000  0.05811000  0.67100000  1.0
  H  H39  1  0.24793000  0.44189000  0.17102000  1.0
  H  H40  1  0.50125000  0.70322000  0.33974000  1.0
  H  H41  1  0.99875000  0.79678000  0.83975000  1.0
  H  H42  1  0.49875000  0.29678000  0.66026000  1.0
  H  H43  1  0.00124000  0.20322000  0.16025000  1.0
  H  H44  1  0.65918000  0.65683000  0.24699000  1.0
  H  H45  1  0.84083000  0.84317000  0.74699000  1.0
  H  H46  1  0.34083000  0.34316000  0.75302000  1.0
  H  H47  1  0.15916000  0.15684000  0.25301000  1.0
  H  H48  1  0.58197000  0.84552000  0.44662000  1.0
  H  H49  1  0.91803000  0.65448000  0.94663000  1.0
  H  H50  1  0.41803000  0.15448000  0.55337000  1.0
  H  H51  1  0.08197000  0.34552000  0.05337000  1.0
  H  H52  1  0.51663000  0.92141000  0.39454000  1.0
  H  H53  1  0.98337000  0.57858000  0.89454000  1.0
  H  H54  1  0.48336000  0.07859000  0.60546000  1.0
  H  H55  1  0.01664000  0.42141000  0.10545000  1.0
  H  H56  1  0.28930000  0.87908000  0.47725000  1.0
  H  H57  1  0.21071000  0.62091000  0.97725000  1.0
  H  H58  1  0.71071000  0.12092000  0.52275000  1.0
  H  H59  1  0.78930000  0.37909000  0.02275000  1.0
  H  H60  1  0.38100000  0.79658000  0.50850000  1.0
  H  H61  1  0.11901000  0.70341000  0.00851000  1.0
  H  H62  1  0.61901000  0.20341000  0.49150000  1.0
  H  H63  1  0.88100000  0.29659000  0.99150000  1.0
  H  H64  1  0.19214000  0.69344000  0.46540000  1.0
  H  H65  1  0.30786000  0.80655000  0.96541000  1.0
  H  H66  1  0.80785000  0.30656000  0.53460000  1.0
  H  H67  1  0.69215000  0.19344000  0.03459000  1.0
  H  H68  1  0.11783000  0.76573000  0.51832000  1.0
  H  H69  1  0.38219000  0.73426000  0.01832000  1.0
  H  H70  1  0.88219000  0.23427000  0.48169000  1.0
  H  H71  1  0.61782000  0.26573000  0.98168000  1.0
  H  H72  1  0.07473000  0.79183000  0.31042000  1.0
  H  H73  1  0.42526000  0.70818000  0.81042000  1.0
  H  H74  1  0.92526000  0.20819000  0.68959000  1.0
  H  H75  1  0.57474000  0.29182000  0.18958000  1.0
  H  H76  1  0.16504000  0.70834000  0.33993000  1.0
  H  H77  1  0.33494000  0.79166000  0.83993000  1.0
  H  H78  1  0.83494000  0.29167000  0.66007000  1.0
  H  H79  1  0.66505000  0.20833000  0.16007000  1.0
  H  H80  1  0.34164000  0.81946000  0.30059000  1.0
  H  H81  1  0.15835000  0.68053000  0.80059000  1.0
  H  H82  1  0.65834000  0.18055000  0.69941000  1.0
  H  H83  1  0.84165000  0.31946000  0.19941000  1.0
  H  H84  1  0.26771000  0.89348000  0.35213000  1.0
  H  H85  1  0.23229000  0.60651000  0.85212000  1.0
  H  H86  1  0.73228000  0.10653000  0.64788000  1.0
  H  H87  1  0.76771000  0.39348000  0.14788000  1.0
  H  H88  1  0.94604000  0.66259000  0.41836000  1.0
  H  H89  1  0.55397000  0.83741000  0.91835000  1.0
  H  H90  1  0.05397000  0.33742000  0.58165000  1.0
  H  H91  1  0.44603000  0.16259000  0.08164000  1.0
  H  H92  1  0.87832000  0.73940000  0.36899000  1.0
  H  H93  1  0.62169000  0.76059000  0.86898000  1.0
  H  H94  1  0.12168000  0.26060000  0.63102000  1.0
  H  H95  1  0.37832000  0.23940000  0.13101000  1.0
  H  H96  1  0.95868000  0.86575000  0.50031000  1.0
  H  H97  1  0.54133000  0.63424000  0.00030000  1.0
  H  H98  1  0.04132000  0.13425000  0.49970000  1.0
  H  H99  1  0.45871000  0.36575000  0.99968000  1.0
  H  H100  1  0.79915000  0.88642000  0.60079000  1.0
  H  H101  1  0.70084000  0.61356000  0.10078000  1.0
  H  H102  1  0.20084000  0.11357000  0.39923000  1.0
  H  H103  1  0.29919000  0.38642000  0.89920000  1.0
  H  H104  1  0.53615000  0.67169000  0.55866000  1.0
  H  H105  1  0.96384000  0.82830000  0.05868000  1.0
  H  H106  1  0.46383000  0.32831000  0.44133000  1.0
  H  H107  1  0.03614000  0.17171000  0.94133000  1.0
  H  H108  1  0.68563000  0.64020000  0.46049000  1.0
  H  H109  1  0.81438000  0.85979000  0.96050000  1.0
  H  H110  1  0.31437000  0.35981000  0.53950000  1.0
  H  H111  1  0.18562000  0.14022000  0.03951000  1.0
  C  C112  1  0.20373000  0.80980000  0.15123000  1.0
  C  C113  1  0.29626000  0.69020000  0.65121000  1.0
  C  C114  1  0.79626000  0.19020000  0.84879000  1.0
  C  C115  1  0.70373000  0.30981000  0.34878000  1.0
  C  C116  1  0.32202000  0.87914000  0.16267000  1.0
  C  C117  1  0.17797000  0.62086000  0.66266000  1.0
  C  C118  1  0.67796000  0.12085000  0.83734000  1.0
  C  C119  1  0.82202000  0.37915000  0.33734000  1.0
  C  C120  1  0.30115000  0.94131000  0.20891000  1.0
  C  C121  1  0.19885000  0.55870000  0.70891000  1.0
  C  C122  1  0.69883000  0.05869000  0.79108000  1.0
  C  C123  1  0.80116000  0.44132000  0.29109000  1.0
  C  C124  1  0.41159000  0.00430000  0.22116000  1.0
  C  C125  1  0.08841000  0.49571000  0.72117000  1.0
  C  C126  1  0.58839000  0.99570000  0.77883000  1.0
  C  C127  1  0.91160000  0.50430000  0.27884000  1.0
  C  C128  1  0.38838000  0.06971000  0.27146000  1.0
  C  C129  1  0.11164000  0.43031000  0.77146000  1.0
  C  C130  1  0.61160000  0.93030000  0.72853000  1.0
  C  C131  1  0.88840000  0.56971000  0.22854000  1.0
  C  C132  1  0.54226000  0.00779000  0.18566000  1.0
  C  C133  1  0.95773000  0.49222000  0.68566000  1.0
  C  C134  1  0.45771000  0.99221000  0.81434000  1.0
  C  C135  1  0.04227000  0.50779000  0.31434000  1.0
  C  C136  1  0.56182000  0.94684000  0.13834000  1.0
  C  C137  1  0.93817000  0.55316000  0.63835000  1.0
  C  C138  1  0.43816000  0.05316000  0.86165000  1.0
  C  C139  1  0.06183000  0.44684000  0.36166000  1.0
  C  C140  1  0.45301000  0.88149000  0.12779000  1.0
  C  C141  1  0.04696000  0.61851000  0.62780000  1.0
  C  C142  1  0.54697000  0.11850000  0.87221000  1.0
  C  C143  1  0.95303000  0.38149000  0.37220000  1.0
  C  C144  1  0.78923000  0.01842000  0.10472000  1.0
  C  C145  1  0.71077000  0.48157000  0.60471000  1.0
  C  C146  1  0.21078000  0.98157000  0.89529000  1.0
  C  C147  1  0.28922000  0.51843000  0.39528000  1.0
  C  C148  1  0.89972000  0.01092000  0.05098000  1.0
  C  C149  1  0.60028000  0.48907000  0.55097000  1.0
  C  C150  1  0.10029000  0.98906000  0.94903000  1.0
  C  C151  1  0.39972000  0.51094000  0.44903000  1.0
  C  C152  1  0.03570000  0.98663000  0.06682000  1.0
  C  C153  1  0.46430000  0.51337000  0.56681000  1.0
  C  C154  1  0.96431000  0.01335000  0.93319000  1.0
  C  C155  1  0.53569000  0.48664000  0.43318000  1.0
  C  C156  1  0.86478000  0.02446000  0.98384000  1.0
  C  C157  1  0.63522000  0.47553000  0.48383000  1.0
  C  C158  1  0.13524000  0.97553000  0.01618000  1.0
  C  C159  1  0.36477000  0.52447000  0.51617000  1.0
  C  C160  1  0.80832000  0.84768000  0.26253000  1.0
  C  C161  1  0.69169000  0.65232000  0.76252000  1.0
  C  C162  1  0.19168000  0.15231000  0.73747000  1.0
  C  C163  1  0.30832000  0.34768000  0.23748000  1.0
  C  C164  1  0.72509000  0.87791000  0.31293000  1.0
  C  C165  1  0.77493000  0.62209000  0.81292000  1.0
  C  C166  1  0.27491000  0.12209000  0.68707000  1.0
  C  C167  1  0.22509000  0.37791000  0.18707000  1.0
  C  C168  1  0.61328000  0.82575000  0.34247000  1.0
  C  C169  1  0.88672000  0.67425000  0.84247000  1.0
  C  C170  1  0.38671000  0.17426000  0.65752000  1.0
  C  C171  1  0.11329000  0.32575000  0.15752000  1.0
  C  C172  1  0.58856000  0.74502000  0.31815000  1.0
  C  C173  1  0.91144000  0.75498000  0.81815000  1.0
  C  C174  1  0.41144000  0.25498000  0.68185000  1.0
  C  C175  1  0.08856000  0.24502000  0.18185000  1.0
  C  C176  1  0.67466000  0.71935000  0.26706000  1.0
  C  C177  1  0.82535000  0.78065000  0.76706000  1.0
  C  C178  1  0.32535000  0.28064000  0.73294000  1.0
  C  C179  1  0.17465000  0.21936000  0.23294000  1.0
  C  C180  1  0.52371000  0.85402000  0.39935000  1.0
  C  C181  1  0.97629000  0.64597000  0.89935000  1.0
  C  C182  1  0.47629000  0.14598000  0.60065000  1.0
  C  C183  1  0.02372000  0.35402000  0.10065000  1.0
  C  C184  1  0.31140000  0.81445000  0.46780000  1.0
  C  C185  1  0.18861000  0.68554000  0.96780000  1.0
  C  C186  1  0.68860000  0.18555000  0.53221000  1.0
  C  C187  1  0.81140000  0.31446000  0.03220000  1.0
  C  C188  1  0.16915000  0.75888000  0.46943000  1.0
  C  C189  1  0.33087000  0.74111000  0.96943000  1.0
  C  C190  1  0.83086000  0.24113000  0.53057000  1.0
  C  C191  1  0.66915000  0.25888000  0.03056000  1.0
  C  C192  1  0.14522000  0.77306000  0.35050000  1.0
  C  C193  1  0.35477000  0.72694000  0.85050000  1.0
  C  C194  1  0.85476000  0.22695000  0.64951000  1.0
  C  C195  1  0.64523000  0.27305000  0.14950000  1.0
  C  C196  1  0.28805000  0.82776000  0.34883000  1.0
  C  C197  1  0.21195000  0.67223000  0.84883000  1.0
  C  C198  1  0.71194000  0.17224000  0.65117000  1.0
  C  C199  1  0.78806000  0.32776000  0.15117000  1.0
  C  C200  1  0.93463000  0.72991000  0.41652000  1.0
  C  C201  1  0.56538000  0.77009000  0.91652000  1.0
  C  C202  1  0.06537000  0.27010000  0.58349000  1.0
  C  C203  1  0.43464000  0.22991000  0.08348000  1.0
  C  C204  1  0.83783000  0.74998000  0.47341000  1.0
  C  C205  1  0.66217000  0.75002000  0.97341000  1.0
  C  C206  1  0.16216000  0.25003000  0.52659000  1.0
  C  C207  1  0.33784000  0.24998000  0.02658000  1.0
  C  C208  1  0.86618000  0.82131000  0.51231000  1.0
  C  C209  1  0.63383000  0.67868000  0.01230000  1.0
  C  C210  1  0.13382000  0.17870000  0.48770000  1.0
  C  C211  1  0.36620000  0.32131000  0.98768000  1.0
  C  C212  1  0.77883000  0.83364000  0.56721000  1.0
  C  C213  1  0.72116000  0.66635000  0.06720000  1.0
  C  C214  1  0.22115000  0.16636000  0.43280000  1.0
  C  C215  1  0.27886000  0.33364000  0.93278000  1.0
  C  C216  1  0.63078000  0.71303000  0.54398000  1.0
  C  C217  1  0.86921000  0.78696000  0.04399000  1.0
  C  C218  1  0.36920000  0.28697000  0.45602000  1.0
  C  C219  1  0.13079000  0.21304000  0.95601000  1.0
  C  C220  1  0.71464000  0.69632000  0.48922000  1.0
  C  C221  1  0.78536000  0.80367000  0.98922000  1.0
  C  C222  1  0.28535000  0.30369000  0.51078000  1.0
  C  C223  1  0.21464000  0.19633000  0.01078000  1.0
  N  N224  1  0.78463000  0.76950000  0.23989000  1.0
  N  N225  1  0.71538000  0.73050000  0.73988000  1.0
  N  N226  1  0.21537000  0.23049000  0.76012000  1.0
  N  N227  1  0.28463000  0.26950000  0.26011000  1.0
  N  N228  1  0.38266000  0.80652000  0.40333000  1.0
  N  N229  1  0.11735000  0.69347000  0.90333000  1.0
  N  N230  1  0.61734000  0.19348000  0.59667000  1.0
  N  N231  1  0.88266000  0.30652000  0.09667000  1.0
  N  N232  1  0.07359000  0.77967000  0.41516000  1.0
  N  N233  1  0.42641000  0.72033000  0.91516000  1.0
  N  N234  1  0.92641000  0.22034000  0.58485000  1.0
  N  N235  1  0.57360000  0.27967000  0.08484000  1.0
  N  N236  1  0.66401000  0.77938000  0.58358000  1.0
  N  N237  1  0.83599000  0.72061000  0.08358000  1.0
  N  N238  1  0.33598000  0.22062000  0.41642000  1.0
  N  N239  1  0.16403000  0.27938000  0.91642000  1.0
  O  O240  1  0.07927000  0.82104000  0.17853000  1.0
  O  O241  1  0.42074000  0.67895000  0.67850000  1.0
  O  O242  1  0.92070000  0.17897000  0.82146000  1.0
  O  O243  1  0.57926000  0.32105000  0.32149000  1.0
  O  O244  1  0.22632000  0.74778000  0.11817000  1.0
  O  O245  1  0.27365000  0.75222000  0.61817000  1.0
  O  O246  1  0.77369000  0.25218000  0.88188000  1.0
  O  O247  1  0.72634000  0.24779000  0.38183000  1.0
  O  O248  1  0.27321000  0.06528000  0.30479000  1.0
  O  O249  1  0.22679000  0.43475000  0.80481000  1.0
  O  O250  1  0.72676000  0.93473000  0.69519000  1.0
  O  O251  1  0.77324000  0.56528000  0.19520000  1.0
  O  O252  1  0.49204000  0.12971000  0.27557000  1.0
  O  O253  1  0.00799000  0.37029000  0.77556000  1.0
  O  O254  1  0.50795000  0.87029000  0.72443000  1.0
  O  O255  1  0.99207000  0.62971000  0.22443000  1.0
  O  O256  1  0.68433000  0.94666000  0.09992000  1.0
  O  O257  1  0.81565000  0.55334000  0.59993000  1.0
  O  O258  1  0.31565000  0.05334000  0.90008000  1.0
  O  O259  1  0.18434000  0.44666000  0.40007000  1.0
