# generated using pymatgen
data_MnH12C16(NO2)2
_symmetry_space_group_name_H-M   'P 1'
_cell_length_a   9.16204000
_cell_length_b   10.40480000
_cell_length_c   17.73940000
_cell_angle_alpha   90.00190000
_cell_angle_beta   90.00340000
_cell_angle_gamma   96.16860000
_symmetry_Int_Tables_number   1
_chemical_formula_structural   MnH12C16(NO2)2
_chemical_formula_sum   'Mn4 H48 C64 N8 O16'
_cell_volume   1681.29133049
_cell_formula_units_Z   4
loop_
 _symmetry_equiv_pos_site_id
 _symmetry_equiv_pos_as_xyz
  1  'x, y, z'
loop_
 _atom_site_type_symbol
 _atom_site_label
 _atom_site_symmetry_multiplicity
 _atom_site_fract_x
 _atom_site_fract_y
 _atom_site_fract_z
 _atom_site_occupancy
  Mn  Mn0  1  0.49987000  0.25169000  0.99884000  1.0
  Mn  Mn1  1  0.00013000  0.74831000  0.49883000  1.0
  Mn  Mn2  1  0.50013000  0.74830000  0.00117000  1.0
  Mn  Mn3  1  0.99985000  0.25169000  0.50117000  1.0
  H  H4  1  0.47399000  0.34472000  0.83051000  1.0
  H  H5  1  0.02606000  0.65527000  0.33053000  1.0
  H  H6  1  0.52602000  0.65528000  0.16948000  1.0
  H  H7  1  0.97397000  0.34476000  0.66947000  1.0
  H  H8  1  0.32206000  0.45387000  0.07548000  1.0
  H  H9  1  0.17794000  0.54613000  0.57547000  1.0
  H  H10  1  0.67793000  0.54612000  0.92453000  1.0
  H  H11  1  0.82209000  0.45389000  0.42454000  1.0
  H  H12  1  0.22584000  0.50967000  0.20026000  1.0
  H  H13  1  0.27419000  0.49035000  0.70026000  1.0
  H  H14  1  0.77413000  0.49032000  0.79974000  1.0
  H  H15  1  0.72584000  0.50968000  0.29975000  1.0
  H  H16  1  0.54789000  0.28906000  0.70025000  1.0
  H  H17  1  0.95219000  0.71094000  0.20026000  1.0
  H  H18  1  0.45212000  0.71094000  0.29974000  1.0
  H  H19  1  0.04786000  0.28908000  0.79974000  1.0
  H  H20  1  0.70889000  0.18429000  0.61684000  1.0
  H  H21  1  0.79119000  0.81573000  0.11684000  1.0
  H  H22  1  0.29111000  0.81571000  0.38315000  1.0
  H  H23  1  0.20885000  0.18428000  0.88315000  1.0
  H  H24  1  0.83918000  0.95066000  0.68645000  1.0
  H  H25  1  0.66083000  0.04931000  0.18647000  1.0
  H  H26  1  0.16081000  0.04934000  0.31354000  1.0
  H  H27  1  0.33916000  0.95067000  0.81353000  1.0
  H  H28  1  0.21817000  0.56748000  0.31531000  1.0
  H  H29  1  0.28183000  0.43253000  0.81530000  1.0
  H  H30  1  0.78182000  0.43252000  0.68469000  1.0
  H  H31  1  0.71815000  0.56749000  0.18470000  1.0
  H  H32  1  0.38273000  0.16217000  0.28823000  1.0
  H  H33  1  0.11727000  0.83783000  0.78822000  1.0
  H  H34  1  0.61728000  0.83785000  0.71179000  1.0
  H  H35  1  0.88268000  0.16216000  0.21179000  1.0
  H  H36  1  0.45734000  0.11347000  0.15697000  1.0
  H  H37  1  0.04266000  0.88652000  0.65696000  1.0
  H  H38  1  0.54270000  0.88654000  0.84305000  1.0
  H  H39  1  0.95731000  0.11347000  0.34305000  1.0
  H  H40  1  0.83895000  0.03748000  0.80138000  1.0
  H  H41  1  0.66108000  0.96250000  0.30136000  1.0
  H  H42  1  0.16105000  0.96251000  0.19861000  1.0
  H  H43  1  0.33891000  0.03749000  0.69862000  1.0
  H  H44  1  0.74980000  0.10233000  0.92645000  1.0
  H  H45  1  0.75019000  0.89763000  0.42645000  1.0
  H  H46  1  0.25020000  0.89765000  0.07353000  1.0
  H  H47  1  0.24978000  0.10236000  0.57354000  1.0
  H  H48  1  0.24734000  0.29265000  0.37437000  1.0
  H  H49  1  0.25270000  0.70736000  0.87437000  1.0
  H  H50  1  0.75265000  0.70735000  0.62563000  1.0
  H  H51  1  0.74729000  0.29265000  0.12564000  1.0
  C  C52  1  0.55472000  0.27715000  0.82124000  1.0
  C  C53  1  0.94532000  0.72283000  0.32124000  1.0
  C  C54  1  0.44529000  0.72285000  0.17875000  1.0
  C  C55  1  0.05470000  0.27718000  0.67875000  1.0
  C  C56  1  0.33011000  0.38998000  0.12382000  1.0
  C  C57  1  0.16989000  0.61002000  0.62382000  1.0
  C  C58  1  0.66988000  0.61001000  0.87618000  1.0
  C  C59  1  0.83012000  0.39000000  0.37619000  1.0
  C  C60  1  0.27965000  0.42187000  0.19436000  1.0
  C  C61  1  0.22036000  0.57813000  0.69435000  1.0
  C  C62  1  0.72033000  0.57812000  0.80565000  1.0
  C  C63  1  0.77965000  0.42189000  0.30566000  1.0
  C  C64  1  0.59626000  0.24552000  0.74886000  1.0
  C  C65  1  0.90379000  0.75447000  0.24887000  1.0
  C  C66  1  0.40374000  0.75448000  0.25113000  1.0
  C  C67  1  0.09624000  0.24554000  0.75113000  1.0
  C  C68  1  0.73884000  0.12088000  0.66215000  1.0
  C  C69  1  0.76123000  0.87912000  0.16216000  1.0
  C  C70  1  0.26116000  0.87911000  0.33783000  1.0
  C  C71  1  0.23880000  0.12088000  0.83784000  1.0
  C  C72  1  0.81015000  0.01860000  0.64353000  1.0
  C  C73  1  0.68989000  0.98139000  0.14353000  1.0
  C  C74  1  0.18985000  0.98140000  0.35646000  1.0
  C  C75  1  0.31012000  0.01860000  0.85646000  1.0
  C  C76  1  0.21181000  0.48623000  0.35451000  1.0
  C  C77  1  0.28820000  0.51378000  0.85450000  1.0
  C  C78  1  0.78817000  0.51377000  0.64549000  1.0
  C  C79  1  0.71178000  0.48623000  0.14550000  1.0
  C  C80  1  0.36505000  0.22866000  0.24246000  1.0
  C  C81  1  0.13495000  0.77133000  0.74245000  1.0
  C  C82  1  0.63496000  0.77134000  0.75755000  1.0
  C  C83  1  0.86502000  0.22867000  0.25755000  1.0
  C  C84  1  0.40857000  0.20179000  0.16961000  1.0
  C  C85  1  0.09142000  0.79820000  0.66960000  1.0
  C  C86  1  0.59145000  0.79822000  0.83041000  1.0
  C  C87  1  0.90855000  0.20180000  0.33041000  1.0
  C  C88  1  0.75649000  0.10525000  0.80440000  1.0
  C  C89  1  0.74355000  0.89473000  0.30440000  1.0
  C  C90  1  0.24352000  0.89474000  0.19559000  1.0
  C  C91  1  0.25645000  0.10527000  0.69560000  1.0
  C  C92  1  0.69834000  0.15543000  0.73838000  1.0
  C  C93  1  0.80172000  0.84456000  0.23838000  1.0
  C  C94  1  0.30167000  0.84457000  0.26161000  1.0
  C  C95  1  0.19830000  0.15544000  0.76161000  1.0
  C  C96  1  0.70914000  0.14233000  0.87474000  1.0
  C  C97  1  0.79087000  0.85763000  0.37474000  1.0
  C  C98  1  0.29086000  0.85766000  0.12525000  1.0
  C  C99  1  0.20913000  0.14236000  0.62525000  1.0
  C  C100  1  0.29827000  0.34176000  0.25676000  1.0
  C  C101  1  0.20174000  0.65824000  0.75675000  1.0
  C  C102  1  0.70172000  0.65824000  0.74325000  1.0
  C  C103  1  0.79824000  0.34177000  0.24326000  1.0
  C  C104  1  0.25094000  0.37063000  0.33277000  1.0
  C  C105  1  0.24907000  0.62938000  0.83277000  1.0
  C  C106  1  0.74904000  0.62937000  0.66723000  1.0
  C  C107  1  0.75091000  0.37063000  0.16724000  1.0
  C  C108  1  0.84393000  0.98513000  0.56433000  1.0
  C  C109  1  0.65609000  0.01486000  0.06433000  1.0
  C  C110  1  0.15607000  0.01485000  0.43567000  1.0
  C  C111  1  0.34392000  0.98514000  0.93566000  1.0
  C  C112  1  0.16407000  0.51515000  0.43205000  1.0
  C  C113  1  0.33593000  0.48484000  0.93204000  1.0
  C  C114  1  0.83590000  0.48485000  0.56796000  1.0
  C  C115  1  0.66406000  0.51515000  0.06796000  1.0
  N  N116  1  0.60825000  0.22653000  0.88394000  1.0
  N  N117  1  0.89176000  0.77344000  0.38395000  1.0
  N  N118  1  0.39175000  0.77347000  0.11605000  1.0
  N  N119  1  0.10824000  0.22656000  0.61605000  1.0
  N  N120  1  0.39365000  0.28093000  0.11090000  1.0
  N  N121  1  0.10634000  0.71906000  0.61090000  1.0
  N  N122  1  0.60636000  0.71907000  0.88911000  1.0
  N  N123  1  0.89365000  0.28094000  0.38911000  1.0
  O  O124  1  0.14953000  0.63444000  0.44508000  1.0
  O  O125  1  0.35048000  0.36555000  0.94506000  1.0
  O  O126  1  0.85045000  0.36556000  0.55493000  1.0
  O  O127  1  0.64951000  0.63444000  0.05494000  1.0
  O  O128  1  0.14354000  0.42483000  0.48056000  1.0
  O  O129  1  0.35646000  0.57516000  0.98056000  1.0
  O  O130  1  0.85643000  0.57517000  0.51945000  1.0
  O  O131  1  0.64355000  0.42483000  0.01945000  1.0
  O  O132  1  0.85945000  0.07315000  0.51439000  1.0
  O  O133  1  0.64055000  0.92684000  0.01440000  1.0
  O  O134  1  0.14054000  0.92683000  0.48560000  1.0
  O  O135  1  0.35946000  0.07316000  0.98560000  1.0
  O  O136  1  0.85031000  0.86443000  0.55186000  1.0
  O  O137  1  0.64970000  0.13555000  0.05187000  1.0
  O  O138  1  0.14968000  0.13555000  0.44814000  1.0
  O  O139  1  0.35031000  0.86445000  0.94813000  1.0
