# generated using pymatgen
data_KH17C9S2O5
_symmetry_space_group_name_H-M   'P 1'
_cell_length_a   9.06606000
_cell_length_b   11.55680000
_cell_length_c   13.73560000
_cell_angle_alpha   90.00000000
_cell_angle_beta   104.64100000
_cell_angle_gamma   90.00000000
_symmetry_Int_Tables_number   1
_chemical_formula_structural   KH17C9S2O5
_chemical_formula_sum   'K4 H68 C36 S8 O20'
_cell_volume   1392.41152312
_cell_formula_units_Z   4
loop_
 _symmetry_equiv_pos_site_id
 _symmetry_equiv_pos_as_xyz
  1  'x, y, z'
loop_
 _atom_site_type_symbol
 _atom_site_label
 _atom_site_symmetry_multiplicity
 _atom_site_fract_x
 _atom_site_fract_y
 _atom_site_fract_z
 _atom_site_occupancy
  K  K0  1  0.77006000  0.53350000  0.51370000  1.0
  K  K1  1  0.77006000  0.96649000  0.01370000  1.0
  K  K2  1  0.22994000  0.46649000  0.48630000  1.0
  K  K3  1  0.22995000  0.03350000  0.98630000  1.0
  H  H4  1  0.76282000  0.28067000  0.66017000  1.0
  H  H5  1  0.76282000  0.21933000  0.16017000  1.0
  H  H6  1  0.23718000  0.71933000  0.33983000  1.0
  H  H7  1  0.23718000  0.78067000  0.83983000  1.0
  H  H8  1  0.95677000  0.63672000  0.22553000  1.0
  H  H9  1  0.95677000  0.86328000  0.72553000  1.0
  H  H10  1  0.04323000  0.36328000  0.77447000  1.0
  H  H11  1  0.04323000  0.13672000  0.27447000  1.0
  H  H12  1  0.75786000  0.62979000  0.21964000  1.0
  H  H13  1  0.75786000  0.87021000  0.71964000  1.0
  H  H14  1  0.24214000  0.37021000  0.78036000  1.0
  H  H15  1  0.24214000  0.12979000  0.28036000  1.0
  H  H16  1  0.99902000  0.73174000  0.39811000  1.0
  H  H17  1  0.99901000  0.76826000  0.89811000  1.0
  H  H18  1  0.00099000  0.26825000  0.60189000  1.0
  H  H19  1  0.00099000  0.23174000  0.10189000  1.0
  H  H20  1  0.89426000  0.81620000  0.29499000  1.0
  H  H21  1  0.89426000  0.68380000  0.79499000  1.0
  H  H22  1  0.10574000  0.18380000  0.70501000  1.0
  H  H23  1  0.10574000  0.31620000  0.20501000  1.0
  H  H24  1  0.87147000  0.83336000  0.51308000  1.0
  H  H25  1  0.87147000  0.66666667  0.01308000  1.0
  H  H26  1  0.12853000  0.16664000  0.48692000  1.0
  H  H27  1  0.12853000  0.33333333  0.98692000  1.0
  H  H28  1  0.77665000  0.91893000  0.40719000  1.0
  H  H29  1  0.77665000  0.58107000  0.90719000  1.0
  H  H30  1  0.22335000  0.08107000  0.59281000  1.0
  H  H31  1  0.22335000  0.41893000  0.09281000  1.0
  H  H32  1  0.62309000  0.92014000  0.52746000  1.0
  H  H33  1  0.62309000  0.57986000  0.02745000  1.0
  H  H34  1  0.37691000  0.07986000  0.47254000  1.0
  H  H35  1  0.37690000  0.42014000  0.97254000  1.0
  H  H36  1  0.52474000  0.83596000  0.42064000  1.0
  H  H37  1  0.52474000  0.66404000  0.92064000  1.0
  H  H38  1  0.47526000  0.16404000  0.57936000  1.0
  H  H39  1  0.47526000  0.33596000  0.07936000  1.0
  H  H40  1  0.47477000  0.82381000  0.61718000  1.0
  H  H41  1  0.47477000  0.67619000  0.11718000  1.0
  H  H42  1  0.52523000  0.17619000  0.38282000  1.0
  H  H43  1  0.52523000  0.32381000  0.88282000  1.0
  H  H44  1  0.39232000  0.71851000  0.52402000  1.0
  H  H45  1  0.39232000  0.78149000  0.02402000  1.0
  H  H46  1  0.60768000  0.28149000  0.47598000  1.0
  H  H47  1  0.60768000  0.21851000  0.97598000  1.0
  H  H48  1  0.62431000  0.66223000  0.72254000  1.0
  H  H49  1  0.62431000  0.83777000  0.22254000  1.0
  H  H50  1  0.37569000  0.33777000  0.27746000  1.0
  H  H51  1  0.37569000  0.16223000  0.77746000  1.0
  H  H52  1  0.42302000  0.66113000  0.70897000  1.0
  H  H53  1  0.42302000  0.83887000  0.20897000  1.0
  H  H54  1  0.57698000  0.33887000  0.29103000  1.0
  H  H55  1  0.57698000  0.16113000  0.79103000  1.0
  H  H56  1  0.50264000  0.47691000  0.76953000  1.0
  H  H57  1  0.50264000  0.02309000  0.26953000  1.0
  H  H58  1  0.49736000  0.52309000  0.23047000  1.0
  H  H59  1  0.49736000  0.97691000  0.73047000  1.0
  H  H60  1  0.47297000  0.37055000  0.67231000  1.0
  H  H61  1  0.47297000  0.12945000  0.17231000  1.0
  H  H62  1  0.52703000  0.62945000  0.32769000  1.0
  H  H63  1  0.52703000  0.87055000  0.82769000  1.0
  H  H64  1  0.77688000  0.49768000  0.75180000  1.0
  H  H65  1  0.77688000  0.00231000  0.25180000  1.0
  H  H66  1  0.22312000  0.50231000  0.24820000  1.0
  H  H67  1  0.22312000  0.99769000  0.74820000  1.0
  H  H68  1  0.73522000  0.36054000  0.79667000  1.0
  H  H69  1  0.73522000  0.13946000  0.29667000  1.0
  H  H70  1  0.26478000  0.63946000  0.20333000  1.0
  H  H71  1  0.26478000  0.86054000  0.70333000  1.0
  C  C72  1  0.86229000  0.42379000  0.29499000  1.0
  C  C73  1  0.86229000  0.07621000  0.79499000  1.0
  C  C74  1  0.13771000  0.57621000  0.70501000  1.0
  C  C75  1  0.13771000  0.92379000  0.20501000  1.0
  C  C76  1  0.87255000  0.63378000  0.27061000  1.0
  C  C77  1  0.87255000  0.86622000  0.77061000  1.0
  C  C78  1  0.12745000  0.36622000  0.72939000  1.0
  C  C79  1  0.12745000  0.13378000  0.22939000  1.0
  C  C80  1  0.89085000  0.73691000  0.33938000  1.0
  C  C81  1  0.89085000  0.76309000  0.83938000  1.0
  C  C82  1  0.10915000  0.26309000  0.66062000  1.0
  C  C83  1  0.10914000  0.23691000  0.16062000  1.0
  C  C84  1  0.76978000  0.83791000  0.44873000  1.0
  C  C85  1  0.76978000  0.66209000  0.94873000  1.0
  C  C86  1  0.23022000  0.16209000  0.55127000  1.0
  C  C87  1  0.23022000  0.33791000  0.05127000  1.0
  C  C88  1  0.62648000  0.83916000  0.48510000  1.0
  C  C89  1  0.62648000  0.66084000  0.98510000  1.0
  C  C90  1  0.37352000  0.16084000  0.51490000  1.0
  C  C91  1  0.37352000  0.33916000  0.01490000  1.0
  C  C92  1  0.49313000  0.73836000  0.58602000  1.0
  C  C93  1  0.49313000  0.76164000  0.08602000  1.0
  C  C94  1  0.50687000  0.26164000  0.41398000  1.0
  C  C95  1  0.50687000  0.23836000  0.91398000  1.0
  C  C96  1  0.51283000  0.64966000  0.66843000  1.0
  C  C97  1  0.51283000  0.85034000  0.16843000  1.0
  C  C98  1  0.48717000  0.35034000  0.33158000  1.0
  C  C99  1  0.48717000  0.14966000  0.83158000  1.0
  C  C100  1  0.53969000  0.44774000  0.70279000  1.0
  C  C101  1  0.53969000  0.05226000  0.20279000  1.0
  C  C102  1  0.46031000  0.55226000  0.29721000  1.0
  C  C103  1  0.46031000  0.94774000  0.79721000  1.0
  C  C104  1  0.70813000  0.41836000  0.73065000  1.0
  C  C105  1  0.70813000  0.08164000  0.23065000  1.0
  C  C106  1  0.29187000  0.58164000  0.26935000  1.0
  C  C107  1  0.29187000  0.91836000  0.76935000  1.0
  S  S108  1  0.90808000  0.31904000  0.38349000  1.0
  S  S109  1  0.90808000  0.18096000  0.88349000  1.0
  S  S110  1  0.09192000  0.68096000  0.61651000  1.0
  S  S111  1  0.09192000  0.81904000  0.11651000  1.0
  S  S112  1  0.77935000  0.40715000  0.17120000  1.0
  S  S113  1  0.77935000  0.09285000  0.67120000  1.0
  S  S114  1  0.22065000  0.59285000  0.82880000  1.0
  S  S115  1  0.22065000  0.90715000  0.32880000  1.0
  O  O116  1  0.89826000  0.53211000  0.33480000  1.0
  O  O117  1  0.89826000  0.96789000  0.83480000  1.0
  O  O118  1  0.10174000  0.46789000  0.66520000  1.0
  O  O119  1  0.10174000  0.03211000  0.16520000  1.0
  O  O120  1  0.76448000  0.73997000  0.38425000  1.0
  O  O121  1  0.76448000  0.76003000  0.88425000  1.0
  O  O122  1  0.23552000  0.26003000  0.61575000  1.0
  O  O123  1  0.23552000  0.23997000  0.11575000  1.0
  O  O124  1  0.62771000  0.74168000  0.54964000  1.0
  O  O125  1  0.62771000  0.75832000  0.04964000  1.0
  O  O126  1  0.37229000  0.25832000  0.45036000  1.0
  O  O127  1  0.37229000  0.24168000  0.95036000  1.0
  O  O128  1  0.50208000  0.53539000  0.62575000  1.0
  O  O129  1  0.50208000  0.96461000  0.12575000  1.0
  O  O130  1  0.49792000  0.46461000  0.37425000  1.0
  O  O131  1  0.49792000  0.03539000  0.87425000  1.0
  O  O132  1  0.75377000  0.36595000  0.64850000  1.0
  O  O133  1  0.75377000  0.13405000  0.14850000  1.0
  O  O134  1  0.24623000  0.63405000  0.35150000  1.0
  O  O135  1  0.24623000  0.86595000  0.85150000  1.0
