# generated using pymatgen
data_CdH8C10S2(NO)2
_symmetry_space_group_name_H-M   'P 1'
_cell_length_a   7.52426000
_cell_length_b   10.02400000
_cell_length_c   15.88040000
_cell_angle_alpha   90.00150000
_cell_angle_beta   90.00200000
_cell_angle_gamma   81.20120000
_symmetry_Int_Tables_number   1
_chemical_formula_structural   CdH8C10S2(NO)2
_chemical_formula_sum   'Cd4 H32 C40 S8 N8 O8'
_cell_volume   1183.65468005
_cell_formula_units_Z   4
loop_
 _symmetry_equiv_pos_site_id
 _symmetry_equiv_pos_as_xyz
  1  'x, y, z'
loop_
 _atom_site_type_symbol
 _atom_site_label
 _atom_site_symmetry_multiplicity
 _atom_site_fract_x
 _atom_site_fract_y
 _atom_site_fract_z
 _atom_site_occupancy
  Cd  Cd0  1  0.25960000  0.97427000  0.96264000  1.0
  Cd  Cd1  1  0.24040000  0.52573000  0.46264000  1.0
  Cd  Cd2  1  0.74041000  0.02573000  0.03734000  1.0
  Cd  Cd3  1  0.75959000  0.47427000  0.53736000  1.0
  H  H4  1  0.69642000  0.80670000  0.91245000  1.0
  H  H5  1  0.80359000  0.69330000  0.41245000  1.0
  H  H6  1  0.30358000  0.19328000  0.08756000  1.0
  H  H7  1  0.19644000  0.30670000  0.58755000  1.0
  H  H8  1  0.66765000  0.56657000  0.87726000  1.0
  H  H9  1  0.83234000  0.93343000  0.37725000  1.0
  H  H10  1  0.33234000  0.43343000  0.12275000  1.0
  H  H11  1  0.16768000  0.06655000  0.62273000  1.0
  H  H12  1  0.95469000  0.39454000  0.87297000  1.0
  H  H13  1  0.54529000  0.10545000  0.37295000  1.0
  H  H14  1  0.04529000  0.60546000  0.12704000  1.0
  H  H15  1  0.45474000  0.89452000  0.62702000  1.0
  H  H16  1  0.24332000  0.46978000  0.90939000  1.0
  H  H17  1  0.25666000  0.03021000  0.40937000  1.0
  H  H18  1  0.75665000  0.53020000  0.09064000  1.0
  H  H19  1  0.74336000  0.96978000  0.59061000  1.0
  H  H20  1  0.16114000  0.92879000  0.14392000  1.0
  H  H21  1  0.33884000  0.57123000  0.64390000  1.0
  H  H22  1  0.83887000  0.07124000  0.85610000  1.0
  H  H23  1  0.66110000  0.42878000  0.35611000  1.0
  H  H24  1  0.12000000  0.73737000  0.24138000  1.0
  H  H25  1  0.38004000  0.76265000  0.74136000  1.0
  H  H26  1  0.88004000  0.26266000  0.75865000  1.0
  H  H27  1  0.61991000  0.23736000  0.25864000  1.0
  H  H28  1  0.39721000  0.57685000  0.28605000  1.0
  H  H29  1  0.10285000  0.92317000  0.78605000  1.0
  H  H30  1  0.60285000  0.42317000  0.71395000  1.0
  H  H31  1  0.89709000  0.07684000  0.21395000  1.0
  H  H32  1  0.69811000  0.62779000  0.24168000  1.0
  H  H33  1  0.80193000  0.87223000  0.74170000  1.0
  H  H34  1  0.30193000  0.37222000  0.75830000  1.0
  H  H35  1  0.19802000  0.12777000  0.25830000  1.0
  C  C36  1  0.81041000  0.72550000  0.91200000  1.0
  C  C37  1  0.68960000  0.77450000  0.41201000  1.0
  C  C38  1  0.18959000  0.27449000  0.08801000  1.0
  C  C39  1  0.31043000  0.22550000  0.58800000  1.0
  C  C40  1  0.79911000  0.59391000  0.89093000  1.0
  C  C41  1  0.70087000  0.90610000  0.39093000  1.0
  C  C42  1  0.20088000  0.40608000  0.10907000  1.0
  C  C43  1  0.29915000  0.09390000  0.60906000  1.0
  C  C44  1  0.95712000  0.49986000  0.88868000  1.0
  C  C45  1  0.54287000  0.00012000  0.38867000  1.0
  C  C46  1  0.04288000  0.50012000  0.11133000  1.0
  C  C47  1  0.45715000  0.99987000  0.61132000  1.0
  C  C48  1  0.11879000  0.54123000  0.90891000  1.0
  C  C49  1  0.38121000  0.95876000  0.40890000  1.0
  C  C50  1  0.88120000  0.45875000  0.09110000  1.0
  C  C51  1  0.61881000  0.04123000  0.59108000  1.0
  C  C52  1  0.13010000  0.67550000  0.93208000  1.0
  C  C53  1  0.36991000  0.82450000  0.43208000  1.0
  C  C54  1  0.86990000  0.32449000  0.06793000  1.0
  C  C55  1  0.63011000  0.17550000  0.56792000  1.0
  C  C56  1  0.27261000  0.85729000  0.16850000  1.0
  C  C57  1  0.22739000  0.64273000  0.66849000  1.0
  C  C58  1  0.72741000  0.14274000  0.83151000  1.0
  C  C59  1  0.77256000  0.35727000  0.33151000  1.0
  C  C60  1  0.25404000  0.75110000  0.22103000  1.0
  C  C61  1  0.24599000  0.74892000  0.72103000  1.0
  C  C62  1  0.74599000  0.24893000  0.77898000  1.0
  C  C63  1  0.75396000  0.25108000  0.27898000  1.0
  C  C64  1  0.40828000  0.66403000  0.24643000  1.0
  C  C65  1  0.09175000  0.83599000  0.74643000  1.0
  C  C66  1  0.59176000  0.33599000  0.75357000  1.0
  C  C67  1  0.90819000  0.16401000  0.25358000  1.0
  C  C68  1  0.57499000  0.69129000  0.22146000  1.0
  C  C69  1  0.92504000  0.80873000  0.72148000  1.0
  C  C70  1  0.42505000  0.30873000  0.77853000  1.0
  C  C71  1  0.07491000  0.19126000  0.27853000  1.0
  C  C72  1  0.59430000  0.80235000  0.16953000  1.0
  C  C73  1  0.90570000  0.69767000  0.66954000  1.0
  C  C74  1  0.40572000  0.19767000  0.83046000  1.0
  C  C75  1  0.09425000  0.30233000  0.33046000  1.0
  S  S76  1  0.33272000  0.72101000  0.96039000  1.0
  S  S77  1  0.16729000  0.77898000  0.46040000  1.0
  S  S78  1  0.66728000  0.27898000  0.03961000  1.0
  S  S79  1  0.83274000  0.22101000  0.53960000  1.0
  S  S80  1  0.80297000  0.83571000  0.14186000  1.0
  S  S81  1  0.69702000  0.66430000  0.64187000  1.0
  S  S82  1  0.19704000  0.16431000  0.85813000  1.0
  S  S83  1  0.30293000  0.33570000  0.35812000  1.0
  N  N84  1  0.97094000  0.76550000  0.93140000  1.0
  N  N85  1  0.52908000  0.73451000  0.43141000  1.0
  N  N86  1  0.02907000  0.23449000  0.06860000  1.0
  N  N87  1  0.47095000  0.26549000  0.56859000  1.0
  N  N88  1  0.43763000  0.88089000  0.14224000  1.0
  N  N89  1  0.06237000  0.61912000  0.64225000  1.0
  N  N90  1  0.56239000  0.11912000  0.85775000  1.0
  N  N91  1  0.93758000  0.38088000  0.35775000  1.0
  O  O92  1  0.97030000  0.89635000  0.94826000  1.0
  O  O93  1  0.52972000  0.60365000  0.44828000  1.0
  O  O94  1  0.02971000  0.10364000  0.05172000  1.0
  O  O95  1  0.47030000  0.39634000  0.55172000  1.0
  O  O96  1  0.44312000  0.98216000  0.08779000  1.0
  O  O97  1  0.05686000  0.51784000  0.58779000  1.0
  O  O98  1  0.55689000  0.01784000  0.91220000  1.0
  O  O99  1  0.94310000  0.48216000  0.41221000  1.0
