# generated using pymatgen
data_ZnH9C8N3O5
_symmetry_space_group_name_H-M   'P 1'
_cell_length_a   7.17487000
_cell_length_b   8.79826000
_cell_length_c   16.23400000
_cell_angle_alpha   90.00000000
_cell_angle_beta   90.00000000
_cell_angle_gamma   90.00000000
_symmetry_Int_Tables_number   1
_chemical_formula_structural   ZnH9C8N3O5
_chemical_formula_sum   'Zn4 H36 C32 N12 O20'
_cell_volume   1024.79351860
_cell_formula_units_Z   4
loop_
 _symmetry_equiv_pos_site_id
 _symmetry_equiv_pos_as_xyz
  1  'x, y, z'
loop_
 _atom_site_type_symbol
 _atom_site_label
 _atom_site_symmetry_multiplicity
 _atom_site_fract_x
 _atom_site_fract_y
 _atom_site_fract_z
 _atom_site_occupancy
  Zn  Zn0  1  0.75043000  0.54499000  0.04064000  1.0
  Zn  Zn1  1  0.74957000  0.45501000  0.54064000  1.0
  Zn  Zn2  1  0.24959000  0.04498000  0.45936000  1.0
  Zn  Zn3  1  0.25042000  0.95502000  0.95936000  1.0
  H  H4  1  0.93670000  0.31633000  0.39592000  1.0
  H  H5  1  0.56331000  0.68367000  0.89592000  1.0
  H  H6  1  0.06330000  0.81634000  0.10408000  1.0
  H  H7  1  0.43670000  0.18366000  0.60408000  1.0
  H  H8  1  0.17539000  0.48479000  0.06958000  1.0
  H  H9  1  0.32460000  0.51520000  0.56958000  1.0
  H  H10  1  0.82460000  0.98480000  0.43042000  1.0
  H  H11  1  0.67540000  0.01520000  0.93042000  1.0
  H  H12  1  0.21783000  0.35923000  0.32582000  1.0
  H  H13  1  0.28217000  0.64077000  0.82582000  1.0
  H  H14  1  0.78218000  0.85924000  0.17418000  1.0
  H  H15  1  0.71782000  0.14076000  0.67418000  1.0
  H  H16  1  0.36905000  0.39443000  0.18647000  1.0
  H  H17  1  0.13095000  0.60557000  0.68648000  1.0
  H  H18  1  0.63095000  0.89443000  0.31352000  1.0
  H  H19  1  0.86905000  0.10557000  0.81352000  1.0
  H  H20  1  0.70831000  0.52645000  0.21734000  1.0
  H  H21  1  0.79169000  0.47355000  0.71734000  1.0
  H  H22  1  0.29170000  0.02645000  0.28266000  1.0
  H  H23  1  0.20830000  0.97355000  0.78266000  1.0
  H  H24  1  0.73413000  0.60646000  0.40431000  1.0
  H  H25  1  0.76587000  0.39354000  0.90430000  1.0
  H  H26  1  0.26587000  0.10646000  0.09570000  1.0
  H  H27  1  0.23413000  0.89354000  0.59570000  1.0
  H  H28  1  0.95717000  0.58422000  0.43194000  1.0
  H  H29  1  0.54283000  0.41578000  0.93194000  1.0
  H  H30  1  0.04282000  0.08422000  0.06806000  1.0
  H  H31  1  0.45718000  0.91578000  0.56806000  1.0
  H  H32  1  0.67252000  0.24967000  0.29560000  1.0
  H  H33  1  0.82749000  0.75033000  0.79560000  1.0
  H  H34  1  0.32748000  0.74967000  0.20440000  1.0
  H  H35  1  0.17253000  0.25033000  0.70440000  1.0
  H  H36  1  0.56471000  0.42208000  0.32242000  1.0
  H  H37  1  0.93530000  0.57792000  0.82242000  1.0
  H  H38  1  0.43529000  0.92208000  0.17759000  1.0
  H  H39  1  0.06471000  0.07792000  0.67759000  1.0
  C  C40  1  0.85019000  0.40154000  0.36439000  1.0
  C  C41  1  0.64981000  0.59846000  0.86439000  1.0
  C  C42  1  0.14981000  0.90154000  0.13561000  1.0
  C  C43  1  0.35019000  0.09846000  0.63561000  1.0
  C  C44  1  0.95003000  0.44045000  0.28403000  1.0
  C  C45  1  0.54996000  0.55955000  0.78403000  1.0
  C  C46  1  0.04997000  0.94045000  0.21597000  1.0
  C  C47  1  0.45003000  0.05954000  0.71597000  1.0
  C  C48  1  0.11648000  0.47413000  0.13126000  1.0
  C  C49  1  0.38352000  0.52587000  0.63126000  1.0
  C  C50  1  0.88352000  0.97414000  0.36874000  1.0
  C  C51  1  0.61648000  0.02586000  0.86874000  1.0
  C  C52  1  0.13890000  0.40482000  0.27403000  1.0
  C  C53  1  0.36110000  0.59518000  0.77403000  1.0
  C  C54  1  0.86110000  0.90483000  0.22597000  1.0
  C  C55  1  0.63890000  0.09517000  0.72597000  1.0
  C  C56  1  0.22353000  0.42364000  0.19734000  1.0
  C  C57  1  0.27647000  0.57636000  0.69734000  1.0
  C  C58  1  0.77647000  0.92365000  0.30266000  1.0
  C  C59  1  0.72353000  0.07635000  0.80266000  1.0
  C  C60  1  0.85512000  0.49540000  0.21490000  1.0
  C  C61  1  0.64488000  0.50461000  0.71491000  1.0
  C  C62  1  0.14488000  0.99540000  0.28509000  1.0
  C  C63  1  0.35512000  0.00460000  0.78509000  1.0
  C  C64  1  0.65908000  0.33321000  0.34543000  1.0
  C  C65  1  0.84092000  0.66679000  0.84543000  1.0
  C  C66  1  0.34092000  0.83322000  0.15457000  1.0
  C  C67  1  0.15908000  0.16679000  0.65457000  1.0
  C  C68  1  0.55495000  0.25589000  0.41517000  1.0
  C  C69  1  0.94506000  0.74412000  0.91516000  1.0
  C  C70  1  0.44504000  0.75590000  0.08482000  1.0
  C  C71  1  0.05495000  0.24411000  0.58483000  1.0
  N  N72  1  0.93472000  0.50953000  0.13995000  1.0
  N  N73  1  0.56528000  0.49047000  0.63995000  1.0
  N  N74  1  0.06528000  0.00953000  0.36005000  1.0
  N  N75  1  0.43472000  0.99047000  0.86005000  1.0
  N  N76  1  0.67086000  0.21449000  0.07900000  1.0
  N  N77  1  0.82915000  0.78551000  0.57900000  1.0
  N  N78  1  0.32913000  0.71448000  0.42101000  1.0
  N  N79  1  0.17086000  0.28551000  0.92101000  1.0
  N  N80  1  0.83130000  0.52906000  0.42430000  1.0
  N  N81  1  0.66870000  0.47094000  0.92430000  1.0
  N  N82  1  0.16870000  0.02907000  0.07570000  1.0
  N  N83  1  0.33130000  0.97093000  0.57570000  1.0
  O  O84  1  0.82439000  0.21163000  0.04039000  1.0
  O  O85  1  0.67561000  0.78837000  0.54039000  1.0
  O  O86  1  0.17560000  0.71163000  0.45961000  1.0
  O  O87  1  0.32440000  0.28837000  0.95961000  1.0
  O  O88  1  0.59473000  0.34319000  0.09479000  1.0
  O  O89  1  0.90527000  0.65680000  0.59479000  1.0
  O  O90  1  0.40527000  0.84319000  0.40521000  1.0
  O  O91  1  0.09473000  0.15681000  0.90521000  1.0
  O  O92  1  0.42718000  0.16581000  0.39047000  1.0
  O  O93  1  0.07282000  0.83419000  0.89047000  1.0
  O  O94  1  0.57282000  0.66581000  0.10953000  1.0
  O  O95  1  0.92718000  0.33419000  0.60953000  1.0
  O  O96  1  0.59084000  0.27966000  0.49056000  1.0
  O  O97  1  0.90916000  0.72034000  0.99056000  1.0
  O  O98  1  0.40915000  0.77967000  0.00944000  1.0
  O  O99  1  0.09084000  0.22033000  0.50944000  1.0
  O  O100  1  0.59121000  0.09435000  0.10154000  1.0
  O  O101  1  0.90880000  0.90564000  0.60154000  1.0
  O  O102  1  0.40878000  0.59435000  0.39846000  1.0
  O  O103  1  0.09121000  0.40565000  0.89846000  1.0
