# generated using pymatgen
data_CoH8C12(NO2)2
_symmetry_space_group_name_H-M   'P 1'
_cell_length_a   9.84745000
_cell_length_b   10.69440000
_cell_length_c   12.79650000
_cell_angle_alpha   90.00010000
_cell_angle_beta   90.00090000
_cell_angle_gamma   102.59600000
_symmetry_Int_Tables_number   1
_chemical_formula_structural   CoH8C12(NO2)2
_chemical_formula_sum   'Co4 H32 C48 N8 O16'
_cell_volume   1315.19746354
_cell_formula_units_Z   4
loop_
 _symmetry_equiv_pos_site_id
 _symmetry_equiv_pos_as_xyz
  1  'x, y, z'
loop_
 _atom_site_type_symbol
 _atom_site_label
 _atom_site_symmetry_multiplicity
 _atom_site_fract_x
 _atom_site_fract_y
 _atom_site_fract_z
 _atom_site_occupancy
  Co  Co0  1  0.87116000  0.75014000  0.56780000  1.0
  Co  Co1  1  0.38012000  0.74900000  0.56581000  1.0
  Co  Co2  1  0.12885000  0.24986000  0.06780000  1.0
  Co  Co3  1  0.61989000  0.25099000  0.06581000  1.0
  H  H4  1  0.11005000  0.35192000  0.46470000  1.0
  H  H5  1  0.85687000  0.02335000  0.52713000  1.0
  H  H6  1  0.43897000  0.99722000  0.72959000  1.0
  H  H7  1  0.11673000  0.21890000  0.30415000  1.0
  H  H8  1  0.61679000  0.50099000  0.82928000  1.0
  H  H9  1  0.11226000  0.67413000  0.26078000  1.0
  H  H10  1  0.43232000  0.13780000  0.88707000  1.0
  H  H11  1  0.83492000  0.16698000  0.37602000  1.0
  H  H12  1  0.12725000  0.52865000  0.10958000  1.0
  H  H13  1  0.18406000  0.63248000  0.73796000  1.0
  H  H14  1  0.59753000  0.64030000  0.67428000  1.0
  H  H15  1  0.86402000  0.99856000  0.80801000  1.0
  H  H16  1  0.85960000  0.85163000  0.17133000  1.0
  H  H17  1  0.86429000  0.71773000  0.33156000  1.0
  H  H18  1  0.18821000  0.49570000  0.89807000  1.0
  H  H19  1  0.84065000  0.13590000  0.96221000  1.0
  H  H20  1  0.88995000  0.64808000  0.96470000  1.0
  H  H21  1  0.14313000  0.97665000  0.02712000  1.0
  H  H22  1  0.56103000  0.00278000  0.22960000  1.0
  H  H23  1  0.88327000  0.78109000  0.80416000  1.0
  H  H24  1  0.38321000  0.49900000  0.32928000  1.0
  H  H25  1  0.88773000  0.32587000  0.76077000  1.0
  H  H26  1  0.56768000  0.86220000  0.38708000  1.0
  H  H27  1  0.16509000  0.83303000  0.87600000  1.0
  H  H28  1  0.87274000  0.47134000  0.60957000  1.0
  H  H29  1  0.81593000  0.36752000  0.23796000  1.0
  H  H30  1  0.40246000  0.35969000  0.17427000  1.0
  H  H31  1  0.13597000  0.00142000  0.30800000  1.0
  H  H32  1  0.14043000  0.14840000  0.67133000  1.0
  H  H33  1  0.13571000  0.28228000  0.83156000  1.0
  H  H34  1  0.81179000  0.50431000  0.39807000  1.0
  H  H35  1  0.15934000  0.86409000  0.46219000  1.0
  C  C36  1  0.66183000  0.90075000  0.66526000  1.0
  C  C37  1  0.65247000  0.98728000  0.75669000  1.0
  C  C38  1  0.11050000  0.39436000  0.38718000  1.0
  C  C39  1  0.85479000  0.98918000  0.44682000  1.0
  C  C40  1  0.53015000  0.02846000  0.77895000  1.0
  C  C41  1  0.11472000  0.32006000  0.29847000  1.0
  C  C42  1  0.41032000  0.40229000  0.96703000  1.0
  C  C43  1  0.09290000  0.60435000  0.47041000  1.0
  C  C44  1  0.40381000  0.48873000  0.87550000  1.0
  C  C45  1  0.10726000  0.52385000  0.37575000  1.0
  C  C46  1  0.52008000  0.53007000  0.81183000  1.0
  C  C47  1  0.11269000  0.57350000  0.27408000  1.0
  C  C48  1  0.52613000  0.10525000  0.86622000  1.0
  C  C49  1  0.84475000  0.06871000  0.36259000  1.0
  C  C50  1  0.12033000  0.49322000  0.18970000  1.0
  C  C51  1  0.27848000  0.60329000  0.76248000  1.0
  C  C52  1  0.50968000  0.60731000  0.72632000  1.0
  C  C53  1  0.76659000  0.02763000  0.82306000  1.0
  C  C54  1  0.85667000  0.89294000  0.24898000  1.0
  C  C55  1  0.86003000  0.81833000  0.33751000  1.0
  C  C56  1  0.28099000  0.52782000  0.85048000  1.0
  C  C57  1  0.84106000  0.10349000  0.16656000  1.0
  C  C58  1  0.75427000  0.10475000  0.90832000  1.0
  C  C59  1  0.84824000  0.02104000  0.26092000  1.0
  C  C60  1  0.33817000  0.09924000  0.16526000  1.0
  C  C61  1  0.34753000  0.01271000  0.25668000  1.0
  C  C62  1  0.88949000  0.60563000  0.88717000  1.0
  C  C63  1  0.14522000  0.01082000  0.94681000  1.0
  C  C64  1  0.46985000  0.97154000  0.27895000  1.0
  C  C65  1  0.88528000  0.67993000  0.79847000  1.0
  C  C66  1  0.58968000  0.59771000  0.46702000  1.0
  C  C67  1  0.90710000  0.39564000  0.97041000  1.0
  C  C68  1  0.59619000  0.51127000  0.37549000  1.0
  C  C69  1  0.89273000  0.47615000  0.87575000  1.0
  C  C70  1  0.47991000  0.46992000  0.31182000  1.0
  C  C71  1  0.88730000  0.42649000  0.77408000  1.0
  C  C72  1  0.47387000  0.89475000  0.36622000  1.0
  C  C73  1  0.15526000  0.93130000  0.86258000  1.0
  C  C74  1  0.87967000  0.50678000  0.68970000  1.0
  C  C75  1  0.72152000  0.39671000  0.26247000  1.0
  C  C76  1  0.49032000  0.39269000  0.22631000  1.0
  C  C77  1  0.23340000  0.97235000  0.32305000  1.0
  C  C78  1  0.14335000  0.10708000  0.74898000  1.0
  C  C79  1  0.13998000  0.18168000  0.83750000  1.0
  C  C80  1  0.71900000  0.47218000  0.35048000  1.0
  C  C81  1  0.15894000  0.89651000  0.66655000  1.0
  C  C82  1  0.24572000  0.89523000  0.40831000  1.0
  C  C83  1  0.15178000  0.97898000  0.76091000  1.0
  N  N84  1  0.11901000  0.36760000  0.20066000  1.0
  N  N85  1  0.39067000  0.64275000  0.70090000  1.0
  N  N86  1  0.86106000  0.86532000  0.43532000  1.0
  N  N87  1  0.63565000  0.14284000  0.93077000  1.0
  N  N88  1  0.88099000  0.63240000  0.70066000  1.0
  N  N89  1  0.60933000  0.35725000  0.20090000  1.0
  N  N90  1  0.13895000  0.13469000  0.93532000  1.0
  N  N91  1  0.36435000  0.85715000  0.43077000  1.0
  O  O92  1  0.56120000  0.87568000  0.60120000  1.0
  O  O93  1  0.30314000  0.37475000  0.02556000  1.0
  O  O94  1  0.97899000  0.64197000  0.47394000  1.0
  O  O95  1  0.52355000  0.36608000  0.97930000  1.0
  O  O96  1  0.18851000  0.62313000  0.53797000  1.0
  O  O97  1  0.72778000  0.13929000  0.15513000  1.0
  O  O98  1  0.94605000  0.12505000  0.10654000  1.0
  O  O99  1  0.77485000  0.86135000  0.65926000  1.0
  O  O100  1  0.43879000  0.12431000  0.10119000  1.0
  O  O101  1  0.69685000  0.62525000  0.52556000  1.0
  O  O102  1  0.02101000  0.35803000  0.97394000  1.0
  O  O103  1  0.47643000  0.63391000  0.47929000  1.0
  O  O104  1  0.81150000  0.37687000  0.03797000  1.0
  O  O105  1  0.27222000  0.86071000  0.65512000  1.0
  O  O106  1  0.05394000  0.87496000  0.60654000  1.0
  O  O107  1  0.22515000  0.13864000  0.15926000  1.0
