# generated using pymatgen
data_Al6H14C36O31
_symmetry_space_group_name_H-M   'P 1'
_cell_length_a   11.61765879
_cell_length_b   11.70110000
_cell_length_c   19.44990000
_cell_angle_alpha   90.03480000
_cell_angle_beta   90.57992559
_cell_angle_gamma   116.49514955
_symmetry_Int_Tables_number   1
_chemical_formula_structural   Al6H14C36O31
_chemical_formula_sum   'Al6 H14 C36 O31'
_cell_volume   2366.15304311
_cell_formula_units_Z   1
loop_
 _symmetry_equiv_pos_site_id
 _symmetry_equiv_pos_as_xyz
  1  'x, y, z'
loop_
 _atom_site_type_symbol
 _atom_site_label
 _atom_site_symmetry_multiplicity
 _atom_site_fract_x
 _atom_site_fract_y
 _atom_site_fract_z
 _atom_site_occupancy
  Al  Al0  1  0.77642000  0.24705000  0.49549000  1.0
  Al  Al1  1  0.50297000  0.25241000  0.49370000  1.0
  Al  Al2  1  0.74269000  0.50292000  0.49287000  1.0
  Al  Al3  1  0.22553000  0.77494000  0.97912000  1.0
  Al  Al4  1  0.48930000  0.75098000  0.97611000  1.0
  Al  Al5  1  0.24138000  0.50875000  0.97401000  1.0
  H  H6  1  0.30383000  0.36382000  0.78981000  1.0
  H  H7  1  0.65692000  0.64089000  0.63422000  1.0
  H  H8  1  0.07932000  0.47078000  0.71495000  1.0
  H  H9  1  0.36572000  0.05729000  0.64104000  1.0
  H  H10  1  0.01636000  0.69344000  0.79986000  1.0
  H  H11  1  0.65359000  0.97004000  0.80186000  1.0
  H  H12  1  0.34945000  0.31899000  0.67379000  1.0
  H  H13  1  0.89035000  0.63221000  0.68875000  1.0
  H  H14  1  0.70208000  0.07284000  0.68912000  1.0
  H  H15  1  0.56735000  0.60161000  0.79148000  1.0
  H  H16  1  0.98679000  0.41782000  0.79960000  1.0
  H  H17  1  0.40111000  0.99681000  0.79797000  1.0
  H  H18  1  0.94434000  0.20069000  0.52823000  1.0
  H  H19  1  0.16549000  0.93648000  0.95434000  1.0
  C  C20  1  0.89311000  0.46149000  0.39632000  1.0
  C  C21  1  0.45150000  0.90961000  0.88359000  1.0
  C  C22  1  0.43813000  0.55039000  0.87781000  1.0
  C  C23  1  0.08654000  0.55623000  0.88065000  1.0
  C  C24  1  0.90271000  0.48088000  0.58945000  1.0
  C  C25  1  0.56558000  0.12331000  0.59821000  1.0
  C  C26  1  0.52964000  0.44936000  0.58506000  1.0
  C  C27  1  0.47078000  0.51255000  0.13553000  1.0
  C  C28  1  0.04479000  0.52630000  0.14219000  1.0
  C  C29  1  0.48529000  0.94329000  0.14827000  1.0
  C  C30  1  0.49783000  0.48084000  0.26449000  1.0
  C  C31  1  0.54780000  0.09853000  0.40322000  1.0
  C  C32  1  0.98124000  0.50935000  0.26933000  1.0
  C  C33  1  0.51327000  0.00782000  0.27600000  1.0
  C  C34  1  0.48280000  0.49613000  0.19678000  1.0
  C  C35  1  0.01510000  0.51976000  0.20271000  1.0
  C  C36  1  0.49968000  0.97346000  0.20912000  1.0
  C  C37  1  0.51262000  0.46909000  0.32600000  1.0
  C  C38  1  0.94925000  0.49787000  0.32966000  1.0
  C  C39  1  0.52353000  0.03993000  0.33651000  1.0
  C  C40  1  0.51102000  0.48898000  0.65507000  1.0
  C  C41  1  0.96511000  0.50704000  0.65888000  1.0
  C  C42  1  0.54442000  0.44912000  0.39486000  1.0
  C  C43  1  0.52463000  0.06581000  0.66736000  1.0
  C  C44  1  0.47436000  0.52986000  0.80859000  1.0
  C  C45  1  0.01739000  0.51735000  0.81442000  1.0
  C  C46  1  0.47616000  0.97283000  0.81660000  1.0
  C  C47  1  0.39414000  0.43249000  0.76729000  1.0
  C  C48  1  0.99340000  0.60112000  0.77568000  1.0
  C  C49  1  0.58151000  0.99470000  0.77868000  1.0
  C  C50  1  0.41592000  0.40926000  0.69727000  1.0
  C  C51  1  0.94287000  0.58037000  0.70646000  1.0
  C  C52  1  0.60758000  0.04710000  0.71072000  1.0
  C  C53  1  0.44959000  0.89218000  0.07958000  1.0
  C  C54  1  0.44614000  0.54627000  0.06770000  1.0
  C  C55  1  0.09654000  0.55085000  0.07381000  1.0
  O  O56  1  0.65213000  0.11976000  0.43343000  1.0
  O  O57  1  0.85249000  0.55415000  0.56895000  1.0
  O  O58  1  0.89780000  0.38553000  0.55719000  1.0
  O  O59  1  0.47354000  0.13085000  0.56251000  1.0
  O  O60  1  0.62822000  0.53261000  0.55362000  1.0
  O  O61  1  0.67171000  0.33514000  0.49521000  1.0
  O  O62  1  0.11036000  0.65370000  0.04649000  1.0
  O  O63  1  0.53502000  0.87547000  0.04499000  1.0
  O  O64  1  0.34394000  0.46724000  0.03695000  1.0
  O  O65  1  0.33612000  0.86455000  0.06074000  1.0
  O  O66  1  0.52553000  0.65585000  0.04604000  1.0
  O  O67  1  0.46585000  0.34882000  0.42591000  1.0
  O  O68  1  0.12844000  0.46754000  0.04827000  1.0
  O  O69  1  0.12569000  0.67023000  0.90081000  1.0
  O  O70  1  0.53338000  0.87238000  0.90802000  1.0
  O  O71  1  0.32700000  0.47384000  0.90104000  1.0
  O  O72  1  0.34730000  0.89106000  0.91290000  1.0
  O  O73  1  0.51986000  0.64977000  0.91010000  1.0
  O  O74  1  0.10675000  0.46911000  0.91236000  1.0
  O  O75  1  0.60027000  0.60671000  0.67420000  1.0
  O  O76  1  0.03887000  0.44581000  0.66926000  1.0
  O  O77  1  0.40118000  0.03659000  0.68290000  1.0
  O  O78  1  0.87794000  0.54651000  0.43257000  1.0
  O  O79  1  0.31990000  0.67669000  0.97772000  1.0
  O  O80  1  0.85909000  0.34688000  0.41332000  1.0
  O  O81  1  0.46111000  0.12965000  0.42588000  1.0
  O  O82  1  0.65304000  0.53163000  0.41881000  1.0
  O  O83  1  0.68007000  0.16210000  0.57975000  1.0
  O  O84  1  0.45513000  0.33803000  0.56228000  1.0
  O  O85  1  0.87005000  0.16456000  0.49793000  1.0
  O  O86  1  0.13717000  0.86297000  0.98405000  1.0
