# generated using pymatgen
data_CdH10C10(SN4)2
_symmetry_space_group_name_H-M   'P 1'
_cell_length_a   8.13929000
_cell_length_b   9.66183000
_cell_length_c   10.69207929
_cell_angle_alpha   63.14083523
_cell_angle_beta   85.72083594
_cell_angle_gamma   80.55250000
_symmetry_Int_Tables_number   1
_chemical_formula_structural   CdH10C10(SN4)2
_chemical_formula_sum   'Cd2 H20 C20 S4 N16'
_cell_volume   739.94643636
_cell_formula_units_Z   2
loop_
 _symmetry_equiv_pos_site_id
 _symmetry_equiv_pos_as_xyz
  1  'x, y, z'
loop_
 _atom_site_type_symbol
 _atom_site_label
 _atom_site_symmetry_multiplicity
 _atom_site_fract_x
 _atom_site_fract_y
 _atom_site_fract_z
 _atom_site_occupancy
  Cd  Cd0  1  0.50000000  0.00000000  0.50000000  1.0
  Cd  Cd1  1  0.00000000  0.50000000  0.50000000  1.0
  H  H2  1  0.54165000  0.47385000  0.12508000  1.0
  H  H3  1  0.95847000  0.40131000  0.12495000  1.0
  H  H4  1  0.45835000  0.52615000  0.87492000  1.0
  H  H5  1  0.04153000  0.59869000  0.87505000  1.0
  H  H6  1  0.51843000  0.34812000  0.30681000  1.0
  H  H7  1  0.98170000  0.34539000  0.30659000  1.0
  H  H8  1  0.48157000  0.65188000  0.69319000  1.0
  H  H9  1  0.01830000  0.65461000  0.69341000  1.0
  H  H10  1  0.26305000  0.30081000  0.89251000  1.0
  H  H11  1  0.23760000  0.80698000  0.89242000  1.0
  H  H12  1  0.73695000  0.69919000  0.10749000  1.0
  H  H13  1  0.76240000  0.19301000  0.10758000  1.0
  H  H14  1  0.13926000  0.06791000  0.07977000  1.0
  H  H15  1  0.36115000  0.85243000  0.07982000  1.0
  H  H16  1  0.86074000  0.93209000  0.92023000  1.0
  H  H17  1  0.63884000  0.14758000  0.92017000  1.0
  H  H18  1  0.23463000  0.97243000  0.32940000  1.0
  H  H19  1  0.26523000  0.69843000  0.32934000  1.0
  H  H20  1  0.76537000  0.02757000  0.67060000  1.0
  H  H21  1  0.73476000  0.30159000  0.67065000  1.0
  C  C22  1  0.09715000  0.11591000  0.57058000  1.0
  C  C23  1  0.40293000  0.31324000  0.57048000  1.0
  C  C24  1  0.90284000  0.88409000  0.42941000  1.0
  C  C25  1  0.59707000  0.68676000  0.42952000  1.0
  C  C26  1  0.41873000  0.28702000  0.17210000  1.0
  C  C27  1  0.08142000  0.54124000  0.17188000  1.0
  C  C28  1  0.58127000  0.71298000  0.82790000  1.0
  C  C29  1  0.91858000  0.45876000  0.82812000  1.0
  C  C30  1  0.28745000  0.25849000  0.00402000  1.0
  C  C31  1  0.21307000  0.73775000  0.00392000  1.0
  C  C32  1  0.71255000  0.74152000  0.99598000  1.0
  C  C33  1  0.78694000  0.26224000  0.99608000  1.0
  C  C34  1  0.22222000  0.12815000  0.10601000  1.0
  C  C35  1  0.27813000  0.76600000  0.10599000  1.0
  C  C36  1  0.77778000  0.87186000  0.89399000  1.0
  C  C37  1  0.72187000  0.23399000  0.89401000  1.0
  C  C38  1  0.27254000  0.07738000  0.24273000  1.0
  C  C39  1  0.22751000  0.68012000  0.24267000  1.0
  C  C40  1  0.72746000  0.92262000  0.75727000  1.0
  C  C41  1  0.77249000  0.31988000  0.75733000  1.0
  S  S42  1  0.19493000  0.93793000  0.62428000  1.0
  S  S43  1  0.30501000  0.43767000  0.62397000  1.0
  S  S44  1  0.80506000  0.06206000  0.37571000  1.0
  S  S45  1  0.69498000  0.56234000  0.37602000  1.0
  N  N46  1  0.02102000  0.24381000  0.53106000  1.0
  N  N47  1  0.47930000  0.22480000  0.53111000  1.0
  N  N48  1  0.97899000  0.75618000  0.46894000  1.0
  N  N49  1  0.52070000  0.77521000  0.46889000  1.0
  N  N50  1  0.37250000  0.15267000  0.27678000  1.0
  N  N51  1  0.12746000  0.57084000  0.27662000  1.0
  N  N52  1  0.62750000  0.84733000  0.72322000  1.0
  N  N53  1  0.87254000  0.42916000  0.72338000  1.0
  N  N54  1  0.38345000  0.33828000  0.03459000  1.0
  N  N55  1  0.11690000  0.62750000  0.03439000  1.0
  N  N56  1  0.61656000  0.66173000  0.96541000  1.0
  N  N57  1  0.88310000  0.37250000  0.96561000  1.0
  N  N58  1  0.50626000  0.37262000  0.20444000  1.0
  N  N59  1  0.99382000  0.42329000  0.20423000  1.0
  N  N60  1  0.49374000  0.62738000  0.79556000  1.0
  N  N61  1  0.00618000  0.57670000  0.79578000  1.0
