# generated using pymatgen
data_ZnH11C16N4O
_symmetry_space_group_name_H-M   'P 1'
_cell_length_a   18.46780000
_cell_length_b   18.59170000
_cell_length_c   18.69680000
_cell_angle_alpha   110.19000000
_cell_angle_beta   102.25600000
_cell_angle_gamma   110.11900000
_symmetry_Int_Tables_number   1
_chemical_formula_structural   ZnH11C16N4O
_chemical_formula_sum   'Zn4 H44 C64 N16 O4'
_cell_volume   5243.21173880
_cell_formula_units_Z   4
loop_
 _symmetry_equiv_pos_site_id
 _symmetry_equiv_pos_as_xyz
  1  'x, y, z'
loop_
 _atom_site_type_symbol
 _atom_site_label
 _atom_site_symmetry_multiplicity
 _atom_site_fract_x
 _atom_site_fract_y
 _atom_site_fract_z
 _atom_site_occupancy
  Zn  Zn0  1  0.48938000  0.12489000  0.59936000  1.0
  Zn  Zn1  1  0.59023000  0.11551000  0.47615000  1.0
  Zn  Zn2  1  0.50203000  0.90136000  0.37535000  1.0
  Zn  Zn3  1  0.38088000  0.91353000  0.51250000  1.0
  H  H4  1  0.46511000  0.17525000  0.77806000  1.0
  H  H5  1  0.76857000  0.16601000  0.44296000  1.0
  H  H6  1  0.02550000  0.37719000  0.89163000  1.0
  H  H7  1  0.93123000  0.32937000  0.97193000  1.0
  H  H8  1  0.87293000  0.38549000  0.99708000  1.0
  H  H9  1  0.00585000  0.43952000  0.84457000  1.0
  H  H10  1  0.91160000  0.50494000  0.87633000  1.0
  H  H11  1  0.84566000  0.47036000  0.92607000  1.0
  H  H12  1  0.00005000  0.62349000  0.00500000  1.0
  H  H13  1  0.94381000  0.57676000  0.05506000  1.0
  H  H14  1  0.47672000  0.85908000  0.62369000  1.0
  H  H15  1  0.61391000  0.83921000  0.46280000  1.0
  H  H16  1  0.76516000  0.17181000  0.60051000  1.0
  H  H17  1  0.62783000  0.17596000  0.76209000  1.0
  H  H18  1  0.51880000  0.33028000  0.65992000  1.0
  H  H19  1  0.64108000  0.31109000  0.48507000  1.0
  H  H20  1  0.21016000  0.90179000  0.40817000  1.0
  H  H21  1  0.38765000  0.88092000  0.20309000  1.0
  H  H22  1  0.48452000  0.15503000  0.35290000  1.0
  H  H23  1  0.36740000  0.17318000  0.49505000  1.0
  H  H24  1  0.12713000  0.49799000  0.00533000  1.0
  H  H25  1  0.05670000  0.44301000  0.06780000  1.0
  H  H26  1  0.95646000  0.58523000  0.16870000  1.0
  H  H27  1  0.87107000  0.48163000  0.10245000  1.0
  H  H28  1  0.91541000  0.51358000  0.20855000  1.0
  H  H29  1  0.96970000  0.41869000  0.14413000  1.0
  H  H30  1  0.05170000  0.52409000  0.19436000  1.0
  H  H31  1  0.03364000  0.56163000  0.84749000  1.0
  H  H32  1  0.05926000  0.65506000  0.93731000  1.0
  H  H33  1  0.12810000  0.65529000  0.88485000  1.0
  H  H34  1  0.17759000  0.64101000  0.01429000  1.0
  H  H35  1  0.16638000  0.55946000  0.92330000  1.0
  H  H36  1  0.79876000  0.89173000  0.40722000  1.0
  H  H37  1  0.73345000  0.87724000  0.46304000  1.0
  H  H38  1  0.72196000  0.78654000  0.37825000  1.0
  H  H39  1  0.60791000  0.82188000  0.33063000  1.0
  H  H40  1  0.67862000  0.84472000  0.28216000  1.0
  H  H41  1  0.24756000  0.80731000  0.57706000  1.0
  H  H42  1  0.33401000  0.79536000  0.55867000  1.0
  H  H43  1  0.28222000  0.73963000  0.60614000  1.0
  H  H44  1  0.41494000  0.86743000  0.71267000  1.0
  H  H45  1  0.32835000  0.87397000  0.73176000  1.0
  H  H46  1  0.37435000  0.68953000  0.12265000  1.0
  H  H47  1  0.05006000  0.68676000  0.33547000  1.0
  C  C48  1  0.44095000  0.10628000  0.74199000  1.0
  C  C49  1  0.73198000  0.09739000  0.42093000  1.0
  C  C50  1  0.26099000  0.96542000  0.43262000  1.0
  C  C51  1  0.41591000  0.94589000  0.25236000  1.0
  C  C52  1  0.46550000  0.08649000  0.32860000  1.0
  C  C53  1  0.34104000  0.10494000  0.47805000  1.0
  C  C54  1  0.58567000  0.35778000  0.57726000  1.0
  C  C55  1  0.23642000  0.71713000  0.26127000  1.0
  C  C56  1  0.25724000  0.04132000  0.43692000  1.0
  C  C57  1  0.42304000  0.02151000  0.24638000  1.0
  C  C58  1  0.01114000  0.43160000  0.90078000  1.0
  C  C59  1  0.93034000  0.39141000  0.98578000  1.0
  C  C60  1  0.00775000  0.46413000  0.06182000  1.0
  C  C61  1  0.08090000  0.51479000  0.97697000  1.0
  C  C62  1  0.16953000  0.66209000  0.18556000  1.0
  C  C63  1  0.92594000  0.40859000  0.91013000  1.0
  C  C64  1  0.04428000  0.54340000  0.04412000  1.0
  C  C65  1  0.68324000  0.95514000  0.37307000  1.0
  C  C66  1  0.38955000  0.96379000  0.69409000  1.0
  C  C67  1  0.97364000  0.56414000  0.01067000  1.0
  C  C68  1  0.90914000  0.48792000  0.92682000  1.0
  C  C69  1  0.11140000  0.61350000  0.11973000  1.0
  C  C70  1  0.85964000  0.33270000  0.83757000  1.0
  C  C71  1  0.80192000  0.26798000  0.77974000  1.0
  C  C72  1  0.83153000  0.03793000  0.38866000  1.0
  C  C73  1  0.40956000  0.04634000  0.84103000  1.0
  C  C74  1  0.89918000  0.04254000  0.38665000  1.0
  C  C75  1  0.40347000  0.04551000  0.90513000  1.0
  C  C76  1  0.97327000  0.04654000  0.38780000  1.0
  C  C77  1  0.39842000  0.04373000  0.97498000  1.0
  C  C78  1  0.04196000  0.04909000  0.39190000  1.0
  C  C79  1  0.39541000  0.04027000  0.03927000  1.0
  C  C80  1  0.11616000  0.04974000  0.40106000  1.0
  C  C81  1  0.39705000  0.03516000  0.10930000  1.0
  C  C82  1  0.50396000  0.86141000  0.57806000  1.0
  C  C83  1  0.57464000  0.85171000  0.49609000  1.0
  C  C84  1  0.18415000  0.04917000  0.41436000  1.0
  C  C85  1  0.40404000  0.02988000  0.17405000  1.0
  C  C86  1  0.59619000  0.43915000  0.58667000  1.0
  C  C87  1  0.60204000  0.50939000  0.59348000  1.0
  C  C88  1  0.60478000  0.58385000  0.59788000  1.0
  C  C89  1  0.60327000  0.65010000  0.59855000  1.0
  C  C90  1  0.59592000  0.71754000  0.59326000  1.0
  C  C91  1  0.58306000  0.77434000  0.58220000  1.0
  C  C92  1  0.71877000  0.16331000  0.62827000  1.0
  C  C93  1  0.64851000  0.16529000  0.71081000  1.0
  C  C94  1  0.41391000  0.04072000  0.76576000  1.0
  C  C95  1  0.75514000  0.03106000  0.39342000  1.0
  C  C96  1  0.55931000  0.82870000  0.55786000  1.0
  C  C97  1  0.72972000  0.20073000  0.71180000  1.0
  C  C98  1  0.54651000  0.31128000  0.61549000  1.0
  C  C99  1  0.60891000  0.30142000  0.52584000  1.0
  C  C100  1  0.32306000  0.75250000  0.27665000  1.0
  C  C101  1  0.23532000  0.75317000  0.34127000  1.0
  C  C102  1  0.99185000  0.48092000  0.14223000  1.0
  C  C103  1  0.93034000  0.51732000  0.15565000  1.0
  C  C104  1  0.13085000  0.58507000  0.95606000  1.0
  C  C105  1  0.08493000  0.61552000  0.90395000  1.0
  C  C106  1  0.67214000  0.86492000  0.34223000  1.0
  C  C107  1  0.73510000  0.85439000  0.40109000  1.0
  C  C108  1  0.35981000  0.87544000  0.68809000  1.0
  C  C109  1  0.30274000  0.80089000  0.60290000  1.0
  C  C110  1  0.37341000  0.74484000  0.22759000  1.0
  C  C111  1  0.16671000  0.74392000  0.37035000  1.0
  N  N112  1  0.43269000  0.07186000  0.66305000  1.0
  N  N113  1  0.65340000  0.06415000  0.41689000  1.0
  N  N114  1  0.62331000  0.97642000  0.38749000  1.0
  N  N115  1  0.40067000  0.98365000  0.63326000  1.0
  N  N116  1  0.48605000  0.89771000  0.53014000  1.0
  N  N117  1  0.53020000  0.89199000  0.48006000  1.0
  N  N118  1  0.63703000  0.11219000  0.58164000  1.0
  N  N119  1  0.59372000  0.11339000  0.63248000  1.0
  N  N120  1  0.54679000  0.23459000  0.58889000  1.0
  N  N121  1  0.58532000  0.22835000  0.53322000  1.0
  N  N122  1  0.36736000  0.80580000  0.35799000  1.0
  N  N123  1  0.31557000  0.80597000  0.39705000  1.0
  N  N124  1  0.34015000  0.98341000  0.46920000  1.0
  N  N125  1  0.45272000  0.96533000  0.33118000  1.0
  N  N126  1  0.48327000  0.05174000  0.37813000  1.0
  N  N127  1  0.38932000  0.06891000  0.49722000  1.0
  O  O128  1  0.45095000  0.78915000  0.25676000  1.0
  O  O129  1  0.33271000  0.68721000  0.14790000  1.0
  O  O130  1  0.17541000  0.78435000  0.44186000  1.0
  O  O131  1  0.09099000  0.68656000  0.30963000  1.0
