# generated using pymatgen
data_HgH9C12(IN)2
_symmetry_space_group_name_H-M   'P 1'
_cell_length_a   7.98245000
_cell_length_b   13.06960000
_cell_length_c   14.17500000
_cell_angle_alpha   101.54500000
_cell_angle_beta   96.42560000
_cell_angle_gamma   104.21300000
_symmetry_Int_Tables_number   1
_chemical_formula_structural   HgH9C12(IN)2
_chemical_formula_sum   'Hg4 H36 C48 I8 N8'
_cell_volume   1384.22876710
_cell_formula_units_Z   4
loop_
 _symmetry_equiv_pos_site_id
 _symmetry_equiv_pos_as_xyz
  1  'x, y, z'
loop_
 _atom_site_type_symbol
 _atom_site_label
 _atom_site_symmetry_multiplicity
 _atom_site_fract_x
 _atom_site_fract_y
 _atom_site_fract_z
 _atom_site_occupancy
  Hg  Hg0  1  0.51940000  0.86158000  0.78648000  1.0
  Hg  Hg1  1  0.48060000  0.13842000  0.21352000  1.0
  Hg  Hg2  1  0.04849000  0.88763000  0.67979000  1.0
  Hg  Hg3  1  0.95151000  0.11237000  0.32021000  1.0
  H  H4  1  0.56863000  0.87510000  0.56789000  1.0
  H  H5  1  0.43137000  0.12490000  0.43211000  1.0
  H  H6  1  0.53923000  0.75918000  0.40046000  1.0
  H  H7  1  0.46077000  0.24082000  0.59954000  1.0
  H  H8  1  0.39597000  0.55723000  0.37113000  1.0
  H  H9  1  0.60403000  0.44277000  0.62887000  1.0
  H  H10  1  0.29607000  0.48313000  0.50870000  1.0
  H  H11  1  0.70393000  0.51687000  0.49130000  1.0
  H  H12  1  0.02534000  0.48019000  0.57558000  1.0
  H  H13  1  0.97466000  0.51981000  0.42443000  1.0
  H  H14  1  0.89047000  0.28072000  0.54294000  1.0
  H  H15  1  0.10953000  0.71928000  0.45706000  1.0
  H  H16  1  0.02721000  0.16911000  0.63271000  1.0
  H  H17  1  0.97279000  0.83089000  0.36728000  1.0
  H  H18  1  0.29536000  0.25715000  0.75794000  1.0
  H  H19  1  0.70464000  0.74285000  0.24206000  1.0
  H  H20  1  0.43244000  0.45640000  0.79036000  1.0
  H  H21  1  0.56756000  0.54360000  0.20964000  1.0
  H  H22  1  0.90791000  0.90165000  0.88957000  1.0
  H  H23  1  0.09208000  0.09835000  0.11043000  1.0
  H  H24  1  0.10698000  0.85618000  0.01317000  1.0
  H  H25  1  0.89302000  0.14382000  0.98684000  1.0
  H  H26  1  0.97423000  0.72465000  0.11082000  1.0
  H  H27  1  0.02577000  0.27535000  0.88918000  1.0
  H  H28  1  0.64833000  0.64524000  0.07684000  1.0
  H  H29  1  0.35167000  0.35476000  0.92316000  1.0
  H  H30  1  0.45402000  0.81346000  0.12563000  1.0
  H  H31  1  0.54598000  0.18655000  0.87437000  1.0
  H  H32  1  0.32239000  0.76855000  0.26747000  1.0
  H  H33  1  0.67761000  0.23146000  0.73253000  1.0
  H  H34  1  0.13856000  0.58049000  0.25649000  1.0
  H  H35  1  0.86145000  0.41951000  0.74351000  1.0
  H  H36  1  0.07950000  0.43995000  0.10174000  1.0
  H  H37  1  0.92051000  0.56005000  0.89826000  1.0
  H  H38  1  0.20049000  0.48824000  0.95591000  1.0
  H  H39  1  0.79952000  0.51176000  0.04409000  1.0
  C  C40  1  0.50613000  0.78787000  0.55120000  1.0
  C  C41  1  0.49387000  0.21213000  0.44880000  1.0
  C  C42  1  0.48893000  0.72263000  0.45782000  1.0
  C  C43  1  0.51107000  0.27737000  0.54218000  1.0
  C  C44  1  0.41109000  0.61185000  0.44243000  1.0
  C  C45  1  0.58892000  0.38815000  0.55756000  1.0
  C  C46  1  0.35409000  0.56998000  0.51987000  1.0
  C  C47  1  0.64592000  0.43002000  0.48013000  1.0
  C  C48  1  0.37497000  0.64011000  0.61181000  1.0
  C  C49  1  0.62503000  0.35989000  0.38819000  1.0
  C  C50  1  0.32444000  0.59869000  0.69761000  1.0
  C  C51  1  0.67556000  0.40131000  0.30239000  1.0
  C  C52  1  0.23827000  0.48155000  0.68452000  1.0
  C  C53  1  0.76173000  0.51845000  0.31549000  1.0
  C  C54  1  0.08495000  0.43092000  0.61498000  1.0
  C  C55  1  0.91505000  0.56908000  0.38502000  1.0
  C  C56  1  0.00846000  0.31949000  0.59752000  1.0
  C  C57  1  0.99154000  0.68051000  0.40248000  1.0
  C  C58  1  0.08422000  0.25679000  0.64884000  1.0
  C  C59  1  0.91578000  0.74321000  0.35116000  1.0
  C  C60  1  0.23488000  0.30658000  0.71915000  1.0
  C  C61  1  0.76512000  0.69341000  0.28085000  1.0
  C  C62  1  0.31137000  0.41844000  0.73772000  1.0
  C  C63  1  0.68863000  0.58156000  0.26228000  1.0
  C  C64  1  0.85546000  0.84405000  0.93226000  1.0
  C  C65  1  0.14454000  0.15595000  0.06774000  1.0
  C  C66  1  0.96624000  0.81909000  0.00214000  1.0
  C  C67  1  0.03376000  0.18091000  0.99786000  1.0
  C  C68  1  0.89249000  0.74629000  0.05536000  1.0
  C  C69  1  0.10750000  0.25371000  0.94464000  1.0
  C  C70  1  0.71147000  0.70208000  0.03664000  1.0
  C  C71  1  0.28853000  0.29792000  0.96337000  1.0
  C  C72  1  0.60784000  0.72956000  0.96442000  1.0
  C  C73  1  0.39216000  0.27044000  0.03558000  1.0
  C  C74  1  0.41520000  0.67766000  0.94596000  1.0
  C  C75  1  0.58480000  0.32234000  0.05404000  1.0
  C  C76  1  0.33629000  0.65258000  0.03144000  1.0
  C  C77  1  0.66371000  0.34742000  0.96856000  1.0
  C  C78  1  0.37167000  0.73155000  0.12002000  1.0
  C  C79  1  0.62833000  0.26845000  0.87998000  1.0
  C  C80  1  0.29857000  0.70585000  0.20008000  1.0
  C  C81  1  0.70142000  0.29414000  0.79993000  1.0
  C  C82  1  0.19460000  0.60078000  0.19374000  1.0
  C  C83  1  0.80540000  0.39922000  0.80626000  1.0
  C  C84  1  0.16046000  0.52178000  0.10633000  1.0
  C  C85  1  0.83954000  0.47822000  0.89367000  1.0
  C  C86  1  0.22862000  0.54819000  0.02517000  1.0
  C  C87  1  0.77139000  0.45181000  0.97483000  1.0
  I  I88  1  0.30726000  0.97322000  0.87805000  1.0
  I  I89  1  0.69274000  0.02678000  0.12195000  1.0
  I  I90  1  0.80460000  0.01687000  0.74606000  1.0
  I  I91  1  0.19540000  0.98313000  0.25394000  1.0
  I  I92  1  0.88927000  0.67959000  0.68592000  1.0
  I  I93  1  0.11073000  0.32041000  0.31408000  1.0
  I  I94  1  0.25388000  0.98975000  0.56771000  1.0
  I  I95  1  0.74612000  0.01025000  0.43229000  1.0
  N  N96  1  0.45103000  0.74768000  0.62525000  1.0
  N  N97  1  0.54897000  0.25232000  0.37475000  1.0
  N  N98  1  0.36735000  0.66908000  0.78151000  1.0
  N  N99  1  0.63265000  0.33092000  0.21849000  1.0
  N  N100  1  0.31123000  0.64327000  0.86176000  1.0
  N  N101  1  0.68877000  0.35673000  0.13824000  1.0
  N  N102  1  0.68146000  0.79990000  0.91274000  1.0
  N  N103  1  0.31853000  0.20010000  0.08726000  1.0
