# generated using pymatgen
data_Zn2AsH7C6SO8
_symmetry_space_group_name_H-M   'P 1'
_cell_length_a   8.38635000
_cell_length_b   10.87390000
_cell_length_c   12.44210000
_cell_angle_alpha   84.90940000
_cell_angle_beta   89.99920000
_cell_angle_gamma   89.99980000
_symmetry_Int_Tables_number   1
_chemical_formula_structural   Zn2AsH7C6SO8
_chemical_formula_sum   'Zn8 As4 H28 C24 S4 O32'
_cell_volume   1130.14873435
_cell_formula_units_Z   4
loop_
 _symmetry_equiv_pos_site_id
 _symmetry_equiv_pos_as_xyz
  1  'x, y, z'
loop_
 _atom_site_type_symbol
 _atom_site_label
 _atom_site_symmetry_multiplicity
 _atom_site_fract_x
 _atom_site_fract_y
 _atom_site_fract_z
 _atom_site_occupancy
  Zn  Zn0  1  0.89597000  0.61096000  0.03414000  1.0
  Zn  Zn1  1  0.39597000  0.88905000  0.96586000  1.0
  Zn  Zn2  1  0.10404000  0.38905000  0.96585000  1.0
  Zn  Zn3  1  0.60403000  0.11096000  0.03414000  1.0
  Zn  Zn4  1  0.71176000  0.37142000  0.94302000  1.0
  Zn  Zn5  1  0.21175000  0.12858000  0.05698000  1.0
  Zn  Zn6  1  0.28825000  0.62858000  0.05698000  1.0
  Zn  Zn7  1  0.78825000  0.87142000  0.94303000  1.0
  As  As8  1  0.58078000  0.65235000  0.85825000  1.0
  As  As9  1  0.08077000  0.84765000  0.14175000  1.0
  As  As10  1  0.41923000  0.34765000  0.14176000  1.0
  As  As11  1  0.91923000  0.15234000  0.85824000  1.0
  H  H12  1  0.40486000  0.92735000  0.51952000  1.0
  H  H13  1  0.90482000  0.57266000  0.48048000  1.0
  H  H14  1  0.59516000  0.07268000  0.48049000  1.0
  H  H15  1  0.09516000  0.42730000  0.51950000  1.0
  H  H16  1  0.31813000  0.74961000  0.42468000  1.0
  H  H17  1  0.81808000  0.75040000  0.57532000  1.0
  H  H18  1  0.68191000  0.25043000  0.57532000  1.0
  H  H19  1  0.18189000  0.24955000  0.42467000  1.0
  H  H20  1  0.35711000  0.53544000  0.51093000  1.0
  H  H21  1  0.85708000  0.96457000  0.48906000  1.0
  H  H22  1  0.64290000  0.46460000  0.48906000  1.0
  H  H23  1  0.14288000  0.03538000  0.51093000  1.0
  H  H24  1  0.48774000  0.50232000  0.69043000  1.0
  H  H25  1  0.98772000  0.99768000  0.30957000  1.0
  H  H26  1  0.51225000  0.49770000  0.30957000  1.0
  H  H27  1  0.01224000  0.00228000  0.69043000  1.0
  H  H28  1  0.87474000  0.38362000  0.11615000  1.0
  H  H29  1  0.37473000  0.11638000  0.88384000  1.0
  H  H30  1  0.12527000  0.61640000  0.88384000  1.0
  H  H31  1  0.62527000  0.88362000  0.11617000  1.0
  H  H32  1  0.76063000  0.55865000  0.21241000  1.0
  H  H33  1  0.26063000  0.94134000  0.78759000  1.0
  H  H34  1  0.23938000  0.44135000  0.78758000  1.0
  H  H35  1  0.73937000  0.05867000  0.21242000  1.0
  H  H36  1  0.60914000  0.57045000  0.13600000  1.0
  H  H37  1  0.10913000  0.92954000  0.86400000  1.0
  H  H38  1  0.39087000  0.42955000  0.86400000  1.0
  H  H39  1  0.89086000  0.07046000  0.13601000  1.0
  C  C40  1  0.51424000  0.69646000  0.70873000  1.0
  C  C41  1  0.01422000  0.80354000  0.29127000  1.0
  C  C42  1  0.48576000  0.30356000  0.29127000  1.0
  C  C43  1  0.98577000  0.19643000  0.70873000  1.0
  C  C44  1  0.49296000  0.81638000  0.65933000  1.0
  C  C45  1  0.99294000  0.68362000  0.34067000  1.0
  C  C46  1  0.50704000  0.18364000  0.34069000  1.0
  C  C47  1  0.00705000  0.31634000  0.65931000  1.0
  C  C48  1  0.42311000  0.83417000  0.55712000  1.0
  C  C49  1  0.92308000  0.66583000  0.44289000  1.0
  C  C50  1  0.57690000  0.16585000  0.44290000  1.0
  C  C51  1  0.07690000  0.33414000  0.55710000  1.0
  C  C52  1  0.37378000  0.73358000  0.50378000  1.0
  C  C53  1  0.87375000  0.76643000  0.49622000  1.0
  C  C54  1  0.62623000  0.26646000  0.49623000  1.0
  C  C55  1  0.12622000  0.23353000  0.50377000  1.0
  C  C56  1  0.39614000  0.61429000  0.55218000  1.0
  C  C57  1  0.89611000  0.88572000  0.44781000  1.0
  C  C58  1  0.60387000  0.38575000  0.44782000  1.0
  C  C59  1  0.10386000  0.11424000  0.55218000  1.0
  C  C60  1  0.46734000  0.59553000  0.65367000  1.0
  C  C61  1  0.96732000  0.90447000  0.34633000  1.0
  C  C62  1  0.53266000  0.40449000  0.34633000  1.0
  C  C63  1  0.03265000  0.09549000  0.65367000  1.0
  S  S64  1  0.55197000  0.95347000  0.71673000  1.0
  S  S65  1  0.05196000  0.54655000  0.28328000  1.0
  S  S66  1  0.44803000  0.04656000  0.28329000  1.0
  S  S67  1  0.94805000  0.45343000  0.71671000  1.0
  O  O68  1  0.56593000  0.49427000  0.87360000  1.0
  O  O69  1  0.06592000  0.00573000  0.12640000  1.0
  O  O70  1  0.43408000  0.50573000  0.12639000  1.0
  O  O71  1  0.93408000  0.99426000  0.87361000  1.0
  O  O72  1  0.77059000  0.69368000  0.89824000  1.0
  O  O73  1  0.27058000  0.80632000  0.10176000  1.0
  O  O74  1  0.22942000  0.30632000  0.10176000  1.0
  O  O75  1  0.72942000  0.19368000  0.89824000  1.0
  O  O76  1  0.44294000  0.70720000  0.94507000  1.0
  O  O77  1  0.94294000  0.79280000  0.05493000  1.0
  O  O78  1  0.55707000  0.29280000  0.05494000  1.0
  O  O79  1  0.05708000  0.20720000  0.94506000  1.0
  O  O80  1  0.58896000  0.90917000  0.83175000  1.0
  O  O81  1  0.08896000  0.59084000  0.16825000  1.0
  O  O82  1  0.41105000  0.09086000  0.16826000  1.0
  O  O83  1  0.91108000  0.40914000  0.83174000  1.0
  O  O84  1  0.69035000  0.00309000  0.65814000  1.0
  O  O85  1  0.19035000  0.49693000  0.34186000  1.0
  O  O86  1  0.30963000  0.99694000  0.34187000  1.0
  O  O87  1  0.80965000  0.50305000  0.65814000  1.0
  O  O88  1  0.41114000  0.03402000  0.71194000  1.0
  O  O89  1  0.91115000  0.46598000  0.28806000  1.0
  O  O90  1  0.58885000  0.96600000  0.28808000  1.0
  O  O91  1  0.08887000  0.53399000  0.71191000  1.0
  O  O92  1  0.88502000  0.41974000  0.04174000  1.0
  O  O93  1  0.38502000  0.08027000  0.95826000  1.0
  O  O94  1  0.11499000  0.58028000  0.95825000  1.0
  O  O95  1  0.61498000  0.91973000  0.04175000  1.0
  O  O96  1  0.71364000  0.61103000  0.15127000  1.0
  O  O97  1  0.21363000  0.88896000  0.84874000  1.0
  O  O98  1  0.28638000  0.38897000  0.84873000  1.0
  O  O99  1  0.78636000  0.11104000  0.15127000  1.0
