# generated using pymatgen
data_Cu3H23C32N5O8
_symmetry_space_group_name_H-M   'P 1'
_cell_length_a   7.70389000
_cell_length_b   12.91000000
_cell_length_c   16.06770000
_cell_angle_alpha   98.64300000
_cell_angle_beta   96.07480000
_cell_angle_gamma   91.83650000
_symmetry_Int_Tables_number   1
_chemical_formula_structural   Cu3H23C32N5O8
_chemical_formula_sum   'Cu6 H46 C64 N10 O16'
_cell_volume   1569.15944144
_cell_formula_units_Z   2
loop_
 _symmetry_equiv_pos_site_id
 _symmetry_equiv_pos_as_xyz
  1  'x, y, z'
loop_
 _atom_site_type_symbol
 _atom_site_label
 _atom_site_symmetry_multiplicity
 _atom_site_fract_x
 _atom_site_fract_y
 _atom_site_fract_z
 _atom_site_occupancy
  Cu  Cu0  1  0.89071000  0.76468000  0.22863000  1.0
  Cu  Cu1  1  0.10928000  0.23533000  0.77137000  1.0
  Cu  Cu2  1  0.14650000  0.61217000  0.46645000  1.0
  Cu  Cu3  1  0.85350000  0.38783000  0.53354000  1.0
  Cu  Cu4  1  0.69899000  0.00101000  0.04593000  1.0
  Cu  Cu5  1  0.30103000  0.99899000  0.95407000  1.0
  H  H6  1  0.34052000  0.77207000  0.21365000  1.0
  H  H7  1  0.65946000  0.22794000  0.78636000  1.0
  H  H8  1  0.65882000  0.74443000  0.49341000  1.0
  H  H9  1  0.34117000  0.25555000  0.50659000  1.0
  H  H10  1  0.37761000  0.83974000  0.48334000  1.0
  H  H11  1  0.62238000  0.16024000  0.51667000  1.0
  H  H12  1  0.43191000  0.68719000  0.11253000  1.0
  H  H13  1  0.56808000  0.31282000  0.88747000  1.0
  H  H14  1  0.63576000  0.66020000  0.07300000  1.0
  H  H15  1  0.36422000  0.33981000  0.92700000  1.0
  H  H16  1  0.59038000  0.51962000  0.14839000  1.0
  H  H17  1  0.40963000  0.48039000  0.85160000  1.0
  H  H18  1  0.70343000  0.53401000  0.25113000  1.0
  H  H19  1  0.29657000  0.46599000  0.74886000  1.0
  H  H20  1  0.16556000  0.56652000  0.63094000  1.0
  H  H21  1  0.83446000  0.43348000  0.36905000  1.0
  H  H22  1  0.06932000  0.83707000  0.52500000  1.0
  H  H23  1  0.93066000  0.16293000  0.47500000  1.0
  H  H24  1  0.07581000  0.64483000  0.76799000  1.0
  H  H25  1  0.92420000  0.35517000  0.23201000  1.0
  H  H26  1  0.97296000  0.92745000  0.65600000  1.0
  H  H27  1  0.02702000  0.07255000  0.34399000  1.0
  H  H28  1  0.96398000  0.70505000  0.87081000  1.0
  H  H29  1  0.03602000  0.29495000  0.12919000  1.0
  H  H30  1  0.93015000  0.00141000  0.77274000  1.0
  H  H31  1  0.06985000  0.99859000  0.22725000  1.0
  H  H32  1  0.84510000  0.79294000  0.99736000  1.0
  H  H33  1  0.15492000  0.20706000  0.00264000  1.0
  H  H34  1  0.80540000  0.07326000  0.90035000  1.0
  H  H35  1  0.19461000  0.92674000  0.09964000  1.0
  H  H36  1  0.35285000  0.44147000  0.49077000  1.0
  H  H37  1  0.64712000  0.55851000  0.50923000  1.0
  H  H38  1  0.17069000  0.57688000  0.28151000  1.0
  H  H39  1  0.82930000  0.42311000  0.71849000  1.0
  H  H40  1  0.49838000  0.30436000  0.40270000  1.0
  H  H41  1  0.50162000  0.69563000  0.59730000  1.0
  H  H42  1  0.29448000  0.44011000  0.18365000  1.0
  H  H43  1  0.70553000  0.55988000  0.81636000  1.0
  H  H44  1  0.45758000  0.15491000  0.31047000  1.0
  H  H45  1  0.54244000  0.84509000  0.68953000  1.0
  H  H46  1  0.54722000  0.36766000  0.13371000  1.0
  H  H47  1  0.45280000  0.63235000  0.86630000  1.0
  H  H48  1  0.58774000  0.01714000  0.21456000  1.0
  H  H49  1  0.41228000  0.98286000  0.78545000  1.0
  H  H50  1  0.67314000  0.22236000  0.04613000  1.0
  H  H51  1  0.32687000  0.77764000  0.95388000  1.0
  C  C52  1  0.34590000  0.81043000  0.34732000  1.0
  C  C53  1  0.65409000  0.18957000  0.65269000  1.0
  C  C54  1  0.41555000  0.76586000  0.27381000  1.0
  C  C55  1  0.58444000  0.23414000  0.72620000  1.0
  C  C56  1  0.57258000  0.71513000  0.27883000  1.0
  C  C57  1  0.42741000  0.28487000  0.72117000  1.0
  C  C58  1  0.65912000  0.70675000  0.35946000  1.0
  C  C59  1  0.34087000  0.29325000  0.64054000  1.0
  C  C60  1  0.58654000  0.74991000  0.43231000  1.0
  C  C61  1  0.41345000  0.25009000  0.56769000  1.0
  C  C62  1  0.43231000  0.80295000  0.42698000  1.0
  C  C63  1  0.56769000  0.19704000  0.57303000  1.0
  C  C64  1  0.17455000  0.86332000  0.33951000  1.0
  C  C65  1  0.82544000  0.13667000  0.66050000  1.0
  C  C66  1  0.83500000  0.66220000  0.37129000  1.0
  C  C67  1  0.16500000  0.33779000  0.62871000  1.0
  C  C68  1  0.57346000  0.70603000  0.12416000  1.0
  C  C69  1  0.42653000  0.29398000  0.87584000  1.0
  C  C70  1  0.61841000  0.82046000  0.11939000  1.0
  C  C71  1  0.38159000  0.17954000  0.88061000  1.0
  C  C72  1  0.69690000  0.56453000  0.19096000  1.0
  C  C73  1  0.30309000  0.43547000  0.80904000  1.0
  C  C74  1  0.87237000  0.54476000  0.15204000  1.0
  C  C75  1  0.12763000  0.45526000  0.84795000  1.0
  C  C76  1  0.12292000  0.64675000  0.64002000  1.0
  C  C77  1  0.87709000  0.35325000  0.35997000  1.0
  C  C78  1  0.06867000  0.79717000  0.58040000  1.0
  C  C79  1  0.93132000  0.20283000  0.41959000  1.0
  C  C80  1  0.06980000  0.69141000  0.71642000  1.0
  C  C81  1  0.93021000  0.30859000  0.28358000  1.0
  C  C82  1  0.01420000  0.84724000  0.65526000  1.0
  C  C83  1  0.98578000  0.15275000  0.34473000  1.0
  C  C84  1  0.01266000  0.79445000  0.72596000  1.0
  C  C85  1  0.98734000  0.20555000  0.27403000  1.0
  C  C86  1  0.95158000  0.84325000  0.80602000  1.0
  C  C87  1  0.04842000  0.15674000  0.19397000  1.0
  C  C88  1  0.92991000  0.78679000  0.87312000  1.0
  C  C89  1  0.07009000  0.21321000  0.12687000  1.0
  C  C90  1  0.91043000  0.94906000  0.81847000  1.0
  C  C91  1  0.08956000  0.05093000  0.18153000  1.0
  C  C92  1  0.86230000  0.83546000  0.94490000  1.0
  C  C93  1  0.13771000  0.16454000  0.05510000  1.0
  C  C94  1  0.84182000  0.99188000  0.89149000  1.0
  C  C95  1  0.15818000  0.00812000  0.10850000  1.0
  C  C96  1  0.34816000  0.44008000  0.42270000  1.0
  C  C97  1  0.65183000  0.55991000  0.57730000  1.0
  C  C98  1  0.24607000  0.51565000  0.30566000  1.0
  C  C99  1  0.75393000  0.48435000  0.69434000  1.0
  C  C100  1  0.42436000  0.36169000  0.37247000  1.0
  C  C101  1  0.57564000  0.63830000  0.62753000  1.0
  C  C102  1  0.31836000  0.43878000  0.25154000  1.0
  C  C103  1  0.68165000  0.56122000  0.74846000  1.0
  C  C104  1  0.41020000  0.35885000  0.28430000  1.0
  C  C105  1  0.58981000  0.64115000  0.71571000  1.0
  C  C106  1  0.48718000  0.27457000  0.23005000  1.0
  C  C107  1  0.51283000  0.72543000  0.76995000  1.0
  C  C108  1  0.50436000  0.17411000  0.25270000  1.0
  C  C109  1  0.49566000  0.82589000  0.74731000  1.0
  C  C110  1  0.54930000  0.29112000  0.15397000  1.0
  C  C111  1  0.45071000  0.70888000  0.84603000  1.0
  C  C112  1  0.57568000  0.09621000  0.19944000  1.0
  C  C113  1  0.42433000  0.90379000  0.80057000  1.0
  C  C114  1  0.62236000  0.21041000  0.10470000  1.0
  C  C115  1  0.37765000  0.78960000  0.89530000  1.0
  N  N116  1  0.65349000  0.67621000  0.20388000  1.0
  N  N117  1  0.34650000  0.32380000  0.79612000  1.0
  N  N118  1  0.12256000  0.69744000  0.57191000  1.0
  N  N119  1  0.87744000  0.30256000  0.42809000  1.0
  N  N120  1  0.81358000  0.93625000  0.95433000  1.0
  N  N121  1  0.18643000  0.06375000  0.04567000  1.0
  N  N122  1  0.25965000  0.51702000  0.39058000  1.0
  N  N123  1  0.74034000  0.48297000  0.60942000  1.0
  N  N124  1  0.63252000  0.11284000  0.12549000  1.0
  N  N125  1  0.36749000  0.88716000  0.87452000  1.0
  O  O126  1  0.11768000  0.91077000  0.40347000  1.0
  O  O127  1  0.88231000  0.08922000  0.59654000  1.0
  O  O128  1  0.09886000  0.85455000  0.26173000  1.0
  O  O129  1  0.90114000  0.14546000  0.73829000  1.0
  O  O130  1  0.51871000  0.86914000  0.07367000  1.0
  O  O131  1  0.48129000  0.13087000  0.92632000  1.0
  O  O132  1  0.76552000  0.85962000  0.15920000  1.0
  O  O133  1  0.23447000  0.14039000  0.84080000  1.0
  O  O134  1  0.96195000  0.62468000  0.14051000  1.0
  O  O135  1  0.03803000  0.37534000  0.85948000  1.0
  O  O136  1  0.90653000  0.44969000  0.13688000  1.0
  O  O137  1  0.09349000  0.55034000  0.86312000  1.0
  O  O138  1  0.95149000  0.68419000  0.32435000  1.0
  O  O139  1  0.04850000  0.31581000  0.67565000  1.0
  O  O140  1  0.86518000  0.60684000  0.42954000  1.0
  O  O141  1  0.13482000  0.39315000  0.57046000  1.0
