# generated using pymatgen
data_ZnP2H10(C2O)4
_symmetry_space_group_name_H-M   'P 1'
_cell_length_a   5.41042000
_cell_length_b   8.81395000
_cell_length_c   21.18250000
_cell_angle_alpha   90.00010000
_cell_angle_beta   90.00010000
_cell_angle_gamma   89.99960000
_symmetry_Int_Tables_number   1
_chemical_formula_structural   ZnP2H10(C2O)4
_chemical_formula_sum   'Zn4 P8 H40 C32 O16'
_cell_volume   1010.13350728
_cell_formula_units_Z   4
loop_
 _symmetry_equiv_pos_site_id
 _symmetry_equiv_pos_as_xyz
  1  'x, y, z'
loop_
 _atom_site_type_symbol
 _atom_site_label
 _atom_site_symmetry_multiplicity
 _atom_site_fract_x
 _atom_site_fract_y
 _atom_site_fract_z
 _atom_site_occupancy
  Zn  Zn0  1  0.14457000  0.80184000  0.27518000  1.0
  Zn  Zn1  1  0.35543000  0.19816000  0.77518000  1.0
  Zn  Zn2  1  0.64456000  0.69817000  0.72482000  1.0
  Zn  Zn3  1  0.85543000  0.30184000  0.22482000  1.0
  P  P4  1  0.64182000  0.96293000  0.25081000  1.0
  P  P5  1  0.85819000  0.03707000  0.75081000  1.0
  P  P6  1  0.14182000  0.53707000  0.74919000  1.0
  P  P7  1  0.35819000  0.46293000  0.24918000  1.0
  P  P8  1  0.46493000  0.90293000  0.38639000  1.0
  P  P9  1  0.03508000  0.09707000  0.88639000  1.0
  P  P10  1  0.96492000  0.59707000  0.61361000  1.0
  P  P11  1  0.53508000  0.40293000  0.11361000  1.0
  H  H12  1  0.80799000  0.05230000  0.35037000  1.0
  H  H13  1  0.69201000  0.94770000  0.85037000  1.0
  H  H14  1  0.30799000  0.44770000  0.64963000  1.0
  H  H15  1  0.19201000  0.55230000  0.14963000  1.0
  H  H16  1  0.51589000  0.13926000  0.33227000  1.0
  H  H17  1  0.98411000  0.86074000  0.83227000  1.0
  H  H18  1  0.01589000  0.36074000  0.66773000  1.0
  H  H19  1  0.48411000  0.63926000  0.16773000  1.0
  H  H20  1  0.63571000  0.67178000  0.34664000  1.0
  H  H21  1  0.86429000  0.32822000  0.84664000  1.0
  H  H22  1  0.13571000  0.82822000  0.65336000  1.0
  H  H23  1  0.36430000  0.17178000  0.15336000  1.0
  H  H24  1  0.58810000  0.66361000  0.43032000  1.0
  H  H25  1  0.91190000  0.33639000  0.93032000  1.0
  H  H26  1  0.08810000  0.83639000  0.56968000  1.0
  H  H27  1  0.41191000  0.16361000  0.06968000  1.0
  H  H28  1  0.84465000  0.76658000  0.39827000  1.0
  H  H29  1  0.65535000  0.23342000  0.89827000  1.0
  H  H30  1  0.34464000  0.73342000  0.60173000  1.0
  H  H31  1  0.15536000  0.26658000  0.10173000  1.0
  H  H32  1  0.80078000  0.88367000  0.49579000  1.0
  H  H33  1  0.69923000  0.11634000  0.99579000  1.0
  H  H34  1  0.30076000  0.61633000  0.50421000  1.0
  H  H35  1  0.19924000  0.38366000  0.00421000  1.0
  H  H36  1  0.76848000  0.99071000  0.60453000  1.0
  H  H37  1  0.73152000  0.00929000  0.10453000  1.0
  H  H38  1  0.26846000  0.50929000  0.39547000  1.0
  H  H39  1  0.23153000  0.49070000  0.89547000  1.0
  H  H40  1  0.41347000  0.15009000  0.63389000  1.0
  H  H41  1  0.08653000  0.84991000  0.13389000  1.0
  H  H42  1  0.91346000  0.34991000  0.36611000  1.0
  H  H43  1  0.58652000  0.65009000  0.86611000  1.0
  H  H44  1  0.08480000  0.20866000  0.55437000  1.0
  H  H45  1  0.41520000  0.79134000  0.05437000  1.0
  H  H46  1  0.58479000  0.29134000  0.44563000  1.0
  H  H47  1  0.91520000  0.70866000  0.94563000  1.0
  H  H48  1  0.11035000  0.09939000  0.44697000  1.0
  H  H49  1  0.38966000  0.90062000  0.94697000  1.0
  H  H50  1  0.61034000  0.40061000  0.55303000  1.0
  H  H51  1  0.88965000  0.59939000  0.05303000  1.0
  C  C52  1  0.61932000  0.03161000  0.33291000  1.0
  C  C53  1  0.88068000  0.96840000  0.83291000  1.0
  C  C54  1  0.11932000  0.46840000  0.66709000  1.0
  C  C55  1  0.38068000  0.53161000  0.16709000  1.0
  C  C56  1  0.65031000  0.73496000  0.39112000  1.0
  C  C57  1  0.84970000  0.26504000  0.89112000  1.0
  C  C58  1  0.15030000  0.76504000  0.60888000  1.0
  C  C59  1  0.34971000  0.23496000  0.10888000  1.0
  C  C60  1  0.45784000  0.98503000  0.46420000  1.0
  C  C61  1  0.04217000  0.01498000  0.96420000  1.0
  C  C62  1  0.95782000  0.51497000  0.53580000  1.0
  C  C63  1  0.54218000  0.48502000  0.03580000  1.0
  C  C64  1  0.64478000  0.95580000  0.50849000  1.0
  C  C65  1  0.85523000  0.04420000  0.00849000  1.0
  C  C66  1  0.14476000  0.54420000  0.49151000  1.0
  C  C67  1  0.35524000  0.45580000  0.99151000  1.0
  C  C68  1  0.62926000  0.01689000  0.56909000  1.0
  C  C69  1  0.87075000  0.98311000  0.06909000  1.0
  C  C70  1  0.12924000  0.48311000  0.43092000  1.0
  C  C71  1  0.37074000  0.51688000  0.93091000  1.0
  C  C72  1  0.42824000  0.10783000  0.58571000  1.0
  C  C73  1  0.07177000  0.89217000  0.08571000  1.0
  C  C74  1  0.92822000  0.39217000  0.41429000  1.0
  C  C75  1  0.57177000  0.60783000  0.91429000  1.0
  C  C76  1  0.24320000  0.13888000  0.54161000  1.0
  C  C77  1  0.25681000  0.86112000  0.04161000  1.0
  C  C78  1  0.74319000  0.36112000  0.45839000  1.0
  C  C79  1  0.75679000  0.63888000  0.95839000  1.0
  C  C80  1  0.25697000  0.07744000  0.48100000  1.0
  C  C81  1  0.24303000  0.92256000  0.98100000  1.0
  C  C82  1  0.75696000  0.42256000  0.51900000  1.0
  C  C83  1  0.74304000  0.57744000  0.01900000  1.0
  O  O84  1  0.80409000  0.81919000  0.25101000  1.0
  O  O85  1  0.69591000  0.18081000  0.75101000  1.0
  O  O86  1  0.30408000  0.68081000  0.74899000  1.0
  O  O87  1  0.19591000  0.31919000  0.24898000  1.0
  O  O88  1  0.38054000  0.92453000  0.22718000  1.0
  O  O89  1  0.11946000  0.07547000  0.72718000  1.0
  O  O90  1  0.88054000  0.57547000  0.77282000  1.0
  O  O91  1  0.61945000  0.42453000  0.27282000  1.0
  O  O92  1  0.75747000  0.09208000  0.21299000  1.0
  O  O93  1  0.74253000  0.90792000  0.71299000  1.0
  O  O94  1  0.25747000  0.40792000  0.78701000  1.0
  O  O95  1  0.24253000  0.59208000  0.28701000  1.0
  O  O96  1  0.19750000  0.87753000  0.36484000  1.0
  O  O97  1  0.30250000  0.12247000  0.86483000  1.0
  O  O98  1  0.69750000  0.62247000  0.63517000  1.0
  O  O99  1  0.80250000  0.37753000  0.13517000  1.0
