# generated using pymatgen
data_ZnH18C23(NO3)2
_symmetry_space_group_name_H-M   'P 1'
_cell_length_a   8.11158000
_cell_length_b   8.69901000
_cell_length_c   15.77600000
_cell_angle_alpha   102.72100000
_cell_angle_beta   92.51620000
_cell_angle_gamma   108.95400000
_symmetry_Int_Tables_number   1
_chemical_formula_structural   ZnH18C23(NO3)2
_chemical_formula_sum   'Zn2 H36 C46 N4 O12'
_cell_volume   1018.92655644
_cell_formula_units_Z   2
loop_
 _symmetry_equiv_pos_site_id
 _symmetry_equiv_pos_as_xyz
  1  'x, y, z'
loop_
 _atom_site_type_symbol
 _atom_site_label
 _atom_site_symmetry_multiplicity
 _atom_site_fract_x
 _atom_site_fract_y
 _atom_site_fract_z
 _atom_site_occupancy
  Zn  Zn0  1  0.71732000  0.41990000  0.47352000  1.0
  Zn  Zn1  1  0.28268000  0.58010000  0.52648000  1.0
  H  H2  1  0.30504000  0.96260000  0.50749000  1.0
  H  H3  1  0.69496000  0.03740000  0.49251000  1.0
  H  H4  1  0.24845000  0.38716000  0.68614000  1.0
  H  H5  1  0.75155000  0.61284000  0.31386000  1.0
  H  H6  1  0.84711000  0.89808000  0.64161000  1.0
  H  H7  1  0.15289000  0.10192000  0.35839000  1.0
  H  H8  1  0.15493000  0.36972000  0.83217000  1.0
  H  H9  1  0.84507000  0.63028000  0.16783000  1.0
  H  H10  1  0.98150000  0.48984000  0.93533000  1.0
  H  H11  1  0.01850000  0.51016000  0.06467000  1.0
  H  H12  1  0.99998000  0.44047000  0.34810000  1.0
  H  H13  1  0.00002000  0.55953000  0.65190000  1.0
  H  H14  1  0.85246000  0.82800000  0.05501000  1.0
  H  H15  1  0.14754000  0.17200000  0.94499000  1.0
  H  H16  1  0.95746000  0.99095000  0.15089000  1.0
  H  H17  1  0.04254000  0.00905000  0.84912000  1.0
  H  H18  1  0.68887000  0.10852000  0.64600000  1.0
  H  H19  1  0.31113000  0.89148000  0.35400000  1.0
  H  H20  1  0.51543000  0.23119000  0.74872000  1.0
  H  H21  1  0.48457000  0.76881000  0.25128000  1.0
  H  H22  1  0.00797000  0.30177000  0.19164000  1.0
  H  H23  1  0.99204000  0.69824000  0.80836000  1.0
  H  H24  1  0.22222000  0.09191000  0.08017000  1.0
  H  H25  1  0.77778000  0.90809000  0.91983000  1.0
  H  H26  1  0.16769000  0.87292000  0.07498000  1.0
  H  H27  1  0.83231000  0.12708000  0.92502000  1.0
  H  H28  1  0.61581000  0.95531000  0.05797000  1.0
  H  H29  1  0.38420000  0.04469000  0.94204000  1.0
  H  H30  1  0.67224000  0.15616000  0.03589000  1.0
  H  H31  1  0.32777000  0.84384000  0.96411000  1.0
  H  H32  1  0.46409000  0.19633000  0.32953000  1.0
  H  H33  1  0.53591000  0.80367000  0.67047000  1.0
  H  H34  1  0.44918000  0.04790000  0.17310000  1.0
  H  H35  1  0.55082000  0.95210000  0.82690000  1.0
  H  H36  1  0.40993000  0.45545000  0.93635000  1.0
  H  H37  1  0.59006000  0.54453000  0.06365000  1.0
  C  C38  1  0.03707000  0.15134000  0.67392000  1.0
  C  C39  1  0.96293000  0.84866000  0.32608000  1.0
  C  C40  1  0.99682000  0.73085000  0.52461000  1.0
  C  C41  1  0.00318000  0.26915000  0.47539000  1.0
  C  C42  1  0.23145000  0.01535000  0.55457000  1.0
  C  C43  1  0.76855000  0.98465000  0.44543000  1.0
  C  C44  1  0.29228000  0.18754000  0.59433000  1.0
  C  C45  1  0.70772000  0.81246000  0.40567000  1.0
  C  C46  1  0.07174000  0.91209000  0.57274000  1.0
  C  C47  1  0.92826000  0.08791000  0.42726000  1.0
  C  C48  1  0.19852000  0.25289000  0.65616000  1.0
  C  C49  1  0.80149000  0.74711000  0.34384000  1.0
  C  C50  1  0.93295000  0.22601000  0.73354000  1.0
  C  C51  1  0.06704000  0.77399000  0.26646000  1.0
  C  C52  1  0.97375000  0.98064000  0.63095000  1.0
  C  C53  1  0.02625000  0.01936000  0.36905000  1.0
  C  C54  1  0.44274000  0.30854000  0.56428000  1.0
  C  C55  1  0.55726000  0.69146000  0.43572000  1.0
  C  C56  1  0.01460000  0.33844000  0.81434000  1.0
  C  C57  1  0.98540000  0.66157000  0.18566000  1.0
  C  C58  1  0.91741000  0.40529000  0.87235000  1.0
  C  C59  1  0.08259000  0.59472000  0.12765000  1.0
  C  C60  1  0.63394000  0.42707000  0.91525000  1.0
  C  C61  1  0.36606000  0.57293000  0.08474000  1.0
  C  C62  1  0.73619000  0.36434000  0.84983000  1.0
  C  C63  1  0.26381000  0.63566000  0.15017000  1.0
  C  C64  1  0.88178000  0.35104000  0.30676000  1.0
  C  C65  1  0.11822000  0.64897000  0.69324000  1.0
  C  C66  1  0.72868000  0.16345000  0.16917000  1.0
  C  C67  1  0.27132000  0.83655000  0.83083000  1.0
  C  C68  1  0.94664000  0.95828000  0.07899000  1.0
  C  C69  1  0.05336000  0.04172000  0.92101000  1.0
  C  C70  1  0.75221000  0.18919000  0.71020000  1.0
  C  C71  1  0.24778000  0.81080000  0.28980000  1.0
  C  C72  1  0.65493000  0.25901000  0.76729000  1.0
  C  C73  1  0.34507000  0.74099000  0.23271000  1.0
  C  C74  1  0.88484000  0.27419000  0.21992000  1.0
  C  C75  1  0.11517000  0.72581000  0.78008000  1.0
  C  C76  1  0.12486000  0.96447000  0.05050000  1.0
  C  C77  1  0.87514000  0.03553000  0.94950000  1.0
  C  C78  1  0.71931000  0.08207000  0.07341000  1.0
  C  C79  1  0.28069000  0.91793000  0.92659000  1.0
  C  C80  1  0.58112000  0.21496000  0.29614000  1.0
  C  C81  1  0.41888000  0.78504000  0.70386000  1.0
  C  C82  1  0.57449000  0.13425000  0.20922000  1.0
  C  C83  1  0.42551000  0.86575000  0.79078000  1.0
  N  N84  1  0.88528000  0.07647000  0.04497000  1.0
  N  N85  1  0.11472000  0.92353000  0.95503000  1.0
  N  N86  1  0.73245000  0.32152000  0.34451000  1.0
  N  N87  1  0.26755000  0.67848000  0.65549000  1.0
  O  O88  1  0.08623000  0.66485000  0.47433000  1.0
  O  O89  1  0.91377000  0.33515000  0.52567000  1.0
  O  O90  1  0.83955000  0.65303000  0.53752000  1.0
  O  O91  1  0.16044000  0.34697000  0.46248000  1.0
  O  O92  1  0.52526000  0.24374000  0.50640000  1.0
  O  O93  1  0.47474000  0.75626000  0.49360000  1.0
  O  O94  1  0.47764000  0.46398000  0.59348000  1.0
  O  O95  1  0.52236000  0.53602000  0.40652000  1.0
  O  O96  1  0.69633000  0.48662000  0.99448000  1.0
  O  O97  1  0.30367000  0.51338000  0.00551000  1.0
  O  O98  1  0.47341000  0.41285000  0.88528000  1.0
  O  O99  1  0.52658000  0.58714000  0.11472000  1.0
