# generated using pymatgen
data_ZnH12C14(NO2)2
_symmetry_space_group_name_H-M   'P 1'
_cell_length_a   8.07038000
_cell_length_b   12.89480000
_cell_length_c   13.18150000
_cell_angle_alpha   90.00000000
_cell_angle_beta   104.08300000
_cell_angle_gamma   90.00000000
_symmetry_Int_Tables_number   1
_chemical_formula_structural   ZnH12C14(NO2)2
_chemical_formula_sum   'Zn4 H48 C56 N8 O16'
_cell_volume   1330.51631318
_cell_formula_units_Z   4
loop_
 _symmetry_equiv_pos_site_id
 _symmetry_equiv_pos_as_xyz
  1  'x, y, z'
loop_
 _atom_site_type_symbol
 _atom_site_label
 _atom_site_symmetry_multiplicity
 _atom_site_fract_x
 _atom_site_fract_y
 _atom_site_fract_z
 _atom_site_occupancy
  Zn  Zn0  1  0.24098000  0.93652000  0.16326000  1.0
  Zn  Zn1  1  0.25902000  0.43652000  0.33674000  1.0
  Zn  Zn2  1  0.75902000  0.06349000  0.83674000  1.0
  Zn  Zn3  1  0.74098000  0.56348000  0.66326000  1.0
  H  H4  1  0.97864000  0.07522000  0.06595000  1.0
  H  H5  1  0.52136000  0.57522000  0.43405000  1.0
  H  H6  1  0.02136000  0.92478000  0.93405000  1.0
  H  H7  1  0.47864000  0.42478000  0.56595000  1.0
  H  H8  1  0.13135000  0.13421000  0.14775000  1.0
  H  H9  1  0.36865000  0.63421000  0.35225000  1.0
  H  H10  1  0.86865000  0.86579000  0.85225000  1.0
  H  H11  1  0.63135000  0.36579000  0.64775000  1.0
  H  H12  1  0.11440000  0.80784000  0.82781000  1.0
  H  H13  1  0.38560000  0.30785000  0.67219000  1.0
  H  H14  1  0.88560000  0.19215000  0.17219000  1.0
  H  H15  1  0.61440000  0.69215000  0.32781000  1.0
  H  H16  1  0.31303000  0.73323000  0.73082000  1.0
  H  H17  1  0.18697000  0.23323000  0.76918000  1.0
  H  H18  1  0.68697000  0.26677000  0.26918000  1.0
  H  H19  1  0.81303000  0.76677000  0.23082000  1.0
  H  H20  1  0.74119000  0.82093000  0.97831000  1.0
  H  H21  1  0.75881000  0.32093000  0.52169000  1.0
  H  H22  1  0.25881000  0.17907000  0.02169000  1.0
  H  H23  1  0.24119000  0.67907000  0.47831000  1.0
  H  H24  1  0.71839000  0.90353000  0.12271000  1.0
  H  H25  1  0.78160000  0.40353000  0.37729000  1.0
  H  H26  1  0.28161000  0.09646000  0.87729000  1.0
  H  H27  1  0.21839000  0.59646000  0.62271000  1.0
  H  H28  1  0.71223000  0.02123000  0.26216000  1.0
  H  H29  1  0.78777000  0.52123000  0.23783000  1.0
  H  H30  1  0.28777000  0.97877000  0.73784000  1.0
  H  H31  1  0.21223000  0.47877000  0.76216000  1.0
  H  H32  1  0.66522000  0.90561000  0.32291000  1.0
  H  H33  1  0.83478000  0.40560000  0.17708000  1.0
  H  H34  1  0.33479000  0.09440000  0.67709000  1.0
  H  H35  1  0.16522000  0.59439000  0.82292000  1.0
  H  H36  1  0.71242000  0.11237000  0.43784000  1.0
  H  H37  1  0.78757000  0.61238000  0.06216000  1.0
  H  H38  1  0.28757000  0.88763000  0.56216000  1.0
  H  H39  1  0.21243000  0.38762000  0.93784000  1.0
  H  H40  1  0.52541000  0.19718000  0.53911000  1.0
  H  H41  1  0.97460000  0.69719000  0.96089000  1.0
  H  H42  1  0.47459000  0.80281000  0.46089000  1.0
  H  H43  1  0.02540000  0.30281000  0.03911000  1.0
  H  H44  1  0.20899000  0.16179000  0.48792000  1.0
  H  H45  1  0.29102000  0.66179000  0.01209000  1.0
  H  H46  1  0.79101000  0.83821000  0.51209000  1.0
  H  H47  1  0.70899000  0.33821000  0.98791000  1.0
  H  H48  1  0.09521000  0.04249000  0.33556000  1.0
  H  H49  1  0.40479000  0.54249000  0.16444000  1.0
  H  H50  1  0.90478000  0.95750000  0.66444000  1.0
  H  H51  1  0.59521000  0.45750000  0.83556000  1.0
  C  C52  1  0.49515000  0.85794000  0.00484000  1.0
  C  C53  1  0.00485000  0.35794000  0.49516000  1.0
  C  C54  1  0.50485000  0.14206000  0.99516000  1.0
  C  C55  1  0.99515000  0.64206000  0.50484000  1.0
  C  C56  1  0.31290000  0.85619000  0.96195000  1.0
  C  C57  1  0.18710000  0.35619000  0.53804000  1.0
  C  C58  1  0.68710000  0.14381000  0.03805000  1.0
  C  C59  1  0.81290000  0.64381000  0.46196000  1.0
  C  C60  1  0.25181000  0.81093000  0.86101000  1.0
  C  C61  1  0.24818000  0.31093000  0.63899000  1.0
  C  C62  1  0.74819000  0.18907000  0.13899000  1.0
  C  C63  1  0.75181000  0.68907000  0.36101000  1.0
  C  C64  1  0.36221000  0.76884000  0.80718000  1.0
  C  C65  1  0.13779000  0.26884000  0.69282000  1.0
  C  C66  1  0.63780000  0.23116000  0.19283000  1.0
  C  C67  1  0.86220000  0.73116000  0.30718000  1.0
  C  C68  1  0.54074000  0.77159000  0.84775000  1.0
  C  C69  1  0.95926000  0.27159000  0.65225000  1.0
  C  C70  1  0.45926000  0.22841000  0.15225000  1.0
  C  C71  1  0.04074000  0.72841000  0.34775000  1.0
  C  C72  1  0.60352000  0.81698000  0.94540000  1.0
  C  C73  1  0.89648000  0.31698000  0.55460000  1.0
  C  C74  1  0.39648000  0.18303000  0.05460000  1.0
  C  C75  1  0.10352000  0.68303000  0.44540000  1.0
  C  C76  1  0.57758000  0.90061000  0.10581000  1.0
  C  C77  1  0.92242000  0.40061000  0.39419000  1.0
  C  C78  1  0.42242000  0.09939000  0.89419000  1.0
  C  C79  1  0.07758000  0.59939000  0.60581000  1.0
  C  C80  1  0.65561000  0.72470000  0.78706000  1.0
  C  C81  1  0.84439000  0.22470000  0.71294000  1.0
  C  C82  1  0.34439000  0.27530000  0.21294000  1.0
  C  C83  1  0.15561000  0.77530000  0.28706000  1.0
  C  C84  1  0.60689000  0.97232000  0.27453000  1.0
  C  C85  1  0.89311000  0.47231000  0.22547000  1.0
  C  C86  1  0.39311000  0.02769000  0.72547000  1.0
  C  C87  1  0.10689000  0.52769000  0.77453000  1.0
  C  C88  1  0.50180000  0.03143000  0.33577000  1.0
  C  C89  1  0.99820000  0.53143000  0.16423000  1.0
  C  C90  1  0.49820000  0.96857000  0.66423000  1.0
  C  C91  1  0.00180000  0.46857000  0.83577000  1.0
  C  C92  1  0.57514000  0.09801000  0.41809000  1.0
  C  C93  1  0.92485000  0.59801000  0.08191000  1.0
  C  C94  1  0.42485000  0.90199000  0.58191000  1.0
  C  C95  1  0.07515000  0.40199000  0.91809000  1.0
  C  C96  1  0.47039000  0.14579000  0.47390000  1.0
  C  C97  1  0.02961000  0.64578000  0.02610000  1.0
  C  C98  1  0.52960000  0.85421000  0.52610000  1.0
  C  C99  1  0.97039000  0.35421000  0.97390000  1.0
  C  C100  1  0.29491000  0.12563000  0.44629000  1.0
  C  C101  1  0.20509000  0.62563000  0.05371000  1.0
  C  C102  1  0.70509000  0.87437000  0.55371000  1.0
  C  C103  1  0.79491000  0.37437000  0.94629000  1.0
  C  C104  1  0.23121000  0.05970000  0.36289000  1.0
  C  C105  1  0.26879000  0.55970000  0.13711000  1.0
  C  C106  1  0.76879000  0.94030000  0.63711000  1.0
  C  C107  1  0.73121000  0.44030000  0.86289000  1.0
  N  N108  1  0.50205000  0.93396000  0.17569000  1.0
  N  N109  1  0.99795000  0.43396000  0.32431000  1.0
  N  N110  1  0.49795000  0.06604000  0.82431000  1.0
  N  N111  1  0.00205000  0.56604000  0.67569000  1.0
  N  N112  1  0.33306000  0.01409000  0.30927000  1.0
  N  N113  1  0.16694000  0.51409000  0.19073000  1.0
  N  N114  1  0.66694000  0.98591000  0.69073000  1.0
  N  N115  1  0.83306000  0.48591000  0.80927000  1.0
  O  O116  1  0.20277000  0.89326000  0.01059000  1.0
  O  O117  1  0.29723000  0.39327000  0.48941000  1.0
  O  O118  1  0.79723000  0.10673000  0.98941000  1.0
  O  O119  1  0.70277000  0.60674000  0.51059000  1.0
  O  O120  1  0.58513000  0.65929000  0.71563000  1.0
  O  O121  1  0.91487000  0.15929000  0.78437000  1.0
  O  O122  1  0.41487000  0.34071000  0.28437000  1.0
  O  O123  1  0.08514000  0.84071000  0.21563000  1.0
  O  O124  1  0.81264000  0.74882000  0.80768000  1.0
  O  O125  1  0.68736000  0.24882000  0.69232000  1.0
  O  O126  1  0.18736000  0.25118000  0.19232000  1.0
  O  O127  1  0.31264000  0.75118000  0.30768000  1.0
  O  O128  1  0.08748000  0.06376000  0.12126000  1.0
  O  O129  1  0.41252000  0.56376000  0.37874000  1.0
  O  O130  1  0.91252000  0.93624000  0.87874000  1.0
  O  O131  1  0.58748000  0.43624000  0.62126000  1.0
