# generated using pymatgen
data_SrP2H12(C2O)6
_symmetry_space_group_name_H-M   'P 1'
_cell_length_a   5.77243000
_cell_length_b   7.78384000
_cell_length_c   15.90100000
_cell_angle_alpha   78.63700000
_cell_angle_beta   79.57100000
_cell_angle_gamma   89.98840000
_symmetry_Int_Tables_number   1
_chemical_formula_structural   SrP2H12(C2O)6
_chemical_formula_sum   'Sr2 P4 H24 C24 O12'
_cell_volume   688.41653293
_cell_formula_units_Z   2
loop_
 _symmetry_equiv_pos_site_id
 _symmetry_equiv_pos_as_xyz
  1  'x, y, z'
loop_
 _atom_site_type_symbol
 _atom_site_label
 _atom_site_symmetry_multiplicity
 _atom_site_fract_x
 _atom_site_fract_y
 _atom_site_fract_z
 _atom_site_occupancy
  Sr  Sr0  1  0.10755000  0.75004000  0.99998000  1.0
  Sr  Sr1  1  0.89245000  0.24996000  0.00002000  1.0
  P  P2  1  0.59746000  0.58852000  0.12999000  1.0
  P  P3  1  0.72695000  0.91144000  0.86995000  1.0
  P  P4  1  0.40254000  0.41148000  0.87001000  1.0
  P  P5  1  0.27305000  0.08856000  0.13006000  1.0
  H  H6  1  0.61750000  0.89824000  0.11538000  1.0
  H  H7  1  0.73259000  0.60169000  0.88463000  1.0
  H  H8  1  0.38250000  0.10175000  0.88462000  1.0
  H  H9  1  0.26742000  0.39831000  0.11537000  1.0
  H  H10  1  0.24536000  0.60651000  0.28614000  1.0
  H  H11  1  0.53156000  0.89411000  0.71332000  1.0
  H  H12  1  0.75463000  0.39348000  0.71385000  1.0
  H  H13  1  0.46843000  0.10590000  0.28668000  1.0
  H  H14  1  0.23087000  0.48231000  0.44286000  1.0
  H  H15  1  0.67507000  0.01837000  0.55672000  1.0
  H  H16  1  0.76913000  0.51769000  0.55714000  1.0
  H  H17  1  0.32492000  0.98163000  0.44328000  1.0
  H  H18  1  0.55415000  0.29703000  0.49058000  1.0
  H  H19  1  0.04636000  0.20311000  0.50955000  1.0
  H  H20  1  0.44585000  0.70297000  0.50941000  1.0
  H  H21  1  0.95364000  0.79689000  0.49045000  1.0
  H  H22  1  0.89423000  0.23760000  0.37967000  1.0
  H  H23  1  0.27447000  0.26204000  0.62096000  1.0
  H  H24  1  0.10578000  0.76240000  0.62033000  1.0
  H  H25  1  0.72554000  0.73796000  0.37904000  1.0
  H  H26  1  0.91139000  0.36625000  0.22308000  1.0
  H  H27  1  0.13388000  0.13323000  0.77740000  1.0
  H  H28  1  0.08862000  0.63376000  0.77692000  1.0
  H  H29  1  0.86613000  0.86676000  0.22260000  1.0
  C  C30  1  0.58159000  0.49624000  0.24441000  1.0
  C  C31  1  0.82580000  0.00373000  0.75556000  1.0
  C  C32  1  0.41841000  0.50376000  0.75559000  1.0
  C  C33  1  0.17420000  0.99627000  0.24444000  1.0
  C  C34  1  0.38875000  0.52739000  0.30663000  1.0
  C  C35  1  0.69561000  0.97292000  0.69311000  1.0
  C  C36  1  0.61125000  0.47260000  0.69337000  1.0
  C  C37  1  0.30439000  0.02708000  0.30689000  1.0
  C  C38  1  0.38006000  0.45610000  0.39485000  1.0
  C  C39  1  0.77582000  0.04426000  0.60495000  1.0
  C  C40  1  0.61994000  0.54390000  0.60515000  1.0
  C  C41  1  0.22418000  0.95575000  0.39505000  1.0
  C  C42  1  0.56172000  0.35242000  0.42156000  1.0
  C  C43  1  0.98436000  0.14764000  0.57854000  1.0
  C  C44  1  0.43828000  0.64758000  0.57844000  1.0
  C  C45  1  0.01564000  0.85236000  0.42146000  1.0
  C  C46  1  0.75302000  0.32009000  0.35980000  1.0
  C  C47  1  0.11334000  0.17969000  0.64055000  1.0
  C  C48  1  0.24698000  0.67991000  0.64020000  1.0
  C  C49  1  0.88666000  0.82031000  0.35945000  1.0
  C  C50  1  0.76377000  0.39252000  0.27150000  1.0
  C  C51  1  0.03515000  0.10721000  0.72877000  1.0
  C  C52  1  0.23623000  0.60749000  0.72850000  1.0
  C  C53  1  0.96485000  0.89278000  0.27123000  1.0
  O  O54  1  0.34840000  0.58561000  0.10984000  1.0
  O  O55  1  0.45778000  0.91432000  0.88999000  1.0
  O  O56  1  0.65161000  0.41439000  0.89016000  1.0
  O  O57  1  0.54222000  0.08568000  0.11001000  1.0
  O  O58  1  0.78308000  0.49674000  0.07626000  1.0
  O  O59  1  0.85865000  0.00323000  0.92377000  1.0
  O  O60  1  0.21692000  0.50326000  0.92374000  1.0
  O  O61  1  0.14135000  0.99677000  0.07623000  1.0
  O  O62  1  0.70485000  0.78264000  0.11300000  1.0
  O  O63  1  0.81760000  0.71734000  0.88695000  1.0
  O  O64  1  0.29515000  0.21736000  0.88700000  1.0
  O  O65  1  0.18240000  0.28266000  0.11305000  1.0
