# generated using pymatgen
data_Zn8H23C52Br5O32
_symmetry_space_group_name_H-M   'P 1'
_cell_length_a   18.45964694
_cell_length_b   18.52780000
_cell_length_c   18.55894260
_cell_angle_alpha   60.73422764
_cell_angle_beta   60.41365860
_cell_angle_gamma   60.35760855
_symmetry_Int_Tables_number   1
_chemical_formula_structural   Zn8H23C52Br5O32
_chemical_formula_sum   'Zn8 H23 C52 Br5 O32'
_cell_volume   4539.12760464
_cell_formula_units_Z   1
loop_
 _symmetry_equiv_pos_site_id
 _symmetry_equiv_pos_as_xyz
  1  'x, y, z'
loop_
 _atom_site_type_symbol
 _atom_site_label
 _atom_site_symmetry_multiplicity
 _atom_site_fract_x
 _atom_site_fract_y
 _atom_site_fract_z
 _atom_site_occupancy
  Zn  Zn0  1  0.54439000  0.04987000  0.86658000  1.0
  Zn  Zn1  1  0.54762000  0.87498000  0.03667000  1.0
  Zn  Zn2  1  0.37441000  0.04894000  0.04001000  1.0
  Zn  Zn3  1  0.54619000  0.04743000  0.04001000  1.0
  Zn  Zn4  1  0.94934000  0.46619000  0.63256000  1.0
  Zn  Zn5  1  0.12830000  0.45493000  0.46679000  1.0
  Zn  Zn6  1  0.95460000  0.62701000  0.45246000  1.0
  Zn  Zn7  1  0.96024000  0.44645000  0.46473000  1.0
  H  H8  1  0.24455000  0.27746000  0.67694000  1.0
  H  H9  1  0.70253000  0.85083000  0.21713000  1.0
  H  H10  1  0.25041000  0.66574000  0.34034000  1.0
  H  H11  1  0.82839000  0.80060000  0.60289000  1.0
  H  H12  1  0.70376000  0.74257000  0.83398000  1.0
  H  H13  1  0.58015000  0.50983000  0.81684000  1.0
  H  H14  1  0.73279000  0.45528000  0.72657000  1.0
  H  H15  1  0.98259000  0.21191000  0.60718000  1.0
  H  H16  1  0.79195000  0.02399000  0.78487000  1.0
  H  H17  1  0.64390000  0.74835000  0.36239000  1.0
  H  H18  1  0.06227000  0.76965000  0.24835000  1.0
  H  H19  1  0.19001000  0.22261000  0.91305000  1.0
  H  H20  1  0.62223000  0.74429000  0.75857000  1.0
  H  H21  1  0.64132000  0.98631000  0.66567000  1.0
  H  H22  1  0.43903000  0.49221000  0.91571000  1.0
  H  H23  1  0.09092000  0.99140000  0.58491000  1.0
  H  H24  1  0.34194000  0.24424000  0.73588000  1.0
  H  H25  1  0.10170000  0.29233000  0.30092000  1.0
  H  H26  1  0.27274000  0.28876000  0.29611000  1.0
  H  H27  1  0.19959000  0.17926000  0.22765000  1.0
  H  H28  1  0.34741000  0.25013000  0.16773000  1.0
  H  H29  1  0.73338000  0.69753000  0.16929000  1.0
  H  H30  1  0.54447000  0.26411000  0.90304000  1.0
  C  C31  1  0.63603000  0.86786000  0.13668000  1.0
  C  C32  1  0.97279000  0.08933000  0.64264000  1.0
  C  C33  1  0.91739000  0.03596000  0.69391000  1.0
  C  C34  1  0.36489000  0.15672000  0.86072000  1.0
  C  C35  1  0.83281000  0.06584000  0.74708000  1.0
  C  C36  1  0.15801000  0.30671000  0.79256000  1.0
  C  C37  1  0.17878000  0.31751000  0.70783000  1.0
  C  C38  1  0.21898000  0.24679000  0.84184000  1.0
  C  C39  1  0.30779000  0.22065000  0.80604000  1.0
  C  C40  1  0.17316000  0.27538000  0.28036000  1.0
  C  C41  1  0.20257000  0.30616000  0.30980000  1.0
  C  C42  1  0.69282000  0.41264000  0.76375000  1.0
  C  C43  1  0.22898000  0.21855000  0.22679000  1.0
  C  C44  1  0.31394000  0.21081000  0.17544000  1.0
  C  C45  1  0.79968000  0.67517000  0.25208000  1.0
  C  C46  1  0.63595000  0.86939000  0.85506000  1.0
  C  C47  1  0.78646000  0.67317000  0.33162000  1.0
  C  C48  1  0.73927000  0.72863000  0.20239000  1.0
  C  C49  1  0.69453000  0.81486000  0.19089000  1.0
  C  C50  1  0.17490000  0.77171000  0.26065000  1.0
  C  C51  1  0.19084000  0.69301000  0.32373000  1.0
  C  C52  1  0.23336000  0.82379000  0.22048000  1.0
  C  C53  1  0.73033000  0.32566000  0.75952000  1.0
  C  C54  1  0.30991000  0.81501000  0.15381000  1.0
  C  C55  1  0.77245000  0.78299000  0.65925000  1.0
  C  C56  1  0.76032000  0.70924000  0.67477000  1.0
  C  C57  1  0.71822000  0.84257000  0.71016000  1.0
  C  C58  1  0.36820000  0.14764000  0.12678000  1.0
  C  C59  1  0.68704000  0.81302000  0.79893000  1.0
  C  C60  1  0.14204000  0.36250000  0.36568000  1.0
  C  C61  1  0.83338000  0.64887000  0.62360000  1.0
  C  C62  1  0.12565000  0.37572000  0.64930000  1.0
  C  C63  1  0.85728000  0.61973000  0.37349000  1.0
  C  C64  1  0.67594000  0.26990000  0.81122000  1.0
  C  C65  1  0.13450000  0.63644000  0.37417000  1.0
  C  C66  1  0.87260000  0.35122000  0.64737000  1.0
  C  C67  1  0.36804000  0.86934000  0.11241000  1.0
  C  C68  1  0.65261000  0.12851000  0.86117000  1.0
  C  C69  1  0.58750000  0.30402000  0.86328000  1.0
  C  C70  1  0.55331000  0.38863000  0.86501000  1.0
  C  C71  1  0.60707000  0.44318000  0.81481000  1.0
  C  C72  1  0.70002000  0.71762000  0.38702000  1.0
  C  C73  1  0.10200000  0.81122000  0.22414000  1.0
  C  C74  1  0.67732000  0.68932000  0.73458000  1.0
  C  C75  1  0.81692000  0.29293000  0.70505000  1.0
  C  C76  1  0.70926000  0.93809000  0.65678000  1.0
  C  C77  1  0.46051000  0.42295000  0.91896000  1.0
  C  C78  1  0.06521000  0.06000000  0.58446000  1.0
  C  C79  1  0.85132000  0.20748000  0.70056000  1.0
  C  C80  1  0.79696000  0.15202000  0.75246000  1.0
  C  C81  1  0.71071000  0.18445000  0.80682000  1.0
  C  C82  1  0.93876000  0.17283000  0.64727000  1.0
  Br  Br83  1  0.95928000  0.92075000  0.68914000  1.0
  Br  Br84  1  0.90900000  0.60385000  0.19176000  1.0
  Br  Br85  1  0.18798000  0.90886000  0.27494000  1.0
  Br  Br86  1  0.35319000  0.72731000  0.10336000  1.0
  Br  Br87  1  0.04722000  0.36741000  0.86052000  1.0
  O  O88  1  0.50463000  0.00351000  0.99473000  1.0
  O  O89  1  0.89647000  0.66259000  0.36933000  1.0
  O  O90  1  0.17494000  0.55429000  0.40104000  1.0
  O  O91  1  0.60417000  0.95007000  0.12505000  1.0
  O  O92  1  0.89573000  0.36833000  0.56535000  1.0
  O  O93  1  0.05161000  0.67474000  0.38767000  1.0
  O  O94  1  0.89137000  0.37842000  0.68505000  1.0
  O  O95  1  0.04333000  0.41494000  0.68137000  1.0
  O  O96  1  0.86899000  0.53827000  0.41029000  1.0
  O  O97  1  0.17906000  0.38566000  0.39005000  1.0
  O  O98  1  0.86724000  0.68418000  0.54179000  1.0
  O  O99  1  0.61790000  0.95236000  0.81726000  1.0
  O  O100  1  0.44750000  0.12805000  0.81863000  1.0
  O  O101  1  0.61476000  0.82889000  0.93731000  1.0
  O  O102  1  0.33067000  0.10613000  0.12512000  1.0
  O  O103  1  0.44907000  0.82763000  0.10564000  1.0
  O  O104  1  0.63673000  0.09980000  0.94342000  1.0
  O  O105  1  0.33010000  0.95183000  0.08762000  1.0
  O  O106  1  0.62391000  0.11588000  0.81989000  1.0
  O  O107  1  0.68947000  0.71817000  0.45742000  1.0
  O  O108  1  0.08880000  0.88393000  0.16902000  1.0
  O  O109  1  0.66504000  0.62221000  0.75293000  1.0
  O  O110  1  0.45066000  0.13857000  0.09029000  1.0
  O  O111  1  0.77450000  0.95916000  0.60432000  1.0
  O  O112  1  0.40891000  0.38157000  0.96433000  1.0
  O  O113  1  0.11169000  0.10681000  0.53822000  1.0
  O  O114  1  0.62325000  0.82800000  0.10620000  1.0
  O  O115  1  0.32821000  0.13541000  0.94365000  1.0
  O  O116  1  0.99818000  0.49931000  0.50415000  1.0
  O  O117  1  0.05877000  0.38360000  0.38525000  1.0
  O  O118  1  0.85595000  0.56821000  0.66867000  1.0
  O  O119  1  0.16899000  0.38093000  0.56854000  1.0
