# generated using pymatgen
data_BiH13C10Cl2O
_symmetry_space_group_name_H-M   'P 1'
_cell_length_a   8.06203000
_cell_length_b   8.89795000
_cell_length_c   16.62300000
_cell_angle_alpha   90.00000000
_cell_angle_beta   94.25890000
_cell_angle_gamma   89.99990000
_symmetry_Int_Tables_number   1
_chemical_formula_structural   BiH13C10Cl2O
_chemical_formula_sum   'Bi4 H52 C40 Cl8 O4'
_cell_volume   1189.16709333
_cell_formula_units_Z   4
loop_
 _symmetry_equiv_pos_site_id
 _symmetry_equiv_pos_as_xyz
  1  'x, y, z'
loop_
 _atom_site_type_symbol
 _atom_site_label
 _atom_site_symmetry_multiplicity
 _atom_site_fract_x
 _atom_site_fract_y
 _atom_site_fract_z
 _atom_site_occupancy
  Bi  Bi0  1  0.00017000  0.19566000  0.23423000  1.0
  Bi  Bi1  1  0.99983000  0.69566000  0.26577000  1.0
  Bi  Bi2  1  0.99984000  0.80434000  0.76576000  1.0
  Bi  Bi3  1  0.00016000  0.30434000  0.73424000  1.0
  H  H4  1  0.33818000  0.38742000  0.20186000  1.0
  H  H5  1  0.66182000  0.88742000  0.29814000  1.0
  H  H6  1  0.66182000  0.61258000  0.79814000  1.0
  H  H7  1  0.33818000  0.11259000  0.70186000  1.0
  H  H8  1  0.52407000  0.57444000  0.27416000  1.0
  H  H9  1  0.47593000  0.07444000  0.22584000  1.0
  H  H10  1  0.47594000  0.42556000  0.72584000  1.0
  H  H11  1  0.52406000  0.92556000  0.77416000  1.0
  H  H12  1  0.47705000  0.64929000  0.41414000  1.0
  H  H13  1  0.52295000  0.14929000  0.08586000  1.0
  H  H14  1  0.52295000  0.35070000  0.58586000  1.0
  H  H15  1  0.47705000  0.85070000  0.91414000  1.0
  H  H16  1  0.24332000  0.53202000  0.48392000  1.0
  H  H17  1  0.75668000  0.03202000  0.01608000  1.0
  H  H18  1  0.75668000  0.46798000  0.51608000  1.0
  H  H19  1  0.24332000  0.96797000  0.98392000  1.0
  H  H20  1  0.05744000  0.34962000  0.41233000  1.0
  H  H21  1  0.94255000  0.84962000  0.08767000  1.0
  H  H22  1  0.94255000  0.65037000  0.58767000  1.0
  H  H23  1  0.05745000  0.15037000  0.91233000  1.0
  H  H24  1  0.96446000  0.16529000  0.47727000  1.0
  H  H25  1  0.03554000  0.66529000  0.02273000  1.0
  H  H26  1  0.03554000  0.83471000  0.52273000  1.0
  H  H27  1  0.96446000  0.33471000  0.97727000  1.0
  H  H28  1  0.92198000  0.99478000  0.42198000  1.0
  H  H29  1  0.07802000  0.49478000  0.07802000  1.0
  H  H30  1  0.07802000  0.00522000  0.57801000  1.0
  H  H31  1  0.92198000  0.50522000  0.92199000  1.0
  H  H32  1  0.71119000  0.14842000  0.53513000  1.0
  H  H33  1  0.28881000  0.64842000  0.96487000  1.0
  H  H34  1  0.28881000  0.85158000  0.46487000  1.0
  H  H35  1  0.71119000  0.35158000  0.03513000  1.0
  H  H36  1  0.67093000  0.97453000  0.48628000  1.0
  H  H37  1  0.32907000  0.47453000  0.01372000  1.0
  H  H38  1  0.32907000  0.02547000  0.51372000  1.0
  H  H39  1  0.67093000  0.52547000  0.98628000  1.0
  H  H40  1  0.50958000  0.08705000  0.37671000  1.0
  H  H41  1  0.49042000  0.58705000  0.12329000  1.0
  H  H42  1  0.49042000  0.91294000  0.62329000  1.0
  H  H43  1  0.50959000  0.41294000  0.87671000  1.0
  H  H44  1  0.48384000  0.23578000  0.44521000  1.0
  H  H45  1  0.51616000  0.73578000  0.05478000  1.0
  H  H46  1  0.51616000  0.76422000  0.55478000  1.0
  H  H47  1  0.48384000  0.26422000  0.94522000  1.0
  H  H48  1  0.63420000  0.28661000  0.30393000  1.0
  H  H49  1  0.36580000  0.78661000  0.19607000  1.0
  H  H50  1  0.36580000  0.71339000  0.69606000  1.0
  H  H51  1  0.63420000  0.21339000  0.80393000  1.0
  H  H52  1  0.71024000  0.37980000  0.39393000  1.0
  H  H53  1  0.28976000  0.87980000  0.10607000  1.0
  H  H54  1  0.28976000  0.62020000  0.60607000  1.0
  H  H55  1  0.71024000  0.12020000  0.89393000  1.0
  C  C56  1  0.18580000  0.35421000  0.30214000  1.0
  C  C57  1  0.81420000  0.85421000  0.19786000  1.0
  C  C58  1  0.81421000  0.64579000  0.69786000  1.0
  C  C59  1  0.18579000  0.14579000  0.80214000  1.0
  C  C60  1  0.31726000  0.41921000  0.26373000  1.0
  C  C61  1  0.68274000  0.91921000  0.23627000  1.0
  C  C62  1  0.68275000  0.58079000  0.73627000  1.0
  C  C63  1  0.31726000  0.08080000  0.76373000  1.0
  C  C64  1  0.42057000  0.52584000  0.30397000  1.0
  C  C65  1  0.57942000  0.02584000  0.19603000  1.0
  C  C66  1  0.57943000  0.47416000  0.69603000  1.0
  C  C67  1  0.42057000  0.97417000  0.80397000  1.0
  C  C68  1  0.39467000  0.56732000  0.38317000  1.0
  C  C69  1  0.60533000  0.06732000  0.11683000  1.0
  C  C70  1  0.60533000  0.43268000  0.61683000  1.0
  C  C71  1  0.39467000  0.93268000  0.88317000  1.0
  C  C72  1  0.26478000  0.50202000  0.42197000  1.0
  C  C73  1  0.73522000  0.00202000  0.07802000  1.0
  C  C74  1  0.73522000  0.49798000  0.57803000  1.0
  C  C75  1  0.26478000  0.99798000  0.92198000  1.0
  C  C76  1  0.16021000  0.39656000  0.38159000  1.0
  C  C77  1  0.83979000  0.89656000  0.11841000  1.0
  C  C78  1  0.83979000  0.60344000  0.61841000  1.0
  C  C79  1  0.16021000  0.10344000  0.88159000  1.0
  C  C80  1  0.87126000  0.10393000  0.43820000  1.0
  C  C81  1  0.12874000  0.60393000  0.06180000  1.0
  C  C82  1  0.12874000  0.89607000  0.56180000  1.0
  C  C83  1  0.87126000  0.39607000  0.93820000  1.0
  C  C84  1  0.70385000  0.09223000  0.47626000  1.0
  C  C85  1  0.29615000  0.59223000  0.02374000  1.0
  C  C86  1  0.29616000  0.90776000  0.52374000  1.0
  C  C87  1  0.70385000  0.40776000  0.97626000  1.0
  C  C88  1  0.57703000  0.16976000  0.41572000  1.0
  C  C89  1  0.42297000  0.66977000  0.08428000  1.0
  C  C90  1  0.42297000  0.83023000  0.58428000  1.0
  C  C91  1  0.57703000  0.33023000  0.91572000  1.0
  C  C92  1  0.68441000  0.26892000  0.36623000  1.0
  C  C93  1  0.31559000  0.76892000  0.13377000  1.0
  C  C94  1  0.31559000  0.73108000  0.63377000  1.0
  C  C95  1  0.68441000  0.23108000  0.86623000  1.0
  Cl  Cl96  1  0.16685000  0.19618000  0.10722000  1.0
  Cl  Cl97  1  0.83315000  0.69618000  0.39278000  1.0
  Cl  Cl98  1  0.83317000  0.80383000  0.89277000  1.0
  Cl  Cl99  1  0.16683000  0.30383000  0.60723000  1.0
  Cl  Cl100  1  0.17759000  0.96289000  0.30614000  1.0
  Cl  Cl101  1  0.82241000  0.46290000  0.19386000  1.0
  Cl  Cl102  1  0.82241000  0.03712000  0.69386000  1.0
  Cl  Cl103  1  0.17759000  0.53711000  0.80614000  1.0
  O  O104  1  0.83923000  0.18687000  0.36297000  1.0
  O  O105  1  0.16076000  0.68687000  0.13703000  1.0
  O  O106  1  0.16076000  0.81313000  0.63703000  1.0
  O  O107  1  0.83924000  0.31313000  0.86297000  1.0
