# generated using pymatgen
data_CuH6C16(NO2)2
_symmetry_space_group_name_H-M   'P 1'
_cell_length_a   12.28970000
_cell_length_b   25.84480000
_cell_length_c   25.84460000
_cell_angle_alpha   117.54800000
_cell_angle_beta   99.11620000
_cell_angle_gamma   99.11460000
_symmetry_Int_Tables_number   1
_chemical_formula_structural   CuH6C16(NO2)2
_chemical_formula_sum   'Cu6 H36 C96 N12 O24'
_cell_volume   6930.02361747
_cell_formula_units_Z   6
loop_
 _symmetry_equiv_pos_site_id
 _symmetry_equiv_pos_as_xyz
  1  'x, y, z'
loop_
 _atom_site_type_symbol
 _atom_site_label
 _atom_site_symmetry_multiplicity
 _atom_site_fract_x
 _atom_site_fract_y
 _atom_site_fract_z
 _atom_site_occupancy
  Cu  Cu0  1  0.05057000  0.99999000  0.46241000  1.0
  Cu  Cu1  1  0.05062000  0.46239000  0.99997000  1.0
  Cu  Cu2  1  0.58823000  0.53760000  0.53758000  1.0
  Cu  Cu3  1  0.41185000  0.46242000  0.46241000  1.0
  Cu  Cu4  1  0.94942000  0.53758000  0.99998000  1.0
  Cu  Cu5  1  0.94937000  0.00000000  0.53760000  1.0
  H  H6  1  0.19164000  0.13193000  0.70500000  1.0
  H  H7  1  0.36379000  0.13618000  0.57407000  1.0
  H  H8  1  0.05970000  0.57301000  0.86808000  1.0
  H  H9  1  0.22767000  0.43784000  0.86376000  1.0
  H  H10  1  0.48672000  0.29507000  0.42700000  1.0
  H  H11  1  0.78985000  0.42594000  0.56216000  1.0
  H  H12  1  0.51335000  0.57302000  0.70495000  1.0
  H  H13  1  0.21024000  0.43786000  0.57406000  1.0
  H  H14  1  0.80835000  0.29502000  0.86806000  1.0
  H  H15  1  0.63618000  0.42593000  0.86379000  1.0
  H  H16  1  0.94027000  0.13189000  0.42697000  1.0
  H  H17  1  0.77230000  0.13621000  0.56215000  1.0
  H  H18  1  0.80833000  0.86807000  0.29502000  1.0
  H  H19  1  0.63613000  0.86380000  0.42593000  1.0
  H  H20  1  0.94032000  0.42695000  0.13189000  1.0
  H  H21  1  0.77237000  0.56212000  0.13618000  1.0
  H  H22  1  0.51330000  0.70494000  0.57299000  1.0
  H  H23  1  0.21018000  0.57406000  0.43784000  1.0
  H  H24  1  0.48672000  0.42702000  0.29506000  1.0
  H  H25  1  0.78984000  0.56217000  0.42592000  1.0
  H  H26  1  0.19164000  0.70496000  0.13190000  1.0
  H  H27  1  0.36385000  0.57405000  0.13618000  1.0
  H  H28  1  0.05970000  0.86810000  0.57303000  1.0
  H  H29  1  0.22767000  0.86379000  0.43786000  1.0
  H  H30  1  0.52753000  0.21853000  0.65756000  1.0
  H  H31  1  0.30903000  0.43901000  0.78141000  1.0
  H  H32  1  0.87002000  0.34241000  0.56098000  1.0
  H  H33  1  0.13004000  0.43904000  0.65758000  1.0
  H  H34  1  0.47243000  0.34243000  0.78145000  1.0
  H  H35  1  0.69099000  0.21857000  0.56099000  1.0
  H  H36  1  0.47241000  0.78144000  0.34242000  1.0
  H  H37  1  0.69102000  0.56097000  0.21854000  1.0
  H  H38  1  0.12999000  0.65759000  0.43903000  1.0
  H  H39  1  0.87002000  0.56098000  0.34239000  1.0
  H  H40  1  0.52756000  0.65756000  0.21854000  1.0
  H  H41  1  0.30901000  0.78144000  0.43902000  1.0
  C  C42  1  0.26797000  0.12955000  0.63462000  1.0
  C  C43  1  0.26504000  0.15109000  0.69477000  1.0
  C  C44  1  0.35653000  0.19740000  0.74162000  1.0
  C  C45  1  0.45178000  0.22227000  0.72826000  1.0
  C  C46  1  0.45361000  0.19963000  0.66779000  1.0
  C  C47  1  0.36271000  0.15372000  0.62121000  1.0
  C  C48  1  0.16906000  0.08118000  0.58462000  1.0
  C  C49  1  0.35367000  0.22023000  0.80326000  1.0
  C  C50  1  0.13846000  0.50502000  0.87043000  1.0
  C  C51  1  0.11393000  0.54361000  0.84890000  1.0
  C  C52  1  0.15912000  0.54420000  0.80261000  1.0
  C  C53  1  0.22953000  0.50597000  0.77772000  1.0
  C  C54  1  0.25399000  0.46814000  0.80033000  1.0
  C  C55  1  0.20902000  0.46744000  0.84624000  1.0
  C  C56  1  0.08796000  0.50341000  0.91881000  1.0
  C  C57  1  0.13351000  0.58305000  0.77985000  1.0
  C  C58  1  0.63344000  0.36543000  0.49501000  1.0
  C  C59  1  0.57034000  0.30529000  0.45641000  1.0
  C  C60  1  0.61492000  0.25841000  0.45583000  1.0
  C  C61  1  0.72354000  0.27175000  0.49404000  1.0
  C  C62  1  0.78586000  0.33220000  0.53186000  1.0
  C  C63  1  0.74159000  0.37881000  0.53257000  1.0
  C  C64  1  0.58462000  0.41544000  0.49662000  1.0
  C  C65  1  0.55043000  0.19680000  0.41697000  1.0
  C  C66  1  0.36664000  0.50501000  0.63459000  1.0
  C  C67  1  0.42974000  0.54361000  0.69473000  1.0
  C  C68  1  0.38513000  0.54419000  0.74160000  1.0
  C  C69  1  0.27650000  0.50597000  0.72825000  1.0
  C  C70  1  0.21420000  0.46815000  0.66779000  1.0
  C  C71  1  0.25848000  0.46745000  0.62119000  1.0
  C  C72  1  0.41548000  0.50341000  0.58458000  1.0
  C  C73  1  0.44958000  0.58304000  0.80322000  1.0
  C  C74  1  0.73200000  0.36539000  0.87043000  1.0
  C  C75  1  0.73494000  0.30524000  0.84889000  1.0
  C  C76  1  0.64345000  0.25838000  0.80259000  1.0
  C  C77  1  0.54819000  0.27175000  0.77773000  1.0
  C  C78  1  0.54635000  0.33221000  0.80036000  1.0
  C  C79  1  0.63726000  0.37880000  0.84626000  1.0
  C  C80  1  0.83090000  0.41539000  0.91879000  1.0
  C  C81  1  0.64632000  0.19676000  0.77978000  1.0
  C  C82  1  0.86152000  0.12953000  0.49497000  1.0
  C  C83  1  0.88604000  0.15107000  0.45638000  1.0
  C  C84  1  0.84088000  0.19737000  0.45580000  1.0
  C  C85  1  0.77049000  0.22227000  0.49403000  1.0
  C  C86  1  0.74601000  0.19965000  0.53186000  1.0
  C  C87  1  0.79096000  0.15373000  0.53255000  1.0
  C  C88  1  0.91202000  0.08115000  0.49657000  1.0
  C  C89  1  0.86650000  0.22013000  0.41695000  1.0
  C  C90  1  0.73197000  0.87044000  0.36539000  1.0
  C  C91  1  0.73492000  0.84891000  0.30525000  1.0
  C  C92  1  0.64344000  0.80259000  0.25839000  1.0
  C  C93  1  0.54818000  0.77772000  0.27174000  1.0
  C  C94  1  0.54634000  0.80036000  0.33220000  1.0
  C  C95  1  0.63722000  0.84627000  0.37880000  1.0
  C  C96  1  0.83086000  0.91881000  0.41540000  1.0
  C  C97  1  0.64632000  0.77978000  0.19676000  1.0
  C  C98  1  0.86158000  0.49494000  0.12953000  1.0
  C  C99  1  0.88610000  0.45635000  0.15107000  1.0
  C  C100  1  0.84090000  0.45579000  0.19737000  1.0
  C  C101  1  0.77051000  0.49402000  0.22225000  1.0
  C  C102  1  0.74605000  0.53185000  0.19963000  1.0
  C  C103  1  0.79102000  0.53253000  0.15372000  1.0
  C  C104  1  0.91208000  0.49654000  0.08114000  1.0
  C  C105  1  0.86650000  0.41693000  0.22014000  1.0
  C  C106  1  0.36659000  0.63458000  0.50498000  1.0
  C  C107  1  0.42968000  0.69472000  0.54358000  1.0
  C  C108  1  0.38509000  0.74159000  0.54416000  1.0
  C  C109  1  0.27647000  0.72826000  0.50596000  1.0
  C  C110  1  0.21415000  0.66780000  0.46814000  1.0
  C  C111  1  0.25843000  0.62119000  0.46743000  1.0
  C  C112  1  0.41543000  0.58458000  0.50337000  1.0
  C  C113  1  0.44957000  0.80321000  0.58303000  1.0
  C  C114  1  0.63343000  0.49502000  0.36541000  1.0
  C  C115  1  0.57034000  0.45642000  0.30528000  1.0
  C  C116  1  0.61492000  0.45583000  0.25839000  1.0
  C  C117  1  0.72354000  0.49404000  0.27173000  1.0
  C  C118  1  0.78586000  0.53186000  0.33219000  1.0
  C  C119  1  0.74159000  0.53258000  0.37879000  1.0
  C  C120  1  0.58461000  0.49663000  0.41542000  1.0
  C  C121  1  0.55043000  0.41697000  0.19678000  1.0
  C  C122  1  0.26801000  0.63459000  0.12953000  1.0
  C  C123  1  0.26506000  0.69473000  0.15107000  1.0
  C  C124  1  0.35653000  0.74160000  0.19739000  1.0
  C  C125  1  0.45179000  0.72824000  0.22226000  1.0
  C  C126  1  0.45363000  0.66778000  0.19963000  1.0
  C  C127  1  0.36275000  0.62119000  0.15371000  1.0
  C  C128  1  0.16912000  0.58459000  0.08117000  1.0
  C  C129  1  0.35365000  0.80322000  0.22020000  1.0
  C  C130  1  0.13845000  0.87046000  0.50504000  1.0
  C  C131  1  0.11393000  0.84892000  0.54363000  1.0
  C  C132  1  0.15911000  0.80262000  0.54420000  1.0
  C  C133  1  0.22950000  0.77773000  0.50597000  1.0
  C  C134  1  0.25398000  0.80036000  0.46815000  1.0
  C  C135  1  0.20901000  0.84627000  0.46746000  1.0
  C  C136  1  0.08794000  0.91884000  0.50343000  1.0
  C  C137  1  0.13350000  0.77986000  0.58305000  1.0
  N  N138  1  0.35204000  0.23984000  0.85383000  1.0
  N  N139  1  0.11229000  0.61402000  0.76024000  1.0
  N  N140  1  0.49822000  0.14622000  0.38598000  1.0
  N  N141  1  0.50176000  0.61403000  0.85380000  1.0
  N  N142  1  0.64799000  0.14619000  0.76018000  1.0
  N  N143  1  0.88772000  0.23974000  0.38598000  1.0
  N  N144  1  0.64800000  0.76019000  0.14619000  1.0
  N  N145  1  0.88769000  0.38598000  0.23976000  1.0
  N  N146  1  0.50178000  0.85378000  0.61402000  1.0
  N  N147  1  0.49822000  0.38598000  0.14620000  1.0
  N  N148  1  0.35198000  0.85379000  0.23980000  1.0
  N  N149  1  0.11228000  0.76026000  0.61402000  1.0
  O  O150  1  0.17784000  0.06281000  0.53066000  1.0
  O  O151  1  0.08403000  0.06278000  0.60018000  1.0
  O  O152  1  0.11512000  0.46784000  0.93719000  1.0
  O  O153  1  0.02134000  0.53739000  0.93723000  1.0
  O  O154  1  0.64739000  0.46938000  0.53215000  1.0
  O  O155  1  0.48401000  0.39988000  0.46265000  1.0
  O  O156  1  0.35270000  0.46786000  0.53063000  1.0
  O  O157  1  0.51607000  0.53736000  0.60013000  1.0
  O  O158  1  0.82213000  0.46935000  0.93716000  1.0
  O  O159  1  0.91594000  0.39983000  0.93720000  1.0
  O  O160  1  0.88486000  0.06278000  0.53215000  1.0
  O  O161  1  0.97864000  0.06273000  0.46259000  1.0
  O  O162  1  0.82208000  0.93718000  0.46935000  1.0
  O  O163  1  0.91591000  0.93721000  0.39984000  1.0
  O  O164  1  0.88493000  0.53212000  0.06276000  1.0
  O  O165  1  0.97871000  0.46257000  0.06272000  1.0
  O  O166  1  0.35266000  0.53062000  0.46782000  1.0
  O  O167  1  0.51603000  0.60013000  0.53733000  1.0
  O  O168  1  0.64739000  0.53217000  0.46937000  1.0
  O  O169  1  0.48401000  0.46266000  0.39987000  1.0
  O  O170  1  0.17790000  0.53063000  0.06279000  1.0
  O  O171  1  0.08408000  0.60014000  0.06276000  1.0
  O  O172  1  0.11509000  0.93721000  0.46785000  1.0
  O  O173  1  0.02131000  0.93725000  0.53740000  1.0
