# generated using pymatgen
data_GaH8C17O5F6
_symmetry_space_group_name_H-M   'P 1'
_cell_length_a   12.31220000
_cell_length_b   12.87120000
_cell_length_c   14.12060000
_cell_angle_alpha   117.07800000
_cell_angle_beta   105.67800000
_cell_angle_gamma   90.05720000
_symmetry_Int_Tables_number   1
_chemical_formula_structural   GaH8C17O5F6
_chemical_formula_sum   'Ga4 H32 C68 O20 F24'
_cell_volume   1898.14311360
_cell_formula_units_Z   4
loop_
 _symmetry_equiv_pos_site_id
 _symmetry_equiv_pos_as_xyz
  1  'x, y, z'
loop_
 _atom_site_type_symbol
 _atom_site_label
 _atom_site_symmetry_multiplicity
 _atom_site_fract_x
 _atom_site_fract_y
 _atom_site_fract_z
 _atom_site_occupancy
  Ga  Ga0  1  0.74995000  0.90000000  0.00011000  1.0
  Ga  Ga1  1  0.25004000  0.10000000  0.99988000  1.0
  Ga  Ga2  1  0.99998000  0.00000000  0.00000000  1.0
  Ga  Ga3  1  0.49997000  0.00001000  0.00001000  1.0
  H  H4  1  0.67130000  0.35473000  0.23269000  1.0
  H  H5  1  0.82884000  0.12174000  0.76701000  1.0
  H  H6  1  0.32869000  0.64527000  0.76733000  1.0
  H  H7  1  0.17115000  0.87824000  0.23298000  1.0
  H  H8  1  0.38031000  0.43493000  0.04188000  1.0
  H  H9  1  0.11972000  0.39322000  0.95813000  1.0
  H  H10  1  0.61971000  0.56507000  0.95810000  1.0
  H  H11  1  0.88027000  0.60677000  0.04188000  1.0
  H  H12  1  0.74716000  0.56749000  0.34690000  1.0
  H  H13  1  0.75294000  0.22050000  0.65303000  1.0
  H  H14  1  0.25285000  0.43251000  0.65312000  1.0
  H  H15  1  0.24704000  0.77949000  0.34696000  1.0
  H  H16  1  0.45935000  0.64632000  0.14798000  1.0
  H  H17  1  0.04067000  0.49861000  0.85218000  1.0
  H  H18  1  0.54069000  0.35369000  0.85200000  1.0
  H  H19  1  0.95931000  0.50140000  0.14784000  1.0
  H  H20  1  0.54508000  0.69225000  0.44080000  1.0
  H  H21  1  0.95497000  0.25196000  0.55935000  1.0
  H  H22  1  0.45492000  0.30778000  0.55920000  1.0
  H  H23  1  0.04503000  0.74803000  0.44066000  1.0
  H  H24  1  0.87138000  0.87338000  0.49995000  1.0
  H  H25  1  0.62867000  0.37337000  0.50019000  1.0
  H  H26  1  0.12863000  0.12662000  0.50005000  1.0
  H  H27  1  0.37134000  0.62663000  0.49981000  1.0
  H  H28  1  0.93277000  0.89798000  0.69191000  1.0
  H  H29  1  0.56717000  0.20602000  0.30831000  1.0
  H  H30  1  0.06724000  0.10201000  0.30809000  1.0
  H  H31  1  0.43284000  0.79400000  0.69170000  1.0
  H  H32  1  0.60584000  0.72676000  0.63671000  1.0
  H  H33  1  0.89409000  0.09049000  0.36355000  1.0
  H  H34  1  0.39416000  0.27325000  0.36329000  1.0
  H  H35  1  0.10591000  0.90950000  0.63646000  1.0
  C  C36  1  0.46691000  0.25621000  0.07472000  1.0
  C  C37  1  0.03323000  0.18142000  0.92511000  1.0
  C  C38  1  0.53307000  0.74380000  0.92529000  1.0
  C  C39  1  0.96676000  0.81855000  0.07486000  1.0
  C  C40  1  0.52027000  0.38235000  0.13160000  1.0
  C  C41  1  0.97987000  0.25064000  0.86821000  1.0
  C  C42  1  0.47972000  0.61766000  0.86840000  1.0
  C  C43  1  0.02012000  0.74933000  0.13179000  1.0
  C  C44  1  0.62523000  0.41960000  0.21568000  1.0
  C  C45  1  0.87493000  0.20373000  0.78411000  1.0
  C  C46  1  0.37476000  0.58041000  0.78433000  1.0
  C  C47  1  0.12506000  0.79626000  0.21589000  1.0
  C  C48  1  0.46187000  0.46480000  0.10748000  1.0
  C  C49  1  0.03822000  0.35736000  0.89246000  1.0
  C  C50  1  0.53815000  0.53521000  0.89252000  1.0
  C  C51  1  0.96176000  0.64262000  0.10755000  1.0
  C  C52  1  0.66746000  0.53912000  0.27907000  1.0
  C  C53  1  0.83267000  0.25995000  0.72083000  1.0
  C  C54  1  0.33254000  0.46089000  0.72095000  1.0
  C  C55  1  0.16732000  0.74005000  0.27917000  1.0
  C  C56  1  0.50641000  0.58418000  0.16868000  1.0
  C  C57  1  0.99366000  0.41562000  0.83134000  1.0
  C  C58  1  0.49362000  0.41583000  0.83133000  1.0
  C  C59  1  0.00632000  0.58438000  0.16867000  1.0
  C  C60  1  0.60784000  0.62295000  0.25745000  1.0
  C  C61  1  0.89224000  0.36557000  0.74255000  1.0
  C  C62  1  0.39217000  0.37704000  0.74255000  1.0
  C  C63  1  0.10775000  0.63443000  0.25746000  1.0
  C  C64  1  0.66017000  0.75363000  0.33283000  1.0
  C  C65  1  0.83984000  0.42099000  0.66729000  1.0
  C  C66  1  0.33984000  0.24635000  0.66717000  1.0
  C  C67  1  0.16016000  0.57899000  0.33270000  1.0
  C  C68  1  0.75682000  0.77410000  0.28844000  1.0
  C  C69  1  0.74313000  0.48544000  0.71179000  1.0
  C  C70  1  0.24318000  0.22590000  0.71157000  1.0
  C  C71  1  0.25687000  0.51458000  0.28820000  1.0
  C  C72  1  0.57302000  0.84089000  0.32816000  1.0
  C  C73  1  0.92686000  0.51329000  0.67213000  1.0
  C  C74  1  0.42698000  0.15909000  0.67182000  1.0
  C  C75  1  0.07316000  0.48670000  0.32787000  1.0
  C  C76  1  0.70417000  0.77857000  0.45523000  1.0
  C  C77  1  0.79592000  0.32369000  0.54490000  1.0
  C  C78  1  0.29582000  0.22143000  0.54476000  1.0
  C  C79  1  0.20409000  0.67632000  0.45511000  1.0
  C  C80  1  0.62985000  0.73837000  0.49566000  1.0
  C  C81  1  0.87021000  0.24318000  0.50448000  1.0
  C  C82  1  0.37016000  0.26164000  0.50433000  1.0
  C  C83  1  0.12979000  0.75682000  0.49553000  1.0
  C  C84  1  0.81280000  0.83836000  0.52735000  1.0
  C  C85  1  0.68726000  0.31111000  0.47279000  1.0
  C  C86  1  0.18721000  0.16163000  0.47263000  1.0
  C  C87  1  0.31276000  0.68889000  0.52723000  1.0
  C  C88  1  0.84779000  0.85355000  0.63583000  1.0
  C  C89  1  0.65220000  0.21781000  0.36435000  1.0
  C  C90  1  0.15222000  0.14644000  0.36416000  1.0
  C  C91  1  0.34781000  0.78220000  0.63567000  1.0
  C  C92  1  0.66353000  0.75643000  0.60468000  1.0
  C  C93  1  0.83646000  0.15216000  0.39549000  1.0
  C  C94  1  0.33648000  0.24357000  0.39531000  1.0
  C  C95  1  0.16354000  0.84784000  0.60452000  1.0
  C  C96  1  0.77345000  0.81278000  0.67519000  1.0
  C  C97  1  0.72650000  0.13780000  0.32497000  1.0
  C  C98  1  0.22656000  0.18720000  0.32480000  1.0
  C  C99  1  0.27350000  0.86221000  0.67504000  1.0
  C  C100  1  0.81024000  0.83354000  0.79275000  1.0
  C  C101  1  0.68967000  0.04095000  0.20744000  1.0
  C  C102  1  0.18975000  0.16647000  0.20724000  1.0
  C  C103  1  0.31034000  0.95905000  0.79257000  1.0
  O  O104  1  0.35919000  0.23709000  0.03319000  1.0
  O  O105  1  0.14095000  0.20386000  0.96657000  1.0
  O  O106  1  0.64080000  0.76292000  0.96678000  1.0
  O  O107  1  0.85902000  0.79614000  0.03343000  1.0
  O  O108  1  0.53345000  0.18083000  0.07594000  1.0
  O  O109  1  0.96663000  0.10483000  0.92401000  1.0
  O  O110  1  0.46654000  0.81918000  0.92409000  1.0
  O  O111  1  0.03337000  0.89513000  0.07594000  1.0
  O  O112  1  0.73400000  0.81864000  0.83259000  1.0
  O  O113  1  0.76592000  0.98631000  0.16767000  1.0
  O  O114  1  0.26597000  0.18141000  0.16740000  1.0
  O  O115  1  0.23411000  0.01369000  0.83234000  1.0
  O  O116  1  0.91672000  0.86380000  0.84502000  1.0
  O  O117  1  0.58319000  0.01880000  0.15514000  1.0
  O  O118  1  0.08326000  0.13619000  0.15497000  1.0
  O  O119  1  0.41682000  0.98120000  0.84486000  1.0
  O  O120  1  0.86616000  0.02201000  0.03828000  1.0
  O  O121  1  0.63403000  0.98399000  0.96199000  1.0
  O  O122  1  0.13387000  0.97799000  0.96170000  1.0
  O  O123  1  0.36600000  0.01606000  0.03806000  1.0
  F  F124  1  0.71894000  0.73561000  0.17700000  1.0
  F  F125  1  0.78107000  0.55826000  0.82327000  1.0
  F  F126  1  0.28106000  0.26439000  0.82300000  1.0
  F  F127  1  0.21893000  0.44177000  0.17674000  1.0
  F  F128  1  0.84411000  0.71365000  0.30716000  1.0
  F  F129  1  0.65600000  0.40600000  0.69306000  1.0
  F  F130  1  0.15589000  0.28636000  0.69284000  1.0
  F  F131  1  0.34400000  0.59401000  0.30694000  1.0
  F  F132  1  0.80314000  0.88959000  0.33801000  1.0
  F  F133  1  0.69666000  0.55138000  0.66232000  1.0
  F  F134  1  0.19685000  0.11040000  0.66198000  1.0
  F  F135  1  0.30335000  0.44861000  0.33765000  1.0
  F  F136  1  0.54030000  0.84176000  0.22864000  1.0
  F  F137  1  0.95951000  0.61352000  0.77173000  1.0
  F  F138  1  0.45970000  0.15822000  0.77134000  1.0
  F  F139  1  0.04051000  0.38649000  0.22829000  1.0
  F  F140  1  0.47632000  0.81318000  0.34654000  1.0
  F  F141  1  0.02362000  0.46754000  0.65373000  1.0
  F  F142  1  0.52368000  0.18681000  0.65344000  1.0
  F  F143  1  0.97639000  0.53244000  0.34629000  1.0
  F  F144  1  0.61775000  0.95344000  0.40845000  1.0
  F  F145  1  0.88215000  0.54574000  0.59199000  1.0
  F  F146  1  0.38224000  0.04656000  0.59154000  1.0
  F  F147  1  0.11787000  0.45426000  0.40802000  1.0
