# generated using pymatgen
data_ZnH11C8S2N5
_symmetry_space_group_name_H-M   'P 1'
_cell_length_a   7.45842000
_cell_length_b   8.21623000
_cell_length_c   11.75150000
_cell_angle_alpha   98.97570000
_cell_angle_beta   107.66900000
_cell_angle_gamma   108.81800000
_symmetry_Int_Tables_number   1
_chemical_formula_structural   ZnH11C8S2N5
_chemical_formula_sum   'Zn2 H22 C16 S4 N10'
_cell_volume   623.21276088
_cell_formula_units_Z   2
loop_
 _symmetry_equiv_pos_site_id
 _symmetry_equiv_pos_as_xyz
  1  'x, y, z'
loop_
 _atom_site_type_symbol
 _atom_site_label
 _atom_site_symmetry_multiplicity
 _atom_site_fract_x
 _atom_site_fract_y
 _atom_site_fract_z
 _atom_site_occupancy
  Zn  Zn0  1  0.63965000  0.17004000  0.73575000  1.0
  Zn  Zn1  1  0.36035000  0.82996000  0.26425000  1.0
  H  H2  1  0.49423000  0.73065000  0.68430000  1.0
  H  H3  1  0.50577000  0.26935000  0.31570000  1.0
  H  H4  1  0.14608000  0.77220000  0.90530000  1.0
  H  H5  1  0.85392000  0.22780000  0.09470000  1.0
  H  H6  1  0.35015000  0.10969000  0.88669000  1.0
  H  H7  1  0.64985000  0.89031000  0.11331000  1.0
  H  H8  1  0.20980000  0.48145000  0.85907000  1.0
  H  H9  1  0.79020000  0.51855000  0.14093000  1.0
  H  H10  1  0.35729000  0.46579000  0.76792000  1.0
  H  H11  1  0.64271000  0.53421000  0.23208000  1.0
  H  H12  1  0.06688000  0.42828000  0.57588000  1.0
  H  H13  1  0.93312000  0.57172000  0.42412000  1.0
  H  H14  1  0.91160000  0.43513000  0.66294000  1.0
  H  H15  1  0.08840000  0.56487000  0.33706000  1.0
  H  H16  1  0.84854000  0.12613000  0.54326000  1.0
  H  H17  1  0.15146000  0.87387000  0.45674000  1.0
  H  H18  1  0.09950000  0.15529000  0.63557000  1.0
  H  H19  1  0.90050000  0.84471000  0.36443000  1.0
  H  H20  1  0.86024000  0.99322000  0.71001000  1.0
  H  H21  1  0.13976000  0.00678000  0.28999000  1.0
  H  H22  1  0.00168000  0.18555000  0.81718000  1.0
  H  H23  1  0.99832000  0.81446000  0.18282000  1.0
  C  C24  1  0.42524000  0.79009000  0.73901000  1.0
  C  C25  1  0.57476000  0.20991000  0.26099000  1.0
  C  C26  1  0.24625000  0.81480000  0.85584000  1.0
  C  C27  1  0.75375000  0.18520000  0.14416000  1.0
  C  C28  1  0.34615000  0.98051000  0.84498000  1.0
  C  C29  1  0.65385000  0.01949000  0.15502000  1.0
  C  C30  1  0.23119000  0.50383000  0.77354000  1.0
  C  C31  1  0.76882000  0.49617000  0.22646000  1.0
  C  C32  1  0.03724000  0.39599000  0.65749000  1.0
  C  C33  1  0.96276000  0.60401000  0.34251000  1.0
  C  C34  1  0.97139000  0.19453000  0.63541000  1.0
  C  C35  1  0.02861000  0.80547000  0.36459000  1.0
  C  C36  1  0.37701000  0.25171000  0.50834000  1.0
  C  C37  1  0.62299000  0.74829000  0.49166000  1.0
  C  C38  1  0.76537000  0.54293000  0.91100000  1.0
  C  C39  1  0.23463000  0.45706000  0.08900000  1.0
  S  S40  1  0.22624000  0.30293000  0.40278000  1.0
  S  S41  1  0.77375000  0.69707000  0.59722000  1.0
  S  S42  1  0.81805000  0.75258000  0.96671000  1.0
  S  S43  1  0.18194000  0.24742000  0.03328000  1.0
  N  N44  1  0.45758000  0.96344000  0.77208000  1.0
  N  N45  1  0.54241000  0.03656000  0.22792000  1.0
  N  N46  1  0.29845000  0.69662000  0.78862000  1.0
  N  N47  1  0.70155000  0.30338000  0.21138000  1.0
  N  N48  1  0.89098000  0.12878000  0.72822000  1.0
  N  N49  1  0.10902000  0.87122000  0.27178000  1.0
  N  N50  1  0.48633000  0.20863000  0.58301000  1.0
  N  N51  1  0.51367000  0.79137000  0.41699000  1.0
  N  N52  1  0.72576000  0.38848000  0.86972000  1.0
  N  N53  1  0.27424000  0.61152000  0.13029000  1.0
