# generated using pymatgen
data_Ho2H14C18S3O16
_symmetry_space_group_name_H-M   'P 1'
_cell_length_a   5.74056000
_cell_length_b   12.85990000
_cell_length_c   15.94250000
_cell_angle_alpha   80.59890000
_cell_angle_beta   79.67490000
_cell_angle_gamma   77.10920000
_symmetry_Int_Tables_number   1
_chemical_formula_structural   Ho2H14C18S3O16
_chemical_formula_sum   'Ho4 H28 C36 S6 O32'
_cell_volume   1119.30701168
_cell_formula_units_Z   2
loop_
 _symmetry_equiv_pos_site_id
 _symmetry_equiv_pos_as_xyz
  1  'x, y, z'
loop_
 _atom_site_type_symbol
 _atom_site_label
 _atom_site_symmetry_multiplicity
 _atom_site_fract_x
 _atom_site_fract_y
 _atom_site_fract_z
 _atom_site_occupancy
  Ho  Ho0  1  0.97567000  0.84762000  0.88743000  1.0
  Ho  Ho1  1  0.71026000  0.65246000  0.61264000  1.0
  Ho  Ho2  1  0.02433000  0.15238000  0.11257000  1.0
  Ho  Ho3  1  0.28974000  0.34754000  0.38736000  1.0
  H  H4  1  0.05584000  0.68065000  0.08776000  1.0
  H  H5  1  0.82313000  0.81973000  0.41218000  1.0
  H  H6  1  0.94417000  0.31935000  0.91224000  1.0
  H  H7  1  0.17687000  0.18027000  0.58782000  1.0
  H  H8  1  0.13074000  0.49373000  0.18918000  1.0
  H  H9  1  0.81316000  0.00650000  0.31070000  1.0
  H  H10  1  0.86928000  0.50627000  0.81083000  1.0
  H  H11  1  0.18684000  0.99350000  0.68929000  1.0
  H  H12  1  0.24166000  0.15240000  0.79507000  1.0
  H  H13  1  0.18868000  0.34804000  0.70499000  1.0
  H  H14  1  0.75834000  0.84760000  0.20493000  1.0
  H  H15  1  0.81131000  0.65196000  0.29501000  1.0
  H  H16  1  0.43959000  0.91101000  0.81659000  1.0
  H  H17  1  0.16684000  0.58893000  0.68354000  1.0
  H  H18  1  0.56041000  0.08899000  0.18341000  1.0
  H  H19  1  0.83316000  0.41106000  0.31645000  1.0
  H  H20  1  0.42098000  0.81605000  0.76566000  1.0
  H  H21  1  0.00258000  0.68371000  0.73462000  1.0
  H  H22  1  0.57901000  0.18396000  0.23434000  1.0
  H  H23  1  0.99743000  0.31628000  0.26538000  1.0
  H  H24  1  0.94542000  0.91632000  0.06070000  1.0
  H  H25  1  0.92202000  0.58381000  0.43947000  1.0
  H  H26  1  0.05457000  0.08368000  0.93931000  1.0
  H  H27  1  0.07797000  0.41619000  0.56053000  1.0
  H  H28  1  0.67385000  0.95370000  0.04909000  1.0
  H  H29  1  0.67672000  0.54611000  0.45084000  1.0
  H  H30  1  0.32614000  0.04630000  0.95090000  1.0
  H  H31  1  0.32326000  0.45389000  0.54916000  1.0
  C  C32  1  0.47012000  0.74783000  0.98134000  1.0
  C  C33  1  0.19856000  0.75231000  0.51878000  1.0
  C  C34  1  0.52988000  0.25217000  0.01866000  1.0
  C  C35  1  0.80145000  0.24769000  0.48122000  1.0
  C  C36  1  0.44310000  0.65146000  0.04340000  1.0
  C  C37  1  0.13731000  0.84862000  0.45663000  1.0
  C  C38  1  0.55690000  0.34854000  0.95660000  1.0
  C  C39  1  0.86269000  0.15138000  0.54337000  1.0
  C  C40  1  0.23099000  0.62766000  0.09200000  1.0
  C  C41  1  0.94983000  0.87257000  0.40799000  1.0
  C  C42  1  0.76903000  0.37234000  0.90801000  1.0
  C  C43  1  0.05016000  0.12743000  0.59201000  1.0
  C  C44  1  0.26972000  0.52912000  0.14578000  1.0
  C  C45  1  0.94411000  0.97105000  0.35417000  1.0
  C  C46  1  0.73029000  0.47088000  0.85423000  1.0
  C  C47  1  0.05588000  0.02895000  0.64583000  1.0
  C  C48  1  0.51166000  0.47849000  0.13666000  1.0
  C  C49  1  0.12673000  0.02149000  0.36328000  1.0
  C  C50  1  0.48835000  0.52151000  0.86334000  1.0
  C  C51  1  0.87327000  0.97851000  0.63672000  1.0
  C  C52  1  0.62082000  0.37178000  0.17769000  1.0
  C  C53  1  0.17052000  0.12816000  0.32226000  1.0
  C  C54  1  0.37918000  0.62822000  0.82232000  1.0
  C  C55  1  0.82947000  0.87184000  0.67774000  1.0
  C  C56  1  0.72109000  0.05853000  0.83982000  1.0
  C  C57  1  0.61953000  0.44159000  0.65998000  1.0
  C  C58  1  0.27891000  0.94147000  0.16018000  1.0
  C  C59  1  0.38046000  0.55841000  0.34002000  1.0
  C  C60  1  0.61763000  0.16085000  0.79258000  1.0
  C  C61  1  0.57104000  0.33931000  0.70715000  1.0
  C  C62  1  0.38237000  0.83915000  0.20742000  1.0
  C  C63  1  0.42895000  0.66069000  0.29285000  1.0
  C  C64  1  0.38307000  0.19888000  0.77413000  1.0
  C  C65  1  0.35586000  0.30147000  0.72581000  1.0
  C  C66  1  0.61693000  0.80112000  0.22587000  1.0
  C  C67  1  0.64413000  0.69853000  0.27419000  1.0
  S  S68  1  0.68896000  0.55118000  0.06174000  1.0
  S  S69  1  0.30167000  0.94870000  0.43828000  1.0
  S  S70  1  0.31105000  0.44883000  0.93826000  1.0
  S  S71  1  0.69833000  0.05130000  0.56172000  1.0
  S  S72  1  0.80073000  0.25001000  0.74980000  1.0
  S  S73  1  0.19926000  0.74999000  0.25020000  1.0
  O  O74  1  0.32914000  0.88106000  0.79073000  1.0
  O  O75  1  0.00071000  0.61872000  0.70948000  1.0
  O  O76  1  0.67085000  0.11894000  0.20927000  1.0
  O  O77  1  0.99929000  0.38127000  0.29052000  1.0
  O  O78  1  0.68181000  0.75433000  0.94256000  1.0
  O  O79  1  0.37807000  0.74583000  0.55759000  1.0
  O  O80  1  0.31819000  0.24567000  0.05744000  1.0
  O  O81  1  0.62194000  0.25417000  0.44240000  1.0
  O  O82  1  0.82763000  0.91073000  0.02449000  1.0
  O  O83  1  0.76246000  0.58923000  0.47554000  1.0
  O  O84  1  0.17235000  0.08928000  0.97551000  1.0
  O  O85  1  0.23752000  0.41077000  0.52446000  1.0
  O  O86  1  0.27934000  0.81867000  0.97001000  1.0
  O  O87  1  0.06717000  0.68153000  0.53016000  1.0
  O  O88  1  0.72065000  0.18132000  0.02998000  1.0
  O  O89  1  0.93284000  0.31846000  0.46984000  1.0
  O  O90  1  0.81501000  0.32238000  0.13717000  1.0
  O  O91  1  0.27483000  0.17752000  0.36286000  1.0
  O  O92  1  0.18499000  0.67761000  0.86283000  1.0
  O  O93  1  0.72517000  0.82248000  0.63714000  1.0
  O  O94  1  0.51792000  0.33318000  0.25066000  1.0
  O  O95  1  0.10213000  0.16677000  0.24922000  1.0
  O  O96  1  0.48208000  0.66682000  0.74934000  1.0
  O  O97  1  0.89788000  0.83323000  0.75078000  1.0
  O  O98  1  0.59406000  0.98614000  0.86848000  1.0
  O  O99  1  0.44869000  0.51411000  0.63144000  1.0
  O  O100  1  0.40594000  0.01385000  0.13152000  1.0
  O  O101  1  0.55131000  0.48589000  0.36855000  1.0
  O  O102  1  0.94392000  0.03987000  0.85046000  1.0
  O  O103  1  0.83437000  0.46013000  0.64933000  1.0
  O  O104  1  0.05608000  0.96013000  0.14954000  1.0
  O  O105  1  0.16563000  0.53987000  0.35067000  1.0
