# generated using pymatgen
data_DyH6C4O6F
_symmetry_space_group_name_H-M   'P 1'
_cell_length_a   6.71236000
_cell_length_b   6.71238000
_cell_length_c   8.83859000
_cell_angle_alpha   108.69300000
_cell_angle_beta   108.69400000
_cell_angle_gamma   93.95920000
_symmetry_Int_Tables_number   1
_chemical_formula_structural   DyH6C4O6F
_chemical_formula_sum   'Dy2 H12 C8 O12 F2'
_cell_volume   350.71438372
_cell_formula_units_Z   2
loop_
 _symmetry_equiv_pos_site_id
 _symmetry_equiv_pos_as_xyz
  1  'x, y, z'
loop_
 _atom_site_type_symbol
 _atom_site_label
 _atom_site_symmetry_multiplicity
 _atom_site_fract_x
 _atom_site_fract_y
 _atom_site_fract_z
 _atom_site_occupancy
  Dy  Dy0  1  0.09742000  0.09743000  0.73561000  1.0
  Dy  Dy1  1  0.90258000  0.90258000  0.26439000  1.0
  H  H2  1  0.23270000  0.55265000  0.55275000  1.0
  H  H3  1  0.44735000  0.76730000  0.44725000  1.0
  H  H4  1  0.76731000  0.44736000  0.44726000  1.0
  H  H5  1  0.55265000  0.23270000  0.55275000  1.0
  H  H6  1  0.44301000  0.66055000  0.75835000  1.0
  H  H7  1  0.33945000  0.55698000  0.24165000  1.0
  H  H8  1  0.55699000  0.33945000  0.24165000  1.0
  H  H9  1  0.66055000  0.44302000  0.75834000  1.0
  H  H10  1  0.09333000  0.24902000  0.08655000  1.0
  H  H11  1  0.75099000  0.90667000  0.91344000  1.0
  H  H12  1  0.90667000  0.75097000  0.91346000  1.0
  H  H13  1  0.24902000  0.09333000  0.08655000  1.0
  C  C14  1  0.13348000  0.59386000  0.76805000  1.0
  C  C15  1  0.40614000  0.86651000  0.23194000  1.0
  C  C16  1  0.86652000  0.40615000  0.23195000  1.0
  C  C17  1  0.59385000  0.13349000  0.76806000  1.0
  C  C18  1  0.29399000  0.54155000  0.68040000  1.0
  C  C19  1  0.45845000  0.70600000  0.31960000  1.0
  C  C20  1  0.70601000  0.45845000  0.31960000  1.0
  C  C21  1  0.54155000  0.29400000  0.68040000  1.0
  O  O22  1  0.07286000  0.46196000  0.82693000  1.0
  O  O23  1  0.53805000  0.92712000  0.17305000  1.0
  O  O24  1  0.92714000  0.53806000  0.17307000  1.0
  O  O25  1  0.46195000  0.07288000  0.82694000  1.0
  O  O26  1  0.06664000  0.76918000  0.78026000  1.0
  O  O27  1  0.23082000  0.93335000  0.21974000  1.0
  O  O28  1  0.93336000  0.23083000  0.21974000  1.0
  O  O29  1  0.76917000  0.06664000  0.78026000  1.0
  O  O30  1  0.33041000  0.33041000  0.66912000  1.0
  O  O31  1  0.66959000  0.66959000  0.33088000  1.0
  O  O32  1  0.20492000  0.20492000  0.03832000  1.0
  O  O33  1  0.79508000  0.79508000  0.96168000  1.0
  F  F34  1  0.12955000  0.87045000  0.50000000  1.0
  F  F35  1  0.87044000  0.12956000  0.50000000  1.0
