# generated using pymatgen
data_Zn4C20O13F8
_symmetry_space_group_name_H-M   'P 1'
_cell_length_a   17.25029185
_cell_length_b   17.25050000
_cell_length_c   17.25070000
_cell_angle_alpha   65.19600000
_cell_angle_beta   80.73620537
_cell_angle_gamma   114.80292070
_symmetry_Int_Tables_number   1
_chemical_formula_structural   Zn4C20O13F8
_chemical_formula_sum   'Zn8 C40 O26 F16'
_cell_volume   3860.13967089
_cell_formula_units_Z   2
loop_
 _symmetry_equiv_pos_site_id
 _symmetry_equiv_pos_as_xyz
  1  'x, y, z'
loop_
 _atom_site_type_symbol
 _atom_site_label
 _atom_site_symmetry_multiplicity
 _atom_site_fract_x
 _atom_site_fract_y
 _atom_site_fract_z
 _atom_site_occupancy
  Zn  Zn0  1  0.29070000  0.58890000  0.29820000  1.0
  Zn  Zn1  1  0.70930000  0.41110000  0.70180000  1.0
  Zn  Zn2  1  0.70180000  0.58890000  0.70929000  1.0
  Zn  Zn3  1  0.29820000  0.41110000  0.29070000  1.0
  Zn  Zn4  1  0.11289000  0.41109000  0.29820000  1.0
  Zn  Zn5  1  0.88710000  0.58890000  0.70181000  1.0
  Zn  Zn6  1  0.70180000  0.41110000  0.88711000  1.0
  Zn  Zn7  1  0.29820000  0.58890000  0.11289000  1.0
  C  C8  1  0.02714000  0.50000000  0.47286000  1.0
  C  C9  1  0.59189000  0.50000000  0.90811000  1.0
  C  C10  1  0.90811000  0.50000000  0.59189000  1.0
  C  C11  1  0.09189000  0.50000000  0.40811000  1.0
  C  C12  1  0.40811000  0.50000000  0.09189000  1.0
  C  C13  1  0.38849000  0.77698000  0.11151000  1.0
  C  C14  1  0.61151000  0.22302000  0.88849000  1.0
  C  C15  1  0.61151000  0.50000000  0.61150000  1.0
  C  C16  1  0.97286000  0.50000000  0.52714000  1.0
  C  C17  1  0.38849000  0.50000000  0.38849000  1.0
  C  C18  1  0.11151000  0.22302000  0.38849000  1.0
  C  C19  1  0.88849000  0.77698000  0.61151000  1.0
  C  C20  1  0.88849000  0.50000000  0.88849000  1.0
  C  C21  1  0.11151000  0.50000000  0.11151000  1.0
  C  C22  1  0.52715000  0.50001000  0.97285000  1.0
  C  C23  1  0.44049000  0.53367000  0.50643000  1.0
  C  C24  1  0.55952000  0.46634000  0.49356000  1.0
  C  C25  1  0.90682000  0.94692000  0.55951000  1.0
  C  C26  1  0.09318000  0.05308000  0.44049000  1.0
  C  C27  1  0.95990000  0.46634000  0.09318000  1.0
  C  C28  1  0.04010000  0.53366000  0.90682000  1.0
  C  C29  1  0.49357000  0.05308000  0.04010000  1.0
  C  C30  1  0.47286000  0.50000000  0.02714000  1.0
  C  C31  1  0.50644000  0.94692000  0.95989000  1.0
  C  C32  1  0.04010000  0.94692000  0.49357000  1.0
  C  C33  1  0.95989000  0.05307000  0.50644000  1.0
  C  C34  1  0.50643000  0.46633000  0.44049000  1.0
  C  C35  1  0.49357000  0.53367000  0.55951000  1.0
  C  C36  1  0.55952000  0.05308000  0.90681000  1.0
  C  C37  1  0.44049000  0.94692000  0.09318000  1.0
  C  C38  1  0.09318000  0.53366000  0.95990000  1.0
  C  C39  1  0.90682000  0.46635000  0.04010000  1.0
  C  C40  1  0.55443000  0.50000000  0.55442000  1.0
  C  C41  1  0.44558000  0.50001000  0.44557000  1.0
  C  C42  1  0.05442000  0.10884000  0.44558000  1.0
  C  C43  1  0.94558000  0.89115000  0.55442000  1.0
  C  C44  1  0.94558000  0.50000000  0.94557000  1.0
  C  C45  1  0.05442000  0.50000000  0.05443000  1.0
  C  C46  1  0.44558000  0.89115000  0.05442000  1.0
  C  C47  1  0.55443000  0.10885000  0.94557000  1.0
  O  O48  1  0.25000000  0.50000000  0.25000000  1.0
  O  O49  1  0.61671000  0.43829000  0.94500000  1.0
  O  O50  1  0.82158000  0.43829000  0.61671000  1.0
  O  O51  1  0.17842000  0.56171000  0.38329000  1.0
  O  O52  1  0.38329000  0.43829000  0.17842000  1.0
  O  O53  1  0.61671000  0.56171000  0.82158000  1.0
  O  O54  1  0.94500000  0.56171000  0.61671000  1.0
  O  O55  1  0.05500000  0.43829000  0.38329000  1.0
  O  O56  1  0.38329000  0.56171000  0.05500000  1.0
  O  O57  1  0.75000000  0.50000000  0.75000000  1.0
  O  O58  1  0.36190000  0.73398000  0.06805000  1.0
  O  O59  1  0.63810000  0.26602000  0.93196000  1.0
  O  O60  1  0.62792000  0.42994000  0.63810000  1.0
  O  O61  1  0.37208000  0.57006000  0.36190000  1.0
  O  O62  1  0.19798000  0.26603000  0.37207000  1.0
  O  O63  1  0.80202000  0.73398000  0.62793000  1.0
  O  O64  1  0.93196000  0.57005000  0.80202000  1.0
  O  O65  1  0.06804000  0.42995000  0.19798000  1.0
  O  O66  1  0.80202000  0.42995000  0.93196000  1.0
  O  O67  1  0.19798000  0.57006000  0.06804000  1.0
  O  O68  1  0.06804000  0.26602000  0.36190000  1.0
  O  O69  1  0.93196000  0.73398000  0.63810000  1.0
  O  O70  1  0.63810000  0.57005000  0.62792000  1.0
  O  O71  1  0.36190000  0.42995000  0.37208000  1.0
  O  O72  1  0.37208000  0.73398000  0.19798000  1.0
  O  O73  1  0.62793000  0.26603000  0.80202000  1.0
  F  F74  1  0.38180000  0.56418000  0.51792000  1.0
  F  F75  1  0.91790000  0.10028000  0.51792000  1.0
  F  F76  1  0.51792000  0.43582000  0.38180000  1.0
  F  F77  1  0.48208000  0.56418000  0.61820000  1.0
  F  F78  1  0.61820000  0.10028000  0.81762000  1.0
  F  F79  1  0.38180000  0.89972000  0.18238000  1.0
  F  F80  1  0.18238000  0.56417000  0.91790000  1.0
  F  F81  1  0.81762000  0.43583000  0.08210000  1.0
  F  F82  1  0.61820000  0.43582000  0.48208000  1.0
  F  F83  1  0.81762000  0.89972000  0.61820000  1.0
  F  F84  1  0.18238000  0.10028000  0.38180000  1.0
  F  F85  1  0.91791000  0.43584000  0.18237000  1.0
  F  F86  1  0.08209000  0.56416000  0.81763000  1.0
  F  F87  1  0.48208000  0.10028000  0.08210000  1.0
  F  F88  1  0.51793000  0.89973000  0.91789000  1.0
  F  F89  1  0.08210000  0.89972000  0.48209000  1.0
