# generated using pymatgen
data_NiH10C12(NO2)2
_symmetry_space_group_name_H-M   'P 1'
_cell_length_a   8.65217000
_cell_length_b   8.90391000
_cell_length_c   8.90394000
_cell_angle_alpha   73.99050000
_cell_angle_beta   89.01400000
_cell_angle_gamma   89.01400000
_symmetry_Int_Tables_number   1
_chemical_formula_structural   NiH10C12(NO2)2
_chemical_formula_sum   'Ni2 H20 C24 N4 O8'
_cell_volume   659.18632230
_cell_formula_units_Z   2
loop_
 _symmetry_equiv_pos_site_id
 _symmetry_equiv_pos_as_xyz
  1  'x, y, z'
loop_
 _atom_site_type_symbol
 _atom_site_label
 _atom_site_symmetry_multiplicity
 _atom_site_fract_x
 _atom_site_fract_y
 _atom_site_fract_z
 _atom_site_occupancy
  Ni  Ni0  1  0.25000000  0.85063000  0.14936000  1.0
  Ni  Ni1  1  0.75000000  0.14936000  0.85064000  1.0
  H  H2  1  0.99104000  0.67648000  0.33582000  1.0
  H  H3  1  0.50896000  0.66418000  0.32352000  1.0
  H  H4  1  0.00896000  0.32353000  0.66418000  1.0
  H  H5  1  0.49104000  0.33582000  0.67648000  1.0
  H  H6  1  0.86630000  0.41544000  0.37757000  1.0
  H  H7  1  0.63370000  0.62243000  0.58456000  1.0
  H  H8  1  0.13370000  0.58456000  0.62243000  1.0
  H  H9  1  0.36630000  0.37757000  0.41544000  1.0
  H  H10  1  0.98084000  0.22621000  0.24038000  1.0
  H  H11  1  0.51916000  0.75961000  0.77379000  1.0
  H  H12  1  0.01916000  0.77379000  0.75962000  1.0
  H  H13  1  0.48084000  0.24039000  0.22621000  1.0
  H  H14  1  0.21721000  0.30494000  0.07170000  1.0
  H  H15  1  0.28279000  0.92830000  0.69506000  1.0
  H  H16  1  0.78279000  0.69506000  0.92830000  1.0
  H  H17  1  0.71720000  0.07170000  0.30494000  1.0
  H  H18  1  0.32425000  0.57356000  0.03962000  1.0
  H  H19  1  0.17575000  0.96038000  0.42643000  1.0
  H  H20  1  0.67575000  0.42644000  0.96038000  1.0
  H  H21  1  0.82425000  0.03962000  0.57356000  1.0
  C  C22  1  0.03656000  0.59005000  0.27999000  1.0
  C  C23  1  0.46344000  0.72001000  0.40994000  1.0
  C  C24  1  0.96344000  0.40995000  0.72001000  1.0
  C  C25  1  0.53656000  0.27999000  0.59005000  1.0
  C  C26  1  0.96823000  0.44507000  0.30215000  1.0
  C  C27  1  0.53177000  0.69785000  0.55493000  1.0
  C  C28  1  0.03177000  0.55494000  0.69785000  1.0
  C  C29  1  0.46823000  0.30215000  0.44507000  1.0
  C  C30  1  0.03210000  0.34016000  0.22655000  1.0
  C  C31  1  0.46790000  0.77345000  0.65983000  1.0
  C  C32  1  0.96789000  0.65984000  0.77346000  1.0
  C  C33  1  0.53210000  0.22655000  0.34017000  1.0
  C  C34  1  0.16214000  0.38460000  0.13056000  1.0
  C  C35  1  0.33786000  0.86944000  0.61539000  1.0
  C  C36  1  0.83786000  0.61540000  0.86944000  1.0
  C  C37  1  0.66214000  0.13056000  0.38461000  1.0
  C  C38  1  0.22310000  0.53221000  0.11329000  1.0
  C  C39  1  0.27690000  0.88671000  0.46778000  1.0
  C  C40  1  0.77690000  0.46778000  0.88671000  1.0
  C  C41  1  0.72310000  0.11328000  0.53222000  1.0
  C  C42  1  0.03288000  0.99124000  0.92127000  1.0
  C  C43  1  0.46713000  0.07874000  0.00876000  1.0
  C  C44  1  0.96712000  0.00877000  0.07874000  1.0
  C  C45  1  0.53288000  0.92126000  0.99124000  1.0
  N  N46  1  0.16190000  0.63328000  0.18705000  1.0
  N  N47  1  0.33811000  0.81295000  0.36671000  1.0
  N  N48  1  0.83810000  0.36672000  0.81295000  1.0
  N  N49  1  0.66190000  0.18705000  0.63329000  1.0
  O  O50  1  0.15748000  0.91406000  0.92510000  1.0
  O  O51  1  0.34252000  0.07490000  0.08594000  1.0
  O  O52  1  0.84251000  0.08595000  0.07490000  1.0
  O  O53  1  0.65749000  0.92510000  0.91406000  1.0
  O  O54  1  0.95739000  0.05432000  0.79830000  1.0
  O  O55  1  0.54261000  0.20170000  0.94568000  1.0
  O  O56  1  0.04261000  0.94568000  0.20170000  1.0
  O  O57  1  0.45739000  0.79830000  0.05432000  1.0
