# generated using pymatgen
data_Zn2H15C35Br3N5O14
_symmetry_space_group_name_H-M   'P 1'
_cell_length_a   13.19800000
_cell_length_b   14.13340000
_cell_length_c   28.56860000
_cell_angle_alpha   90.02180000
_cell_angle_beta   89.79990000
_cell_angle_gamma   89.86360000
_symmetry_Int_Tables_number   1
_chemical_formula_structural   Zn2H15C35Br3N5O14
_chemical_formula_sum   'Zn4 H30 C70 Br6 N10 O28'
_cell_volume   5328.92761167
_cell_formula_units_Z   2
loop_
 _symmetry_equiv_pos_site_id
 _symmetry_equiv_pos_as_xyz
  1  'x, y, z'
loop_
 _atom_site_type_symbol
 _atom_site_label
 _atom_site_symmetry_multiplicity
 _atom_site_fract_x
 _atom_site_fract_y
 _atom_site_fract_z
 _atom_site_occupancy
  Zn  Zn0  1  0.51119000  0.39855000  0.49356000  1.0
  Zn  Zn1  1  0.48726000  0.60209000  0.50285000  1.0
  Zn  Zn2  1  0.51118000  0.60210000  0.04111000  1.0
  Zn  Zn3  1  0.48850000  0.39863000  0.03183000  1.0
  H  H4  1  0.62161000  0.05691000  0.44319000  1.0
  H  H5  1  0.37722000  0.94431000  0.55268000  1.0
  H  H6  1  0.59652000  0.74333000  0.45576000  1.0
  H  H7  1  0.61507000  0.91656000  0.44812000  1.0
  H  H8  1  0.40614000  0.25742000  0.54221000  1.0
  H  H9  1  0.38813000  0.08438000  0.54989000  1.0
  H  H10  1  0.50488000  0.61857000  0.18881000  1.0
  H  H11  1  0.49339000  0.31611000  0.17946000  1.0
  H  H12  1  0.50459000  0.38103000  0.34570000  1.0
  H  H13  1  0.49346000  0.68353000  0.35507000  1.0
  H  H14  1  0.50351000  0.34221000  0.74006000  1.0
  H  H15  1  0.50457000  0.65760000  0.79468000  1.0
  H  H16  1  0.49713000  0.37116000  0.89301000  1.0
  H  H17  1  0.49625000  0.35302000  0.80769000  1.0
  H  H18  1  0.49672000  0.62871000  0.64175000  1.0
  H  H19  1  0.49671000  0.64687000  0.72707000  1.0
  H  H20  1  0.83015000  0.38041000  0.50044000  1.0
  H  H21  1  0.80755000  0.68273000  0.49912000  1.0
  H  H22  1  0.16823000  0.61945000  0.50134000  1.0
  H  H23  1  0.19106000  0.31730000  0.49585000  1.0
  H  H24  1  0.62139000  0.94322000  0.09119000  1.0
  H  H25  1  0.37789000  0.05715000  0.98215000  1.0
  H  H26  1  0.59814000  0.25672000  0.07813000  1.0
  H  H27  1  0.61621000  0.08340000  0.08575000  1.0
  H  H28  1  0.40698000  0.74363000  0.99239000  1.0
  H  H29  1  0.38929000  0.91679000  0.98460000  1.0
  H  H30  1  0.83007000  0.62091000  0.03446000  1.0
  H  H31  1  0.80947000  0.31857000  0.03628000  1.0
  H  H32  1  0.16974000  0.38232000  0.03428000  1.0
  H  H33  1  0.19054000  0.68449000  0.03996000  1.0
  C  C34  1  0.50023000  0.47891000  0.58884000  1.0
  C  C35  1  0.30327000  0.47876000  0.49742000  1.0
  C  C36  1  0.49796000  0.52288000  0.40764000  1.0
  C  C37  1  0.69530000  0.52193000  0.49870000  1.0
  C  C38  1  0.50132000  0.52090000  0.94589000  1.0
  C  C39  1  0.30382000  0.52320000  0.03790000  1.0
  C  C40  1  0.49817000  0.47675000  0.12693000  1.0
  C  C41  1  0.69612000  0.47929000  0.03589000  1.0
  C  C42  1  0.57543000  0.19546000  0.46427000  1.0
  C  C43  1  0.57149000  0.09688000  0.46611000  1.0
  C  C44  1  0.42438000  0.80569000  0.53219000  1.0
  C  C45  1  0.42841000  0.90424000  0.53031000  1.0
  C  C46  1  0.54995000  0.79154000  0.47643000  1.0
  C  C47  1  0.55931000  0.88874000  0.47256000  1.0
  C  C48  1  0.45157000  0.20940000  0.52093000  1.0
  C  C49  1  0.44275000  0.11219000  0.52490000  1.0
  C  C50  1  0.50376000  0.05284000  0.49699000  1.0
  C  C51  1  0.49724000  0.94822000  0.49991000  1.0
  C  C52  1  0.50302000  0.55052000  0.20642000  1.0
  C  C53  1  0.49752000  0.37967000  0.20086000  1.0
  C  C54  1  0.50209000  0.37296000  0.24881000  1.0
  C  C55  1  0.50473000  0.45415000  0.27863000  1.0
  C  C56  1  0.50283000  0.44909000  0.32809000  1.0
  C  C57  1  0.49757000  0.61994000  0.33367000  1.0
  C  C58  1  0.50219000  0.62662000  0.28570000  1.0
  C  C59  1  0.50481000  0.54543000  0.25588000  1.0
  C  C60  1  0.49930000  0.46941000  0.17942000  1.0
  C  C61  1  0.49919000  0.53021000  0.35512000  1.0
  C  C62  1  0.50006000  0.47781000  0.64155000  1.0
  C  C63  1  0.50110000  0.52203000  0.89319000  1.0
  C  C64  1  0.50162000  0.39786000  0.67084000  1.0
  C  C65  1  0.50187000  0.40691000  0.71950000  1.0
  C  C66  1  0.50289000  0.60200000  0.86391000  1.0
  C  C67  1  0.50276000  0.59294000  0.81527000  1.0
  C  C68  1  0.49877000  0.43344000  0.87064000  1.0
  C  C69  1  0.49841000  0.42396000  0.82243000  1.0
  C  C70  1  0.49830000  0.56642000  0.66411000  1.0
  C  C71  1  0.49834000  0.57590000  0.71232000  1.0
  C  C72  1  0.50028000  0.49581000  0.74153000  1.0
  C  C73  1  0.50053000  0.50407000  0.79324000  1.0
  C  C74  1  0.86794000  0.44859000  0.50041000  1.0
  C  C75  1  0.85459000  0.61944000  0.49979000  1.0
  C  C76  1  0.95838000  0.62660000  0.50133000  1.0
  C  C77  1  0.02354000  0.54565000  0.50178000  1.0
  C  C78  1  0.13051000  0.55127000  0.50054000  1.0
  C  C79  1  0.14405000  0.38052000  0.49779000  1.0
  C  C80  1  0.04023000  0.37323000  0.49995000  1.0
  C  C81  1  0.97498000  0.45410000  0.50142000  1.0
  C  C82  1  0.80890000  0.52952000  0.49961000  1.0
  C  C83  1  0.18968000  0.47050000  0.49848000  1.0
  C  C84  1  0.57524000  0.80487000  0.07027000  1.0
  C  C85  1  0.57157000  0.90347000  0.06829000  1.0
  C  C86  1  0.42565000  0.19545000  0.00238000  1.0
  C  C87  1  0.42936000  0.09686000  0.00428000  1.0
  C  C88  1  0.55138000  0.20880000  0.05766000  1.0
  C  C89  1  0.56040000  0.11155000  0.06153000  1.0
  C  C90  1  0.45220000  0.79145000  0.01363000  1.0
  C  C91  1  0.44356000  0.88871000  0.00958000  1.0
  C  C92  1  0.50433000  0.94778000  0.03740000  1.0
  C  C93  1  0.49811000  0.05244000  0.03444000  1.0
  C  C94  1  0.86832000  0.55279000  0.03470000  1.0
  C  C95  1  0.85609000  0.38191000  0.03556000  1.0
  C  C96  1  0.95999000  0.37492000  0.03438000  1.0
  C  C97  1  0.02458000  0.45596000  0.03389000  1.0
  C  C98  1  0.13157000  0.45046000  0.03513000  1.0
  C  C99  1  0.14396000  0.62123000  0.03795000  1.0
  C  C100  1  0.04014000  0.62840000  0.03573000  1.0
  C  C101  1  0.97542000  0.54747000  0.03407000  1.0
  C  C102  1  0.80979000  0.47178000  0.03533000  1.0
  C  C103  1  0.19019000  0.53130000  0.03714000  1.0
  Br  Br104  1  0.66693000  0.25229000  0.42204000  1.0
  Br  Br105  1  0.33129000  0.74883000  0.57377000  1.0
  Br  Br106  1  0.50345000  0.27022000  0.64866000  1.0
  Br  Br107  1  0.50584000  0.72962000  0.88611000  1.0
  Br  Br108  1  0.66576000  0.74775000  0.11270000  1.0
  Br  Br109  1  0.33255000  0.25288000  0.96114000  1.0
  N  N110  1  0.51696000  0.25136000  0.49091000  1.0
  N  N111  1  0.48331000  0.74962000  0.50588000  1.0
  N  N112  1  0.51709000  0.74923000  0.04367000  1.0
  N  N113  1  0.48475000  0.25113000  0.02846000  1.0
  N  N114  1  0.50491000  0.72369000  0.26651000  1.0
  N  N115  1  0.50472000  0.27586000  0.26800000  1.0
  N  N116  1  0.99934000  0.27595000  0.50097000  1.0
  N  N117  1  0.99914000  0.72380000  0.50269000  1.0
  N  N118  1  0.99875000  0.72570000  0.03484000  1.0
  N  N119  1  0.00137000  0.27774000  0.03353000  1.0
  O  O120  1  0.50515000  0.40152000  0.56647000  1.0
  O  O121  1  0.49552000  0.56117000  0.57045000  1.0
  O  O122  1  0.33895000  0.56220000  0.49782000  1.0
  O  O123  1  0.35335000  0.40188000  0.49633000  1.0
  O  O124  1  0.49441000  0.60035000  0.43022000  1.0
  O  O125  1  0.50109000  0.44000000  0.42479000  1.0
  O  O126  1  0.65909000  0.43876000  0.49688000  1.0
  O  O127  1  0.64571000  0.59906000  0.49984000  1.0
  O  O128  1  0.50347000  0.59834000  0.96828000  1.0
  O  O129  1  0.49927000  0.43852000  0.96425000  1.0
  O  O130  1  0.34012000  0.43987000  0.03656000  1.0
  O  O131  1  0.35334000  0.60011000  0.03964000  1.0
  O  O132  1  0.49351000  0.39932000  0.10438000  1.0
  O  O133  1  0.50240000  0.55956000  0.10976000  1.0
  O  O134  1  0.65938000  0.56248000  0.03674000  1.0
  O  O135  1  0.64700000  0.40209000  0.03553000  1.0
  O  O136  1  0.55828000  0.73860000  0.23139000  1.0
  O  O137  1  0.45530000  0.78502000  0.28757000  1.0
  O  O138  1  0.55774000  0.26075000  0.30306000  1.0
  O  O139  1  0.45538000  0.21469000  0.24699000  1.0
  O  O140  1  0.92278000  0.26060000  0.52515000  1.0
  O  O141  1  0.04604000  0.21493000  0.47827000  1.0
  O  O142  1  0.07499000  0.73911000  0.52716000  1.0
  O  O143  1  0.95317000  0.78492000  0.47993000  1.0
  O  O144  1  0.92240000  0.74118000  0.01072000  1.0
  O  O145  1  0.04484000  0.78661000  0.05758000  1.0
  O  O146  1  0.07795000  0.26200000  0.00933000  1.0
  O  O147  1  0.95516000  0.21704000  0.05647000  1.0
