# generated using pymatgen
data_AlH15C21N2O7F5
_symmetry_space_group_name_H-M   'P 1'
_cell_length_a   6.65252000
_cell_length_b   23.64300000
_cell_length_c   25.56730000
_cell_angle_alpha   79.00500000
_cell_angle_beta   89.48640000
_cell_angle_gamma   89.84740000
_symmetry_Int_Tables_number   1
_chemical_formula_structural   AlH15C21N2O7F5
_chemical_formula_sum   'Al4 H60 C84 N8 O28 F20'
_cell_volume   3947.38899807
_cell_formula_units_Z   4
loop_
 _symmetry_equiv_pos_site_id
 _symmetry_equiv_pos_as_xyz
  1  'x, y, z'
loop_
 _atom_site_type_symbol
 _atom_site_label
 _atom_site_symmetry_multiplicity
 _atom_site_fract_x
 _atom_site_fract_y
 _atom_site_fract_z
 _atom_site_occupancy
  Al  Al0  1  0.22393000  0.25130000  0.74992000  1.0
  Al  Al1  1  0.77528000  0.74989000  0.25069000  1.0
  Al  Al2  1  0.72389000  0.25010000  0.75071000  1.0
  Al  Al3  1  0.27519000  0.75103000  0.24961000  1.0
  H  H4  1  0.79965000  0.42517000  0.39308000  1.0
  H  H5  1  0.59641000  0.46451000  0.41563000  1.0
  H  H6  1  0.61660000  0.33271000  0.43259000  1.0
  H  H7  1  0.41203000  0.37421000  0.44880000  1.0
  H  H8  1  0.37653000  0.41907000  0.34999000  1.0
  H  H9  1  0.34498000  0.34319000  0.36225000  1.0
  H  H10  1  0.57504000  0.37407000  0.33513000  1.0
  H  H11  1  0.40701000  0.53518000  0.58378000  1.0
  H  H12  1  0.20182000  0.57362000  0.60656000  1.0
  H  H13  1  0.58784000  0.62643000  0.55137000  1.0
  H  H14  1  0.38174000  0.66682000  0.56847000  1.0
  H  H15  1  0.42599000  0.62342000  0.66574000  1.0
  H  H16  1  0.65332000  0.65627000  0.63857000  1.0
  H  H17  1  0.62769000  0.58026000  0.64943000  1.0
  H  H18  1  0.29557000  0.07423000  0.10692000  1.0
  H  H19  1  0.09138000  0.03562000  0.08494000  1.0
  H  H20  1  0.11576000  0.16729000  0.06928000  1.0
  H  H21  1  0.91103000  0.12693000  0.05241000  1.0
  H  H22  1  0.86619000  0.08080000  0.15039000  1.0
  H  H23  1  0.84112000  0.15686000  0.13973000  1.0
  H  H24  1  0.06702000  0.12365000  0.16663000  1.0
  H  H25  1  0.90920000  0.96453000  0.91489000  1.0
  H  H26  1  0.70484000  0.92598000  0.89291000  1.0
  H  H27  1  0.08906000  0.87316000  0.94750000  1.0
  H  H28  1  0.88416000  0.83286000  0.93065000  1.0
  H  H29  1  0.93338000  0.87634000  0.83326000  1.0
  H  H30  1  0.15894000  0.84302000  0.86029000  1.0
  H  H31  1  0.13449000  0.91910000  0.84950000  1.0
  H  H32  1  0.43099000  0.45905000  0.09861000  1.0
  H  H33  1  0.20180000  0.46678000  0.13387000  1.0
  H  H34  1  0.62347000  0.49757000  0.16718000  1.0
  H  H35  1  0.40085000  0.50254000  0.20434000  1.0
  H  H36  1  0.35254000  0.39447000  0.21633000  1.0
  H  H37  1  0.58838000  0.41127000  0.24112000  1.0
  H  H38  1  0.57513000  0.38950000  0.17847000  1.0
  H  H39  1  0.65233000  0.50155000  0.82202000  1.0
  H  H40  1  0.79728000  0.53686000  0.86502000  1.0
  H  H41  1  0.33817000  0.52257000  0.86883000  1.0
  H  H42  1  0.47716000  0.55500000  0.91306000  1.0
  H  H43  1  0.59628000  0.63267000  0.83665000  1.0
  H  H44  1  0.33026000  0.63012000  0.84097000  1.0
  H  H45  1  0.45722000  0.60011000  0.79125000  1.0
  H  H46  1  0.69379000  0.03903000  0.36115000  1.0
  H  H47  1  0.84027000  0.00314000  0.31818000  1.0
  H  H48  1  0.01125000  0.05571000  0.40940000  1.0
  H  H49  1  0.15207000  0.02270000  0.36528000  1.0
  H  H50  1  0.04315000  0.10112000  0.28772000  1.0
  H  H51  1  0.16743000  0.13009000  0.33788000  1.0
  H  H52  1  0.90200000  0.13429000  0.33301000  1.0
  H  H53  1  0.15945000  0.99664000  0.68245000  1.0
  H  H54  1  0.30629000  0.96116000  0.63924000  1.0
  H  H55  1  0.84789000  0.97716000  0.63516000  1.0
  H  H56  1  0.98917000  0.94446000  0.59091000  1.0
  H  H57  1  0.09874000  0.86565000  0.66704000  1.0
  H  H58  1  0.83330000  0.86973000  0.66216000  1.0
  H  H59  1  0.95716000  0.89850000  0.71250000  1.0
  H  H60  1  0.47554000  0.32373000  0.75550000  1.0
  H  H61  1  0.52468000  0.67874000  0.24140000  1.0
  H  H62  1  0.97714000  0.17715000  0.74661000  1.0
  H  H63  1  0.02202000  0.82311000  0.25667000  1.0
  C  C64  1  0.47511000  0.18905000  0.68502000  1.0
  C  C65  1  0.51993000  0.81147000  0.31597000  1.0
  C  C66  1  0.97159000  0.31170000  0.81625000  1.0
  C  C67  1  0.03109000  0.68929000  0.18455000  1.0
  C  C68  1  0.47134000  0.17474000  0.82837000  1.0
  C  C69  1  0.53186000  0.82644000  0.17220000  1.0
  C  C70  1  0.97288000  0.32615000  0.67198000  1.0
  C  C71  1  0.02260000  0.67449000  0.32804000  1.0
  C  C72  1  0.08166000  0.48266000  0.45633000  1.0
  C  C73  1  0.92098000  0.51718000  0.54310000  1.0
  C  C74  1  0.57964000  0.01789000  0.04279000  1.0
  C  C75  1  0.42078000  0.98240000  0.95705000  1.0
  C  C76  1  0.87845000  0.45793000  0.48498000  1.0
  C  C77  1  0.12419000  0.54189000  0.51448000  1.0
  C  C78  1  0.37619000  0.04208000  0.01487000  1.0
  C  C79  1  0.62424000  0.95819000  0.98498000  1.0
  C  C80  1  0.97351000  0.36927000  0.62383000  1.0
  C  C81  1  0.02564000  0.63095000  0.37591000  1.0
  C  C82  1  0.46922000  0.13096000  0.87605000  1.0
  C  C83  1  0.53153000  0.86986000  0.12425000  1.0
  C  C84  1  0.18903000  0.47763000  0.51125000  1.0
  C  C85  1  0.81361000  0.52218000  0.48822000  1.0
  C  C86  1  0.68758000  0.02263000  0.98748000  1.0
  C  C87  1  0.31289000  0.97765000  0.01236000  1.0
  C  C88  1  0.98848000  0.45351000  0.54071000  1.0
  C  C89  1  0.01417000  0.54630000  0.45872000  1.0
  C  C90  1  0.48658000  0.04628000  0.95871000  1.0
  C  C91  1  0.51389000  0.95399000  0.04113000  1.0
  C  C92  1  0.97690000  0.40734000  0.58447000  1.0
  C  C93  1  0.02462000  0.59261000  0.41506000  1.0
  C  C94  1  0.47375000  0.09246000  0.91505000  1.0
  C  C95  1  0.52677000  0.90801000  0.08497000  1.0
  C  C96  1  0.86147000  0.64947000  0.11122000  1.0
  C  C97  1  0.12330000  0.34427000  0.89601000  1.0
  C  C98  1  0.36251000  0.84684000  0.39445000  1.0
  C  C99  1  0.63544000  0.15363000  0.60703000  1.0
  C  C100  1  0.85384000  0.61105000  0.07620000  1.0
  C  C101  1  0.12206000  0.37909000  0.93427000  1.0
  C  C102  1  0.36058000  0.88315000  0.43147000  1.0
  C  C103  1  0.63848000  0.11745000  0.56990000  1.0
  C  C104  1  0.01222000  0.57320000  0.07256000  1.0
  C  C105  1  0.96830000  0.41880000  0.93619000  1.0
  C  C106  1  0.51454000  0.92274000  0.43249000  1.0
  C  C107  1  0.48484000  0.07779000  0.56864000  1.0
  C  C108  1  0.18509000  0.57481000  0.10367000  1.0
  C  C109  1  0.81063000  0.42339000  0.89942000  1.0
  C  C110  1  0.67534000  0.92571000  0.39607000  1.0
  C  C111  1  0.32323000  0.07466000  0.60487000  1.0
  C  C112  1  0.18824000  0.61324000  0.13916000  1.0
  C  C113  1  0.81479000  0.38812000  0.86117000  1.0
  C  C114  1  0.67395000  0.88919000  0.35891000  1.0
  C  C115  1  0.32334000  0.11122000  0.64198000  1.0
  C  C116  1  0.02828000  0.65079000  0.14430000  1.0
  C  C117  1  0.96937000  0.34826000  0.85816000  1.0
  C  C118  1  0.51939000  0.84931000  0.35682000  1.0
  C  C119  1  0.47748000  0.15108000  0.64427000  1.0
  C  C120  1  0.97739000  0.45909000  0.97391000  1.0
  C  C121  1  0.99909000  0.53181000  0.03607000  1.0
  C  C122  1  0.49319000  0.03705000  0.53132000  1.0
  C  C123  1  0.50703000  0.96366000  0.46967000  1.0
  C  C124  1  0.67720000  0.42299000  0.42280000  1.0
  C  C125  1  0.53546000  0.37362000  0.42002000  1.0
  C  C126  1  0.45347000  0.37777000  0.36373000  1.0
  C  C127  1  0.32481000  0.57645000  0.57693000  1.0
  C  C128  1  0.46455000  0.62608000  0.58036000  1.0
  C  C129  1  0.54738000  0.62118000  0.63667000  1.0
  C  C130  1  0.17328000  0.07690000  0.07766000  1.0
  C  C131  1  0.03286000  0.12658000  0.08126000  1.0
  C  C132  1  0.94713000  0.12165000  0.13766000  1.0
  C  C133  1  0.82711000  0.92327000  0.92216000  1.0
  C  C134  1  0.96730000  0.87352000  0.91863000  1.0
  C  C135  1  0.05318000  0.87831000  0.86226000  1.0
  C  C136  1  0.35650000  0.48317000  0.12609000  1.0
  C  C137  1  0.47520000  0.47777000  0.17736000  1.0
  C  C138  1  0.49902000  0.41477000  0.20475000  1.0
  C  C139  1  0.65642000  0.51314000  0.86177000  1.0
  C  C140  1  0.47397000  0.54812000  0.87172000  1.0
  C  C141  1  0.46430000  0.60582000  0.83292000  1.0
  C  C142  1  0.83421000  0.01481000  0.35792000  1.0
  C  C143  1  0.01719000  0.04895000  0.36803000  1.0
  C  C144  1  0.03283000  0.10667000  0.32943000  1.0
  C  C145  1  0.16560000  0.98522000  0.64261000  1.0
  C  C146  1  0.98298000  0.95102000  0.63234000  1.0
  C  C147  1  0.96769000  0.89315000  0.67073000  1.0
  N  N148  1  0.12939000  0.53850000  0.99462000  1.0
  N  N149  1  0.84637000  0.45249000  0.01513000  1.0
  N  N150  1  0.63866000  0.95646000  0.51016000  1.0
  N  N151  1  0.36216000  0.04440000  0.49068000  1.0
  N  N152  1  0.11799000  0.50073000  0.96266000  1.0
  N  N153  1  0.85822000  0.49013000  0.04740000  1.0
  N  N154  1  0.63091000  0.99457000  0.54199000  1.0
  N  N155  1  0.36988000  0.00628000  0.45885000  1.0
  O  O156  1  0.64426000  0.19192000  0.81052000  1.0
  O  O157  1  0.36019000  0.81219000  0.19289000  1.0
  O  O158  1  0.14429000  0.31087000  0.69154000  1.0
  O  O159  1  0.84997000  0.69280000  0.31171000  1.0
  O  O160  1  0.30462000  0.20567000  0.69857000  1.0
  O  O161  1  0.68995000  0.79812000  0.29914000  1.0
  O  O162  1  0.80254000  0.29740000  0.80044000  1.0
  O  O163  1  0.20046000  0.70749000  0.19635000  1.0
  O  O164  1  0.30163000  0.19101000  0.80826000  1.0
  O  O165  1  0.70255000  0.80757000  0.18965000  1.0
  O  O166  1  0.80168000  0.30851000  0.69078000  1.0
  O  O167  1  0.19205000  0.68944000  0.30629000  1.0
  O  O168  1  0.14289000  0.29885000  0.79970000  1.0
  O  O169  1  0.86211000  0.69940000  0.20433000  1.0
  O  O170  1  0.64426000  0.20058000  0.70292000  1.0
  O  O171  1  0.34988000  0.79667000  0.30110000  1.0
  O  O172  1  0.47435000  0.28511000  0.74792000  1.0
  O  O173  1  0.52480000  0.71591000  0.25214000  1.0
  O  O174  1  0.97494000  0.21632000  0.75281000  1.0
  O  O175  1  0.02431000  0.78498000  0.24795000  1.0
  O  O176  1  0.76481000  0.41336000  0.47575000  1.0
  O  O177  1  0.23794000  0.58637000  0.52387000  1.0
  O  O178  1  0.26125000  0.08658000  0.02434000  1.0
  O  O179  1  0.73908000  0.91367000  0.97547000  1.0
  O  O180  1  0.34952000  0.54240000  0.09708000  1.0
  O  O181  1  0.65658000  0.46085000  0.90254000  1.0
  O  O182  1  0.83069000  0.96258000  0.39870000  1.0
  O  O183  1  0.16850000  0.03764000  0.60204000  1.0
  F  F184  1  0.16396000  0.46789000  0.41181000  1.0
  F  F185  1  0.83850000  0.53189000  0.58761000  1.0
  F  F186  1  0.66101000  0.03320000  0.08678000  1.0
  F  F187  1  0.33938000  0.96706000  0.91307000  1.0
  F  F188  1  0.63194000  0.54735000  0.47601000  1.0
  F  F189  1  0.37082000  0.45252000  0.52348000  1.0
  F  F190  1  0.13129000  0.95252000  0.02538000  1.0
  F  F191  1  0.86914000  0.04777000  0.97443000  1.0
  F  F192  1  0.70647000  0.68619000  0.11102000  1.0
  F  F193  1  0.27398000  0.30590000  0.89750000  1.0
  F  F194  1  0.21175000  0.80852000  0.39700000  1.0
  F  F195  1  0.78564000  0.19205000  0.60501000  1.0
  F  F196  1  0.69413000  0.61264000  0.04366000  1.0
  F  F197  1  0.27199000  0.37354000  0.97032000  1.0
  F  F198  1  0.20815000  0.87885000  0.46740000  1.0
  F  F199  1  0.79149000  0.12190000  0.53414000  1.0
  F  F200  1  0.35193000  0.61190000  0.17036000  1.0
  F  F201  1  0.66393000  0.39509000  0.82525000  1.0
  F  F202  1  0.82805000  0.89494000  0.32331000  1.0
  F  F203  1  0.16890000  0.10559000  0.67751000  1.0
