# generated using pymatgen
data_GdH10C9N3O8
_symmetry_space_group_name_H-M   'P 1'
_cell_length_a   8.24431000
_cell_length_b   8.31669000
_cell_length_c   10.39150000
_cell_angle_alpha   73.37410000
_cell_angle_beta   70.94940000
_cell_angle_gamma   73.14160000
_symmetry_Int_Tables_number   1
_chemical_formula_structural   GdH10C9N3O8
_chemical_formula_sum   'Gd2 H20 C18 N6 O16'
_cell_volume   629.92933230
_cell_formula_units_Z   2
loop_
 _symmetry_equiv_pos_site_id
 _symmetry_equiv_pos_as_xyz
  1  'x, y, z'
loop_
 _atom_site_type_symbol
 _atom_site_label
 _atom_site_symmetry_multiplicity
 _atom_site_fract_x
 _atom_site_fract_y
 _atom_site_fract_z
 _atom_site_occupancy
  Gd  Gd0  1  0.25075000  0.47620000  0.51463000  1.0
  Gd  Gd1  1  0.74925000  0.52380000  0.48537000  1.0
  H  H2  1  0.32840000  0.15797000  0.11060000  1.0
  H  H3  1  0.67161000  0.84204000  0.88940000  1.0
  H  H4  1  0.40764000  0.02487000  0.25586000  1.0
  H  H5  1  0.59236000  0.97512000  0.74415000  1.0
  H  H6  1  0.03941000  0.24295000  0.25504000  1.0
  H  H7  1  0.96059000  0.75706000  0.74496000  1.0
  H  H8  1  0.06441000  0.05232000  0.38483000  1.0
  H  H9  1  0.93558000  0.94768000  0.61517000  1.0
  H  H10  1  0.15377000  0.88135000  0.85656000  1.0
  H  H11  1  0.84621000  0.11864000  0.14344000  1.0
  H  H12  1  0.08472000  0.68474000  0.94599000  1.0
  H  H13  1  0.91529000  0.31525000  0.05401000  1.0
  H  H14  1  0.46370000  0.71994000  0.78013000  1.0
  H  H15  1  0.53630000  0.28007000  0.21986000  1.0
  H  H16  1  0.41001000  0.53359000  0.90349000  1.0
  H  H17  1  0.59000000  0.46641000  0.09651000  1.0
  H  H18  1  0.32946000  0.11162000  0.63565000  1.0
  H  H19  1  0.67052000  0.88838000  0.36435000  1.0
  H  H20  1  0.26320000  0.15515000  0.78636000  1.0
  H  H21  1  0.73679000  0.84485000  0.21364000  1.0
  C  C22  1  0.29578000  0.06812000  0.21027000  1.0
  C  C23  1  0.70422000  0.93188000  0.78973000  1.0
  C  C24  1  0.13249000  0.15134000  0.31030000  1.0
  C  C25  1  0.86751000  0.84867000  0.68970000  1.0
  C  C26  1  0.17079000  0.24582000  0.39660000  1.0
  C  C27  1  0.82921000  0.75418000  0.60341000  1.0
  C  C28  1  0.19296000  0.75099000  0.91538000  1.0
  C  C29  1  0.80705000  0.24901000  0.08462000  1.0
  C  C30  1  0.35907000  0.64822000  0.83128000  1.0
  C  C31  1  0.64093000  0.35179000  0.16871000  1.0
  C  C32  1  0.32634000  0.57975000  0.72510000  1.0
  C  C33  1  0.67366000  0.42025000  0.27490000  1.0
  C  C34  1  0.24571000  0.91803000  0.05482000  1.0
  C  C35  1  0.75429000  0.08195000  0.94519000  1.0
  C  C36  1  0.22345000  0.61411000  0.15069000  1.0
  C  C37  1  0.77657000  0.38589000  0.84931000  1.0
  C  C38  1  0.26207000  0.77124000  0.28985000  1.0
  C  C39  1  0.73793000  0.22876000  0.71016000  1.0
  N  N40  1  0.23935000  0.62633000  0.27299000  1.0
  N  N41  1  0.76066000  0.37367000  0.72701000  1.0
  N  N42  1  0.21907000  0.76652000  0.04401000  1.0
  N  N43  1  0.78094000  0.23348000  0.95599000  1.0
  N  N44  1  0.26830000  0.91602000  0.18230000  1.0
  N  N45  1  0.73170000  0.08398000  0.81770000  1.0
  O  O46  1  0.32344000  0.22100000  0.41194000  1.0
  O  O47  1  0.67656000  0.77899000  0.58806000  1.0
  O  O48  1  0.04454000  0.35392000  0.45966000  1.0
  O  O49  1  0.95546000  0.64608000  0.54033000  1.0
  O  O50  1  0.45250000  0.54401000  0.61808000  1.0
  O  O51  1  0.54749000  0.45599000  0.38192000  1.0
  O  O52  1  0.17740000  0.55256000  0.73951000  1.0
  O  O53  1  0.82260000  0.44744000  0.26049000  1.0
  O  O54  1  0.24955000  0.04863000  0.95951000  1.0
  O  O55  1  0.75045000  0.95138000  0.04048000  1.0
  O  O56  1  0.21406000  0.48046000  0.12689000  1.0
  O  O57  1  0.78596000  0.51954000  0.87311000  1.0
  O  O58  1  0.27913000  0.77462000  0.40573000  1.0
  O  O59  1  0.72087000  0.22539000  0.59428000  1.0
  O  O60  1  0.27349000  0.20454000  0.68586000  1.0
  O  O61  1  0.72649000  0.79545000  0.31415000  1.0
