# generated using pymatgen
data_Ag3H8C12N3O7
_symmetry_space_group_name_H-M   'P 1'
_cell_length_a   8.10956000
_cell_length_b   10.42840000
_cell_length_c   10.69760000
_cell_angle_alpha   63.43550000
_cell_angle_beta   69.11330000
_cell_angle_gamma   81.49780000
_symmetry_Int_Tables_number   1
_chemical_formula_structural   Ag3H8C12N3O7
_chemical_formula_sum   'Ag6 H16 C24 N6 O14'
_cell_volume   755.93953094
_cell_formula_units_Z   2
loop_
 _symmetry_equiv_pos_site_id
 _symmetry_equiv_pos_as_xyz
  1  'x, y, z'
loop_
 _atom_site_type_symbol
 _atom_site_label
 _atom_site_symmetry_multiplicity
 _atom_site_fract_x
 _atom_site_fract_y
 _atom_site_fract_z
 _atom_site_occupancy
  Ag  Ag0  1  0.63610000  0.61540000  0.49122000  1.0
  Ag  Ag1  1  0.36390000  0.38459000  0.50878000  1.0
  Ag  Ag2  1  0.01534000  0.36531000  0.48270000  1.0
  Ag  Ag3  1  0.98466000  0.63469000  0.51730000  1.0
  Ag  Ag4  1  0.24449000  0.11720000  0.50098000  1.0
  Ag  Ag5  1  0.75550000  0.88280000  0.49902000  1.0
  H  H6  1  0.66003000  0.35476000  0.76469000  1.0
  H  H7  1  0.33997000  0.64524000  0.23531000  1.0
  H  H8  1  0.51666000  0.25542000  0.04058000  1.0
  H  H9  1  0.48334000  0.74458000  0.95942000  1.0
  H  H10  1  0.13062000  0.58629000  0.97404000  1.0
  H  H11  1  0.86938000  0.41370000  0.02596000  1.0
  H  H12  1  0.28812000  0.67696000  0.70268000  1.0
  H  H13  1  0.71188000  0.32304000  0.29732000  1.0
  H  H14  1  0.38234000  0.01577000  0.76609000  1.0
  H  H15  1  0.61766000  0.98424000  0.23391000  1.0
  H  H16  1  0.27093000  0.87279000  0.04362000  1.0
  H  H17  1  0.72907000  0.12722000  0.95638000  1.0
  H  H18  1  0.79603000  0.78660000  0.00259000  1.0
  H  H19  1  0.20397000  0.21340000  0.99741000  1.0
  H  H20  1  0.92334000  0.93319000  0.72753000  1.0
  H  H21  1  0.07666000  0.06681000  0.27247000  1.0
  C  C22  1  0.54227000  0.40290000  0.81482000  1.0
  C  C23  1  0.45773000  0.59709000  0.18517000  1.0
  C  C24  1  0.46256000  0.34765000  0.96721000  1.0
  C  C25  1  0.53744000  0.65234000  0.03279000  1.0
  C  C26  1  0.02634000  0.81548000  0.04347000  1.0
  C  C27  1  0.97366000  0.18452000  0.95653000  1.0
  C  C28  1  0.24727000  0.53232000  0.93175000  1.0
  C  C29  1  0.75273000  0.46768000  0.06825000  1.0
  C  C30  1  0.33474000  0.58284000  0.78018000  1.0
  C  C31  1  0.66526000  0.41716000  0.21982000  1.0
  C  C32  1  0.95234000  0.73351000  0.20901000  1.0
  C  C33  1  0.04767000  0.26649000  0.79099000  1.0
  C  C34  1  0.25387000  0.96183000  0.82360000  1.0
  C  C35  1  0.74613000  0.03817000  0.17640000  1.0
  C  C36  1  0.19274000  0.88125000  0.97618000  1.0
  C  C37  1  0.80727000  0.11876000  0.02382000  1.0
  C  C38  1  0.31361000  0.41340000  0.02829000  1.0
  C  C39  1  0.68639000  0.58660000  0.97171000  1.0
  C  C40  1  0.92744000  0.83388000  0.95325000  1.0
  C  C41  1  0.07256000  0.16612000  0.04675000  1.0
  C  C42  1  0.99689000  0.91556000  0.80139000  1.0
  C  C43  1  0.00310000  0.08444000  0.19862000  1.0
  C  C44  1  0.23415000  0.35657000  0.19424000  1.0
  C  C45  1  0.76585000  0.64343000  0.80576000  1.0
  N  N46  1  0.48082000  0.52067000  0.72202000  1.0
  N  N47  1  0.51918000  0.47932000  0.27798000  1.0
  N  N48  1  0.15748000  0.97972000  0.73724000  1.0
  N  N49  1  0.84252000  0.02028000  0.26276000  1.0
  N  N50  1  0.70510000  0.16816000  0.54800000  1.0
  N  N51  1  0.29490000  0.83184000  0.45200000  1.0
  O  O52  1  0.79126000  0.69465000  0.26172000  1.0
  O  O53  1  0.20874000  0.30535000  0.73828000  1.0
  O  O54  1  0.05762000  0.71556000  0.27918000  1.0
  O  O55  1  0.94238000  0.28445000  0.72082000  1.0
  O  O56  1  0.10572000  0.42503000  0.24514000  1.0
  O  O57  1  0.89428000  0.57497000  0.75486000  1.0
  O  O58  1  0.30802000  0.24570000  0.26648000  1.0
  O  O59  1  0.69198000  0.75430000  0.73352000  1.0
  O  O60  1  0.67733000  0.28557000  0.56142000  1.0
  O  O61  1  0.32267000  0.71443000  0.43858000  1.0
  O  O62  1  0.85758000  0.11441000  0.52984000  1.0
  O  O63  1  0.14242000  0.88559000  0.47016000  1.0
  O  O64  1  0.57973000  0.10627000  0.54988000  1.0
  O  O65  1  0.42027000  0.89373000  0.45012000  1.0
