# generated using pymatgen
data_Al6H53C87N3O28
_symmetry_space_group_name_H-M   'P 1'
_cell_length_a   13.40200000
_cell_length_b   13.40449874
_cell_length_c   27.57830000
_cell_angle_alpha   88.92462472
_cell_angle_beta   89.44960000
_cell_angle_gamma   60.06047841
_symmetry_Int_Tables_number   1
_chemical_formula_structural   Al6H53C87N3O28
_chemical_formula_sum   'Al6 H53 C87 N3 O28'
_cell_volume   4292.45889673
_cell_formula_units_Z   1
loop_
 _symmetry_equiv_pos_site_id
 _symmetry_equiv_pos_as_xyz
  1  'x, y, z'
loop_
 _atom_site_type_symbol
 _atom_site_label
 _atom_site_symmetry_multiplicity
 _atom_site_fract_x
 _atom_site_fract_y
 _atom_site_fract_z
 _atom_site_occupancy
  Al  Al0  1  0.41753000  0.40207000  0.50554000  1.0
  Al  Al1  1  0.41925000  0.64103000  0.50203000  1.0
  Al  Al2  1  0.64615000  0.42206000  0.50088000  1.0
  Al  Al3  1  0.92232000  0.91256000  0.01349000  1.0
  Al  Al4  1  0.68200000  0.91390000  0.01495000  1.0
  Al  Al5  1  0.89923000  0.68531000  0.01723000  1.0
  H  H6  1  0.49842000  0.84791000  0.78570000  1.0
  H  H7  1  0.65318000  0.82628000  0.71010000  1.0
  H  H8  1  0.78681000  0.50054000  0.21843000  1.0
  H  H9  1  0.81541000  0.53350000  0.13185000  1.0
  H  H10  1  0.46535000  0.79074000  0.28583000  1.0
  H  H11  1  0.53793000  0.86152000  0.23166000  1.0
  H  H12  1  0.56213000  0.89157000  0.14433000  1.0
  H  H13  1  0.82263000  0.52662000  0.29544000  1.0
  H  H14  1  0.79538000  0.49570000  0.38241000  1.0
  H  H15  1  0.75572000  0.30557000  0.36508000  1.0
  H  H16  1  0.49890000  0.18760000  0.22230000  1.0
  H  H17  1  0.47479000  0.28673000  0.78878000  1.0
  H  H18  1  0.52717000  0.12336000  0.13668000  1.0
  H  H19  1  0.48323000  0.66281000  0.74773000  1.0
  H  H20  1  0.77969000  0.24661000  0.27879000  1.0
  H  H21  1  0.85599000  0.09564000  0.22981000  1.0
  H  H22  1  0.88096000  0.03800000  0.14333000  1.0
  H  H23  1  0.53715000  0.12742000  0.30044000  1.0
  H  H24  1  0.50777000  0.19510000  0.38576000  1.0
  H  H25  1  0.27023000  0.45187000  0.37975000  1.0
  H  H26  1  0.20843000  0.77636000  0.21684000  1.0
  H  H27  1  0.14253000  0.80473000  0.13084000  1.0
  H  H28  1  0.74284000  0.96553000  0.77831000  1.0
  H  H29  1  0.20975000  0.47596000  0.29325000  1.0
  H  H30  1  0.05980000  0.55955000  0.24244000  1.0
  H  H31  1  0.67328000  0.50715000  0.80742000  1.0
  H  H32  1  0.00318000  0.58117000  0.15553000  1.0
  H  H33  1  0.14679000  0.82430000  0.29362000  1.0
  H  H34  1  0.21287000  0.79676000  0.37938000  1.0
  H  H35  1  0.82530000  0.48449000  0.73124000  1.0
  H  H36  1  0.84228000  0.66959000  0.76992000  1.0
  H  H37  1  0.79864000  0.22861000  0.79561000  1.0
  H  H38  1  0.86828000  0.05198000  0.72630000  1.0
  H  H39  1  0.98473000  0.73283000  0.71406000  1.0
  H  H40  1  0.55067000  0.07211000  0.68186000  1.0
  H  H41  1  0.40332000  0.05772000  0.72281000  1.0
  H  H42  1  0.40591000  0.14419000  0.77037000  1.0
  H  H43  1  0.51850000  0.99892000  0.76595000  1.0
  H  H44  1  0.08363000  0.49993000  0.81978000  1.0
  H  H45  1  0.02782000  0.40216000  0.76511000  1.0
  H  H46  1  0.16115000  0.38337000  0.74187000  1.0
  H  H47  1  0.02816000  0.49106000  0.71658000  1.0
  H  H48  1  0.58329000  0.44603000  0.76319000  1.0
  H  H49  1  0.46098000  0.54343000  0.70209000  1.0
  H  H50  1  0.30014000  0.46346000  0.73867000  1.0
  H  H51  1  0.45170000  0.41622000  0.69716000  1.0
  H  H52  1  0.54888000  0.43706000  0.66000000  1.0
  H  H53  1  0.33989000  0.59419000  0.80816000  1.0
  H  H54  1  0.24736000  0.78449000  0.74191000  1.0
  H  H55  1  0.02660000  0.86226000  0.78351000  1.0
  H  H56  1  0.44120000  0.76320000  0.37343000  1.0
  H  H57  1  0.27995000  0.34874000  0.48802000  1.0
  H  H58  1  0.98790000  0.03795000  0.03556000  1.0
  C  C59  1  0.29352000  0.60443000  0.57290000  1.0
  C  C60  1  0.63399000  0.63631000  0.66048000  1.0
  C  C61  1  0.78132000  0.10355000  0.74085000  1.0
  C  C62  1  0.59668000  0.59795000  0.57027000  1.0
  C  C63  1  0.74267000  0.20210000  0.77832000  1.0
  C  C64  1  0.68602000  0.10117000  0.89950000  1.0
  C  C65  1  0.66434000  0.21823000  0.61367000  1.0
  C  C66  1  0.71124000  0.05576000  0.76824000  1.0
  C  C67  1  0.67096000  0.15530000  0.80671000  1.0
  C  C68  1  0.60021000  0.13803000  0.73642000  1.0
  C  C69  1  0.67377000  0.18240000  0.70788000  1.0
  C  C70  1  0.62048000  0.62318000  0.61781000  1.0
  C  C71  1  0.56229000  0.23496000  0.77464000  1.0
  C  C72  1  0.63469000  0.28243000  0.74673000  1.0
  C  C73  1  0.67518000  0.13147000  0.85701000  1.0
  C  C74  1  0.62853000  0.27504000  0.56732000  1.0
  C  C75  1  0.67220000  0.19885000  0.65727000  1.0
  C  C76  1  0.06336000  0.70212000  0.73540000  1.0
  C  C77  1  0.11513000  0.59589000  0.77152000  1.0
  C  C78  1  0.09180000  0.67612000  0.90267000  1.0
  C  C79  1  0.24069000  0.63680000  0.61986000  1.0
  C  C80  1  0.08708000  0.77401000  0.77282000  1.0
  C  C81  1  0.76183000  0.66926000  0.76412000  1.0
  C  C82  1  0.13869000  0.66792000  0.80963000  1.0
  C  C83  1  0.20966000  0.73052000  0.75089000  1.0
  C  C84  1  0.18698000  0.65782000  0.71249000  1.0
  C  C85  1  0.26203000  0.62418000  0.78637000  1.0
  C  C86  1  0.29071000  0.60229000  0.43483000  1.0
  C  C87  1  0.23931000  0.55167000  0.74916000  1.0
  C  C88  1  0.11466000  0.67138000  0.85959000  1.0
  C  C89  1  0.21307000  0.64972000  0.66249000  1.0
  C  C90  1  0.61701000  0.62878000  0.38360000  1.0
  C  C91  1  0.52473000  0.71279000  0.35606000  1.0
  C  C92  1  0.67548000  0.68251000  0.80681000  1.0
  C  C93  1  0.53908000  0.72805000  0.30702000  1.0
  C  C94  1  0.64599000  0.66127000  0.28392000  1.0
  C  C95  1  0.73820000  0.57793000  0.31208000  1.0
  C  C96  1  0.72397000  0.56124000  0.36103000  1.0
  C  C97  1  0.73836000  0.58698000  0.20266000  1.0
  C  C98  1  0.59702000  0.60523000  0.43455000  1.0
  C  C99  1  0.75358000  0.60448000  0.15392000  1.0
  C  C100  1  0.60994000  0.80598000  0.16085000  1.0
  C  C101  1  0.59645000  0.78831000  0.20973000  1.0
  C  C102  1  0.66031000  0.67864000  0.23177000  1.0
  C  C103  1  0.75341000  0.56562000  0.74377000  1.0
  C  C104  1  0.68934000  0.71431000  0.13248000  1.0
  C  C105  1  0.63062000  0.25337000  0.38045000  1.0
  C  C106  1  0.70864000  0.26608000  0.35046000  1.0
  C  C107  1  0.72228000  0.23209000  0.30240000  1.0
  C  C108  1  0.66029000  0.18254000  0.28332000  1.0
  C  C109  1  0.58364000  0.16854000  0.31412000  1.0
  C  C110  1  0.60767000  0.29853000  0.43055000  1.0
  C  C111  1  0.56793000  0.20453000  0.36189000  1.0
  C  C112  1  0.58345000  0.15311000  0.20543000  1.0
  C  C113  1  0.59830000  0.11862000  0.15739000  1.0
  C  C114  1  0.64932000  0.65090000  0.71010000  1.0
  C  C115  1  0.79756000  0.07179000  0.16111000  1.0
  C  C116  1  0.78275000  0.10478000  0.20924000  1.0
  C  C117  1  0.67538000  0.14660000  0.23231000  1.0
  C  C118  1  0.70549000  0.07820000  0.13477000  1.0
  C  C119  1  0.24442000  0.62300000  0.38472000  1.0
  C  C120  1  0.24189000  0.53329000  0.36044000  1.0
  C  C121  1  0.20752000  0.54762000  0.31228000  1.0
  C  C122  1  0.65750000  0.75547000  0.73208000  1.0
  C  C123  1  0.17375000  0.65198000  0.28715000  1.0
  C  C124  1  0.17541000  0.74181000  0.31210000  1.0
  C  C125  1  0.66777000  0.57785000  0.78499000  1.0
  C  C126  1  0.21091000  0.72746000  0.36016000  1.0
  C  C127  1  0.16135000  0.73525000  0.20384000  1.0
  C  C128  1  0.12658000  0.75005000  0.15571000  1.0
  C  C129  1  0.04870000  0.62299000  0.16942000  1.0
  C  C130  1  0.08136000  0.61060000  0.21782000  1.0
  C  C131  1  0.13854000  0.66609000  0.23590000  1.0
  C  C132  1  0.07039000  0.69356000  0.13814000  1.0
  C  C133  1  0.71697000  0.04440000  0.94609000  1.0
  C  C134  1  0.57144000  0.76745000  0.77321000  1.0
  C  C135  1  0.72582000  0.73599000  0.94676000  1.0
  C  C136  1  0.56343000  0.66393000  0.75289000  1.0
  C  C137  1  0.04105000  0.70833000  0.94993000  1.0
  C  C138  1  0.72653000  0.03494000  0.08438000  1.0
  C  C139  1  0.71293000  0.73684000  0.08195000  1.0
  C  C140  1  0.02646000  0.71604000  0.08760000  1.0
  C  C141  1  0.70124000  0.71291000  0.89902000  1.0
  C  C142  1  0.45980000  0.07673000  0.74452000  1.0
  C  C143  1  0.07101000  0.44762000  0.75068000  1.0
  C  C144  1  0.51133000  0.45038000  0.69642000  1.0
  C  C145  1  0.68971000  0.69798000  0.85638000  1.0
  N  N146  1  0.51975000  0.11783000  0.71288000  1.0
  N  N147  1  0.06053000  0.53312000  0.78547000  1.0
  N  N148  1  0.60290000  0.39659000  0.73311000  1.0
  O  O149  1  0.52936000  0.29998000  0.55310000  1.0
  O  O150  1  0.82124000  0.66014000  0.96588000  1.0
  O  O151  1  0.02031000  0.63635000  0.97343000  1.0
  O  O152  1  0.32728000  0.50263000  0.56007000  1.0
  O  O153  1  0.01614000  0.80456000  0.06605000  1.0
  O  O154  1  0.82137000  0.01181000  0.06488000  1.0
  O  O155  1  0.64844000  0.01981000  0.06445000  1.0
  O  O156  1  0.64386000  0.83509000  0.06262000  1.0
  O  O157  1  0.80451000  0.65939000  0.06147000  1.0
  O  O158  1  0.99785000  0.64510000  0.06990000  1.0
  O  O159  1  0.83341000  0.83639000  0.01534000  1.0
  O  O160  1  0.50055000  0.67545000  0.45410000  1.0
  O  O161  1  0.30578000  0.68126000  0.54868000  1.0
  O  O162  1  0.50041000  0.67078000  0.55083000  1.0
  O  O163  1  0.67114000  0.50229000  0.55175000  1.0
  O  O164  1  0.69818000  0.30124000  0.54524000  1.0
  O  O165  1  0.51635000  0.31380000  0.45088000  1.0
  O  O166  1  0.31045000  0.51012000  0.45638000  1.0
  O  O167  1  0.31216000  0.67827000  0.45245000  1.0
  O  O168  1  0.67463000  0.51275000  0.45532000  1.0
  O  O169  1  0.68121000  0.32263000  0.44910000  1.0
  O  O170  1  0.49498000  0.48959000  0.50277000  1.0
  O  O171  1  0.01680000  0.80726000  0.96352000  1.0
  O  O172  1  0.81761000  0.01133000  0.96096000  1.0
  O  O173  1  0.64030000  0.02798000  0.96802000  1.0
  O  O174  1  0.65370000  0.83182000  0.96582000  1.0
  O  O175  1  0.34649000  0.32197000  0.50876000  1.0
  O  O176  1  0.00484000  0.98109000  0.01105000  1.0
