# generated using pymatgen
data_TbH23C22N2O9
_symmetry_space_group_name_H-M   'P 1'
_cell_length_a   13.58080000
_cell_length_b   14.40690000
_cell_length_c   16.03685536
_cell_angle_alpha   63.30860659
_cell_angle_beta   82.79419985
_cell_angle_gamma   90.00450000
_symmetry_Int_Tables_number   1
_chemical_formula_structural   TbH23C22N2O9
_chemical_formula_sum   'Tb4 H92 C88 N8 O36'
_cell_volume   2775.58581960
_cell_formula_units_Z   4
loop_
 _symmetry_equiv_pos_site_id
 _symmetry_equiv_pos_as_xyz
  1  'x, y, z'
loop_
 _atom_site_type_symbol
 _atom_site_label
 _atom_site_symmetry_multiplicity
 _atom_site_fract_x
 _atom_site_fract_y
 _atom_site_fract_z
 _atom_site_occupancy
  Tb  Tb0  1  0.53786000  0.60679000  0.36280000  1.0
  Tb  Tb1  1  0.96207000  0.96950000  0.63723000  1.0
  Tb  Tb2  1  0.46213000  0.39321000  0.63720000  1.0
  Tb  Tb3  1  0.03793000  0.03050000  0.36277000  1.0
  H  H4  1  0.21548000  0.26019000  0.54831000  1.0
  H  H5  1  0.28426000  0.80842000  0.45178000  1.0
  H  H6  1  0.78452000  0.73981000  0.45169000  1.0
  H  H7  1  0.71574000  0.19159000  0.54821000  1.0
  H  H8  1  0.07250000  0.27827000  0.31696000  1.0
  H  H9  1  0.42730000  0.59513000  0.68307000  1.0
  H  H10  1  0.92750000  0.72173000  0.68304000  1.0
  H  H11  1  0.57270000  0.40487000  0.31693000  1.0
  H  H12  1  0.29305000  0.51701000  0.27306000  1.0
  H  H13  1  0.20687000  0.79000000  0.72703000  1.0
  H  H14  1  0.70695000  0.48299000  0.72694000  1.0
  H  H15  1  0.79313000  0.21000000  0.27297000  1.0
  H  H16  1  0.22868000  0.45131000  0.13641000  1.0
  H  H17  1  0.27124000  0.58774000  0.86364000  1.0
  H  H18  1  0.77132000  0.54869000  0.86359000  1.0
  H  H19  1  0.72876000  0.41226000  0.13636000  1.0
  H  H20  1  0.09806000  0.42165000  0.17286000  1.0
  H  H21  1  0.40184000  0.59436000  0.82712000  1.0
  H  H22  1  0.90194000  0.57835000  0.82714000  1.0
  H  H23  1  0.59816000  0.40564000  0.17288000  1.0
  H  H24  1  0.11034000  0.50663000  0.02323000  1.0
  H  H25  1  0.38988000  0.52972000  0.97671000  1.0
  H  H26  1  0.88966000  0.49337000  0.97677000  1.0
  H  H27  1  0.61012000  0.47028000  0.02329000  1.0
  H  H28  1  0.05092000  0.62690000  0.87375000  1.0
  H  H29  1  0.44916000  0.50044000  0.12627000  1.0
  H  H30  1  0.94908000  0.37310000  0.12625000  1.0
  H  H31  1  0.55084000  0.49956000  0.87373000  1.0
  H  H32  1  0.07339000  0.87972000  0.94361000  1.0
  H  H33  1  0.42662000  0.82306000  0.05653000  1.0
  H  H34  1  0.92661000  0.12029000  0.05638000  1.0
  H  H35  1  0.57338000  0.17694000  0.94347000  1.0
  H  H36  1  0.13295000  0.76007000  0.09544000  1.0
  H  H37  1  0.36731000  0.85535000  0.90458000  1.0
  H  H38  1  0.86705000  0.23993000  0.90456000  1.0
  H  H39  1  0.63269000  0.14465000  0.09542000  1.0
  H  H40  1  0.78737000  0.66339000  0.34288000  1.0
  H  H41  1  0.71270000  0.00623000  0.65683000  1.0
  H  H42  1  0.21263000  0.33661000  0.65712000  1.0
  H  H43  1  0.28730000  0.99377000  0.34317000  1.0
  H  H44  1  0.80552000  0.47130000  0.25741000  1.0
  H  H45  1  0.69430000  0.72868000  0.74262000  1.0
  H  H46  1  0.19448000  0.52869000  0.74260000  1.0
  H  H47  1  0.30570000  0.27132000  0.25738000  1.0
  H  H48  1  0.92241000  0.43461000  0.29982000  1.0
  H  H49  1  0.57737000  0.73433000  0.70029000  1.0
  H  H50  1  0.07759000  0.56538000  0.70019000  1.0
  H  H51  1  0.42263000  0.26566000  0.29971000  1.0
  H  H52  1  0.91963000  0.53689000  0.18356000  1.0
  H  H53  1  0.58025000  0.72053000  0.81649000  1.0
  H  H54  1  0.08037000  0.46310000  0.81645000  1.0
  H  H55  1  0.41975000  0.27947000  0.18351000  1.0
  H  H56  1  0.94625000  0.67497000  0.33171000  1.0
  H  H57  1  0.55377000  0.00673000  0.66827000  1.0
  H  H58  1  0.05376000  0.32503000  0.66829000  1.0
  H  H59  1  0.44623000  0.99327000  0.33173000  1.0
  H  H60  1  0.01681000  0.64694000  0.24443000  1.0
  H  H61  1  0.48315000  0.89144000  0.75552000  1.0
  H  H62  1  0.98319000  0.35305000  0.75558000  1.0
  H  H63  1  0.51685000  0.10856000  0.24448000  1.0
  H  H64  1  0.99770000  0.55081000  0.36430000  1.0
  H  H65  1  0.50220000  0.91526000  0.63563000  1.0
  H  H66  1  0.00230000  0.44919000  0.63570000  1.0
  H  H67  1  0.49780000  0.08474000  0.36437000  1.0
  H  H68  1  0.57899000  0.83579000  0.37264000  1.0
  H  H69  1  0.92102000  0.20817000  0.62738000  1.0
  H  H70  1  0.42101000  0.16421000  0.62736000  1.0
  H  H71  1  0.07898000  0.79184000  0.37262000  1.0
  H  H72  1  0.69483000  0.06848000  0.26964000  1.0
  H  H73  1  0.80538000  0.33801000  0.73030000  1.0
  H  H74  1  0.30517000  0.93152000  0.73036000  1.0
  H  H75  1  0.19462000  0.66199000  0.26970000  1.0
  H  H76  1  0.78113000  0.99173000  0.34339000  1.0
  H  H77  1  0.71907000  0.33514000  0.65652000  1.0
  H  H78  1  0.21888000  0.00827000  0.65661000  1.0
  H  H79  1  0.28093000  0.66487000  0.34348000  1.0
  H  H80  1  0.65070000  0.96436000  0.38323000  1.0
  H  H81  1  0.84950000  0.34743000  0.61674000  1.0
  H  H82  1  0.34930000  0.03564000  0.61677000  1.0
  H  H83  1  0.15050000  0.65258000  0.38326000  1.0
  H  H84  1  0.82757000  0.85822000  0.23004000  1.0
  H  H85  1  0.67234000  0.08825000  0.76988000  1.0
  H  H86  1  0.17243000  0.14178000  0.76996000  1.0
  H  H87  1  0.32766000  0.91175000  0.23012000  1.0
  H  H88  1  0.83253000  0.99529000  0.18824000  1.0
  H  H89  1  0.66745000  0.18356000  0.81164000  1.0
  H  H90  1  0.16748000  0.00471000  0.81176000  1.0
  H  H91  1  0.33255000  0.81644000  0.18836000  1.0
  H  H92  1  0.75031000  0.93312000  0.14485000  1.0
  H  H93  1  0.74956000  0.07793000  0.85510000  1.0
  H  H94  1  0.24969000  0.06688000  0.85515000  1.0
  H  H95  1  0.25044000  0.92208000  0.14489000  1.0
  C  C96  1  0.33653000  0.43689000  0.45111000  1.0
  C  C97  1  0.16335000  0.88794000  0.54897000  1.0
  C  C98  1  0.66347000  0.56311000  0.54889000  1.0
  C  C99  1  0.83665000  0.11206000  0.45103000  1.0
  C  C100  1  0.26085000  0.39397000  0.41439000  1.0
  C  C101  1  0.23896000  0.80825000  0.58570000  1.0
  C  C102  1  0.73915000  0.60603000  0.58561000  1.0
  C  C103  1  0.76104000  0.19175000  0.41430000  1.0
  C  C104  1  0.20491000  0.30105000  0.47449000  1.0
  C  C105  1  0.29483000  0.77537000  0.52560000  1.0
  C  C106  1  0.79510000  0.69895000  0.52551000  1.0
  C  C107  1  0.70517000  0.22464000  0.47440000  1.0
  C  C108  1  0.13773000  0.25919000  0.43941000  1.0
  C  C109  1  0.36201000  0.69842000  0.56066000  1.0
  C  C110  1  0.86227000  0.74081000  0.56059000  1.0
  C  C111  1  0.63799000  0.30158000  0.43934000  1.0
  C  C112  1  0.12443000  0.31149000  0.34442000  1.0
  C  C113  1  0.37534000  0.65578000  0.65563000  1.0
  C  C114  1  0.87557000  0.68851000  0.65558000  1.0
  C  C115  1  0.62466000  0.34422000  0.34437000  1.0
  C  C116  1  0.17903000  0.40495000  0.28421000  1.0
  C  C117  1  0.32083000  0.68908000  0.71584000  1.0
  C  C118  1  0.82097000  0.59505000  0.71579000  1.0
  C  C119  1  0.67917000  0.31092000  0.28416000  1.0
  C  C120  1  0.24795000  0.44549000  0.31918000  1.0
  C  C121  1  0.25190000  0.76459000  0.68089000  1.0
  C  C122  1  0.75205000  0.55451000  0.68082000  1.0
  C  C123  1  0.74810000  0.23541000  0.31911000  1.0
  C  C124  1  0.16426000  0.45795000  0.18245000  1.0
  C  C125  1  0.33571000  0.64032000  0.81759000  1.0
  C  C126  1  0.83574000  0.54205000  0.81755000  1.0
  C  C127  1  0.66429000  0.35967000  0.18242000  1.0
  C  C128  1  0.12376000  0.62608000  0.06972000  1.0
  C  C129  1  0.37642000  0.69566000  0.93028000  1.0
  C  C130  1  0.87624000  0.37392000  0.93028000  1.0
  C  C131  1  0.62358000  0.30433000  0.06972000  1.0
  C  C132  1  0.10218000  0.58788000  0.00700000  1.0
  C  C133  1  0.39799000  0.59472000  0.99298000  1.0
  C  C134  1  0.89782000  0.41212000  0.99300000  1.0
  C  C135  1  0.60201000  0.40528000  0.00702000  1.0
  C  C136  1  0.06872000  0.65542000  0.92294000  1.0
  C  C137  1  0.43134000  0.57815000  0.07711000  1.0
  C  C138  1  0.93128000  0.34458000  0.07706000  1.0
  C  C139  1  0.56866000  0.42184000  0.92290000  1.0
  C  C140  1  0.05780000  0.76043000  0.89940000  1.0
  C  C141  1  0.44219000  0.65960000  0.10069000  1.0
  C  C142  1  0.94220000  0.23957000  0.10060000  1.0
  C  C143  1  0.55781000  0.34040000  0.89931000  1.0
  C  C144  1  0.08189000  0.79785000  0.96200000  1.0
  C  C145  1  0.41817000  0.75964000  0.03809000  1.0
  C  C146  1  0.91811000  0.20215000  0.03800000  1.0
  C  C147  1  0.58183000  0.24035000  0.96191000  1.0
  C  C148  1  0.11421000  0.73176000  0.04635000  1.0
  C  C149  1  0.38597000  0.77794000  0.95367000  1.0
  C  C150  1  0.88579000  0.26824000  0.95365000  1.0
  C  C151  1  0.61403000  0.22206000  0.04633000  1.0
  C  C152  1  0.02111000  0.83157000  0.80972000  1.0
  C  C153  1  0.47877000  0.64108000  0.19041000  1.0
  C  C154  1  0.97889000  0.16843000  0.19028000  1.0
  C  C155  1  0.52123000  0.35892000  0.80959000  1.0
  C  C156  1  0.78357000  0.60670000  0.31453000  1.0
  C  C157  1  0.71641000  0.92118000  0.68524000  1.0
  C  C158  1  0.21643000  0.39330000  0.68547000  1.0
  C  C159  1  0.28359000  0.07882000  0.31476000  1.0
  C  C160  1  0.88049000  0.50006000  0.25625000  1.0
  C  C161  1  0.61935000  0.75628000  0.74378000  1.0
  C  C162  1  0.11951000  0.49995000  0.74375000  1.0
  C  C163  1  0.38065000  0.24371000  0.25622000  1.0
  C  C164  1  0.96317000  0.61434000  0.30937000  1.0
  C  C165  1  0.53679000  0.92377000  0.69057000  1.0
  C  C166  1  0.03683000  0.38566000  0.69063000  1.0
  C  C167  1  0.46321000  0.07623000  0.30943000  1.0
  C  C168  1  0.63461000  0.83905000  0.31475000  1.0
  C  C169  1  0.86531000  0.15361000  0.68524000  1.0
  C  C170  1  0.36539000  0.16095000  0.68525000  1.0
  C  C171  1  0.13469000  0.84639000  0.31476000  1.0
  C  C172  1  0.70822000  0.98942000  0.32154000  1.0
  C  C173  1  0.79194000  0.31086000  0.67841000  1.0
  C  C174  1  0.29178000  0.01058000  0.67846000  1.0
  C  C175  1  0.20806000  0.68913000  0.32160000  1.0
  C  C176  1  0.78317000  0.92697000  0.20620000  1.0
  C  C177  1  0.71676000  0.13314000  0.79372000  1.0
  C  C178  1  0.21683000  0.07303000  0.79380000  1.0
  C  C179  1  0.28324000  0.86686000  0.20628000  1.0
  C  C180  1  0.08105000  0.15824000  0.50223000  1.0
  C  C181  1  0.41876000  0.66037000  0.49782000  1.0
  C  C182  1  0.91895000  0.84176000  0.49777000  1.0
  C  C183  1  0.58124000  0.33963000  0.50218000  1.0
  N  N184  1  0.87221000  0.57542000  0.29359000  1.0
  N  N185  1  0.62772000  0.86901000  0.70632000  1.0
  N  N186  1  0.12779000  0.42459000  0.70641000  1.0
  N  N187  1  0.37228000  0.13099000  0.29368000  1.0
  N  N188  1  0.70488000  0.91660000  0.28171000  1.0
  N  N189  1  0.79510000  0.19821000  0.71825000  1.0
  N  N190  1  0.29512000  0.08340000  0.71829000  1.0
  N  N191  1  0.20490000  0.80179000  0.28175000  1.0
  O  O192  1  0.37882000  0.52550000  0.39455000  1.0
  O  O193  1  0.12111000  0.92004000  0.60552000  1.0
  O  O194  1  0.62118000  0.47450000  0.60545000  1.0
  O  O195  1  0.87889000  0.07996000  0.39448000  1.0
  O  O196  1  0.35215000  0.38093000  0.53552000  1.0
  O  O197  1  0.14775000  0.91638000  0.46456000  1.0
  O  O198  1  0.64785000  0.61907000  0.46448000  1.0
  O  O199  1  0.85225000  0.08362000  0.53544000  1.0
  O  O200  1  0.97875000  0.79355000  0.76392000  1.0
  O  O201  1  0.52114000  0.55728000  0.23626000  1.0
  O  O202  1  0.02125000  0.20645000  0.23608000  1.0
  O  O203  1  0.47886000  0.44272000  0.76374000  1.0
  O  O204  1  0.03304000  0.93000000  0.77988000  1.0
  O  O205  1  0.46679000  0.70969000  0.22022000  1.0
  O  O206  1  0.96696000  0.07000000  0.22012000  1.0
  O  O207  1  0.53321000  0.29031000  0.77978000  1.0
  O  O208  1  0.05094000  0.10272000  0.46561000  1.0
  O  O209  1  0.44899000  0.56830000  0.53441000  1.0
  O  O210  1  0.94906000  0.89727000  0.53439000  1.0
  O  O211  1  0.55101000  0.43171000  0.46559000  1.0
  O  O212  1  0.06272000  0.12894000  0.59050000  1.0
  O  O213  1  0.43705000  0.71939000  0.40955000  1.0
  O  O214  1  0.93728000  0.87106000  0.40950000  1.0
  O  O215  1  0.56295000  0.28061000  0.59045000  1.0
  O  O216  1  0.63076000  0.77389000  0.28331000  1.0
  O  O217  1  0.86902000  0.05700000  0.71667000  1.0
  O  O218  1  0.36924000  0.22611000  0.71669000  1.0
  O  O219  1  0.13098000  0.94300000  0.28333000  1.0
  O  O220  1  0.70229000  0.57515000  0.30450000  1.0
  O  O221  1  0.79764000  0.87952000  0.69522000  1.0
  O  O222  1  0.29771000  0.42485000  0.69550000  1.0
  O  O223  1  0.20236000  0.12048000  0.30478000  1.0
  O  O224  1  0.15249000  0.56668000  0.15567000  1.0
  O  O225  1  0.34768000  0.72226000  0.84433000  1.0
  O  O226  1  0.84751000  0.43332000  0.84433000  1.0
  O  O227  1  0.65232000  0.27774000  0.15567000  1.0
