# generated using pymatgen
data_CdH13C18N3O7
_symmetry_space_group_name_H-M   'P 1'
_cell_length_a   12.37090000
_cell_length_b   15.52220000
_cell_length_c   24.58130000
_cell_angle_alpha   90.00020000
_cell_angle_beta   89.99990000
_cell_angle_gamma   89.99970000
_symmetry_Int_Tables_number   1
_chemical_formula_structural   CdH13C18N3O7
_chemical_formula_sum   'Cd8 H104 C144 N24 O56'
_cell_volume   4720.18932479
_cell_formula_units_Z   8
loop_
 _symmetry_equiv_pos_site_id
 _symmetry_equiv_pos_as_xyz
  1  'x, y, z'
loop_
 _atom_site_type_symbol
 _atom_site_label
 _atom_site_symmetry_multiplicity
 _atom_site_fract_x
 _atom_site_fract_y
 _atom_site_fract_z
 _atom_site_occupancy
  Cd  Cd0  1  0.17751000  0.58387000  0.76518000  1.0
  Cd  Cd1  1  0.32249000  0.08387000  0.73482000  1.0
  Cd  Cd2  1  0.17751000  0.91613000  0.23482000  1.0
  Cd  Cd3  1  0.32249000  0.41613000  0.26518000  1.0
  Cd  Cd4  1  0.82250000  0.41613000  0.23481000  1.0
  Cd  Cd5  1  0.67750000  0.91613000  0.26518000  1.0
  Cd  Cd6  1  0.82250000  0.08387000  0.76519000  1.0
  Cd  Cd7  1  0.67751000  0.58387000  0.73482000  1.0
  H  H8  1  0.67681000  0.27055000  0.81797000  1.0
  H  H9  1  0.55849000  0.30771000  0.89763000  1.0
  H  H10  1  0.38423000  0.39020000  0.88025000  1.0
  H  H11  1  0.38097000  0.29738000  0.57202000  1.0
  H  H12  1  0.44302000  0.44549000  0.54045000  1.0
  H  H13  1  0.50664000  0.55169000  0.61264000  1.0
  H  H14  1  0.24973000  0.51644000  0.65103000  1.0
  H  H15  1  0.18560000  0.49039000  0.55668000  1.0
  H  H16  1  0.87911000  0.60305000  0.60491000  1.0
  H  H17  1  0.95875000  0.62663000  0.69618000  1.0
  H  H18  1  0.89734000  0.55255000  0.51277000  1.0
  H  H19  1  0.34899000  0.70149000  0.72193000  1.0
  H  H20  1  0.39924000  0.60334000  0.71861000  1.0
  H  H21  1  0.82319000  0.77055000  0.68202000  1.0
  H  H22  1  0.94152000  0.80771000  0.60236000  1.0
  H  H23  1  0.11577000  0.89019000  0.61975000  1.0
  H  H24  1  0.11903000  0.79738000  0.92798000  1.0
  H  H25  1  0.05697000  0.94549000  0.95955000  1.0
  H  H26  1  0.99336000  0.05169000  0.88736000  1.0
  H  H27  1  0.25027000  0.01644000  0.84897000  1.0
  H  H28  1  0.31439000  0.99040000  0.94332000  1.0
  H  H29  1  0.62088000  0.10305000  0.89509000  1.0
  H  H30  1  0.54125000  0.12663000  0.80382000  1.0
  H  H31  1  0.60266000  0.05256000  0.98723000  1.0
  H  H32  1  0.15100000  0.20150000  0.77806000  1.0
  H  H33  1  0.10076000  0.10334000  0.78139000  1.0
  H  H34  1  0.67681000  0.22945000  0.18203000  1.0
  H  H35  1  0.55849000  0.19229000  0.10237000  1.0
  H  H36  1  0.38423000  0.10980000  0.11975000  1.0
  H  H37  1  0.38097000  0.20262000  0.42798000  1.0
  H  H38  1  0.44302000  0.05450000  0.45955000  1.0
  H  H39  1  0.50663000  0.94831000  0.38736000  1.0
  H  H40  1  0.24973000  0.98356000  0.34897000  1.0
  H  H41  1  0.18560000  0.00961000  0.44332000  1.0
  H  H42  1  0.87911000  0.89695000  0.39509000  1.0
  H  H43  1  0.95875000  0.87337000  0.30382000  1.0
  H  H44  1  0.89734000  0.94745000  0.48724000  1.0
  H  H45  1  0.34900000  0.79851000  0.27806000  1.0
  H  H46  1  0.39924000  0.89666000  0.28139000  1.0
  H  H47  1  0.82319000  0.72945000  0.31798000  1.0
  H  H48  1  0.94152000  0.69229000  0.39764000  1.0
  H  H49  1  0.11577000  0.60981000  0.38025000  1.0
  H  H50  1  0.11903000  0.70262000  0.07202000  1.0
  H  H51  1  0.05698000  0.55451000  0.04045000  1.0
  H  H52  1  0.99337000  0.44831000  0.11264000  1.0
  H  H53  1  0.25027000  0.48356000  0.15103000  1.0
  H  H54  1  0.31439000  0.50961000  0.05668000  1.0
  H  H55  1  0.62088000  0.39695000  0.10491000  1.0
  H  H56  1  0.54125000  0.37337000  0.19618000  1.0
  H  H57  1  0.60266000  0.44744000  0.01276000  1.0
  H  H58  1  0.15100000  0.29850000  0.22194000  1.0
  H  H59  1  0.10076000  0.39666000  0.21861000  1.0
  H  H60  1  0.32319000  0.72945000  0.18202000  1.0
  H  H61  1  0.44152000  0.69229000  0.10236000  1.0
  H  H62  1  0.61577000  0.60980000  0.11975000  1.0
  H  H63  1  0.61903000  0.70262000  0.42797000  1.0
  H  H64  1  0.55697000  0.55451000  0.45955000  1.0
  H  H65  1  0.49336000  0.44831000  0.38735000  1.0
  H  H66  1  0.75027000  0.48356000  0.34897000  1.0
  H  H67  1  0.81440000  0.50961000  0.44332000  1.0
  H  H68  1  0.12088000  0.39695000  0.39509000  1.0
  H  H69  1  0.04125000  0.37336000  0.30382000  1.0
  H  H70  1  0.10266000  0.44744000  0.48723000  1.0
  H  H71  1  0.65100000  0.29851000  0.27805000  1.0
  H  H72  1  0.60076000  0.39666000  0.28138000  1.0
  H  H73  1  0.17681000  0.22944000  0.31798000  1.0
  H  H74  1  0.05849000  0.19228000  0.39764000  1.0
  H  H75  1  0.88423000  0.10980000  0.38025000  1.0
  H  H76  1  0.88097000  0.20262000  0.07202000  1.0
  H  H77  1  0.94303000  0.05450000  0.04045000  1.0
  H  H78  1  0.00664000  0.94831000  0.11264000  1.0
  H  H79  1  0.74972000  0.98356000  0.15103000  1.0
  H  H80  1  0.68560000  0.00960000  0.05668000  1.0
  H  H81  1  0.37911000  0.89695000  0.10491000  1.0
  H  H82  1  0.45875000  0.87337000  0.19618000  1.0
  H  H83  1  0.39733000  0.94745000  0.01276000  1.0
  H  H84  1  0.84900000  0.79851000  0.22194000  1.0
  H  H85  1  0.89924000  0.89666000  0.21861000  1.0
  H  H86  1  0.32319000  0.77055000  0.81797000  1.0
  H  H87  1  0.44151000  0.80771000  0.89764000  1.0
  H  H88  1  0.61577000  0.89020000  0.88025000  1.0
  H  H89  1  0.61903000  0.79738000  0.57202000  1.0
  H  H90  1  0.55697000  0.94549000  0.54045000  1.0
  H  H91  1  0.49336000  0.05169000  0.61264000  1.0
  H  H92  1  0.75027000  0.01644000  0.65103000  1.0
  H  H93  1  0.81440000  0.99040000  0.55668000  1.0
  H  H94  1  0.12088000  0.10305000  0.60491000  1.0
  H  H95  1  0.04125000  0.12664000  0.69618000  1.0
  H  H96  1  0.10267000  0.05255000  0.51277000  1.0
  H  H97  1  0.65100000  0.20150000  0.72194000  1.0
  H  H98  1  0.60076000  0.10334000  0.71861000  1.0
  H  H99  1  0.17682000  0.27056000  0.68203000  1.0
  H  H100  1  0.05849000  0.30771000  0.60237000  1.0
  H  H101  1  0.88423000  0.39019000  0.61975000  1.0
  H  H102  1  0.88097000  0.29738000  0.92798000  1.0
  H  H103  1  0.94302000  0.44549000  0.95956000  1.0
  H  H104  1  0.00664000  0.55169000  0.88736000  1.0
  H  H105  1  0.74973000  0.51644000  0.84897000  1.0
  H  H106  1  0.68560000  0.49039000  0.94332000  1.0
  H  H107  1  0.37911000  0.60305000  0.89509000  1.0
  H  H108  1  0.45875000  0.62664000  0.80382000  1.0
  H  H109  1  0.39733000  0.55255000  0.98724000  1.0
  H  H110  1  0.84900000  0.70150000  0.77806000  1.0
  H  H111  1  0.89924000  0.60334000  0.78139000  1.0
  C  C112  1  0.60048000  0.30448000  0.81371000  1.0
  C  C113  1  0.53348000  0.32590000  0.85673000  1.0
  C  C114  1  0.43755000  0.37036000  0.84735000  1.0
  C  C115  1  0.40957000  0.39142000  0.79397000  1.0
  C  C116  1  0.47695000  0.36669000  0.75131000  1.0
  C  C117  1  0.45738000  0.38393000  0.69267000  1.0
  C  C118  1  0.41988000  0.32299000  0.65513000  1.0
  C  C119  1  0.41261000  0.34519000  0.60025000  1.0
  C  C120  1  0.44565000  0.42674000  0.58314000  1.0
  C  C121  1  0.48071000  0.48609000  0.62120000  1.0
  C  C122  1  0.31156000  0.44455000  0.78107000  1.0
  C  C123  1  0.38060000  0.23540000  0.67365000  1.0
  C  C124  1  0.16921000  0.53614000  0.63826000  1.0
  C  C125  1  0.13199000  0.52111000  0.58604000  1.0
  C  C126  1  0.02542000  0.54422000  0.57212000  1.0
  C  C127  1  0.96296000  0.58477000  0.61239000  1.0
  C  C128  1  0.00673000  0.59746000  0.66390000  1.0
  C  C129  1  0.97748000  0.52489000  0.51950000  1.0
  C  C130  1  0.89952000  0.80448000  0.68628000  1.0
  C  C131  1  0.96652000  0.82590000  0.64327000  1.0
  C  C132  1  0.06245000  0.87036000  0.65265000  1.0
  C  C133  1  0.09043000  0.89143000  0.70603000  1.0
  C  C134  1  0.02305000  0.86669000  0.74869000  1.0
  C  C135  1  0.04262000  0.88393000  0.80733000  1.0
  C  C136  1  0.08012000  0.82299000  0.84487000  1.0
  C  C137  1  0.08739000  0.84519000  0.89975000  1.0
  C  C138  1  0.05434000  0.92674000  0.91686000  1.0
  C  C139  1  0.01929000  0.98609000  0.87880000  1.0
  C  C140  1  0.18844000  0.94456000  0.71892000  1.0
  C  C141  1  0.11941000  0.73540000  0.82635000  1.0
  C  C142  1  0.33079000  0.03615000  0.86175000  1.0
  C  C143  1  0.36800000  0.02111000  0.91397000  1.0
  C  C144  1  0.47458000  0.04422000  0.92788000  1.0
  C  C145  1  0.53704000  0.08477000  0.88761000  1.0
  C  C146  1  0.49327000  0.09746000  0.83610000  1.0
  C  C147  1  0.52252000  0.02489000  0.98050000  1.0
  C  C148  1  0.60048000  0.19552000  0.18629000  1.0
  C  C149  1  0.53348000  0.17410000  0.14327000  1.0
  C  C150  1  0.43755000  0.12964000  0.15265000  1.0
  C  C151  1  0.40957000  0.10858000  0.20603000  1.0
  C  C152  1  0.47695000  0.13331000  0.24869000  1.0
  C  C153  1  0.45738000  0.11607000  0.30733000  1.0
  C  C154  1  0.41988000  0.17701000  0.34487000  1.0
  C  C155  1  0.41261000  0.15481000  0.39975000  1.0
  C  C156  1  0.44565000  0.07326000  0.41686000  1.0
  C  C157  1  0.48071000  0.01391000  0.37880000  1.0
  C  C158  1  0.31156000  0.05544000  0.21893000  1.0
  C  C159  1  0.38060000  0.26460000  0.32635000  1.0
  C  C160  1  0.16921000  0.96386000  0.36175000  1.0
  C  C161  1  0.13199000  0.97889000  0.41397000  1.0
  C  C162  1  0.02542000  0.95578000  0.42788000  1.0
  C  C163  1  0.96296000  0.91524000  0.38761000  1.0
  C  C164  1  0.00673000  0.90254000  0.33610000  1.0
  C  C165  1  0.97748000  0.97511000  0.48050000  1.0
  C  C166  1  0.89952000  0.69553000  0.31372000  1.0
  C  C167  1  0.96652000  0.67411000  0.35673000  1.0
  C  C168  1  0.06245000  0.62965000  0.34735000  1.0
  C  C169  1  0.09043000  0.60857000  0.29397000  1.0
  C  C170  1  0.02305000  0.63331000  0.25131000  1.0
  C  C171  1  0.04262000  0.61607000  0.19267000  1.0
  C  C172  1  0.08012000  0.67701000  0.15513000  1.0
  C  C173  1  0.08739000  0.65481000  0.10025000  1.0
  C  C174  1  0.05435000  0.57326000  0.08314000  1.0
  C  C175  1  0.01929000  0.51391000  0.12120000  1.0
  C  C176  1  0.18844000  0.55544000  0.28108000  1.0
  C  C177  1  0.11941000  0.76460000  0.17365000  1.0
  C  C178  1  0.33079000  0.46386000  0.13825000  1.0
  C  C179  1  0.36800000  0.47889000  0.08603000  1.0
  C  C180  1  0.47458000  0.45578000  0.07212000  1.0
  C  C181  1  0.53704000  0.41523000  0.11238000  1.0
  C  C182  1  0.49327000  0.40254000  0.16389000  1.0
  C  C183  1  0.52252000  0.47511000  0.01950000  1.0
  C  C184  1  0.39952000  0.69553000  0.18628000  1.0
  C  C185  1  0.46652000  0.67410000  0.14326000  1.0
  C  C186  1  0.56245000  0.62964000  0.15264000  1.0
  C  C187  1  0.59043000  0.60857000  0.20603000  1.0
  C  C188  1  0.52305000  0.63331000  0.24868000  1.0
  C  C189  1  0.54262000  0.61606000  0.30732000  1.0
  C  C190  1  0.58012000  0.67701000  0.34487000  1.0
  C  C191  1  0.58738000  0.65481000  0.39975000  1.0
  C  C192  1  0.55435000  0.57326000  0.41685000  1.0
  C  C193  1  0.51928000  0.51391000  0.37880000  1.0
  C  C194  1  0.68844000  0.55544000  0.21892000  1.0
  C  C195  1  0.61940000  0.76460000  0.32635000  1.0
  C  C196  1  0.83079000  0.46386000  0.36175000  1.0
  C  C197  1  0.86801000  0.47889000  0.41397000  1.0
  C  C198  1  0.97458000  0.45578000  0.42788000  1.0
  C  C199  1  0.03704000  0.41523000  0.38762000  1.0
  C  C200  1  0.99327000  0.40254000  0.33610000  1.0
  C  C201  1  0.02252000  0.47511000  0.48050000  1.0
  C  C202  1  0.10048000  0.19552000  0.31371000  1.0
  C  C203  1  0.03348000  0.17410000  0.35673000  1.0
  C  C204  1  0.93755000  0.12964000  0.34735000  1.0
  C  C205  1  0.90957000  0.10857000  0.29397000  1.0
  C  C206  1  0.97695000  0.13331000  0.25131000  1.0
  C  C207  1  0.95738000  0.11607000  0.19267000  1.0
  C  C208  1  0.91988000  0.17701000  0.15513000  1.0
  C  C209  1  0.91261000  0.15481000  0.10025000  1.0
  C  C210  1  0.94565000  0.07326000  0.08314000  1.0
  C  C211  1  0.98072000  0.01391000  0.12120000  1.0
  C  C212  1  0.81156000  0.05544000  0.28108000  1.0
  C  C213  1  0.88059000  0.26460000  0.17365000  1.0
  C  C214  1  0.66921000  0.96385000  0.13826000  1.0
  C  C215  1  0.63199000  0.97889000  0.08604000  1.0
  C  C216  1  0.52542000  0.95577000  0.07212000  1.0
  C  C217  1  0.46296000  0.91523000  0.11239000  1.0
  C  C218  1  0.50673000  0.90254000  0.16390000  1.0
  C  C219  1  0.47748000  0.97511000  0.01950000  1.0
  C  C220  1  0.39952000  0.80448000  0.81371000  1.0
  C  C221  1  0.46652000  0.82589000  0.85673000  1.0
  C  C222  1  0.56245000  0.87036000  0.84735000  1.0
  C  C223  1  0.59043000  0.89143000  0.79397000  1.0
  C  C224  1  0.52304000  0.86669000  0.75131000  1.0
  C  C225  1  0.54262000  0.88393000  0.69267000  1.0
  C  C226  1  0.58012000  0.82299000  0.65513000  1.0
  C  C227  1  0.58739000  0.84519000  0.60025000  1.0
  C  C228  1  0.55435000  0.92674000  0.58314000  1.0
  C  C229  1  0.51929000  0.98609000  0.62120000  1.0
  C  C230  1  0.68844000  0.94456000  0.78108000  1.0
  C  C231  1  0.61940000  0.73540000  0.67365000  1.0
  C  C232  1  0.83079000  0.03615000  0.63825000  1.0
  C  C233  1  0.86801000  0.02111000  0.58604000  1.0
  C  C234  1  0.97458000  0.04422000  0.57212000  1.0
  C  C235  1  0.03704000  0.08477000  0.61239000  1.0
  C  C236  1  0.99327000  0.09746000  0.66390000  1.0
  C  C237  1  0.02252000  0.02489000  0.51950000  1.0
  C  C238  1  0.10049000  0.30448000  0.68629000  1.0
  C  C239  1  0.03349000  0.32590000  0.64327000  1.0
  C  C240  1  0.93755000  0.37036000  0.65265000  1.0
  C  C241  1  0.90957000  0.39142000  0.70603000  1.0
  C  C242  1  0.97696000  0.36669000  0.74869000  1.0
  C  C243  1  0.95738000  0.38393000  0.80733000  1.0
  C  C244  1  0.91988000  0.32299000  0.84487000  1.0
  C  C245  1  0.91261000  0.34519000  0.89975000  1.0
  C  C246  1  0.94565000  0.42674000  0.91686000  1.0
  C  C247  1  0.98071000  0.48609000  0.87881000  1.0
  C  C248  1  0.81156000  0.44456000  0.71893000  1.0
  C  C249  1  0.88060000  0.23540000  0.82635000  1.0
  C  C250  1  0.66921000  0.53615000  0.86175000  1.0
  C  C251  1  0.63199000  0.52111000  0.91396000  1.0
  C  C252  1  0.52542000  0.54423000  0.92788000  1.0
  C  C253  1  0.46296000  0.58477000  0.88761000  1.0
  C  C254  1  0.50673000  0.59746000  0.83610000  1.0
  C  C255  1  0.47748000  0.52489000  0.98050000  1.0
  N  N256  1  0.57245000  0.32487000  0.76168000  1.0
  N  N257  1  0.48348000  0.46511000  0.67491000  1.0
  N  N258  1  0.10749000  0.57309000  0.67693000  1.0
  N  N259  1  0.92755000  0.82487000  0.73831000  1.0
  N  N260  1  0.01652000  0.96511000  0.82509000  1.0
  N  N261  1  0.39251000  0.07310000  0.82307000  1.0
  N  N262  1  0.57245000  0.17513000  0.23832000  1.0
  N  N263  1  0.48347000  0.03489000  0.32509000  1.0
  N  N264  1  0.10749000  0.92691000  0.32307000  1.0
  N  N265  1  0.92755000  0.67513000  0.26169000  1.0
  N  N266  1  0.01653000  0.53489000  0.17491000  1.0
  N  N267  1  0.39251000  0.42690000  0.17693000  1.0
  N  N268  1  0.42755000  0.67513000  0.23831000  1.0
  N  N269  1  0.51652000  0.53489000  0.32509000  1.0
  N  N270  1  0.89251000  0.42691000  0.32307000  1.0
  N  N271  1  0.07245000  0.17513000  0.26169000  1.0
  N  N272  1  0.98347000  0.03489000  0.17491000  1.0
  N  N273  1  0.60749000  0.92690000  0.17693000  1.0
  N  N274  1  0.42755000  0.82487000  0.76168000  1.0
  N  N275  1  0.51653000  0.96511000  0.67491000  1.0
  N  N276  1  0.89251000  0.07310000  0.67693000  1.0
  N  N277  1  0.07245000  0.32487000  0.73832000  1.0
  N  N278  1  0.98348000  0.46511000  0.82510000  1.0
  N  N279  1  0.60749000  0.57310000  0.82307000  1.0
  O  O280  1  0.27110000  0.48956000  0.81973000  1.0
  O  O281  1  0.27941000  0.44702000  0.73231000  1.0
  O  O282  1  0.32524000  0.19091000  0.64107000  1.0
  O  O283  1  0.40451000  0.21348000  0.72240000  1.0
  O  O284  1  0.63449000  0.30324000  0.72082000  1.0
  O  O285  1  0.50613000  0.52558000  0.71089000  1.0
  O  O286  1  0.33415000  0.63797000  0.72657000  1.0
  O  O287  1  0.22890000  0.98956000  0.68027000  1.0
  O  O288  1  0.22059000  0.94702000  0.76769000  1.0
  O  O289  1  0.17478000  0.69092000  0.85893000  1.0
  O  O290  1  0.09549000  0.71348000  0.77760000  1.0
  O  O291  1  0.86551000  0.80324000  0.77918000  1.0
  O  O292  1  0.99388000  0.02559000  0.78911000  1.0
  O  O293  1  0.16584000  0.13798000  0.77341000  1.0
  O  O294  1  0.27110000  0.01044000  0.18028000  1.0
  O  O295  1  0.27941000  0.05299000  0.26769000  1.0
  O  O296  1  0.32523000  0.30909000  0.35893000  1.0
  O  O297  1  0.40451000  0.28652000  0.27760000  1.0
  O  O298  1  0.63449000  0.19676000  0.27918000  1.0
  O  O299  1  0.50612000  0.97442000  0.28911000  1.0
  O  O300  1  0.33415000  0.86203000  0.27343000  1.0
  O  O301  1  0.22890000  0.51044000  0.31973000  1.0
  O  O302  1  0.22059000  0.55298000  0.23231000  1.0
  O  O303  1  0.17478000  0.80908000  0.14107000  1.0
  O  O304  1  0.09549000  0.78652000  0.22241000  1.0
  O  O305  1  0.86551000  0.69676000  0.22082000  1.0
  O  O306  1  0.99388000  0.47442000  0.21089000  1.0
  O  O307  1  0.16583000  0.36202000  0.22659000  1.0
  O  O308  1  0.72891000  0.51044000  0.18027000  1.0
  O  O309  1  0.72059000  0.55298000  0.26769000  1.0
  O  O310  1  0.67478000  0.80908000  0.35893000  1.0
  O  O311  1  0.59548000  0.78652000  0.27759000  1.0
  O  O312  1  0.36551000  0.69676000  0.27918000  1.0
  O  O313  1  0.49388000  0.47442000  0.28910000  1.0
  O  O314  1  0.66583000  0.36202000  0.27339000  1.0
  O  O315  1  0.77109000  0.01044000  0.31973000  1.0
  O  O316  1  0.77941000  0.05298000  0.23231000  1.0
  O  O317  1  0.82523000  0.30909000  0.14107000  1.0
  O  O318  1  0.90451000  0.28652000  0.22240000  1.0
  O  O319  1  0.13448000  0.19675000  0.22082000  1.0
  O  O320  1  0.00613000  0.97442000  0.21090000  1.0
  O  O321  1  0.83416000  0.86202000  0.22659000  1.0
  O  O322  1  0.72890000  0.98956000  0.81973000  1.0
  O  O323  1  0.72059000  0.94702000  0.73231000  1.0
  O  O324  1  0.67477000  0.69091000  0.64107000  1.0
  O  O325  1  0.59549000  0.71348000  0.72241000  1.0
  O  O326  1  0.36551000  0.80324000  0.72082000  1.0
  O  O327  1  0.49388000  0.02559000  0.71089000  1.0
  O  O328  1  0.66583000  0.13798000  0.72660000  1.0
  O  O329  1  0.77110000  0.48956000  0.68027000  1.0
  O  O330  1  0.77941000  0.44702000  0.76769000  1.0
  O  O331  1  0.82523000  0.19091000  0.85893000  1.0
  O  O332  1  0.90451000  0.21348000  0.77760000  1.0
  O  O333  1  0.13450000  0.30325000  0.77918000  1.0
  O  O334  1  0.00613000  0.52559000  0.78911000  1.0
  O  O335  1  0.83417000  0.63798000  0.77340000  1.0
