# generated using pymatgen
data_Zn4H9C21N3O13
_symmetry_space_group_name_H-M   'P 1'
_cell_length_a   15.98487668
_cell_length_b   16.58410000
_cell_length_c   16.89140000
_cell_angle_alpha   63.27290000
_cell_angle_beta   61.97428682
_cell_angle_gamma   61.23118005
_symmetry_Int_Tables_number   1
_chemical_formula_structural   Zn4H9C21N3O13
_chemical_formula_sum   'Zn8 H18 C42 N6 O26'
_cell_volume   3317.02200332
_cell_formula_units_Z   2
loop_
 _symmetry_equiv_pos_site_id
 _symmetry_equiv_pos_as_xyz
  1  'x, y, z'
loop_
 _atom_site_type_symbol
 _atom_site_label
 _atom_site_symmetry_multiplicity
 _atom_site_fract_x
 _atom_site_fract_y
 _atom_site_fract_z
 _atom_site_occupancy
  Zn  Zn0  1  0.87994000  0.01445000  0.08158000  1.0
  Zn  Zn1  1  0.05990000  0.82704000  0.09271000  1.0
  Zn  Zn2  1  0.06732000  0.01609000  0.09860000  1.0
  Zn  Zn3  1  0.08038000  0.00301000  0.90383000  1.0
  Zn  Zn4  1  0.68207000  0.39871000  0.48593000  1.0
  Zn  Zn5  1  0.48689000  0.59837000  0.49571000  1.0
  Zn  Zn6  1  0.48550000  0.40194000  0.67035000  1.0
  Zn  Zn7  1  0.47641000  0.41399000  0.48925000  1.0
  H  H8  1  0.82466000  0.80600000  0.01797000  1.0
  H  H9  1  0.70539000  0.58835000  0.19333000  1.0
  H  H10  1  0.77811000  0.71766000  0.31379000  1.0
  H  H11  1  0.77791000  0.92062000  0.39294000  1.0
  H  H12  1  0.60205000  0.09100000  0.57220000  1.0
  H  H13  1  0.81894000  0.18930000  0.31219000  1.0
  H  H14  1  0.82021000  0.33440000  0.91650000  1.0
  H  H15  1  0.67291000  0.49351000  0.71939000  1.0
  H  H16  1  0.81263000  0.18580000  0.76698000  1.0
  H  H17  1  0.38766000  0.76445000  0.01475000  1.0
  H  H18  1  0.57050000  0.57479000  0.17918000  1.0
  H  H19  1  0.26389000  0.73630000  0.31136000  1.0
  H  H20  1  0.99801000  0.73746000  0.92931000  1.0
  H  H21  1  0.17497000  0.56743000  0.75034000  1.0
  H  H22  1  0.29466000  0.75229000  0.75013000  1.0
  H  H23  1  0.98647000  0.30917000  0.88903000  1.0
  H  H24  1  0.15011000  0.48020000  0.67129000  1.0
  H  H25  1  0.31178000  0.18667000  0.79654000  1.0
  C  C26  1  0.86222000  0.83252000  0.14260000  1.0
  C  C27  1  0.80965000  0.76814000  0.16340000  1.0
  C  C28  1  0.80009000  0.76019000  0.08900000  1.0
  C  C29  1  0.73325000  0.64079000  0.18603000  1.0
  C  C30  1  0.73328000  0.64785000  0.26579000  1.0
  C  C31  1  0.77400000  0.71180000  0.25407000  1.0
  C  C32  1  0.68737000  0.58804000  0.35989000  1.0
  C  C33  1  0.87261000  0.04059000  0.24612000  1.0
  C  C34  1  0.80674000  0.05336000  0.34091000  1.0
  C  C35  1  0.75934000  0.98609000  0.40779000  1.0
  C  C36  1  0.66228000  0.08012000  0.50674000  1.0
  C  C37  1  0.70527000  0.15167000  0.44452000  1.0
  C  C38  1  0.78276000  0.13594000  0.36168000  1.0
  C  C39  1  0.66127000  0.24649000  0.46243000  1.0
  C  C40  1  0.88099000  0.15567000  0.90312000  1.0
  C  C41  1  0.82526000  0.24879000  0.84698000  1.0
  C  C42  1  0.79884000  0.33496000  0.86353000  1.0
  C  C43  1  0.71669000  0.42285000  0.75496000  1.0
  C  C44  1  0.73608000  0.34029000  0.73592000  1.0
  C  C45  1  0.79439000  0.25171000  0.78063000  1.0
  C  C46  1  0.68651000  0.34955000  0.67442000  1.0
  C  C47  1  0.21205000  0.82044000  0.14823000  1.0
  C  C48  1  0.31275000  0.75793000  0.16184000  1.0
  C  C49  1  0.39563000  0.73308000  0.08435000  1.0
  C  C50  1  0.49699000  0.62855000  0.17507000  1.0
  C  C51  1  0.41953000  0.65006000  0.25649000  1.0
  C  C52  1  0.32584000  0.71815000  0.24938000  1.0
  C  C53  1  0.43731000  0.59558000  0.34886000  1.0
  C  C54  1  0.12668000  0.81573000  0.89760000  1.0
  C  C55  1  0.14450000  0.75286000  0.84572000  1.0
  C  C56  1  0.06881000  0.71588000  0.87432000  1.0
  C  C57  1  0.16653000  0.62196000  0.77564000  1.0
  C  C58  1  0.24729000  0.65395000  0.74245000  1.0
  C  C59  1  0.23449000  0.72436000  0.77509000  1.0
  C  C60  1  0.34534000  0.60340000  0.68030000  1.0
  C  C61  1  0.13777000  0.13963000  0.91298000  1.0
  C  C62  1  0.14818000  0.23501000  0.84942000  1.0
  C  C63  1  0.06039000  0.31537000  0.84273000  1.0
  C  C64  1  0.15050000  0.41025000  0.72297000  1.0
  C  C65  1  0.24259000  0.33598000  0.72804000  1.0
  C  C66  1  0.24145000  0.24616000  0.79222000  1.0
  C  C67  1  0.33856000  0.35555000  0.66715000  1.0
  N  N68  1  0.76419000  0.69673000  0.09944000  1.0
  N  N69  1  0.69131000  0.99691000  0.49089000  1.0
  N  N70  1  0.74822000  0.42078000  0.81669000  1.0
  N  N71  1  0.48667000  0.67114000  0.09009000  1.0
  N  N72  1  0.07756000  0.65451000  0.83774000  1.0
  N  N73  1  0.06089000  0.40111000  0.78037000  1.0
  O  O74  1  0.02816000  0.96599000  0.04068000  1.0
  O  O75  1  0.93475000  0.79578000  0.17528000  1.0
  O  O76  1  0.83323000  0.91852000  0.09104000  1.0
  O  O77  1  0.61103000  0.63269000  0.41693000  1.0
  O  O78  1  0.72732000  0.49738000  0.37307000  1.0
  O  O79  1  0.95565000  0.05642000  0.20837000  1.0
  O  O80  1  0.83658000  0.01579000  0.21076000  1.0
  O  O81  1  0.56503000  0.28100000  0.48937000  1.0
  O  O82  1  0.72120000  0.28539000  0.44800000  1.0
  O  O83  1  0.96241000  0.10101000  0.85940000  1.0
  O  O84  1  0.84013000  0.13962000  0.99200000  1.0
  O  O85  1  0.59758000  0.34525000  0.71773000  1.0
  O  O86  1  0.73443000  0.36262000  0.58726000  1.0
  O  O87  1  0.18034000  0.90884000  0.14210000  1.0
  O  O88  1  0.16904000  0.77633000  0.14219000  1.0
  O  O89  1  0.47006000  0.50408000  0.36657000  1.0
  O  O90  1  0.41952000  0.64221000  0.40104000  1.0
  O  O91  1  0.14303000  0.89542000  0.85082000  1.0
  O  O92  1  0.09428000  0.78276000  0.98644000  1.0
  O  O93  1  0.37494000  0.51241000  0.71469000  1.0
  O  O94  1  0.38882000  0.65255000  0.60074000  1.0
  O  O95  1  0.10126000  0.12944000  0.00077000  1.0
  O  O96  1  0.16352000  0.07805000  0.87270000  1.0
  O  O97  1  0.34432000  0.40716000  0.58253000  1.0
  O  O98  1  0.40692000  0.32155000  0.70431000  1.0
  O  O99  1  0.53532000  0.45785000  0.53511000  1.0
