# generated using pymatgen
data_CaH24C34(NO2)4
_symmetry_space_group_name_H-M   'P 1'
_cell_length_a   7.96609000
_cell_length_b   10.63800000
_cell_length_c   17.99550000
_cell_angle_alpha   73.50300000
_cell_angle_beta   79.93970000
_cell_angle_gamma   85.07390000
_symmetry_Int_Tables_number   1
_chemical_formula_structural   CaH24C34(NO2)4
_chemical_formula_sum   'Ca2 H48 C68 N8 O16'
_cell_volume   1438.67521261
_cell_formula_units_Z   2
loop_
 _symmetry_equiv_pos_site_id
 _symmetry_equiv_pos_as_xyz
  1  'x, y, z'
loop_
 _atom_site_type_symbol
 _atom_site_label
 _atom_site_symmetry_multiplicity
 _atom_site_fract_x
 _atom_site_fract_y
 _atom_site_fract_z
 _atom_site_occupancy
  Ca  Ca0  1  0.23025000  0.42194000  0.48585000  1.0
  Ca  Ca1  1  0.76976000  0.57806000  0.51415000  1.0
  H  H2  1  0.61263000  0.28740000  0.54325000  1.0
  H  H3  1  0.38737000  0.71259000  0.45675000  1.0
  H  H4  1  0.84955000  0.12683000  0.51983000  1.0
  H  H5  1  0.15045000  0.87317000  0.48017000  1.0
  H  H6  1  0.82554000  0.99138000  0.42702000  1.0
  H  H7  1  0.17446000  0.00862000  0.57298000  1.0
  H  H8  1  0.66190000  0.93921000  0.33601000  1.0
  H  H9  1  0.33810000  0.06079000  0.66399000  1.0
  H  H10  1  0.40345000  0.97947000  0.26892000  1.0
  H  H11  1  0.59655000  0.02053000  0.73108000  1.0
  H  H12  1  0.12978000  0.10010000  0.24644000  1.0
  H  H13  1  0.87022000  0.89990000  0.75356000  1.0
  H  H14  1  0.90957000  0.27098000  0.27540000  1.0
  H  H15  1  0.09043000  0.72902000  0.72460000  1.0
  H  H16  1  0.95179000  0.38685000  0.37428000  1.0
  H  H17  1  0.04821000  0.61315000  0.62572000  1.0
  H  H18  1  0.89680000  0.37569000  0.71684000  1.0
  H  H19  1  0.10320000  0.62431000  0.28316000  1.0
  H  H20  1  0.77356000  0.25364000  0.70796000  1.0
  H  H21  1  0.22644000  0.74636000  0.29204000  1.0
  H  H22  1  0.00966000  0.08365000  0.74698000  1.0
  H  H23  1  0.99034000  0.91635000  0.25302000  1.0
  H  H24  1  0.13199000  0.20853000  0.75610000  1.0
  H  H25  1  0.86801000  0.79146000  0.24390000  1.0
  H  H26  1  0.97770000  0.23546000  0.05464000  1.0
  H  H27  1  0.02230000  0.76454000  0.94536000  1.0
  H  H28  1  0.79613000  0.09821000  0.17068000  1.0
  H  H29  1  0.20388000  0.90179000  0.82932000  1.0
  H  H30  1  0.61469000  0.93002000  0.15643000  1.0
  H  H31  1  0.38532000  0.06998000  0.84357000  1.0
  H  H32  1  0.60682000  0.89984000  0.02493000  1.0
  H  H33  1  0.39318000  0.10017000  0.97507000  1.0
  H  H34  1  0.63625000  0.66057000  0.24987000  1.0
  H  H35  1  0.36375000  0.33943000  0.75013000  1.0
  H  H36  1  0.79032000  0.53033000  0.26744000  1.0
  H  H37  1  0.20968000  0.46966000  0.73256000  1.0
  H  H38  1  0.57591000  0.37252000  0.26608000  1.0
  H  H39  1  0.42408000  0.62748000  0.73392000  1.0
  H  H40  1  0.41345000  0.50009000  0.26006000  1.0
  H  H41  1  0.58655000  0.49991000  0.73993000  1.0
  H  H42  1  0.46179000  0.78243000  0.95519000  1.0
  H  H43  1  0.53820000  0.21757000  0.04481000  1.0
  H  H44  1  0.63019000  0.74388000  0.83290000  1.0
  H  H45  1  0.36980000  0.25611000  0.16710000  1.0
  H  H46  1  0.85631000  0.56703000  0.83944000  1.0
  H  H47  1  0.14368000  0.43297000  0.16056000  1.0
  H  H48  1  0.91718000  0.42411000  0.96744000  1.0
  H  H49  1  0.08282000  0.57590000  0.03256000  1.0
  C  C50  1  0.60602000  0.22804000  0.50333000  1.0
  C  C51  1  0.39399000  0.77196000  0.49667000  1.0
  C  C52  1  0.73938000  0.13745000  0.48982000  1.0
  C  C53  1  0.26063000  0.86255000  0.51018000  1.0
  C  C54  1  0.72719000  0.06446000  0.43869000  1.0
  C  C55  1  0.27281000  0.93554000  0.56131000  1.0
  C  C56  1  0.58241000  0.08391000  0.40041000  1.0
  C  C57  1  0.41759000  0.91609000  0.59959000  1.0
  C  C58  1  0.45385000  0.17746000  0.41788000  1.0
  C  C59  1  0.54615000  0.82254000  0.58212000  1.0
  C  C60  1  0.56214000  0.01227000  0.34625000  1.0
  C  C61  1  0.43786000  0.98773000  0.65375000  1.0
  C  C62  1  0.42052000  0.03310000  0.31034000  1.0
  C  C63  1  0.57947000  0.96690000  0.68966000  1.0
  C  C64  1  0.30411000  0.19974000  0.37965000  1.0
  C  C65  1  0.69589000  0.80026000  0.62035000  1.0
  C  C66  1  0.28879000  0.12694000  0.32606000  1.0
  C  C67  1  0.71120000  0.87306000  0.67394000  1.0
  C  C68  1  0.14200000  0.15292000  0.28892000  1.0
  C  C69  1  0.85800000  0.84708000  0.71108000  1.0
  C  C70  1  0.02123000  0.24678000  0.30496000  1.0
  C  C71  1  0.97877000  0.75322000  0.69504000  1.0
  C  C72  1  0.04651000  0.31343000  0.35922000  1.0
  C  C73  1  0.95349000  0.68657000  0.64078000  1.0
  C  C74  1  0.99452000  0.29972000  0.61915000  1.0
  C  C75  1  0.00549000  0.70028000  0.38085000  1.0
  C  C76  1  0.90601000  0.28036000  0.70362000  1.0
  C  C77  1  0.09399000  0.71964000  0.29638000  1.0
  C  C78  1  0.00151000  0.17792000  0.76113000  1.0
  C  C79  1  0.99849000  0.82207000  0.23887000  1.0
  C  C80  1  0.97692000  0.21493000  0.89505000  1.0
  C  C81  1  0.02308000  0.78508000  0.10494000  1.0
  C  C82  1  0.88559000  0.14884000  0.97436000  1.0
  C  C83  1  0.11441000  0.85116000  0.02564000  1.0
  C  C84  1  0.89551000  0.16460000  0.04736000  1.0
  C  C85  1  0.10450000  0.83540000  0.95264000  1.0
  C  C86  1  0.79453000  0.08520000  0.11290000  1.0
  C  C87  1  0.20547000  0.91480000  0.88710000  1.0
  C  C88  1  0.69171000  0.99114000  0.10489000  1.0
  C  C89  1  0.30829000  0.00886000  0.89511000  1.0
  C  C90  1  0.68501000  0.97419000  0.03096000  1.0
  C  C91  1  0.31499000  0.02581000  0.96904000  1.0
  C  C92  1  0.78168000  0.05534000  0.96629000  1.0
  C  C93  1  0.21832000  0.94466000  0.03371000  1.0
  C  C94  1  0.80526000  0.06004000  0.88170000  1.0
  C  C95  1  0.19474000  0.93995000  0.11830000  1.0
  C  C96  1  0.59514000  0.53602000  0.36673000  1.0
  C  C97  1  0.40486000  0.46398000  0.63327000  1.0
  C  C98  1  0.65383000  0.55544000  0.27921000  1.0
  C  C99  1  0.34617000  0.44456000  0.72078000  1.0
  C  C100  1  0.55010000  0.47861000  0.24439000  1.0
  C  C101  1  0.44990000  0.52139000  0.75562000  1.0
  C  C102  1  0.51584000  0.62168000  0.11056000  1.0
  C  C103  1  0.48415000  0.37832000  0.88944000  1.0
  C  C104  1  0.59545000  0.62371000  0.02930000  1.0
  C  C105  1  0.40454000  0.37630000  0.97070000  1.0
  C  C106  1  0.56034000  0.70461000  0.95813000  1.0
  C  C107  1  0.43965000  0.29539000  0.04187000  1.0
  C  C108  1  0.65552000  0.68201000  0.88963000  1.0
  C  C109  1  0.34447000  0.31799000  0.11037000  1.0
  C  C110  1  0.78228000  0.58210000  0.89333000  1.0
  C  C111  1  0.21772000  0.41790000  0.10666000  1.0
  C  C112  1  0.81739000  0.50078000  0.96568000  1.0
  C  C113  1  0.18261000  0.49922000  0.03432000  1.0
  C  C114  1  0.72132000  0.52248000  0.03332000  1.0
  C  C115  1  0.27868000  0.47752000  0.96668000  1.0
  C  C116  1  0.72123000  0.45219000  0.11772000  1.0
  C  C117  1  0.27877000  0.54781000  0.88228000  1.0
  N  N118  1  0.46702000  0.24749000  0.46907000  1.0
  N  N119  1  0.53298000  0.75251000  0.53093000  1.0
  N  N120  1  0.18303000  0.29110000  0.39540000  1.0
  N  N121  1  0.81697000  0.70891000  0.60460000  1.0
  N  N122  1  0.92564000  0.15497000  0.84314000  1.0
  N  N123  1  0.07436000  0.84503000  0.15686000  1.0
  N  N124  1  0.59120000  0.51356000  0.15962000  1.0
  N  N125  1  0.40880000  0.48645000  0.84038000  1.0
  O  O126  1  0.11805000  0.22403000  0.60291000  1.0
  O  O127  1  0.88195000  0.77597000  0.39709000  1.0
  O  O128  1  0.94284000  0.39724000  0.56633000  1.0
  O  O129  1  0.05717000  0.60276000  0.43367000  1.0
  O  O130  1  0.07898000  0.30307000  0.87603000  1.0
  O  O131  1  0.92102000  0.69693000  0.12397000  1.0
  O  O132  1  0.73946000  0.99392000  0.84940000  1.0
  O  O133  1  0.26054000  0.00608000  0.15060000  1.0
  O  O134  1  0.43588000  0.54460000  0.39013000  1.0
  O  O135  1  0.56412000  0.45539000  0.60987000  1.0
  O  O136  1  0.70994000  0.51461000  0.41023000  1.0
  O  O137  1  0.29006000  0.48539000  0.58976000  1.0
  O  O138  1  0.40720000  0.69686000  0.13385000  1.0
  O  O139  1  0.59280000  0.30314000  0.86615000  1.0
  O  O140  1  0.81089000  0.35852000  0.14826000  1.0
  O  O141  1  0.18912000  0.64149000  0.85173000  1.0
