# generated using pymatgen
data_Ni4H29C38(NO3)5
_symmetry_space_group_name_H-M   'P 1'
_cell_length_a   12.92930000
_cell_length_b   18.59310000
_cell_length_c   21.93350000
_cell_angle_alpha   90.00000000
_cell_angle_beta   102.72700000
_cell_angle_gamma   90.00000000
_symmetry_Int_Tables_number   1
_chemical_formula_structural   Ni4H29C38(NO3)5
_chemical_formula_sum   'Ni16 H116 C152 N20 O60'
_cell_volume   5143.17423483
_cell_formula_units_Z   4
loop_
 _symmetry_equiv_pos_site_id
 _symmetry_equiv_pos_as_xyz
  1  'x, y, z'
loop_
 _atom_site_type_symbol
 _atom_site_label
 _atom_site_symmetry_multiplicity
 _atom_site_fract_x
 _atom_site_fract_y
 _atom_site_fract_z
 _atom_site_occupancy
  Ni  Ni0  1  0.79098000  0.72161000  0.11881000  1.0
  Ni  Ni1  1  0.70902000  0.22161000  0.38119000  1.0
  Ni  Ni2  1  0.20902000  0.27839000  0.88119000  1.0
  Ni  Ni3  1  0.29098000  0.77839000  0.61881000  1.0
  Ni  Ni4  1  0.98746000  0.76831000  0.21356000  1.0
  Ni  Ni5  1  0.51254000  0.26831000  0.28644000  1.0
  Ni  Ni6  1  0.01254000  0.23169000  0.78644000  1.0
  Ni  Ni7  1  0.48746000  0.73169000  0.71356000  1.0
  Ni  Ni8  1  0.97991000  0.61012000  0.23131000  1.0
  Ni  Ni9  1  0.52009000  0.11012000  0.26869000  1.0
  Ni  Ni10  1  0.02009000  0.38988000  0.76869000  1.0
  Ni  Ni11  1  0.47991000  0.88988000  0.73131000  1.0
  Ni  Ni12  1  0.12087000  0.63886000  0.13177000  1.0
  Ni  Ni13  1  0.37913000  0.13886000  0.36823000  1.0
  Ni  Ni14  1  0.87913000  0.36114000  0.86823000  1.0
  Ni  Ni15  1  0.62087000  0.86114000  0.63177000  1.0
  H  H16  1  0.85787000  0.95646000  0.29008000  1.0
  H  H17  1  0.64213000  0.45646000  0.20992000  1.0
  H  H18  1  0.14213000  0.04354000  0.70992000  1.0
  H  H19  1  0.35787000  0.54354000  0.79008000  1.0
  H  H20  1  0.74808000  0.05887000  0.31715000  1.0
  H  H21  1  0.75192000  0.55887000  0.18286000  1.0
  H  H22  1  0.25192000  0.94112000  0.68285000  1.0
  H  H23  1  0.24808000  0.44113000  0.81715000  1.0
  H  H24  1  0.49742000  0.00828000  0.17088000  1.0
  H  H25  1  0.00258000  0.50828000  0.32912000  1.0
  H  H26  1  0.50258000  0.99172000  0.82912000  1.0
  H  H27  1  0.99742000  0.49172000  0.67088000  1.0
  H  H28  1  0.59627000  0.90334000  0.13863000  1.0
  H  H29  1  0.90374000  0.40334000  0.36137000  1.0
  H  H30  1  0.40373000  0.09666000  0.86137000  1.0
  H  H31  1  0.09627000  0.59666000  0.63863000  1.0
  H  H32  1  0.29893000  0.65034000  0.24349000  1.0
  H  H33  1  0.20107000  0.15034000  0.25651000  1.0
  H  H34  1  0.70107000  0.34966000  0.75651000  1.0
  H  H35  1  0.79893000  0.84966000  0.74349000  1.0
  H  H36  1  0.46480000  0.71488000  0.07025000  1.0
  H  H37  1  0.03520000  0.21488000  0.42975000  1.0
  H  H38  1  0.53520000  0.28512000  0.92975000  1.0
  H  H39  1  0.96480000  0.78512000  0.57025000  1.0
  H  H40  1  0.49660000  0.66612000  0.26492000  1.0
  H  H41  1  0.00341000  0.16613000  0.23508000  1.0
  H  H42  1  0.50341000  0.33388000  0.73508000  1.0
  H  H43  1  0.99659000  0.83387000  0.76492000  1.0
  H  H44  1  0.21049000  0.79596000  0.37973000  1.0
  H  H45  1  0.28951000  0.29595000  0.12027000  1.0
  H  H46  1  0.78951000  0.20404000  0.62027000  1.0
  H  H47  1  0.71049000  0.70404000  0.87973000  1.0
  H  H48  1  0.31207000  0.81640000  0.48978000  1.0
  H  H49  1  0.18794000  0.31640000  0.01022000  1.0
  H  H50  1  0.68793000  0.18360000  0.51022000  1.0
  H  H51  1  0.81207000  0.68361000  0.98978000  1.0
  H  H52  1  0.12544000  0.67288000  0.56038000  1.0
  H  H53  1  0.37457000  0.17288000  0.93962000  1.0
  H  H54  1  0.87457000  0.32712000  0.43962000  1.0
  H  H55  1  0.62543000  0.82712000  0.06038000  1.0
  H  H56  1  0.02312000  0.63929000  0.45200000  1.0
  H  H57  1  0.47689000  0.13929000  0.04800000  1.0
  H  H58  1  0.97688000  0.36071000  0.54800000  1.0
  H  H59  1  0.52311000  0.86071000  0.95200000  1.0
  H  H60  1  0.17927000  0.41220000  0.31964000  1.0
  H  H61  1  0.32073000  0.91220000  0.18036000  1.0
  H  H62  1  0.82073000  0.58780000  0.68036000  1.0
  H  H63  1  0.67927000  0.08780000  0.81964000  1.0
  H  H64  1  0.31623000  0.31375000  0.34399000  1.0
  H  H65  1  0.18377000  0.81375000  0.15601000  1.0
  H  H66  1  0.68377000  0.68625000  0.65601000  1.0
  H  H67  1  0.81623000  0.18625000  0.84399000  1.0
  H  H68  1  0.46593000  0.38478000  0.20694000  1.0
  H  H69  1  0.03407000  0.88478000  0.29306000  1.0
  H  H70  1  0.53407000  0.61522000  0.79306000  1.0
  H  H71  1  0.96593000  0.11522000  0.70694000  1.0
  H  H72  1  0.33821000  0.48657000  0.17866000  1.0
  H  H73  1  0.16179000  0.98657000  0.32134000  1.0
  H  H74  1  0.66180000  0.51343000  0.82134000  1.0
  H  H75  1  0.83820000  0.01343000  0.67866000  1.0
  H  H76  1  0.73245000  0.55919000  0.98768000  1.0
  H  H77  1  0.76755000  0.05919000  0.51232000  1.0
  H  H78  1  0.26755000  0.44081000  0.01232000  1.0
  H  H79  1  0.23245000  0.94081000  0.48768000  1.0
  H  H80  1  0.73176000  0.46790000  0.90307000  1.0
  H  H81  1  0.76824000  0.96790000  0.59693000  1.0
  H  H82  1  0.26824000  0.53210000  0.09693000  1.0
  H  H83  1  0.23176000  0.03210000  0.40307000  1.0
  H  H84  1  0.99442000  0.36463000  0.00706000  1.0
  H  H85  1  0.50558000  0.86463000  0.49294000  1.0
  H  H86  1  0.00558000  0.63537000  0.99294000  1.0
  H  H87  1  0.49442000  0.13537000  0.50706000  1.0
  H  H88  1  0.00906000  0.45366000  0.09561000  1.0
  H  H89  1  0.49094000  0.95366000  0.40439000  1.0
  H  H90  1  0.99094000  0.54634000  0.90439000  1.0
  H  H91  1  0.50906000  0.04635000  0.59561000  1.0
  H  H92  1  0.81705000  0.69525000  0.22924000  1.0
  H  H93  1  0.68295000  0.19525000  0.27076000  1.0
  H  H94  1  0.18295000  0.30475000  0.77075000  1.0
  H  H95  1  0.31705000  0.80475000  0.72925000  1.0
  H  H96  1  0.14674000  0.68684000  0.24313000  1.0
  H  H97  1  0.35326000  0.18684000  0.25687000  1.0
  H  H98  1  0.85326000  0.31316000  0.75687000  1.0
  H  H99  1  0.64674000  0.81316000  0.74313000  1.0
  H  H100  1  0.85445000  0.88098000  0.05134000  1.0
  H  H101  1  0.64555000  0.38098000  0.44867000  1.0
  H  H102  1  0.14555000  0.11902000  0.94866000  1.0
  H  H103  1  0.35445000  0.61902000  0.55133000  1.0
  H  H104  1  0.10734000  0.77977000  0.98540000  1.0
  H  H105  1  0.39266000  0.27977000  0.51460000  1.0
  H  H106  1  0.89266000  0.22023000  0.01460000  1.0
  H  H107  1  0.60734000  0.72023000  0.48540000  1.0
  H  H108  1  0.09598000  0.87240000  0.90328000  1.0
  H  H109  1  0.40402000  0.37240000  0.59672000  1.0
  H  H110  1  0.90402000  0.12760000  0.09672000  1.0
  H  H111  1  0.59598000  0.62760000  0.40328000  1.0
  H  H112  1  0.83962000  0.97465000  0.96742000  1.0
  H  H113  1  0.66038000  0.47465000  0.53259000  1.0
  H  H114  1  0.16038000  0.02535000  0.03258000  1.0
  H  H115  1  0.33962000  0.52535000  0.46741000  1.0
  H  H116  1  0.26597000  0.70535000  0.05737000  1.0
  H  H117  1  0.23403000  0.20535000  0.44263000  1.0
  H  H118  1  0.73402000  0.29465000  0.94263000  1.0
  H  H119  1  0.76597000  0.79465000  0.55737000  1.0
  H  H120  1  0.11572000  0.99357000  0.88379000  1.0
  H  H121  1  0.38428000  0.49357000  0.61621000  1.0
  H  H122  1  0.88427000  0.00643000  0.11621000  1.0
  H  H123  1  0.61572000  0.50643000  0.38379000  1.0
  H  H124  1  0.02018000  0.04147000  0.82682000  1.0
  H  H125  1  0.47982000  0.54147000  0.67318000  1.0
  H  H126  1  0.97982000  0.95853000  0.17318000  1.0
  H  H127  1  0.52018000  0.45853000  0.32682000  1.0
  H  H128  1  0.03372000  0.94605000  0.81972000  1.0
  H  H129  1  0.46628000  0.44605000  0.68028000  1.0
  H  H130  1  0.96628000  0.05395000  0.18028000  1.0
  H  H131  1  0.53372000  0.55395000  0.31972000  1.0
  C  C132  1  0.79393000  0.85802000  0.19465000  1.0
  C  C133  1  0.70607000  0.35802000  0.30534000  1.0
  C  C134  1  0.20606000  0.14198000  0.80534000  1.0
  C  C135  1  0.29394000  0.64198000  0.69466000  1.0
  C  C136  1  0.73458000  0.92174000  0.21224000  1.0
  C  C137  1  0.76543000  0.42174000  0.28776000  1.0
  C  C138  1  0.26542000  0.07826000  0.78776000  1.0
  C  C139  1  0.23457000  0.57826000  0.71224000  1.0
  C  C140  1  0.77803000  0.96644000  0.26275000  1.0
  C  C141  1  0.72197000  0.46644000  0.23725000  1.0
  C  C142  1  0.22197000  0.03356000  0.73724000  1.0
  C  C143  1  0.27803000  0.53356000  0.76275000  1.0
  C  C144  1  0.71748000  0.02275000  0.27814000  1.0
  C  C145  1  0.78252000  0.52275000  0.22186000  1.0
  C  C146  1  0.28252000  0.97725000  0.72186000  1.0
  C  C147  1  0.21748000  0.47725000  0.77814000  1.0
  C  C148  1  0.57727000  0.99451000  0.19581000  1.0
  C  C149  1  0.92273000  0.49451000  0.30419000  1.0
  C  C150  1  0.42273000  0.00549000  0.80419000  1.0
  C  C151  1  0.07727000  0.50549000  0.69581000  1.0
  C  C152  1  0.63237000  0.93707000  0.17816000  1.0
  C  C153  1  0.86763000  0.43707000  0.32184000  1.0
  C  C154  1  0.36763000  0.06293000  0.82184000  1.0
  C  C155  1  0.13237000  0.56293000  0.67816000  1.0
  C  C156  1  0.33796000  0.66693000  0.20650000  1.0
  C  C157  1  0.16204000  0.16693000  0.29350000  1.0
  C  C158  1  0.66204000  0.33307000  0.79350000  1.0
  C  C159  1  0.83796000  0.83307000  0.70650000  1.0
  C  C160  1  0.49574000  0.68970000  0.16865000  1.0
  C  C161  1  0.00426000  0.18970000  0.33135000  1.0
  C  C162  1  0.50426000  0.31030000  0.83134000  1.0
  C  C163  1  0.99574000  0.81030000  0.66865000  1.0
  C  C164  1  0.42976000  0.70233000  0.10983000  1.0
  C  C165  1  0.07024000  0.20232000  0.39017000  1.0
  C  C166  1  0.57023000  0.29767000  0.89017000  1.0
  C  C167  1  0.92976000  0.79768000  0.60983000  1.0
  C  C168  1  0.61575000  0.69089000  0.17821000  1.0
  C  C169  1  0.88425000  0.19089000  0.32179000  1.0
  C  C170  1  0.38425000  0.30911000  0.82179000  1.0
  C  C171  1  0.11575000  0.80911000  0.67821000  1.0
  C  C172  1  0.44752000  0.67410000  0.21821000  1.0
  C  C173  1  0.05248000  0.17410000  0.28179000  1.0
  C  C174  1  0.55248000  0.32590000  0.78178000  1.0
  C  C175  1  0.94752000  0.82590000  0.71821000  1.0
  C  C176  1  0.04744000  0.70389000  0.34170000  1.0
  C  C177  1  0.45256000  0.20389000  0.15830000  1.0
  C  C178  1  0.95256000  0.29611000  0.65830000  1.0
  C  C179  1  0.54744000  0.79611000  0.84170000  1.0
  C  C180  1  0.10828000  0.71615000  0.40759000  1.0
  C  C181  1  0.39172000  0.21615000  0.09241000  1.0
  C  C182  1  0.89172000  0.28385000  0.59241000  1.0
  C  C183  1  0.60828000  0.78386000  0.90759000  1.0
  C  C184  1  0.19088000  0.76639000  0.41857000  1.0
  C  C185  1  0.30912000  0.26638000  0.08143000  1.0
  C  C186  1  0.80912000  0.23361000  0.58143000  1.0
  C  C187  1  0.69088000  0.73362000  0.91857000  1.0
  C  C188  1  0.24653000  0.77836000  0.47938000  1.0
  C  C189  1  0.25347000  0.27836000  0.02062000  1.0
  C  C190  1  0.75347000  0.22164000  0.52062000  1.0
  C  C191  1  0.74653000  0.72164000  0.97938000  1.0
  C  C192  1  0.14190000  0.69761000  0.51855000  1.0
  C  C193  1  0.35810000  0.19761000  0.98145000  1.0
  C  C194  1  0.85810000  0.30239000  0.48145000  1.0
  C  C195  1  0.64190000  0.80239000  0.01855000  1.0
  C  C196  1  0.08550000  0.67986000  0.45881000  1.0
  C  C197  1  0.41451000  0.17986000  0.04119000  1.0
  C  C198  1  0.91450000  0.32014000  0.54119000  1.0
  C  C199  1  0.58550000  0.82014000  0.95881000  1.0
  C  C200  1  0.17102000  0.51808000  0.22655000  1.0
  C  C201  1  0.32898000  0.01808000  0.27345000  1.0
  C  C202  1  0.82898000  0.48192000  0.77345000  1.0
  C  C203  1  0.67102000  0.98192000  0.72655000  1.0
  C  C204  1  0.24759000  0.45678000  0.24623000  1.0
  C  C205  1  0.25241000  0.95678000  0.25377000  1.0
  C  C206  1  0.75241000  0.54322000  0.75377000  1.0
  C  C207  1  0.74759000  0.04322000  0.74623000  1.0
  C  C208  1  0.24176000  0.40772000  0.29366000  1.0
  C  C209  1  0.25824000  0.90772000  0.20634000  1.0
  C  C210  1  0.75824000  0.59228000  0.70634000  1.0
  C  C211  1  0.74176000  0.09228000  0.79366000  1.0
  C  C212  1  0.31757000  0.35313000  0.30732000  1.0
  C  C213  1  0.18243000  0.85313000  0.19268000  1.0
  C  C214  1  0.68243000  0.64687000  0.69268000  1.0
  C  C215  1  0.81757000  0.14687000  0.80732000  1.0
  C  C216  1  0.40142000  0.39284000  0.23060000  1.0
  C  C217  1  0.09859000  0.89284000  0.26940000  1.0
  C  C218  1  0.59859000  0.60716000  0.76940000  1.0
  C  C219  1  0.90141000  0.10716000  0.73060000  1.0
  C  C220  1  0.33004000  0.44859000  0.21491000  1.0
  C  C221  1  0.16996000  0.94859000  0.28509000  1.0
  C  C222  1  0.66997000  0.55141000  0.78509000  1.0
  C  C223  1  0.83004000  0.05141000  0.71491000  1.0
  C  C224  1  0.88604000  0.57641000  0.09295000  1.0
  C  C225  1  0.61396000  0.07640000  0.40705000  1.0
  C  C226  1  0.11396000  0.42360000  0.90705000  1.0
  C  C227  1  0.38604000  0.92360000  0.59295000  1.0
  C  C228  1  0.87364000  0.51488000  0.04715000  1.0
  C  C229  1  0.62636000  0.01488000  0.45285000  1.0
  C  C230  1  0.12636000  0.48512000  0.95285000  1.0
  C  C231  1  0.37364000  0.98512000  0.54715000  1.0
  C  C232  1  0.79213000  0.51693000  0.99328000  1.0
  C  C233  1  0.70787000  0.01693000  0.50672000  1.0
  C  C234  1  0.20787000  0.48307000  0.00672000  1.0
  C  C235  1  0.29213000  0.98307000  0.49328000  1.0
  C  C236  1  0.79116000  0.46646000  0.94662000  1.0
  C  C237  1  0.70884000  0.96646000  0.55338000  1.0
  C  C238  1  0.20884000  0.53354000  0.05338000  1.0
  C  C239  1  0.29116000  0.03354000  0.44662000  1.0
  C  C240  1  0.93876000  0.40912000  0.00475000  1.0
  C  C241  1  0.56124000  0.90912000  0.49525000  1.0
  C  C242  1  0.06124000  0.59088000  0.99525000  1.0
  C  C243  1  0.43876000  0.09088000  0.50475000  1.0
  C  C244  1  0.94570000  0.45777000  0.05381000  1.0
  C  C245  1  0.55430000  0.95777000  0.44619000  1.0
  C  C246  1  0.05430000  0.54223000  0.94619000  1.0
  C  C247  1  0.44570000  0.04223000  0.55381000  1.0
  C  C248  1  0.99558000  0.77021000  0.07478000  1.0
  C  C249  1  0.50442000  0.27021000  0.42522000  1.0
  C  C250  1  0.00442000  0.22979000  0.92522000  1.0
  C  C251  1  0.49558000  0.72979000  0.57478000  1.0
  C  C252  1  0.98246000  0.82452000  0.02398000  1.0
  C  C253  1  0.51755000  0.32452000  0.47602000  1.0
  C  C254  1  0.01754000  0.17548000  0.97602000  1.0
  C  C255  1  0.48246000  0.67548000  0.52398000  1.0
  C  C256  1  0.90617000  0.87957000  0.01827000  1.0
  C  C257  1  0.59383000  0.37957000  0.48173000  1.0
  C  C258  1  0.09383000  0.12043000  0.98173000  1.0
  C  C259  1  0.40617000  0.62043000  0.51827000  1.0
  C  C260  1  0.04890000  0.82270000  0.98141000  1.0
  C  C261  1  0.45110000  0.32270000  0.51859000  1.0
  C  C262  1  0.95110000  0.17730000  0.01859000  1.0
  C  C263  1  0.54890000  0.67730000  0.48141000  1.0
  C  C264  1  0.96680000  0.92997000  0.93055000  1.0
  C  C265  1  0.53320000  0.42997000  0.56945000  1.0
  C  C266  1  0.03320000  0.07003000  0.06945000  1.0
  C  C267  1  0.46680000  0.57003000  0.43055000  1.0
  C  C268  1  0.04237000  0.87479000  0.93516000  1.0
  C  C269  1  0.45763000  0.37479000  0.56484000  1.0
  C  C270  1  0.95763000  0.12521000  0.06484000  1.0
  C  C271  1  0.54237000  0.62521000  0.43516000  1.0
  C  C272  1  0.89758000  0.93131000  0.97189000  1.0
  C  C273  1  0.60242000  0.43131000  0.52812000  1.0
  C  C274  1  0.10242000  0.06869000  0.02811000  1.0
  C  C275  1  0.39758000  0.56869000  0.47188000  1.0
  C  C276  1  0.32040000  0.69645000  0.10233000  1.0
  C  C277  1  0.17960000  0.19645000  0.39767000  1.0
  C  C278  1  0.67960000  0.30355000  0.89767000  1.0
  C  C279  1  0.82040000  0.80355000  0.60233000  1.0
  C  C280  1  0.03643000  0.99104000  0.85266000  1.0
  C  C281  1  0.46356000  0.49104000  0.64734000  1.0
  C  C282  1  0.96356000  0.00896000  0.14734000  1.0
  C  C283  1  0.53644000  0.50896000  0.35266000  1.0
  N  N284  1  0.61810000  0.03608000  0.24574000  1.0
  N  N285  1  0.88190000  0.53608000  0.25426000  1.0
  N  N286  1  0.38190000  0.96392000  0.75426000  1.0
  N  N287  1  0.11810000  0.46392000  0.74574000  1.0
  N  N288  1  0.22129000  0.74606000  0.52905000  1.0
  N  N289  1  0.27871000  0.24606000  0.97095000  1.0
  N  N290  1  0.77871000  0.25394000  0.47095000  1.0
  N  N291  1  0.72129000  0.75394000  0.02905000  1.0
  N  N292  1  0.39610000  0.34542000  0.27637000  1.0
  N  N293  1  0.10390000  0.84542000  0.22362000  1.0
  N  N294  1  0.60390000  0.65458000  0.72363000  1.0
  N  N295  1  0.89610000  0.15458000  0.77638000  1.0
  N  N296  1  0.86542000  0.41475000  0.95072000  1.0
  N  N297  1  0.63458000  0.91475000  0.54928000  1.0
  N  N298  1  0.13458000  0.58525000  0.04928000  1.0
  N  N299  1  0.36542000  0.08525000  0.45072000  1.0
  N  N300  1  0.27478000  0.67687000  0.14942000  1.0
  N  N301  1  0.22522000  0.17687000  0.35058000  1.0
  N  N302  1  0.72522000  0.32313000  0.85058000  1.0
  N  N303  1  0.77478000  0.82313000  0.64942000  1.0
  O  O304  1  0.67118000  0.69466000  0.23281000  1.0
  O  O305  1  0.82882000  0.19466000  0.26719000  1.0
  O  O306  1  0.32882000  0.30535000  0.76719000  1.0
  O  O307  1  0.17118000  0.80534000  0.73281000  1.0
  O  O308  1  0.64705000  0.68650000  0.12667000  1.0
  O  O309  1  0.85295000  0.18650000  0.37333000  1.0
  O  O310  1  0.35295000  0.31350000  0.87333000  1.0
  O  O311  1  0.14705000  0.81350000  0.62667000  1.0
  O  O312  1  0.87286000  0.69158000  0.20487000  1.0
  O  O313  1  0.62714000  0.19158000  0.29513000  1.0
  O  O314  1  0.12714000  0.30842000  0.79513000  1.0
  O  O315  1  0.37286000  0.80842000  0.70487000  1.0
  O  O316  1  0.08531000  0.68278000  0.20862000  1.0
  O  O317  1  0.41469000  0.18278000  0.29138000  1.0
  O  O318  1  0.91469000  0.31722000  0.79138000  1.0
  O  O319  1  0.58531000  0.81722000  0.70862000  1.0
  O  O320  1  0.74487000  0.81971000  0.14961000  1.0
  O  O321  1  0.75513000  0.31972000  0.35039000  1.0
  O  O322  1  0.25513000  0.18028000  0.85038000  1.0
  O  O323  1  0.24487000  0.68028000  0.64962000  1.0
  O  O324  1  0.88738000  0.84868000  0.22663000  1.0
  O  O325  1  0.61262000  0.34867000  0.27337000  1.0
  O  O326  1  0.11262000  0.15132000  0.77337000  1.0
  O  O327  1  0.38738000  0.65132000  0.72663000  1.0
  O  O328  1  0.03192000  0.76060000  0.30871000  1.0
  O  O329  1  0.46808000  0.26060000  0.19129000  1.0
  O  O330  1  0.96808000  0.23940000  0.69129000  1.0
  O  O331  1  0.53192000  0.73940000  0.80871000  1.0
  O  O332  1  0.02105000  0.63988000  0.32517000  1.0
  O  O333  1  0.47895000  0.13988000  0.17483000  1.0
  O  O334  1  0.97895000  0.36012000  0.67483000  1.0
  O  O335  1  0.52105000  0.86013000  0.82517000  1.0
  O  O336  1  0.10287000  0.53200000  0.25815000  1.0
  O  O337  1  0.39713000  0.03200000  0.24186000  1.0
  O  O338  1  0.89713000  0.46800000  0.74185000  1.0
  O  O339  1  0.60287000  0.96800000  0.75815000  1.0
  O  O340  1  0.18565000  0.55095000  0.17812000  1.0
  O  O341  1  0.31435000  0.05095000  0.32188000  1.0
  O  O342  1  0.81436000  0.44905000  0.82188000  1.0
  O  O343  1  0.68565000  0.94905000  0.67812000  1.0
  O  O344  1  0.81451000  0.62381000  0.08153000  1.0
  O  O345  1  0.68550000  0.12381000  0.41847000  1.0
  O  O346  1  0.18550000  0.37619000  0.91847000  1.0
  O  O347  1  0.31450000  0.87619000  0.58153000  1.0
  O  O348  1  0.96922000  0.57644000  0.13736000  1.0
  O  O349  1  0.53078000  0.07644000  0.36264000  1.0
  O  O350  1  0.03078000  0.42356000  0.86264000  1.0
  O  O351  1  0.46922000  0.92356000  0.63736000  1.0
  O  O352  1  0.93828000  0.77643000  0.11562000  1.0
  O  O353  1  0.56172000  0.27643000  0.38438000  1.0
  O  O354  1  0.06172000  0.22358000  0.88438000  1.0
  O  O355  1  0.43828000  0.72357000  0.61562000  1.0
  O  O356  1  0.06479000  0.72132000  0.07486000  1.0
  O  O357  1  0.43521000  0.22132000  0.42514000  1.0
  O  O358  1  0.93521000  0.27868000  0.92514000  1.0
  O  O359  1  0.56479000  0.77868000  0.57486000  1.0
  O  O360  1  0.95601000  0.98430000  0.88806000  1.0
  O  O361  1  0.54399000  0.48430000  0.61194000  1.0
  O  O362  1  0.04399000  0.01570000  0.11194000  1.0
  O  O363  1  0.45601000  0.51570000  0.38806000  1.0
