# generated using pymatgen
data_Dy2H20C12O13
_symmetry_space_group_name_H-M   'P 1'
_cell_length_a   8.33657000
_cell_length_b   11.36940000
_cell_length_c   11.36940000
_cell_angle_alpha   92.00920000
_cell_angle_beta   107.60800000
_cell_angle_gamma   107.60800000
_symmetry_Int_Tables_number   1
_chemical_formula_structural   Dy2H20C12O13
_chemical_formula_sum   'Dy4 H40 C24 O26'
_cell_volume   969.45465713
_cell_formula_units_Z   2
loop_
 _symmetry_equiv_pos_site_id
 _symmetry_equiv_pos_as_xyz
  1  'x, y, z'
loop_
 _atom_site_type_symbol
 _atom_site_label
 _atom_site_symmetry_multiplicity
 _atom_site_fract_x
 _atom_site_fract_y
 _atom_site_fract_z
 _atom_site_occupancy
  Dy  Dy0  1  0.93207000  0.84581000  0.56060000  1.0
  Dy  Dy1  1  0.43207000  0.56060000  0.84581000  1.0
  Dy  Dy2  1  0.69567000  0.71315000  0.19686000  1.0
  Dy  Dy3  1  0.19567000  0.19685000  0.71315000  1.0
  H  H4  1  0.00430000  0.43507000  0.38008000  1.0
  H  H5  1  0.50430000  0.38009000  0.43507000  1.0
  H  H6  1  0.91285000  0.47325000  0.49333000  1.0
  H  H7  1  0.41284000  0.49333000  0.47325000  1.0
  H  H8  1  0.12528000  0.56798000  0.49824000  1.0
  H  H9  1  0.62528000  0.49824000  0.56798000  1.0
  H  H10  1  0.29255000  0.12134000  0.36822000  1.0
  H  H11  1  0.79256000  0.36822000  0.12134000  1.0
  H  H12  1  0.13349000  0.11047000  0.21745000  1.0
  H  H13  1  0.63350000  0.21745000  0.11048000  1.0
  H  H14  1  0.27625000  0.02060000  0.23553000  1.0
  H  H15  1  0.77625000  0.23553000  0.02060000  1.0
  H  H16  1  0.29509000  0.65521000  0.33787000  1.0
  H  H17  1  0.79509000  0.33787000  0.65521000  1.0
  H  H18  1  0.33634000  0.79833000  0.27508000  1.0
  H  H19  1  0.83634000  0.27508000  0.79833000  1.0
  H  H20  1  0.30124000  0.79027000  0.42439000  1.0
  H  H21  1  0.80125000  0.42439000  0.79027000  1.0
  H  H22  1  0.57671000  0.93308000  0.68419000  1.0
  H  H23  1  0.07671000  0.68420000  0.93308000  1.0
  H  H24  1  0.56580000  0.06729000  0.76827000  1.0
  H  H25  1  0.06579000  0.76827000  0.06729000  1.0
  H  H26  1  0.51742000  0.05518000  0.60544000  1.0
  H  H27  1  0.01742000  0.60544000  0.05518000  1.0
  H  H28  1  0.73108000  0.04802000  0.31593000  1.0
  H  H29  1  0.23108000  0.31593000  0.04802000  1.0
  H  H30  1  0.72705000  0.20403000  0.34499000  1.0
  H  H31  1  0.22705000  0.34499000  0.20403000  1.0
  H  H32  1  0.60047000  0.07615000  0.40242000  1.0
  H  H33  1  0.10047000  0.40242000  0.07615000  1.0
  H  H34  1  0.72909000  0.89268000  0.90412000  1.0
  H  H35  1  0.22909000  0.90412000  0.89267000  1.0
  H  H36  1  0.83222000  0.05610000  0.96360000  1.0
  H  H37  1  0.33223000  0.96361000  0.05609000  1.0
  H  H38  1  0.94333000  0.94862000  0.01770000  1.0
  H  H39  1  0.44333000  0.01770000  0.94862000  1.0
  H  H40  1  0.99549000  0.62471000  0.69351000  1.0
  H  H41  1  0.49549000  0.69351000  0.62472000  1.0
  H  H42  1  0.84233000  0.65934000  0.72345000  1.0
  H  H43  1  0.34233000  0.72345000  0.65934000  1.0
  C  C44  1  0.90797000  0.59102000  0.35193000  1.0
  C  C45  1  0.40797000  0.35193000  0.59102000  1.0
  C  C46  1  0.99313000  0.51175000  0.43438000  1.0
  C  C47  1  0.49313000  0.43438000  0.51175000  1.0
  C  C48  1  0.06453000  0.95287000  0.31193000  1.0
  C  C49  1  0.56453000  0.31193000  0.95287000  1.0
  C  C50  1  0.20209000  0.05857000  0.28306000  1.0
  C  C51  1  0.70209000  0.28306000  0.05858000  1.0
  C  C52  1  0.55556000  0.78261000  0.42442000  1.0
  C  C53  1  0.05556000  0.42442000  0.78261000  1.0
  C  C54  1  0.35990000  0.75670000  0.36140000  1.0
  C  C55  1  0.85990000  0.36140000  0.75670000  1.0
  C  C56  1  0.31256000  0.93883000  0.66029000  1.0
  C  C57  1  0.81255000  0.66029000  0.93883000  1.0
  C  C58  1  0.50674000  0.00053000  0.68243000  1.0
  C  C59  1  0.00674000  0.68243000  0.00053000  1.0
  C  C60  1  0.87984000  0.14066000  0.50243000  1.0
  C  C61  1  0.37984000  0.50243000  0.14066000  1.0
  C  C62  1  0.72615000  0.11706000  0.38362000  1.0
  C  C63  1  0.22615000  0.38362000  0.11706000  1.0
  C  C64  1  0.93953000  0.99033000  0.83436000  1.0
  C  C65  1  0.43953000  0.83436000  0.99033000  1.0
  C  C66  1  0.85417000  0.97082000  0.93487000  1.0
  C  C67  1  0.35417000  0.93487000  0.97082000  1.0
  O  O68  1  0.85837000  0.56743000  0.23385000  1.0
  O  O69  1  0.35837000  0.23385000  0.56743000  1.0
  O  O70  1  0.87967000  0.68403000  0.40080000  1.0
  O  O71  1  0.37967000  0.40080000  0.68403000  1.0
  O  O72  1  0.94973000  0.87264000  0.21989000  1.0
  O  O73  1  0.44974000  0.21989000  0.87264000  1.0
  O  O74  1  0.06880000  0.94944000  0.42374000  1.0
  O  O75  1  0.56879000  0.42374000  0.94944000  1.0
  O  O76  1  0.66607000  0.82299000  0.36524000  1.0
  O  O77  1  0.16607000  0.36524000  0.82299000  1.0
  O  O78  1  0.61697000  0.76623000  0.53742000  1.0
  O  O79  1  0.11697000  0.53742000  0.76623000  1.0
  O  O80  1  0.23222000  0.82415000  0.61641000  1.0
  O  O81  1  0.73221000  0.61641000  0.82415000  1.0
  O  O82  1  0.21920000  0.00361000  0.68077000  1.0
  O  O83  1  0.71919000  0.68077000  0.00362000  1.0
  O  O84  1  0.90449000  0.04941000  0.56126000  1.0
  O  O85  1  0.40449000  0.56126000  0.04941000  1.0
  O  O86  1  0.98561000  0.25086000  0.54671000  1.0
  O  O87  1  0.48561000  0.54671000  0.25086000  1.0
  O  O88  1  0.90657000  0.89727000  0.75515000  1.0
  O  O89  1  0.40657000  0.75515000  0.89727000  1.0
  O  O90  1  0.04277000  0.10025000  0.83665000  1.0
  O  O91  1  0.54277000  0.83665000  0.10025000  1.0
  O  O92  1  0.90834000  0.66937000  0.66241000  1.0
  O  O93  1  0.40834000  0.66241000  0.66937000  1.0
