# generated using pymatgen
data_ZnH16C14(SN3)2
_symmetry_space_group_name_H-M   'P 1'
_cell_length_a   8.01254000
_cell_length_b   8.78272000
_cell_length_c   12.07360000
_cell_angle_alpha   90.00010000
_cell_angle_beta   90.00030000
_cell_angle_gamma   80.20710000
_symmetry_Int_Tables_number   1
_chemical_formula_structural   ZnH16C14(SN3)2
_chemical_formula_sum   'Zn2 H32 C28 S4 N12'
_cell_volume   837.26196549
_cell_formula_units_Z   2
loop_
 _symmetry_equiv_pos_site_id
 _symmetry_equiv_pos_as_xyz
  1  'x, y, z'
loop_
 _atom_site_type_symbol
 _atom_site_label
 _atom_site_symmetry_multiplicity
 _atom_site_fract_x
 _atom_site_fract_y
 _atom_site_fract_z
 _atom_site_occupancy
  Zn  Zn0  1  0.00000000  0.00000000  0.50000000  1.0
  Zn  Zn1  1  0.50000000  0.50000000  0.00000000  1.0
  H  H2  1  0.03497000  0.66603000  0.39788000  1.0
  H  H3  1  0.46503000  0.83397000  0.89788000  1.0
  H  H4  1  0.96503000  0.33397000  0.60212000  1.0
  H  H5  1  0.53497000  0.16603000  0.10212000  1.0
  H  H6  1  0.20399000  0.40258000  0.42194000  1.0
  H  H7  1  0.29602000  0.09742000  0.92195000  1.0
  H  H8  1  0.79602000  0.59742000  0.57806000  1.0
  H  H9  1  0.70399000  0.90258000  0.07806000  1.0
  H  H10  1  0.41061000  0.35496000  0.58040000  1.0
  H  H11  1  0.08940000  0.14504000  0.08040000  1.0
  H  H12  1  0.58940000  0.64505000  0.41960000  1.0
  H  H13  1  0.91061000  0.85496000  0.91960000  1.0
  H  H14  1  0.27041000  0.83534000  0.66535000  1.0
  H  H15  1  0.22959000  0.66466000  0.16535000  1.0
  H  H16  1  0.72959000  0.16466000  0.33465000  1.0
  H  H17  1  0.77041000  0.33534000  0.83465000  1.0
  H  H18  1  0.58733000  0.49628000  0.71596000  1.0
  H  H19  1  0.91267000  0.00371000  0.21596000  1.0
  H  H20  1  0.41267000  0.50371000  0.28404000  1.0
  H  H21  1  0.08733000  0.99629000  0.78404000  1.0
  H  H22  1  0.49516000  0.68064000  0.76436000  1.0
  H  H23  1  0.00485000  0.81935000  0.26436000  1.0
  H  H24  1  0.50484000  0.31935000  0.23564000  1.0
  H  H25  1  0.99515000  0.18065000  0.73564000  1.0
  H  H26  1  0.39265000  0.38095000  0.81371000  1.0
  H  H27  1  0.10735000  0.11905000  0.31371000  1.0
  H  H28  1  0.60735000  0.61904000  0.18629000  1.0
  H  H29  1  0.89265000  0.88095000  0.68629000  1.0
  H  H30  1  0.26804000  0.54329000  0.84258000  1.0
  H  H31  1  0.23196000  0.95671000  0.34258000  1.0
  H  H32  1  0.73196000  0.45671000  0.15742000  1.0
  H  H33  1  0.76803000  0.04329000  0.65742000  1.0
  C  C34  1  0.31966000  0.10028000  0.62440000  1.0
  C  C35  1  0.18034000  0.39973000  0.12438000  1.0
  C  C36  1  0.68033000  0.89972000  0.37559000  1.0
  C  C37  1  0.81965000  0.60027000  0.87561000  1.0
  C  C38  1  0.12935000  0.64278000  0.46344000  1.0
  C  C39  1  0.37065000  0.85722000  0.96345000  1.0
  C  C40  1  0.87065000  0.35722000  0.53656000  1.0
  C  C41  1  0.62935000  0.14278000  0.03656000  1.0
  C  C42  1  0.22220000  0.49504000  0.47849000  1.0
  C  C43  1  0.27780000  0.00496000  0.97849000  1.0
  C  C44  1  0.77780000  0.50496000  0.52151000  1.0
  C  C45  1  0.72220000  0.99504000  0.02151000  1.0
  C  C46  1  0.33565000  0.46908000  0.56634000  1.0
  C  C47  1  0.16436000  0.03092000  0.06634000  1.0
  C  C48  1  0.66436000  0.53093000  0.43366000  1.0
  C  C49  1  0.83565000  0.96908000  0.93366000  1.0
  C  C50  1  0.35228000  0.59102000  0.63782000  1.0
  C  C51  1  0.14772000  0.90898000  0.13782000  1.0
  C  C52  1  0.64772000  0.40899000  0.36218000  1.0
  C  C53  1  0.85228000  0.09102000  0.86218000  1.0
  C  C54  1  0.25732000  0.73578000  0.61418000  1.0
  C  C55  1  0.24268000  0.76422000  0.11418000  1.0
  C  C56  1  0.74267000  0.26422000  0.38582000  1.0
  C  C57  1  0.75732000  0.23578000  0.88582000  1.0
  C  C58  1  0.46619000  0.56864000  0.73778000  1.0
  C  C59  1  0.03381000  0.93136000  0.23778000  1.0
  C  C60  1  0.53380000  0.43136000  0.26222000  1.0
  C  C61  1  0.96619000  0.06864000  0.76222000  1.0
  S  S62  1  0.46588000  0.10304000  0.71746000  1.0
  S  S63  1  0.03412000  0.39697000  0.21745000  1.0
  S  S64  1  0.53411000  0.89696000  0.28254000  1.0
  S  S65  1  0.96588000  0.60303000  0.78254000  1.0
  N  N66  1  0.21111000  0.09879000  0.55760000  1.0
  N  N67  1  0.28887000  0.40121000  0.05759000  1.0
  N  N68  1  0.78888000  0.90121000  0.44240000  1.0
  N  N69  1  0.71113000  0.59879000  0.94240000  1.0
  N  N70  1  0.14803000  0.76247000  0.52903000  1.0
  N  N71  1  0.35197000  0.73753000  0.02903000  1.0
  N  N72  1  0.85197000  0.23753000  0.47098000  1.0
  N  N73  1  0.64803000  0.26247000  0.97098000  1.0
  N  N74  1  0.39351000  0.49502000  0.83266000  1.0
  N  N75  1  0.10648000  0.00498000  0.33266000  1.0
  N  N76  1  0.60648000  0.50498000  0.16734000  1.0
  N  N77  1  0.89351000  0.99502000  0.66734000  1.0
