# generated using pymatgen
data_ZnH6C5(NO3)2
_symmetry_space_group_name_H-M   'P 1'
_cell_length_a   6.11938000
_cell_length_b   6.26053000
_cell_length_c   19.67540000
_cell_angle_alpha   87.48640000
_cell_angle_beta   89.99950000
_cell_angle_gamma   89.99980000
_symmetry_Int_Tables_number   1
_chemical_formula_structural   ZnH6C5(NO3)2
_chemical_formula_sum   'Zn4 H24 C20 N8 O24'
_cell_volume   753.05037998
_cell_formula_units_Z   4
loop_
 _symmetry_equiv_pos_site_id
 _symmetry_equiv_pos_as_xyz
  1  'x, y, z'
loop_
 _atom_site_type_symbol
 _atom_site_label
 _atom_site_symmetry_multiplicity
 _atom_site_fract_x
 _atom_site_fract_y
 _atom_site_fract_z
 _atom_site_occupancy
  Zn  Zn0  1  0.84213000  0.08223000  0.19961000  1.0
  Zn  Zn1  1  0.34214000  0.91776000  0.30039000  1.0
  Zn  Zn2  1  0.15787000  0.91777000  0.80039000  1.0
  Zn  Zn3  1  0.65786000  0.08224000  0.69961000  1.0
  H  H4  1  0.28968000  0.20340000  0.00175000  1.0
  H  H5  1  0.78969000  0.79660000  0.49825000  1.0
  H  H6  1  0.71031000  0.79661000  0.99825000  1.0
  H  H7  1  0.21032000  0.20340000  0.50175000  1.0
  H  H8  1  0.94443000  0.34058000  0.05235000  1.0
  H  H9  1  0.44444000  0.65943000  0.44765000  1.0
  H  H10  1  0.05556000  0.65943000  0.94765000  1.0
  H  H11  1  0.55557000  0.34058000  0.55235000  1.0
  H  H12  1  0.85243000  0.37848000  0.29688000  1.0
  H  H13  1  0.35243000  0.62152000  0.20312000  1.0
  H  H14  1  0.14758000  0.62152000  0.70312000  1.0
  H  H15  1  0.64757000  0.37849000  0.79688000  1.0
  H  H16  1  0.82534000  0.51573000  0.22437000  1.0
  H  H17  1  0.32534000  0.48427000  0.27563000  1.0
  H  H18  1  0.17466000  0.48427000  0.77563000  1.0
  H  H19  1  0.67466000  0.51573000  0.72437000  1.0
  H  H20  1  0.67082000  0.72696000  0.14329000  1.0
  H  H21  1  0.17082000  0.27304000  0.35671000  1.0
  H  H22  1  0.32918000  0.27305000  0.85671000  1.0
  H  H23  1  0.82918000  0.72696000  0.64329000  1.0
  H  H24  1  0.92884000  0.70323000  0.13549000  1.0
  H  H25  1  0.42884000  0.29677000  0.36451000  1.0
  H  H26  1  0.07116000  0.29677000  0.86451000  1.0
  H  H27  1  0.57116000  0.70323000  0.63549000  1.0
  C  C28  1  0.48656000  0.17435000  0.09785000  1.0
  C  C29  1  0.98656000  0.82564000  0.40215000  1.0
  C  C30  1  0.51343000  0.82565000  0.90215000  1.0
  C  C31  1  0.01344000  0.17435000  0.59785000  1.0
  C  C32  1  0.44341000  0.21800000  0.02848000  1.0
  C  C33  1  0.94341000  0.78200000  0.47152000  1.0
  C  C34  1  0.55658000  0.78200000  0.97152000  1.0
  C  C35  1  0.05659000  0.21800000  0.52848000  1.0
  C  C36  1  0.64375000  0.28166000  0.00043000  1.0
  C  C37  1  0.14376000  0.71834000  0.49957000  1.0
  C  C38  1  0.35624000  0.71834000  0.99957000  1.0
  C  C39  1  0.85625000  0.28166000  0.50043000  1.0
  C  C40  1  0.34664000  0.10344000  0.15611000  1.0
  C  C41  1  0.84663000  0.89654000  0.34390000  1.0
  C  C42  1  0.65336000  0.89655000  0.84389000  1.0
  C  C43  1  0.15337000  0.10346000  0.65611000  1.0
  C  C44  1  0.71852000  0.34208000  0.93026000  1.0
  C  C45  1  0.21852000  0.65792000  0.56974000  1.0
  C  C46  1  0.28148000  0.65792000  0.06974000  1.0
  C  C47  1  0.78148000  0.34208000  0.43026000  1.0
  N  N48  1  0.69966000  0.20889000  0.11092000  1.0
  N  N49  1  0.19966000  0.79111000  0.38908000  1.0
  N  N50  1  0.30034000  0.79111000  0.88908000  1.0
  N  N51  1  0.80034000  0.20889000  0.61092000  1.0
  N  N52  1  0.79138000  0.27239000  0.05219000  1.0
  N  N53  1  0.29139000  0.72762000  0.44781000  1.0
  N  N54  1  0.20861000  0.72762000  0.94781000  1.0
  N  N55  1  0.70862000  0.27238000  0.55220000  1.0
  O  O56  1  0.45214000  0.05235000  0.21097000  1.0
  O  O57  1  0.95212000  0.94765000  0.28903000  1.0
  O  O58  1  0.54786000  0.94766000  0.78903000  1.0
  O  O59  1  0.04787000  0.05235000  0.71097000  1.0
  O  O60  1  0.14294000  0.10186000  0.14743000  1.0
  O  O61  1  0.64293000  0.89809000  0.35258000  1.0
  O  O62  1  0.85706000  0.89810000  0.85257000  1.0
  O  O63  1  0.35707000  0.10191000  0.64743000  1.0
  O  O64  1  0.83777000  0.37121000  0.24669000  1.0
  O  O65  1  0.33776000  0.62878000  0.25331000  1.0
  O  O66  1  0.16225000  0.62879000  0.75331000  1.0
  O  O67  1  0.66225000  0.37122000  0.74669000  1.0
  O  O68  1  0.58299000  0.33300000  0.88177000  1.0
  O  O69  1  0.08298000  0.66700000  0.61823000  1.0
  O  O70  1  0.41701000  0.66701000  0.11823000  1.0
  O  O71  1  0.91702000  0.33300000  0.38177000  1.0
  O  O72  1  0.81163000  0.75076000  0.16743000  1.0
  O  O73  1  0.31163000  0.24924000  0.33257000  1.0
  O  O74  1  0.18837000  0.24924000  0.83257000  1.0
  O  O75  1  0.68837000  0.75077000  0.66743000  1.0
  O  O76  1  0.91856000  0.39535000  0.92465000  1.0
  O  O77  1  0.41856000  0.60464000  0.57535000  1.0
  O  O78  1  0.08144000  0.60465000  0.07536000  1.0
  O  O79  1  0.58144000  0.39535000  0.42465000  1.0
