# generated using pymatgen
data_Zn4H8C42O25F4
_symmetry_space_group_name_H-M   'P 1'
_cell_length_a   20.93110000
_cell_length_b   20.94630000
_cell_length_c   20.94630000
_cell_angle_alpha   103.22200000
_cell_angle_beta   112.52000000
_cell_angle_gamma   112.52000000
_symmetry_Int_Tables_number   1
_chemical_formula_structural   Zn4H8C42O25F4
_chemical_formula_sum   'Zn8 H16 C84 O50 F8'
_cell_volume   7037.15585402
_cell_formula_units_Z   2
loop_
 _symmetry_equiv_pos_site_id
 _symmetry_equiv_pos_as_xyz
  1  'x, y, z'
loop_
 _atom_site_type_symbol
 _atom_site_label
 _atom_site_symmetry_multiplicity
 _atom_site_fract_x
 _atom_site_fract_y
 _atom_site_fract_z
 _atom_site_occupancy
  Zn  Zn0  1  0.56708000  0.27543000  0.70252000  1.0
  Zn  Zn1  1  0.56841000  0.86450000  0.29310000  1.0
  Zn  Zn2  1  0.56943000  0.29577000  0.86117000  1.0
  Zn  Zn3  1  0.43159000  0.70690000  0.13550000  1.0
  Zn  Zn4  1  0.43057000  0.13883000  0.70423000  1.0
  Zn  Zn5  1  0.42775000  0.72260000  0.28831000  1.0
  Zn  Zn6  1  0.43292000  0.29748000  0.72457000  1.0
  Zn  Zn7  1  0.57225000  0.71169000  0.27740000  1.0
  H  H8  1  0.39456000  0.53200000  0.96346000  1.0
  H  H9  1  0.91088000  0.77814000  0.48553000  1.0
  H  H10  1  0.94009000  0.45734000  0.80469000  1.0
  H  H11  1  0.08912000  0.51447000  0.22186000  1.0
  H  H12  1  0.05991000  0.19531000  0.54266000  1.0
  H  H13  1  0.28344000  0.50300000  0.61502000  1.0
  H  H14  1  0.68633000  0.58413000  0.44787000  1.0
  H  H15  1  0.71656000  0.38499000  0.49701000  1.0
  H  H16  1  0.60742000  0.46721000  0.04261000  1.0
  H  H17  1  0.31366000  0.55213000  0.41587000  1.0
  H  H18  1  0.52542000  0.61514000  0.87484000  1.0
  H  H19  1  0.46573000  0.37325000  0.12629000  1.0
  H  H20  1  0.47458000  0.12517000  0.38486000  1.0
  H  H21  1  0.53427000  0.87370000  0.62675000  1.0
  H  H22  1  0.60544000  0.03654000  0.46800000  1.0
  H  H23  1  0.39258000  0.95739000  0.53280000  1.0
  C  C24  1  0.50000000  0.14214000  0.85786000  1.0
  C  C25  1  0.68338000  0.58249000  0.29355000  1.0
  C  C26  1  0.50174000  0.61399000  0.11218000  1.0
  C  C27  1  0.49702000  0.10809000  0.60991000  1.0
  C  C28  1  0.49826000  0.88782000  0.38601000  1.0
  C  C29  1  0.50298000  0.39009000  0.89191000  1.0
  C  C30  1  0.28183000  0.14622000  0.64021000  1.0
  C  C31  1  0.72099000  0.86418000  0.35774000  1.0
  C  C32  1  0.71817000  0.35979000  0.85378000  1.0
  C  C33  1  0.27901000  0.64226000  0.13582000  1.0
  C  C34  1  0.70736000  0.28779000  0.59509000  1.0
  C  C35  1  0.80535000  0.40392000  0.89699000  1.0
  C  C36  1  0.19174000  0.59861000  0.09094000  1.0
  C  C37  1  0.19464000  0.10301000  0.59609000  1.0
  C  C38  1  0.80826000  0.90906000  0.40139000  1.0
  C  C39  1  0.31662000  0.70645000  0.41751000  1.0
  C  C40  1  0.87974000  0.44156000  0.93451000  1.0
  C  C41  1  0.11733000  0.56121000  0.05320000  1.0
  C  C42  1  0.12026000  0.06548000  0.55844000  1.0
  C  C43  1  0.88267000  0.94679000  0.43880000  1.0
  C  C44  1  0.96107000  0.48260000  0.97488000  1.0
  C  C45  1  0.29264000  0.40492000  0.71221000  1.0
  C  C46  1  0.03598000  0.52029000  0.01224000  1.0
  C  C47  1  0.03893000  0.02512000  0.51740000  1.0
  C  C48  1  0.96402000  0.98775000  0.47971000  1.0
  C  C49  1  0.50000000  0.40493000  0.59507000  1.0
  C  C50  1  0.50000000  0.59878000  0.40122000  1.0
  C  C51  1  0.50000000  0.44226000  0.55775000  1.0
  C  C52  1  0.50000000  0.56142000  0.43858000  1.0
  C  C53  1  0.14976000  0.29405000  0.61694000  1.0
  C  C54  1  0.83020000  0.68289000  0.39878000  1.0
  C  C55  1  0.85024000  0.38305000  0.70595000  1.0
  C  C56  1  0.16980000  0.60122000  0.31711000  1.0
  C  C57  1  0.28925000  0.42771000  0.64799000  1.0
  C  C58  1  0.66730000  0.55208000  0.34720000  1.0
  C  C59  1  0.71075000  0.35201000  0.57229000  1.0
  C  C60  1  0.33270000  0.65280000  0.44792000  1.0
  C  C61  1  0.43353000  0.51790000  0.79935000  1.0
  C  C62  1  0.53801000  0.47997000  0.18972000  1.0
  C  C63  1  0.56647000  0.20066000  0.48211000  1.0
  C  C64  1  0.46199000  0.81028000  0.52003000  1.0
  C  C65  1  0.36275000  0.44879000  0.78632000  1.0
  C  C66  1  0.62069000  0.54482000  0.21618000  1.0
  C  C67  1  0.63726000  0.21368000  0.55121000  1.0
  C  C68  1  0.50000000  0.86086000  0.13914000  1.0
  C  C69  1  0.37931000  0.78381000  0.45518000  1.0
  C  C70  1  0.36782000  0.42353000  0.84426000  1.0
  C  C71  1  0.63046000  0.57186000  0.16304000  1.0
  C  C72  1  0.63218000  0.15574000  0.57647000  1.0
  C  C73  1  0.36954000  0.83696000  0.42814000  1.0
  C  C74  1  0.30144000  0.35519000  0.82543000  1.0
  C  C75  1  0.70502000  0.63574000  0.18916000  1.0
  C  C76  1  0.69856000  0.17456000  0.64481000  1.0
  C  C77  1  0.29498000  0.81084000  0.36426000  1.0
  C  C78  1  0.23163000  0.31179000  0.75218000  1.0
  C  C79  1  0.76808000  0.67311000  0.26586000  1.0
  C  C80  1  0.76837000  0.24781000  0.68820000  1.0
  C  C81  1  0.23192000  0.73414000  0.32689000  1.0
  C  C82  1  0.22583000  0.33605000  0.69442000  1.0
  C  C83  1  0.50000000  0.48304000  0.51695000  1.0
  C  C84  1  0.75839000  0.64732000  0.31907000  1.0
  C  C85  1  0.77417000  0.30557000  0.66395000  1.0
  C  C86  1  0.24161000  0.68093000  0.35268000  1.0
  C  C87  1  0.44108000  0.51728000  0.98023000  1.0
  C  C88  1  0.56127000  0.48242000  0.02575000  1.0
  C  C89  1  0.55892000  0.01977000  0.48271000  1.0
  C  C90  1  0.50000000  0.52062000  0.47938000  1.0
  C  C91  1  0.43873000  0.97425000  0.51758000  1.0
  C  C92  1  0.50279000  0.55458000  0.05770000  1.0
  C  C93  1  0.50027000  0.44623000  0.94797000  1.0
  C  C94  1  0.49721000  0.94230000  0.44542000  1.0
  C  C95  1  0.49973000  0.05203000  0.55377000  1.0
  C  C96  1  0.56365000  0.53624000  0.08135000  1.0
  C  C97  1  0.43878000  0.46362000  0.92465000  1.0
  C  C98  1  0.43635000  0.91865000  0.46376000  1.0
  C  C99  1  0.56122000  0.07535000  0.53638000  1.0
  C  C100  1  0.50000000  0.36123000  0.63877000  1.0
  C  C101  1  0.50000000  0.64248000  0.35751000  1.0
  C  C102  1  0.50000000  0.09841000  0.90159000  1.0
  C  C103  1  0.50000000  0.90461000  0.09539000  1.0
  C  C104  1  0.50000000  0.06108000  0.93893000  1.0
  C  C105  1  0.50000000  0.94195000  0.05805000  1.0
  C  C106  1  0.50000000  0.02030000  0.97971000  1.0
  C  C107  1  0.50000000  0.98274000  0.01726000  1.0
  O  O108  1  0.50000000  0.25127000  0.74873000  1.0
  O  O109  1  0.45509000  0.78787000  0.10017000  1.0
  O  O110  1  0.47930000  0.85803000  0.58807000  1.0
  O  O111  1  0.44856000  0.10393000  0.78562000  1.0
  O  O112  1  0.54491000  0.89983000  0.21213000  1.0
  O  O113  1  0.54332000  0.33115000  0.64294000  1.0
  O  O114  1  0.44295000  0.65649000  0.33736000  1.0
  O  O115  1  0.45668000  0.35706000  0.66886000  1.0
  O  O116  1  0.55705000  0.66264000  0.34351000  1.0
  O  O117  1  0.50000000  0.75194000  0.24806000  1.0
  O  O118  1  0.44774000  0.08039000  0.63156000  1.0
  O  O119  1  0.55370000  0.91729000  0.37149000  1.0
  O  O120  1  0.55226000  0.36844000  0.91961000  1.0
  O  O121  1  0.44629000  0.62851000  0.08271000  1.0
  O  O122  1  0.45618000  0.36884000  0.82080000  1.0
  O  O123  1  0.55643000  0.64588000  0.18299000  1.0
  O  O124  1  0.54382000  0.17920000  0.63116000  1.0
  O  O125  1  0.44357000  0.81701000  0.35412000  1.0
  O  O126  1  0.31534000  0.10655000  0.64708000  1.0
  O  O127  1  0.68538000  0.90168000  0.34627000  1.0
  O  O128  1  0.68466000  0.35292000  0.89345000  1.0
  O  O129  1  0.31462000  0.65372000  0.09832000  1.0
  O  O130  1  0.31632000  0.21934000  0.66777000  1.0
  O  O131  1  0.68854000  0.79171000  0.33515000  1.0
  O  O132  1  0.68368000  0.33223000  0.78065000  1.0
  O  O133  1  0.31146000  0.66485000  0.20828000  1.0
  O  O134  1  0.55144000  0.21438000  0.89607000  1.0
  O  O135  1  0.12702000  0.32576000  0.57923000  1.0
  O  O136  1  0.10839000  0.21692000  0.59320000  1.0
  O  O137  1  0.85640000  0.64665000  0.42611000  1.0
  O  O138  1  0.86338000  0.75974000  0.43535000  1.0
  O  O139  1  0.87298000  0.42076000  0.67425000  1.0
  O  O140  1  0.89161000  0.40680000  0.78308000  1.0
  O  O141  1  0.14360000  0.57388000  0.35335000  1.0
  O  O142  1  0.13662000  0.56465000  0.24026000  1.0
  O  O143  1  0.29015000  0.39166000  0.59422000  1.0
  O  O144  1  0.28420000  0.49134000  0.65797000  1.0
  O  O145  1  0.62717000  0.48377000  0.32949000  1.0
  O  O146  1  0.69987000  0.60910000  0.41680000  1.0
  O  O147  1  0.70985000  0.40578000  0.60834000  1.0
  O  O148  1  0.71580000  0.34203000  0.50866000  1.0
  O  O149  1  0.37283000  0.67051000  0.51623000  1.0
  O  O150  1  0.30013000  0.58320000  0.39090000  1.0
  O  O151  1  0.44839000  0.52484000  0.74960000  1.0
  O  O152  1  0.48112000  0.57378000  0.87335000  1.0
  O  O153  1  0.49077000  0.48837000  0.20583000  1.0
  O  O154  1  0.52070000  0.41193000  0.14197000  1.0
  O  O155  1  0.55161000  0.25041000  0.47517000  1.0
  O  O156  1  0.51888000  0.12665000  0.42622000  1.0
  O  O157  1  0.50923000  0.79416000  0.51163000  1.0
  F  F158  1  0.30418000  0.32800000  0.87874000  1.0
  F  F159  1  0.83925000  0.73372000  0.28655000  1.0
  F  F160  1  0.82973000  0.25944000  0.75262000  1.0
  F  F161  1  0.16075000  0.71345000  0.26628000  1.0
  F  F162  1  0.17027000  0.24737000  0.74056000  1.0
  F  F163  1  0.71680000  0.66428000  0.14018000  1.0
  F  F164  1  0.69582000  0.12125000  0.67199000  1.0
  F  F165  1  0.28320000  0.85982000  0.33572000  1.0
