# generated using pymatgen
data_CuH6C8N3
_symmetry_space_group_name_H-M   'P 1'
_cell_length_a   5.92506000
_cell_length_b   9.18325000
_cell_length_c   12.80810000
_cell_angle_alpha   89.99900000
_cell_angle_beta   89.99950000
_cell_angle_gamma   86.11320000
_symmetry_Int_Tables_number   1
_chemical_formula_structural   CuH6C8N3
_chemical_formula_sum   'Cu4 H24 C32 N12'
_cell_volume   695.30252724
_cell_formula_units_Z   4
loop_
 _symmetry_equiv_pos_site_id
 _symmetry_equiv_pos_as_xyz
  1  'x, y, z'
loop_
 _atom_site_type_symbol
 _atom_site_label
 _atom_site_symmetry_multiplicity
 _atom_site_fract_x
 _atom_site_fract_y
 _atom_site_fract_z
 _atom_site_occupancy
  Cu  Cu0  1  0.10198000  0.26508000  0.94152000  1.0
  Cu  Cu1  1  0.39801000  0.23490000  0.44152000  1.0
  Cu  Cu2  1  0.89800000  0.73492000  0.05848000  1.0
  Cu  Cu3  1  0.60200000  0.76509000  0.55849000  1.0
  H  H4  1  0.93295000  0.50193000  0.88536000  1.0
  H  H5  1  0.56703000  0.99806000  0.38537000  1.0
  H  H6  1  0.06705000  0.49806000  0.11464000  1.0
  H  H7  1  0.43297000  0.00195000  0.61463000  1.0
  H  H8  1  0.38795000  0.10715000  0.10292000  1.0
  H  H9  1  0.11206000  0.39283000  0.60290000  1.0
  H  H10  1  0.61207000  0.89284000  0.89708000  1.0
  H  H11  1  0.88793000  0.60718000  0.39710000  1.0
  H  H12  1  0.85138000  0.12406000  0.11478000  1.0
  H  H13  1  0.64863000  0.37592000  0.61477000  1.0
  H  H14  1  0.14865000  0.87593000  0.88522000  1.0
  H  H15  1  0.35136000  0.62409000  0.38522000  1.0
  H  H16  1  0.25378000  0.60571000  0.67243000  1.0
  H  H17  1  0.24620000  0.89428000  0.17244000  1.0
  H  H18  1  0.74621000  0.39429000  0.32756000  1.0
  H  H19  1  0.75380000  0.10571000  0.82755000  1.0
  H  H20  1  0.91904000  0.68041000  0.74075000  1.0
  H  H21  1  0.58094000  0.81959000  0.24077000  1.0
  H  H22  1  0.08097000  0.31959000  0.25924000  1.0
  H  H23  1  0.41906000  0.18041000  0.75923000  1.0
  H  H24  1  0.24169000  0.41773000  0.81102000  1.0
  H  H25  1  0.25828000  0.08226000  0.31101000  1.0
  H  H26  1  0.75829000  0.58227000  0.18898000  1.0
  H  H27  1  0.74174000  0.91774000  0.68898000  1.0
  C  C28  1  0.59826000  0.32893000  0.94102000  1.0
  C  C29  1  0.90172000  0.17106000  0.44102000  1.0
  C  C30  1  0.40173000  0.67107000  0.05898000  1.0
  C  C31  1  0.09829000  0.82894000  0.55898000  1.0
  C  C32  1  0.78100000  0.51706000  0.83750000  1.0
  C  C33  1  0.71897000  0.98293000  0.33751000  1.0
  C  C34  1  0.21896000  0.48293000  0.16252000  1.0
  C  C35  1  0.28104000  0.01707000  0.66250000  1.0
  C  C36  1  0.49740000  0.17231000  0.05719000  1.0
  C  C37  1  0.00259000  0.32768000  0.55718000  1.0
  C  C38  1  0.50259000  0.82769000  0.94281000  1.0
  C  C39  1  0.99740000  0.67232000  0.44283000  1.0
  C  C40  1  0.59053000  0.43826000  0.85980000  1.0
  C  C41  1  0.90944000  0.06173000  0.35979000  1.0
  C  C42  1  0.40937000  0.56172000  0.14019000  1.0
  C  C43  1  0.09063000  0.93827000  0.64021000  1.0
  C  C44  1  0.72956000  0.18122000  0.06359000  1.0
  C  C45  1  0.77046000  0.31878000  0.56359000  1.0
  C  C46  1  0.27044000  0.81878000  0.93641000  1.0
  C  C47  1  0.22956000  0.68122000  0.43641000  1.0
  C  C48  1  0.40214000  0.57810000  0.72089000  1.0
  C  C49  1  0.09786000  0.92190000  0.22089000  1.0
  C  C50  1  0.59783000  0.42192000  0.27911000  1.0
  C  C51  1  0.90216000  0.07809000  0.77910000  1.0
  C  C52  1  0.77229000  0.61894000  0.75788000  1.0
  C  C53  1  0.72768000  0.88105000  0.25788000  1.0
  C  C54  1  0.22768000  0.38104000  0.24213000  1.0
  C  C55  1  0.27233000  0.11896000  0.74212000  1.0
  C  C56  1  0.39649000  0.47353000  0.79875000  1.0
  C  C57  1  0.10351000  0.02647000  0.29874000  1.0
  C  C58  1  0.60350000  0.52648000  0.20125000  1.0
  C  C59  1  0.89650000  0.97353000  0.70126000  1.0
  N  N60  1  0.41441000  0.26471000  0.98025000  1.0
  N  N61  1  0.08556000  0.23528000  0.48023000  1.0
  N  N62  1  0.58557000  0.73531000  0.01976000  1.0
  N  N63  1  0.91444000  0.76472000  0.51977000  1.0
  N  N64  1  0.79390000  0.27910000  0.99039000  1.0
  N  N65  1  0.70610000  0.22089000  0.49039000  1.0
  N  N66  1  0.20610000  0.72090000  0.00961000  1.0
  N  N67  1  0.29392000  0.77911000  0.50960000  1.0
  N  N68  1  0.58703000  0.65045000  0.69843000  1.0
  N  N69  1  0.91297000  0.84955000  0.19844000  1.0
  N  N70  1  0.41297000  0.34955000  0.30157000  1.0
  N  N71  1  0.08705000  0.15044000  0.80157000  1.0
