# generated using pymatgen
data_GaH8C4(ClO)2
_symmetry_space_group_name_H-M   'P 1'
_cell_length_a   8.17881000
_cell_length_b   8.22772000
_cell_length_c   11.19860000
_cell_angle_alpha   90.00000000
_cell_angle_beta   89.99990000
_cell_angle_gamma   89.99990000
_symmetry_Int_Tables_number   1
_chemical_formula_structural   GaH8C4(ClO)2
_chemical_formula_sum   'Ga4 H32 C16 Cl8 O8'
_cell_volume   753.58692632
_cell_formula_units_Z   4
loop_
 _symmetry_equiv_pos_site_id
 _symmetry_equiv_pos_as_xyz
  1  'x, y, z'
loop_
 _atom_site_type_symbol
 _atom_site_label
 _atom_site_symmetry_multiplicity
 _atom_site_fract_x
 _atom_site_fract_y
 _atom_site_fract_z
 _atom_site_occupancy
  Ga  Ga0  1  0.10260000  0.25000000  0.25000000  1.0
  Ga  Ga1  1  0.39740000  0.25000000  0.25000000  1.0
  Ga  Ga2  1  0.89740000  0.75000000  0.75000000  1.0
  Ga  Ga3  1  0.60260000  0.75000000  0.75000000  1.0
  H  H4  1  0.15378000  0.61488000  0.33759000  1.0
  H  H5  1  0.34622000  0.88511000  0.33759000  1.0
  H  H6  1  0.15378000  0.88512000  0.16241000  1.0
  H  H7  1  0.34622000  0.61488000  0.16241000  1.0
  H  H8  1  0.84622000  0.38512000  0.66241000  1.0
  H  H9  1  0.65378000  0.11489000  0.66241000  1.0
  H  H10  1  0.84622000  0.11489000  0.83758000  1.0
  H  H11  1  0.65378000  0.38512000  0.83759000  1.0
  H  H12  1  0.20687000  0.61826000  0.49364000  1.0
  H  H13  1  0.29313000  0.88174000  0.49364000  1.0
  H  H14  1  0.20687000  0.88174000  0.00636000  1.0
  H  H15  1  0.29313000  0.61826000  0.00636000  1.0
  H  H16  1  0.79313000  0.38174000  0.50636000  1.0
  H  H17  1  0.70687000  0.11826000  0.50636000  1.0
  H  H18  1  0.79314000  0.11826000  0.99364000  1.0
  H  H19  1  0.70687000  0.38174000  0.99364000  1.0
  H  H20  1  0.14077000  0.38434000  0.61263000  1.0
  H  H21  1  0.35923000  0.11565000  0.61262000  1.0
  H  H22  1  0.14077000  0.11565000  0.88738000  1.0
  H  H23  1  0.35923000  0.38435000  0.88738000  1.0
  H  H24  1  0.85923000  0.61565000  0.38737000  1.0
  H  H25  1  0.64077000  0.88435000  0.38737000  1.0
  H  H26  1  0.85923000  0.88435000  0.11262000  1.0
  H  H27  1  0.64077000  0.61565000  0.11262000  1.0
  H  H28  1  0.04313000  0.21533000  0.53907000  1.0
  H  H29  1  0.45687000  0.28467000  0.53907000  1.0
  H  H30  1  0.04313000  0.28467000  0.96093000  1.0
  H  H31  1  0.45687000  0.21533000  0.96093000  1.0
  H  H32  1  0.95687000  0.78467000  0.46093000  1.0
  H  H33  1  0.54313000  0.71533000  0.46093000  1.0
  H  H34  1  0.95687000  0.71533000  0.03907000  1.0
  H  H35  1  0.54313000  0.78467000  0.03907000  1.0
  C  C36  1  0.11493000  0.57952000  0.42768000  1.0
  C  C37  1  0.38507000  0.92048000  0.42769000  1.0
  C  C38  1  0.11493000  0.92048000  0.07232000  1.0
  C  C39  1  0.38507000  0.57952000  0.07232000  1.0
  C  C40  1  0.88507000  0.42048000  0.57232000  1.0
  C  C41  1  0.61493000  0.07952000  0.57231000  1.0
  C  C42  1  0.88507000  0.07952000  0.92769000  1.0
  C  C43  1  0.61493000  0.42048000  0.92768000  1.0
  C  C44  1  0.05087000  0.34805000  0.54440000  1.0
  C  C45  1  0.44913000  0.15195000  0.54440000  1.0
  C  C46  1  0.05087000  0.15195000  0.95560000  1.0
  C  C47  1  0.44913000  0.34805000  0.95560000  1.0
  C  C48  1  0.94913000  0.65195000  0.45560000  1.0
  C  C49  1  0.55087000  0.84805000  0.45560000  1.0
  C  C50  1  0.94913000  0.84805000  0.04440000  1.0
  C  C51  1  0.55087000  0.65195000  0.04440000  1.0
  Cl  Cl52  1  0.95184000  0.05985000  0.33559000  1.0
  Cl  Cl53  1  0.54815000  0.44015000  0.33559000  1.0
  Cl  Cl54  1  0.95184000  0.44015000  0.16441000  1.0
  Cl  Cl55  1  0.54816000  0.05985000  0.16441000  1.0
  Cl  Cl56  1  0.04815000  0.94015000  0.66441000  1.0
  Cl  Cl57  1  0.45185000  0.55985000  0.66441000  1.0
  Cl  Cl58  1  0.04816000  0.55985000  0.83559000  1.0
  Cl  Cl59  1  0.45185000  0.94015000  0.83559000  1.0
  O  O60  1  0.10791000  0.40388000  0.42915000  1.0
  O  O61  1  0.39209000  0.09612000  0.42915000  1.0
  O  O62  1  0.10791000  0.09612000  0.07085000  1.0
  O  O63  1  0.39209000  0.40388000  0.07085000  1.0
  O  O64  1  0.89209000  0.59612000  0.57085000  1.0
  O  O65  1  0.60791000  0.90388000  0.57085000  1.0
  O  O66  1  0.89210000  0.90388000  0.92915000  1.0
  O  O67  1  0.60791000  0.59612000  0.92915000  1.0
