# generated using pymatgen
data_Zr3H20(C18O11)2
_symmetry_space_group_name_H-M   'P 1'
_cell_length_a   16.89233566
_cell_length_b   16.89200000
_cell_length_c   16.97770000
_cell_angle_alpha   60.86950000
_cell_angle_beta   60.87164128
_cell_angle_gamma   91.23145805
_symmetry_Int_Tables_number   1
_chemical_formula_structural   Zr3H20(C18O11)2
_chemical_formula_sum   'Zr6 H40 C72 O44'
_cell_volume   3478.05758301
_cell_formula_units_Z   2
loop_
 _symmetry_equiv_pos_site_id
 _symmetry_equiv_pos_as_xyz
  1  'x, y, z'
loop_
 _atom_site_type_symbol
 _atom_site_label
 _atom_site_symmetry_multiplicity
 _atom_site_fract_x
 _atom_site_fract_y
 _atom_site_fract_z
 _atom_site_occupancy
  Zr  Zr0  1  0.39615000  0.39612000  0.70774000  1.0
  Zr  Zr1  1  0.60385000  0.60387000  0.29227000  1.0
  Zr  Zr2  1  0.39626000  0.39627000  0.50001000  1.0
  Zr  Zr3  1  0.60372000  0.60372000  0.50001000  1.0
  Zr  Zr4  1  0.60409000  0.39590000  0.49999000  1.0
  Zr  Zr5  1  0.39591000  0.60411000  0.50001000  1.0
  H  H6  1  0.41730000  0.25422000  0.66221000  1.0
  H  H7  1  0.74576000  0.58269000  0.33778000  1.0
  H  H8  1  0.41639000  0.57953000  0.33781000  1.0
  H  H9  1  0.42048000  0.58356000  0.66221000  1.0
  H  H10  1  0.39748000  0.13040000  0.97943000  1.0
  H  H11  1  0.64397000  0.15648000  0.70460000  1.0
  H  H12  1  0.60985000  0.87695000  0.02055000  1.0
  H  H13  1  0.36109000  0.84860000  0.29543000  1.0
  H  H14  1  0.12309000  0.39016000  0.97945000  1.0
  H  H15  1  0.15143000  0.63891000  0.70459000  1.0
  H  H16  1  0.86962000  0.60252000  0.02055000  1.0
  H  H17  1  0.84349000  0.35600000  0.29544000  1.0
  H  H18  1  0.86678000  0.39026000  0.50562000  1.0
  H  H19  1  0.84417000  0.64268000  0.50455000  1.0
  H  H20  1  0.12758000  0.60420000  0.50556000  1.0
  H  H21  1  0.15128000  0.35280000  0.50451000  1.0
  H  H22  1  0.39590000  0.87244000  0.49435000  1.0
  H  H23  1  0.64723000  0.84874000  0.49548000  1.0
  H  H24  1  0.60971000  0.13321000  0.49443000  1.0
  H  H25  1  0.35727000  0.15578000  0.49556000  1.0
  H  H26  1  0.12635000  0.13277000  0.97844000  1.0
  H  H27  1  0.15053000  0.15579000  0.70458000  1.0
  H  H28  1  0.86715000  0.87361000  0.02166000  1.0
  H  H29  1  0.84414000  0.84946000  0.29545000  1.0
  H  H30  1  0.39526000  0.38874000  0.97838000  1.0
  H  H31  1  0.64490000  0.63956000  0.70457000  1.0
  H  H32  1  0.61118000  0.60478000  0.02158000  1.0
  H  H33  1  0.36041000  0.35509000  0.29544000  1.0
  H  H34  1  0.32187000  0.04835000  0.13126000  1.0
  H  H35  1  0.67962000  0.95314000  0.86877000  1.0
  H  H36  1  0.04690000  0.32044000  0.13120000  1.0
  H  H37  1  0.95161000  0.67809000  0.86879000  1.0
  H  H38  1  0.94657000  0.31750000  0.50171000  1.0
  H  H39  1  0.05174000  0.68083000  0.50164000  1.0
  H  H40  1  0.31918000  0.94828000  0.49831000  1.0
  H  H41  1  0.68249000  0.05342000  0.49835000  1.0
  H  H42  1  0.05097000  0.05249000  0.12887000  1.0
  H  H43  1  0.94747000  0.94906000  0.87115000  1.0
  H  H44  1  0.32020000  0.31857000  0.12889000  1.0
  H  H45  1  0.68139000  0.67982000  0.87112000  1.0
  C  C46  1  0.50935000  0.23814000  0.75879000  1.0
  C  C47  1  0.76185000  0.49069000  0.24118000  1.0
  C  C48  1  0.49696000  0.76814000  0.24121000  1.0
  C  C49  1  0.23188000  0.50305000  0.75882000  1.0
  C  C50  1  0.23255000  0.23857000  0.75948000  1.0
  C  C51  1  0.50801000  0.50198000  0.75943000  1.0
  C  C52  1  0.76141000  0.76745000  0.24055000  1.0
  C  C53  1  0.49804000  0.49201000  0.24053000  1.0
  C  C54  1  0.49524000  0.23779000  0.49531000  1.0
  C  C55  1  0.23311000  0.49056000  0.50467000  1.0
  C  C56  1  0.50945000  0.76692000  0.49530000  1.0
  C  C57  1  0.76222000  0.50475000  0.50469000  1.0
  C  C58  1  0.45457000  0.10212000  0.94977000  1.0
  C  C59  1  0.59426000  0.11818000  0.79310000  1.0
  C  C60  1  0.60542000  0.03808000  0.86140000  1.0
  C  C61  1  0.54149000  0.98598000  0.97831000  1.0
  C  C62  1  0.55188000  0.90433000  0.05023000  1.0
  C  C63  1  0.41128000  0.88735000  0.20691000  1.0
  C  C64  1  0.39946000  0.96681000  0.13862000  1.0
  C  C65  1  0.46426000  0.01980000  0.02170000  1.0
  C  C66  1  0.51864000  0.15097000  0.83696000  1.0
  C  C67  1  0.48791000  0.85557000  0.16305000  1.0
  C  C68  1  0.09567000  0.44811000  0.94978000  1.0
  C  C69  1  0.11266000  0.58872000  0.79310000  1.0
  C  C70  1  0.03318000  0.60052000  0.86138000  1.0
  C  C71  1  0.98019000  0.53570000  0.97832000  1.0
  C  C72  1  0.89790000  0.54543000  0.05022000  1.0
  C  C73  1  0.88182000  0.40576000  0.20692000  1.0
  C  C74  1  0.96190000  0.39458000  0.13864000  1.0
  C  C75  1  0.01403000  0.45850000  0.02171000  1.0
  C  C76  1  0.14443000  0.51208000  0.83697000  1.0
  C  C77  1  0.84904000  0.48140000  0.16304000  1.0
  C  C78  1  0.89696000  0.44847000  0.50508000  1.0
  C  C79  1  0.88279000  0.59196000  0.50462000  1.0
  C  C80  1  0.96415000  0.60356000  0.50394000  1.0
  C  C81  1  0.01525000  0.53700000  0.50458000  1.0
  C  C82  1  0.09792000  0.54646000  0.50510000  1.0
  C  C83  1  0.11256000  0.40339000  0.50469000  1.0
  C  C84  1  0.03188000  0.39246000  0.50401000  1.0
  C  C85  1  0.98017000  0.45843000  0.50456000  1.0
  C  C86  1  0.84943000  0.51410000  0.50529000  1.0
  C  C87  1  0.14522000  0.48057000  0.50541000  1.0
  C  C88  1  0.45357000  0.90208000  0.49490000  1.0
  C  C89  1  0.59660000  0.88742000  0.49537000  1.0
  C  C90  1  0.60754000  0.96813000  0.49601000  1.0
  C  C91  1  0.54157000  0.01984000  0.49544000  1.0
  C  C92  1  0.55154000  0.10305000  0.49489000  1.0
  C  C93  1  0.40806000  0.11726000  0.49532000  1.0
  C  C94  1  0.39646000  0.03589000  0.49601000  1.0
  C  C95  1  0.46299000  0.98474000  0.49544000  1.0
  C  C96  1  0.51942000  0.85475000  0.49467000  1.0
  C  C97  1  0.48594000  0.15063000  0.49462000  1.0
  C  C98  1  0.09729000  0.10311000  0.94965000  1.0
  C  C99  1  0.11209000  0.11747000  0.79305000  1.0
  C  C100  1  0.03186000  0.03637000  0.86164000  1.0
  C  C101  1  0.97993000  0.98507000  0.97829000  1.0
  C  C102  1  0.89687000  0.90270000  0.05037000  1.0
  C  C103  1  0.88253000  0.88788000  0.20697000  1.0
  C  C104  1  0.96363000  0.96811000  0.13837000  1.0
  C  C105  1  0.01492000  0.02006000  0.02173000  1.0
  C  C106  1  0.14483000  0.15105000  0.83728000  1.0
  C  C107  1  0.84893000  0.85515000  0.16274000  1.0
  C  C108  1  0.45305000  0.44722000  0.94963000  1.0
  C  C109  1  0.59486000  0.58947000  0.79304000  1.0
  C  C110  1  0.60651000  0.60197000  0.86162000  1.0
  C  C111  1  0.54176000  0.53663000  0.97829000  1.0
  C  C112  1  0.55274000  0.54695000  0.05036000  1.0
  C  C113  1  0.41055000  0.40510000  0.20696000  1.0
  C  C114  1  0.39801000  0.39348000  0.13838000  1.0
  C  C115  1  0.46335000  0.45819000  0.02171000  1.0
  C  C116  1  0.51791000  0.51163000  0.83727000  1.0
  C  C117  1  0.48833000  0.48211000  0.16273000  1.0
  O  O118  1  0.44079000  0.26854000  0.79606000  1.0
  O  O119  1  0.73144000  0.55923000  0.20388000  1.0
  O  O120  1  0.56466000  0.73689000  0.20395000  1.0
  O  O121  1  0.26313000  0.43534000  0.79609000  1.0
  O  O122  1  0.26973000  0.27513000  0.65847000  1.0
  O  O123  1  0.57189000  0.56642000  0.65842000  1.0
  O  O124  1  0.72486000  0.73027000  0.34157000  1.0
  O  O125  1  0.43355000  0.42820000  0.34155000  1.0
  O  O126  1  0.56422000  0.26910000  0.49607000  1.0
  O  O127  1  0.26519000  0.56027000  0.50398000  1.0
  O  O128  1  0.43972000  0.73486000  0.49602000  1.0
  O  O129  1  0.73085000  0.43574000  0.50399000  1.0
  O  O130  1  0.27147000  0.42655000  0.50309000  1.0
  O  O131  1  0.57343000  0.72852000  0.49693000  1.0
  O  O132  1  0.72542000  0.57034000  0.50310000  1.0
  O  O133  1  0.42963000  0.27456000  0.49692000  1.0
  O  O134  1  0.26546000  0.27018000  0.79668000  1.0
  O  O135  1  0.56685000  0.56209000  0.20336000  1.0
  O  O136  1  0.72980000  0.73455000  0.20336000  1.0
  O  O137  1  0.43794000  0.43315000  0.79663000  1.0
  O  O138  1  0.27009000  0.56770000  0.65695000  1.0
  O  O139  1  0.57303000  0.27539000  0.65694000  1.0
  O  O140  1  0.72459000  0.42702000  0.34305000  1.0
  O  O141  1  0.43231000  0.72996000  0.34307000  1.0
  O  O142  1  0.44116000  0.55831000  0.61761000  1.0
  O  O143  1  0.44168000  0.55889000  0.38238000  1.0
  O  O144  1  0.67591000  0.55875000  0.38237000  1.0
  O  O145  1  0.44124000  0.32408000  0.61764000  1.0
  O  O146  1  0.54399000  0.45760000  0.41290000  1.0
  O  O147  1  0.54243000  0.45598000  0.58710000  1.0
  O  O148  1  0.54307000  0.62950000  0.41291000  1.0
  O  O149  1  0.37056000  0.45693000  0.58707000  1.0
  O  O150  1  0.32332000  0.99252000  0.18748000  1.0
  O  O151  1  0.67996000  0.01076000  0.81255000  1.0
  O  O152  1  0.98922000  0.32001000  0.18749000  1.0
  O  O153  1  0.00746000  0.67668000  0.81252000  1.0
  O  O154  1  0.00377000  0.31715000  0.50262000  1.0
  O  O155  1  0.99357000  0.68021000  0.50267000  1.0
  O  O156  1  0.31976000  0.00641000  0.49737000  1.0
  O  O157  1  0.68291000  0.99627000  0.49732000  1.0
  O  O158  1  0.99286000  0.99587000  0.18596000  1.0
  O  O159  1  0.00412000  0.00713000  0.81405000  1.0
  O  O160  1  0.32119000  0.31814000  0.18597000  1.0
  O  O161  1  0.68183000  0.67880000  0.81405000  1.0
