# generated using pymatgen
data_CuH7C3SN3Cl2
_symmetry_space_group_name_H-M   'P 1'
_cell_length_a   7.66221000
_cell_length_b   8.03448000
_cell_length_c   13.32220000
_cell_angle_alpha   89.99940000
_cell_angle_beta   90.00000000
_cell_angle_gamma   114.16500000
_symmetry_Int_Tables_number   1
_chemical_formula_structural   CuH7C3SN3Cl2
_chemical_formula_sum   'Cu4 H28 C12 S4 N12 Cl8'
_cell_volume   748.27104274
_cell_formula_units_Z   4
loop_
 _symmetry_equiv_pos_site_id
 _symmetry_equiv_pos_as_xyz
  1  'x, y, z'
loop_
 _atom_site_type_symbol
 _atom_site_label
 _atom_site_symmetry_multiplicity
 _atom_site_fract_x
 _atom_site_fract_y
 _atom_site_fract_z
 _atom_site_occupancy
  Cu  Cu0  1  0.43073000  0.14021000  0.26470000  1.0
  Cu  Cu1  1  0.56928000  0.35979000  0.76470000  1.0
  Cu  Cu2  1  0.56954000  0.86002000  0.73528000  1.0
  Cu  Cu3  1  0.43047000  0.63995000  0.23527000  1.0
  H  H4  1  0.10613000  0.70417000  0.25697000  1.0
  H  H5  1  0.89404000  0.79579000  0.75688000  1.0
  H  H6  1  0.89411000  0.29620000  0.74301000  1.0
  H  H7  1  0.10595000  0.20375000  0.24300000  1.0
  H  H8  1  0.96049000  0.82801000  0.26059000  1.0
  H  H9  1  0.03958000  0.67187000  0.76066000  1.0
  H  H10  1  0.03974000  0.17235000  0.73945000  1.0
  H  H11  1  0.96028000  0.32757000  0.23948000  1.0
  H  H12  1  0.95744000  0.54415000  0.40270000  1.0
  H  H13  1  0.04244000  0.95586000  0.90266000  1.0
  H  H14  1  0.04292000  0.45610000  0.59725000  1.0
  H  H15  1  0.95708000  0.04386000  0.09724000  1.0
  H  H16  1  0.80068000  0.65963000  0.39960000  1.0
  H  H17  1  0.19935000  0.84052000  0.89959000  1.0
  H  H18  1  0.19956000  0.34051000  0.60042000  1.0
  H  H19  1  0.80044000  0.15946000  0.10044000  1.0
  H  H20  1  0.64619000  0.25641000  0.42363000  1.0
  H  H21  1  0.35381000  0.24356000  0.92360000  1.0
  H  H22  1  0.35407000  0.74383000  0.57639000  1.0
  H  H23  1  0.64589000  0.75612000  0.07636000  1.0
  H  H24  1  0.49550000  0.36149000  0.40952000  1.0
  H  H25  1  0.50459000  0.13857000  0.90955000  1.0
  H  H26  1  0.50464000  0.63855000  0.59050000  1.0
  H  H27  1  0.49536000  0.86145000  0.09052000  1.0
  H  H28  1  0.39625000  0.14043000  0.55167000  1.0
  H  H29  1  0.60373000  0.35963000  0.05167000  1.0
  H  H30  1  0.60407000  0.85975000  0.44836000  1.0
  H  H31  1  0.39586000  0.64024000  0.94836000  1.0
  C  C32  1  0.23670000  0.97169000  0.43515000  1.0
  C  C33  1  0.76328000  0.52839000  0.93514000  1.0
  C  C34  1  0.76352000  0.02849000  0.56487000  1.0
  C  C35  1  0.23645000  0.47150000  0.06488000  1.0
  C  C36  1  0.05698000  0.78735000  0.30531000  1.0
  C  C37  1  0.94307000  0.71262000  0.80530000  1.0
  C  C38  1  0.94325000  0.21296000  0.69472000  1.0
  C  C39  1  0.05677000  0.28698000  0.19473000  1.0
  C  C40  1  0.95013000  0.67725000  0.39829000  1.0
  C  C41  1  0.04986000  0.82281000  0.89827000  1.0
  C  C42  1  0.05012000  0.32298000  0.60174000  1.0
  C  C43  1  0.94988000  0.17699000  0.10173000  1.0
  S  S44  1  0.06708000  0.80621000  0.51066000  1.0
  S  S45  1  0.93294000  0.69384000  0.01066000  1.0
  S  S46  1  0.93312000  0.19389000  0.48935000  1.0
  S  S47  1  0.06685000  0.30611000  0.98935000  1.0
  N  N48  1  0.22006000  0.95010000  0.33799000  1.0
  N  N49  1  0.77991000  0.54992000  0.83799000  1.0
  N  N50  1  0.78020000  0.05016000  0.66202000  1.0
  N  N51  1  0.21980000  0.44980000  0.16203000  1.0
  N  N52  1  0.50830000  0.23797000  0.40651000  1.0
  N  N53  1  0.49173000  0.26207000  0.90651000  1.0
  N  N54  1  0.49194000  0.76214000  0.59349000  1.0
  N  N55  1  0.50804000  0.73785000  0.09348000  1.0
  N  N56  1  0.38044000  0.11587000  0.47547000  1.0
  N  N57  1  0.61949000  0.38423000  0.97549000  1.0
  N  N58  1  0.61989000  0.88419000  0.52455000  1.0
  N  N59  1  0.38002000  0.61585000  0.02456000  1.0
  Cl  Cl60  1  0.33087000  0.03166000  0.10917000  1.0
  Cl  Cl61  1  0.66911000  0.46837000  0.60918000  1.0
  Cl  Cl62  1  0.66937000  0.96870000  0.89072000  1.0
  Cl  Cl63  1  0.33059000  0.53136000  0.39073000  1.0
  Cl  Cl64  1  0.65744000  0.41343000  0.20997000  1.0
  Cl  Cl65  1  0.34260000  0.08655000  0.70997000  1.0
  Cl  Cl66  1  0.34280000  0.58666000  0.79001000  1.0
  Cl  Cl67  1  0.65725000  0.91329000  0.29000000  1.0
