# generated using pymatgen
data_CdH18C24(IN2)2
_symmetry_space_group_name_H-M   'P 1'
_cell_length_a   9.05085000
_cell_length_b   10.22800000
_cell_length_c   13.32800000
_cell_angle_alpha   69.67910000
_cell_angle_beta   78.13990000
_cell_angle_gamma   87.49720000
_symmetry_Int_Tables_number   1
_chemical_formula_structural   CdH18C24(IN2)2
_chemical_formula_sum   'Cd2 H36 C48 I4 N8'
_cell_volume   1131.79639003
_cell_formula_units_Z   2
loop_
 _symmetry_equiv_pos_site_id
 _symmetry_equiv_pos_as_xyz
  1  'x, y, z'
loop_
 _atom_site_type_symbol
 _atom_site_label
 _atom_site_symmetry_multiplicity
 _atom_site_fract_x
 _atom_site_fract_y
 _atom_site_fract_z
 _atom_site_occupancy
  Cd  Cd0  1  0.36227000  0.33340000  0.23631000  1.0
  Cd  Cd1  1  0.63773000  0.66666667  0.76369000  1.0
  H  H2  1  0.95619000  0.64379000  0.85498000  1.0
  H  H3  1  0.04380000  0.35622000  0.14502000  1.0
  H  H4  1  0.05268000  0.67758000  0.00721000  1.0
  H  H5  1  0.94731000  0.32242000  0.99279000  1.0
  H  H6  1  0.88349000  0.78204000  0.13142000  1.0
  H  H7  1  0.11651000  0.21796000  0.86858000  1.0
  H  H8  1  0.54826000  0.81990000  0.93509000  1.0
  H  H9  1  0.45173000  0.18010000  0.06491000  1.0
  H  H10  1  0.77026000  0.98422000  0.14541000  1.0
  H  H11  1  0.22975000  0.01577000  0.85459000  1.0
  H  H12  1  0.60022000  0.05252000  0.28683000  1.0
  H  H13  1  0.39978000  0.94748000  0.71317000  1.0
  H  H14  1  0.22453000  0.85263000  0.23672000  1.0
  H  H15  1  0.77547000  0.14738000  0.76328000  1.0
  H  H16  1  0.39550000  0.77807000  0.09973000  1.0
  H  H17  1  0.60449000  0.22193000  0.90027000  1.0
  H  H18  1  0.22573000  0.30066000  0.49262000  1.0
  H  H19  1  0.77428000  0.69934000  0.50738000  1.0
  H  H20  1  0.06987000  0.21735000  0.68341000  1.0
  H  H21  1  0.93013000  0.78265000  0.31659000  1.0
  H  H22  1  0.98586000  0.96881000  0.77507000  1.0
  H  H23  1  0.01414000  0.03120000  0.22493000  1.0
  H  H24  1  0.04725000  0.79717000  0.67875000  1.0
  H  H25  1  0.95275000  0.20283000  0.32126000  1.0
  H  H26  1  0.21031000  0.72434000  0.40187000  1.0
  H  H27  1  0.78970000  0.27566000  0.59813000  1.0
  H  H28  1  0.08119000  0.71461000  0.52246000  1.0
  H  H29  1  0.91881000  0.28539000  0.47755000  1.0
  H  H30  1  0.44192000  0.80409000  0.56014000  1.0
  H  H31  1  0.55808000  0.19590000  0.43986000  1.0
  H  H32  1  0.56679000  0.40130000  0.71058000  1.0
  H  H33  1  0.43321000  0.59870000  0.28943000  1.0
  H  H34  1  0.35930000  0.29908000  0.65889000  1.0
  H  H35  1  0.64070000  0.70092000  0.34111000  1.0
  H  H36  1  0.18512000  0.46452000  0.55214000  1.0
  H  H37  1  0.81488000  0.53548000  0.44786000  1.0
  C  C38  1  0.88814000  0.69460000  0.90781000  1.0
  C  C39  1  0.11185000  0.30540000  0.09219000  1.0
  C  C40  1  0.94093000  0.71300000  0.99322000  1.0
  C  C41  1  0.05907000  0.28700000  0.00678000  1.0
  C  C42  1  0.84708000  0.77278000  0.06096000  1.0
  C  C43  1  0.15291000  0.22722000  0.93904000  1.0
  C  C44  1  0.70258000  0.81423000  0.04165000  1.0
  C  C45  1  0.29742000  0.18577000  0.95835000  1.0
  C  C46  1  0.66000000  0.79209000  0.95332000  1.0
  C  C47  1  0.34000000  0.20790000  0.04668000  1.0
  C  C48  1  0.59705000  0.87179000  0.11463000  1.0
  C  C49  1  0.40294000  0.12821000  0.88537000  1.0
  C  C50  1  0.65117000  0.95271000  0.16643000  1.0
  C  C51  1  0.34884000  0.04729000  0.83356000  1.0
  C  C52  1  0.55522000  0.99246000  0.24593000  1.0
  C  C53  1  0.44478000  0.00754000  0.75407000  1.0
  C  C54  1  0.40121000  0.95294000  0.27514000  1.0
  C  C55  1  0.59880000  0.04706000  0.72486000  1.0
  C  C56  1  0.34449000  0.88002000  0.21845000  1.0
  C  C57  1  0.65551000  0.11998000  0.78155000  1.0
  C  C58  1  0.44104000  0.84003000  0.13923000  1.0
  C  C59  1  0.55896000  0.15996000  0.86077000  1.0
  C  C60  1  0.30875000  0.98684000  0.36634000  1.0
  C  C61  1  0.69125000  0.01316000  0.63366000  1.0
  C  C62  1  0.22399000  0.09582000  0.48064000  1.0
  C  C63  1  0.77601000  0.90418000  0.51936000  1.0
  C  C64  1  0.18749000  0.19235000  0.53410000  1.0
  C  C65  1  0.81251000  0.80766000  0.46590000  1.0
  C  C66  1  0.10118000  0.14404000  0.63995000  1.0
  C  C67  1  0.89883000  0.85596000  0.36005000  1.0
  C  C68  1  0.05188000  0.00322000  0.69174000  1.0
  C  C69  1  0.94812000  0.99678000  0.30826000  1.0
  C  C70  1  0.08564000  0.90596000  0.63912000  1.0
  C  C71  1  0.91436000  0.09404000  0.36088000  1.0
  C  C72  1  0.17134000  0.95552000  0.53283000  1.0
  C  C73  1  0.82866000  0.04448000  0.46717000  1.0
  C  C74  1  0.19940000  0.74213000  0.47960000  1.0
  C  C75  1  0.80060000  0.25787000  0.52040000  1.0
  C  C76  1  0.30221000  0.64670000  0.54604000  1.0
  C  C77  1  0.69780000  0.35330000  0.45396000  1.0
  C  C78  1  0.41961000  0.69312000  0.57934000  1.0
  C  C79  1  0.58039000  0.30688000  0.42066000  1.0
  C  C80  1  0.48895000  0.46776000  0.66388000  1.0
  C  C81  1  0.51105000  0.53224000  0.33612000  1.0
  C  C82  1  0.37359000  0.41168000  0.63490000  1.0
  C  C83  1  0.62641000  0.58832000  0.36510000  1.0
  C  C84  1  0.27824000  0.50264000  0.57603000  1.0
  C  C85  1  0.72176000  0.49735000  0.42397000  1.0
  I  I86  1  0.65163000  0.37393000  0.10423000  1.0
  I  I87  1  0.34837000  0.62607000  0.89578000  1.0
  I  I88  1  0.12464000  0.51485000  0.27532000  1.0
  I  I89  1  0.87536000  0.48515000  0.72467000  1.0
  N  N90  1  0.75019000  0.73422000  0.88803000  1.0
  N  N91  1  0.24981000  0.26578000  0.11197000  1.0
  N  N92  1  0.30880000  0.11200000  0.37731000  1.0
  N  N93  1  0.69120000  0.88801000  0.62269000  1.0
  N  N94  1  0.22460000  0.88956000  0.45796000  1.0
  N  N95  1  0.77541000  0.11044000  0.54204000  1.0
  N  N96  1  0.51084000  0.60528000  0.63743000  1.0
  N  N97  1  0.48916000  0.39472000  0.36257000  1.0
