# generated using pymatgen
data_TlH12C9SNO2
_symmetry_space_group_name_H-M   'P 1'
_cell_length_a   7.78530000
_cell_length_b   7.78508000
_cell_length_c   21.06250000
_cell_angle_alpha   80.40340000
_cell_angle_beta   80.40200000
_cell_angle_gamma   63.55240000
_symmetry_Int_Tables_number   1
_chemical_formula_structural   TlH12C9SNO2
_chemical_formula_sum   'Tl4 H48 C36 S4 N4 O8'
_cell_volume   1120.78030209
_cell_formula_units_Z   4
loop_
 _symmetry_equiv_pos_site_id
 _symmetry_equiv_pos_as_xyz
  1  'x, y, z'
loop_
 _atom_site_type_symbol
 _atom_site_label
 _atom_site_symmetry_multiplicity
 _atom_site_fract_x
 _atom_site_fract_y
 _atom_site_fract_z
 _atom_site_occupancy
  Tl  Tl0  1  0.66707000  0.86221000  0.68683000  1.0
  Tl  Tl1  1  0.13778000  0.33295000  0.81319000  1.0
  Tl  Tl2  1  0.33294000  0.13779000  0.31317000  1.0
  Tl  Tl3  1  0.86223000  0.66705000  0.18682000  1.0
  H  H4  1  0.72974000  0.89567000  0.98837000  1.0
  H  H5  1  0.10437000  0.27030000  0.51164000  1.0
  H  H6  1  0.27028000  0.10431000  0.01163000  1.0
  H  H7  1  0.89562000  0.72974000  0.48836000  1.0
  H  H8  1  0.65848000  0.20164000  0.91115000  1.0
  H  H9  1  0.79842000  0.34154000  0.58887000  1.0
  H  H10  1  0.34157000  0.79837000  0.08885000  1.0
  H  H11  1  0.20159000  0.65848000  0.41114000  1.0
  H  H12  1  0.63365000  0.18805000  0.79553000  1.0
  H  H13  1  0.81203000  0.36630000  0.70449000  1.0
  H  H14  1  0.36637000  0.81196000  0.20447000  1.0
  H  H15  1  0.18801000  0.63367000  0.29551000  1.0
  H  H16  1  0.72177000  0.26426000  0.02659000  1.0
  H  H17  1  0.73573000  0.27821000  0.47339000  1.0
  H  H18  1  0.27822000  0.73572000  0.97339000  1.0
  H  H19  1  0.26426000  0.72176000  0.52660000  1.0
  H  H20  1  0.59625000  0.41477000  0.09107000  1.0
  H  H21  1  0.58520000  0.40373000  0.40893000  1.0
  H  H22  1  0.40376000  0.58518000  0.90893000  1.0
  H  H23  1  0.41478000  0.59626000  0.59106000  1.0
  H  H24  1  0.85256000  0.33838000  0.07003000  1.0
  H  H25  1  0.66162000  0.14745000  0.42996000  1.0
  H  H26  1  0.14744000  0.66159000  0.92996000  1.0
  H  H27  1  0.33837000  0.85258000  0.57004000  1.0
  H  H28  1  0.30577000  0.92283000  0.66875000  1.0
  H  H29  1  0.07715000  0.69425000  0.83126000  1.0
  H  H30  1  0.69423000  0.07717000  0.33125000  1.0
  H  H31  1  0.92285000  0.30575000  0.16874000  1.0
  H  H32  1  0.34971000  0.84500000  0.75203000  1.0
  H  H33  1  0.15502000  0.65029000  0.74797000  1.0
  H  H34  1  0.65028000  0.15500000  0.24796000  1.0
  H  H35  1  0.84498000  0.34971000  0.25202000  1.0
  H  H36  1  0.44564000  0.67135000  0.69441000  1.0
  H  H37  1  0.32863000  0.55437000  0.80559000  1.0
  H  H38  1  0.55435000  0.32866000  0.30559000  1.0
  H  H39  1  0.67135000  0.44563000  0.19441000  1.0
  H  H40  1  0.05128000  0.69579000  0.64697000  1.0
  H  H41  1  0.30418000  0.94871000  0.85303000  1.0
  H  H42  1  0.94872000  0.30418000  0.35303000  1.0
  H  H43  1  0.69580000  0.05129000  0.14696000  1.0
  H  H44  1  0.99258000  0.91574000  0.68028000  1.0
  H  H45  1  0.08424000  0.00742000  0.81972000  1.0
  H  H46  1  0.00743000  0.08423000  0.31971000  1.0
  H  H47  1  0.91575000  0.99258000  0.18029000  1.0
  H  H48  1  0.93138000  0.92574000  0.60064000  1.0
  H  H49  1  0.07424000  0.06862000  0.89937000  1.0
  H  H50  1  0.06862000  0.07426000  0.39936000  1.0
  H  H51  1  0.92571000  0.93139000  0.10064000  1.0
  C  C52  1  0.71531000  0.73694000  0.84787000  1.0
  C  C53  1  0.26312000  0.28469000  0.65215000  1.0
  C  C54  1  0.28468000  0.26307000  0.15213000  1.0
  C  C55  1  0.73689000  0.71529000  0.34786000  1.0
  C  C56  1  0.73824000  0.73253000  0.91392000  1.0
  C  C57  1  0.26753000  0.26177000  0.58610000  1.0
  C  C58  1  0.26178000  0.26747000  0.08608000  1.0
  C  C59  1  0.73250000  0.73820000  0.41391000  1.0
  C  C60  1  0.71361000  0.89992000  0.93759000  1.0
  C  C61  1  0.10015000  0.28638000  0.56243000  1.0
  C  C62  1  0.28639000  0.10011000  0.06240000  1.0
  C  C63  1  0.89984000  0.71364000  0.43757000  1.0
  C  C64  1  0.67451000  0.06860000  0.89536000  1.0
  C  C65  1  0.93148000  0.32549000  0.60466000  1.0
  C  C66  1  0.32551000  0.93142000  0.10463000  1.0
  C  C67  1  0.06853000  0.67453000  0.39534000  1.0
  C  C68  1  0.66128000  0.06117000  0.83087000  1.0
  C  C69  1  0.93892000  0.33868000  0.66915000  1.0
  C  C70  1  0.33873000  0.93882000  0.16913000  1.0
  C  C71  1  0.06112000  0.66132000  0.33085000  1.0
  C  C72  1  0.79868000  0.54721000  0.95688000  1.0
  C  C73  1  0.45282000  0.20134000  0.54313000  1.0
  C  C74  1  0.20131000  0.45278000  0.04311000  1.0
  C  C75  1  0.54716000  0.79867000  0.45687000  1.0
  C  C76  1  0.71416000  0.38010000  0.05186000  1.0
  C  C77  1  0.61987000  0.28584000  0.44814000  1.0
  C  C78  1  0.28583000  0.61987000  0.94813000  1.0
  C  C79  1  0.38011000  0.71418000  0.55185000  1.0
  C  C80  1  0.40792000  0.82016000  0.70192000  1.0
  C  C81  1  0.17983000  0.59209000  0.79809000  1.0
  C  C82  1  0.59207000  0.17985000  0.29808000  1.0
  C  C83  1  0.82017000  0.40791000  0.20191000  1.0
  C  C84  1  0.94825000  0.84712000  0.64908000  1.0
  C  C85  1  0.15286000  0.05174000  0.85092000  1.0
  C  C86  1  0.05175000  0.15286000  0.35091000  1.0
  C  C87  1  0.84712000  0.94826000  0.14909000  1.0
  S  S88  1  0.72730000  0.53888000  0.81661000  1.0
  S  S89  1  0.46118000  0.27271000  0.68341000  1.0
  S  S90  1  0.27271000  0.46112000  0.18340000  1.0
  S  S91  1  0.53884000  0.72730000  0.31660000  1.0
  N  N92  1  0.67920000  0.90246000  0.80789000  1.0
  N  N93  1  0.09760000  0.32080000  0.69214000  1.0
  N  N94  1  0.32079000  0.09753000  0.19213000  1.0
  N  N95  1  0.90242000  0.67920000  0.30786000  1.0
  O  O96  1  0.95214000  0.40442000  0.94796000  1.0
  O  O97  1  0.59560000  0.04787000  0.55205000  1.0
  O  O98  1  0.04786000  0.59560000  0.05204000  1.0
  O  O99  1  0.40435000  0.95216000  0.44796000  1.0
  O  O100  1  0.66666667  0.55574000  0.00786000  1.0
  O  O101  1  0.44427000  0.33333333  0.49214000  1.0
  O  O102  1  0.33333333  0.44424000  0.99213000  1.0
  O  O103  1  0.55571000  0.66666667  0.50786000  1.0
