# generated using pymatgen
data_CoH14C20(NO)4
_symmetry_space_group_name_H-M   'P 1'
_cell_length_a   10.07070000
_cell_length_b   15.21610000
_cell_length_c   16.27680000
_cell_angle_alpha   90.00090000
_cell_angle_beta   90.00010000
_cell_angle_gamma   90.82980000
_symmetry_Int_Tables_number   1
_chemical_formula_structural   CoH14C20(NO)4
_chemical_formula_sum   'Co4 H56 C80 N16 O16'
_cell_volume   2493.94281734
_cell_formula_units_Z   4
loop_
 _symmetry_equiv_pos_site_id
 _symmetry_equiv_pos_as_xyz
  1  'x, y, z'
loop_
 _atom_site_type_symbol
 _atom_site_label
 _atom_site_symmetry_multiplicity
 _atom_site_fract_x
 _atom_site_fract_y
 _atom_site_fract_z
 _atom_site_occupancy
  Co  Co0  1  0.83759000  0.99514000  0.23776000  1.0
  Co  Co1  1  0.68242000  0.49958000  0.24778000  1.0
  Co  Co2  1  0.18243000  0.99958000  0.75222000  1.0
  Co  Co3  1  0.33762000  0.49514000  0.76225000  1.0
  H  H4  1  0.65897000  0.84694000  0.53102000  1.0
  H  H5  1  0.66281000  0.15822000  0.96718000  1.0
  H  H6  1  0.85428000  0.34897000  0.96955000  1.0
  H  H7  1  0.85325000  0.65070000  0.52416000  1.0
  H  H8  1  0.35325000  0.15070000  0.47584000  1.0
  H  H9  1  0.35426000  0.84897000  0.03044000  1.0
  H  H10  1  0.16282000  0.65822000  0.03282000  1.0
  H  H11  1  0.15899000  0.34695000  0.46898000  1.0
  H  H12  1  0.60436000  0.75818000  0.65327000  1.0
  H  H13  1  0.59066000  0.24863000  0.85075000  1.0
  H  H14  1  0.90303000  0.25808000  0.84767000  1.0
  H  H15  1  0.91337000  0.73535000  0.64865000  1.0
  H  H16  1  0.41339000  0.23535000  0.35135000  1.0
  H  H17  1  0.40302000  0.75809000  0.15232000  1.0
  H  H18  1  0.09066000  0.74863000  0.14925000  1.0
  H  H19  1  0.10435000  0.25820000  0.34673000  1.0
  H  H20  1  0.40361000  0.56715000  0.50125000  1.0
  H  H21  1  0.38935000  0.42139000  0.01809000  1.0
  H  H22  1  0.08063000  0.06319000  0.00210000  1.0
  H  H23  1  0.08139000  0.94104000  0.49847000  1.0
  H  H24  1  0.58138000  0.44105000  0.50153000  1.0
  H  H25  1  0.58064000  0.56319000  0.99790000  1.0
  H  H26  1  0.88935000  0.92139000  0.98192000  1.0
  H  H27  1  0.90361000  0.06717000  0.49873000  1.0
  H  H28  1  0.46618000  0.65099000  0.37761000  1.0
  H  H29  1  0.46923000  0.33568000  0.13539000  1.0
  H  H30  1  0.02678000  0.15059000  0.12555000  1.0
  H  H31  1  0.01821000  0.85928000  0.37289000  1.0
  H  H32  1  0.51819000  0.35929000  0.62712000  1.0
  H  H33  1  0.52677000  0.65058000  0.87444000  1.0
  H  H34  1  0.96923000  0.83568000  0.86461000  1.0
  H  H35  1  0.96622000  0.15098000  0.62238000  1.0
  H  H36  1  0.63550000  0.83929000  0.17569000  1.0
  H  H37  1  0.67202000  0.15065000  0.32370000  1.0
  H  H38  1  0.86787000  0.34150000  0.32396000  1.0
  H  H39  1  0.84692000  0.67239000  0.17069000  1.0
  H  H40  1  0.34690000  0.17241000  0.82932000  1.0
  H  H41  1  0.36788000  0.84150000  0.67603000  1.0
  H  H42  1  0.17203000  0.65065000  0.67630000  1.0
  H  H43  1  0.13550000  0.33931000  0.82431000  1.0
  H  H44  1  0.72683000  0.92507000  0.41478000  1.0
  H  H45  1  0.73301000  0.07313000  0.07835000  1.0
  H  H46  1  0.77988000  0.42252000  0.08297000  1.0
  H  H47  1  0.78362000  0.57707000  0.41051000  1.0
  H  H48  1  0.28364000  0.07708000  0.58950000  1.0
  H  H49  1  0.27987000  0.92250000  0.91703000  1.0
  H  H50  1  0.23302000  0.57314000  0.92165000  1.0
  H  H51  1  0.22688000  0.42506000  0.58523000  1.0
  H  H52  1  0.53441000  0.72596000  0.27163000  1.0
  H  H53  1  0.55863000  0.26481000  0.23444000  1.0
  H  H54  1  0.96886000  0.22797000  0.22917000  1.0
  H  H55  1  0.94532000  0.78652000  0.26754000  1.0
  H  H56  1  0.44530000  0.28654000  0.73247000  1.0
  H  H57  1  0.46885000  0.72796000  0.77082000  1.0
  H  H58  1  0.05863000  0.76480000  0.76556000  1.0
  H  H59  1  0.03443000  0.22597000  0.72837000  1.0
  C  C60  1  0.56486000  0.75722000  0.44458000  1.0
  C  C61  1  0.56966000  0.23841000  0.06048000  1.0
  C  C62  1  0.93820000  0.25711000  0.05644000  1.0
  C  C63  1  0.93318000  0.74793000  0.43944000  1.0
  C  C64  1  0.43316000  0.24794000  0.56056000  1.0
  C  C65  1  0.43819000  0.75709000  0.94356000  1.0
  C  C66  1  0.06966000  0.73840000  0.93953000  1.0
  C  C67  1  0.06488000  0.25722000  0.55542000  1.0
  C  C68  1  0.60176000  0.78608000  0.52381000  1.0
  C  C69  1  0.60180000  0.21542000  0.97888000  1.0
  C  C70  1  0.90502000  0.28674000  0.97715000  1.0
  C  C71  1  0.90499000  0.71372000  0.51806000  1.0
  C  C72  1  0.40499000  0.21372000  0.48194000  1.0
  C  C73  1  0.40500000  0.78674000  0.02284000  1.0
  C  C74  1  0.10180000  0.71542000  0.02113000  1.0
  C  C75  1  0.10177000  0.28609000  0.47618000  1.0
  C  C76  1  0.57031000  0.73658000  0.59290000  1.0
  C  C77  1  0.56050000  0.26613000  0.91294000  1.0
  C  C78  1  0.93261000  0.23617000  0.90863000  1.0
  C  C79  1  0.93879000  0.76082000  0.58799000  1.0
  C  C80  1  0.43879000  0.26082000  0.41201000  1.0
  C  C81  1  0.43260000  0.73617000  0.09136000  1.0
  C  C82  1  0.06050000  0.76612000  0.08707000  1.0
  C  C83  1  0.07030000  0.23660000  0.40709000  1.0
  C  C84  1  0.49715000  0.65749000  0.58622000  1.0
  C  C85  1  0.48152000  0.34036000  0.92617000  1.0
  C  C86  1  0.99657000  0.15540000  0.91709000  1.0
  C  C87  1  0.00322000  0.84282000  0.58130000  1.0
  C  C88  1  0.50322000  0.34282000  0.41871000  1.0
  C  C89  1  0.49659000  0.65541000  0.08290000  1.0
  C  C90  1  0.98152000  0.84035000  0.07384000  1.0
  C  C91  1  0.99715000  0.15750000  0.41377000  1.0
  C  C92  1  0.45914000  0.62875000  0.50753000  1.0
  C  C93  1  0.44854000  0.36318000  0.00742000  1.0
  C  C94  1  0.03147000  0.12611000  0.99585000  1.0
  C  C95  1  0.03219000  0.87707000  0.50319000  1.0
  C  C96  1  0.53218000  0.37708000  0.49681000  1.0
  C  C97  1  0.53147000  0.62611000  0.00415000  1.0
  C  C98  1  0.94854000  0.86318000  0.99260000  1.0
  C  C99  1  0.95914000  0.12877000  0.49246000  1.0
  C  C100  1  0.49350000  0.67701000  0.43780000  1.0
  C  C101  1  0.49288000  0.31398000  0.07339000  1.0
  C  C102  1  0.00219000  0.17588000  0.06485000  1.0
  C  C103  1  0.99721000  0.83047000  0.43292000  1.0
  C  C104  1  0.49720000  0.33048000  0.56709000  1.0
  C  C105  1  0.50218000  0.67588000  0.93514000  1.0
  C  C106  1  0.99288000  0.81398000  0.92662000  1.0
  C  C107  1  0.99353000  0.17702000  0.56219000  1.0
  C  C108  1  0.60596000  0.80832000  0.37307000  1.0
  C  C109  1  0.61976000  0.18679000  0.12869000  1.0
  C  C110  1  0.89899000  0.30851000  0.12717000  1.0
  C  C111  1  0.89044000  0.69879000  0.36774000  1.0
  C  C112  1  0.39043000  0.19880000  0.63227000  1.0
  C  C113  1  0.39898000  0.80849000  0.87282000  1.0
  C  C114  1  0.11976000  0.68678000  0.87131000  1.0
  C  C115  1  0.10599000  0.30833000  0.62693000  1.0
  C  C116  1  0.63890000  0.84323000  0.24218000  1.0
  C  C117  1  0.66760000  0.14920000  0.25722000  1.0
  C  C118  1  0.86548000  0.34461000  0.25740000  1.0
  C  C119  1  0.84957000  0.66650000  0.23705000  1.0
  C  C120  1  0.34956000  0.16652000  0.76295000  1.0
  C  C121  1  0.36548000  0.84461000  0.74260000  1.0
  C  C122  1  0.16760000  0.64920000  0.74279000  1.0
  C  C123  1  0.13892000  0.34324000  0.75782000  1.0
  C  C124  1  0.68265000  0.88488000  0.36680000  1.0
  C  C125  1  0.69624000  0.11170000  0.12909000  1.0
  C  C126  1  0.82392000  0.38404000  0.13158000  1.0
  C  C127  1  0.82087000  0.61985000  0.36230000  1.0
  C  C128  1  0.32087000  0.11985000  0.63771000  1.0
  C  C129  1  0.32392000  0.88402000  0.86841000  1.0
  C  C130  1  0.19625000  0.61170000  0.87091000  1.0
  C  C131  1  0.18269000  0.38488000  0.63320000  1.0
  C  C132  1  0.46209000  0.60771000  0.66243000  1.0
  C  C133  1  0.43228000  0.39480000  0.85853000  1.0
  C  C134  1  0.03055000  0.10345000  0.84293000  1.0
  C  C135  1  0.04228000  0.89152000  0.65664000  1.0
  C  C136  1  0.54227000  0.39153000  0.34336000  1.0
  C  C137  1  0.53055000  0.60346000  0.15706000  1.0
  C  C138  1  0.93227000  0.89479000  0.14148000  1.0
  C  C139  1  0.96207000  0.10773000  0.33756000  1.0
  N  N140  1  0.70303000  0.90526000  0.28540000  1.0
  N  N141  1  0.72595000  0.08955000  0.20907000  1.0
  N  N142  1  0.80353000  0.40528000  0.21258000  1.0
  N  N143  1  0.79606000  0.60096000  0.28114000  1.0
  N  N144  1  0.29606000  0.10097000  0.71886000  1.0
  N  N145  1  0.30353000  0.90527000  0.78741000  1.0
  N  N146  1  0.22597000  0.58955000  0.79093000  1.0
  N  N147  1  0.20306000  0.40526000  0.71461000  1.0
  N  N148  1  0.57925000  0.78407000  0.29259000  1.0
  N  N149  1  0.60273000  0.20830000  0.21078000  1.0
  N  N150  1  0.92424000  0.28557000  0.20792000  1.0
  N  N151  1  0.90759000  0.72650000  0.28733000  1.0
  N  N152  1  0.40757000  0.22652000  0.71267000  1.0
  N  N153  1  0.42423000  0.78555000  0.79207000  1.0
  N  N154  1  0.10273000  0.70830000  0.78922000  1.0
  N  N155  1  0.07927000  0.28407000  0.70741000  1.0
  O  O156  1  0.37918000  0.54211000  0.65560000  1.0
  O  O157  1  0.34035000  0.45128000  0.87239000  1.0
  O  O158  1  0.10030000  0.03362000  0.85483000  1.0
  O  O159  1  0.10884000  0.96414000  0.64671000  1.0
  O  O160  1  0.60885000  0.46414000  0.35330000  1.0
  O  O161  1  0.60031000  0.53364000  0.14517000  1.0
  O  O162  1  0.84033000  0.95127000  0.12761000  1.0
  O  O163  1  0.87917000  0.04212000  0.34441000  1.0
  O  O164  1  0.51019000  0.63100000  0.73123000  1.0
  O  O165  1  0.47392000  0.39155000  0.78341000  1.0
  O  O166  1  0.99664000  0.12798000  0.77185000  1.0
  O  O167  1  0.01429000  0.86199000  0.72735000  1.0
  O  O168  1  0.51429000  0.36201000  0.27265000  1.0
  O  O169  1  0.49663000  0.62798000  0.22815000  1.0
  O  O170  1  0.97390000  0.89155000  0.21660000  1.0
  O  O171  1  0.01018000  0.13101000  0.26876000  1.0
