# generated using pymatgen
data_Cd3H36C60(N4O9)2
_symmetry_space_group_name_H-M   'P 1'
_cell_length_a   9.96757000
_cell_length_b   15.32220000
_cell_length_c   20.57030000
_cell_angle_alpha   78.10760000
_cell_angle_beta   82.99450000
_cell_angle_gamma   88.89430000
_symmetry_Int_Tables_number   1
_chemical_formula_structural   Cd3H36C60(N4O9)2
_chemical_formula_sum   'Cd6 H72 C120 N16 O36'
_cell_volume   3051.16536861
_cell_formula_units_Z   2
loop_
 _symmetry_equiv_pos_site_id
 _symmetry_equiv_pos_as_xyz
  1  'x, y, z'
loop_
 _atom_site_type_symbol
 _atom_site_label
 _atom_site_symmetry_multiplicity
 _atom_site_fract_x
 _atom_site_fract_y
 _atom_site_fract_z
 _atom_site_occupancy
  Cd  Cd0  1  0.79359000  0.25757000  0.74842000  1.0
  Cd  Cd1  1  0.20641000  0.74243000  0.25158000  1.0
  Cd  Cd2  1  0.78305000  0.37616000  0.87846000  1.0
  Cd  Cd3  1  0.21696000  0.62384000  0.12154000  1.0
  Cd  Cd4  1  0.79998000  0.13955000  0.61589000  1.0
  Cd  Cd5  1  0.20002000  0.86045000  0.38411000  1.0
  H  H6  1  0.81219000  0.49821000  0.73178000  1.0
  H  H7  1  0.18781000  0.50179000  0.26822000  1.0
  H  H8  1  0.81600000  0.65677000  0.67041000  1.0
  H  H9  1  0.18399000  0.34323000  0.32959000  1.0
  H  H10  1  0.74699000  0.73292000  0.86351000  1.0
  H  H11  1  0.25301000  0.26708000  0.13648000  1.0
  H  H12  1  0.75039000  0.57196000  0.91577000  1.0
  H  H13  1  0.24961000  0.42804000  0.08423000  1.0
  H  H14  1  0.73246000  0.78462000  0.63233000  1.0
  H  H15  1  0.26754000  0.21538000  0.36767000  1.0
  H  H16  1  0.74389000  0.94582000  0.58109000  1.0
  H  H17  1  0.25611000  0.05418000  0.41891000  1.0
  H  H18  1  0.83974000  0.01333000  0.75474000  1.0
  H  H19  1  0.16025000  0.98667000  0.24525000  1.0
  H  H20  1  0.84134000  0.85440000  0.81357000  1.0
  H  H21  1  0.15865000  0.14560000  0.18643000  1.0
  H  H22  1  0.56315000  0.43249000  0.98930000  1.0
  H  H23  1  0.43685000  0.56751000  0.01070000  1.0
  H  H24  1  0.53432000  0.43088000  0.11243000  1.0
  H  H25  1  0.46568000  0.56913000  0.88756000  1.0
  H  H26  1  0.95538000  0.35692000  0.11257000  1.0
  H  H27  1  0.04463000  0.64308000  0.88743000  1.0
  H  H28  1  0.96928000  0.37033000  0.98936000  1.0
  H  H29  1  0.03071000  0.62967000  0.01064000  1.0
  H  H30  1  0.51900000  0.33376000  0.21243000  1.0
  H  H31  1  0.48100000  0.66624000  0.78757000  1.0
  H  H32  1  0.50706000  0.30423000  0.33673000  1.0
  H  H33  1  0.49294000  0.69577000  0.66327000  1.0
  H  H34  1  0.90392000  0.38380000  0.32807000  1.0
  H  H35  1  0.09609000  0.61620000  0.67193000  1.0
  H  H36  1  0.93221000  0.42052000  0.20342000  1.0
  H  H37  1  0.06780000  0.57947000  0.79657000  1.0
  H  H38  1  0.73674000  0.14147000  0.04135000  1.0
  H  H39  1  0.26326000  0.85853000  0.95865000  1.0
  H  H40  1  0.74446000  0.00684000  0.12836000  1.0
  H  H41  1  0.25553000  0.99316000  0.87164000  1.0
  H  H42  1  0.86921000  0.99172000  0.89030000  1.0
  H  H43  1  0.13080000  0.00829000  0.10970000  1.0
  H  H44  1  0.56148000  0.84246000  0.17124000  1.0
  H  H45  1  0.43852000  0.15754000  0.82876000  1.0
  H  H46  1  0.68045000  0.86127000  0.36237000  1.0
  H  H47  1  0.31955000  0.13873000  0.63763000  1.0
  H  H48  1  0.98389000  0.86129000  0.19335000  1.0
  H  H49  1  0.01612000  0.13871000  0.80665000  1.0
  H  H50  1  0.26629000  0.38221000  0.86009000  1.0
  H  H51  1  0.73372000  0.61779000  0.13991000  1.0
  H  H52  1  0.55910000  0.37395000  0.68844000  1.0
  H  H53  1  0.44090000  0.62604000  0.31156000  1.0
  H  H54  1  0.13229000  0.35991000  0.67293000  1.0
  H  H55  1  0.86771000  0.64009000  0.32707000  1.0
  H  H56  1  0.28548000  0.47576000  0.39485000  1.0
  H  H57  1  0.71452000  0.52424000  0.60515000  1.0
  H  H58  1  0.26711000  0.64768000  0.53679000  1.0
  H  H59  1  0.73289000  0.35232000  0.46321000  1.0
  H  H60  1  0.33562000  0.52380000  0.62164000  1.0
  H  H61  1  0.66438000  0.47620000  0.37836000  1.0
  H  H62  1  0.97944000  0.09162000  0.48336000  1.0
  H  H63  1  0.02055000  0.90838000  0.51664000  1.0
  H  H64  1  0.94743000  0.08241000  0.36622000  1.0
  H  H65  1  0.05257000  0.91760000  0.63378000  1.0
  H  H66  1  0.52244000  0.13093000  0.41625000  1.0
  H  H67  1  0.47755000  0.86907000  0.58375000  1.0
  H  H68  1  0.57081000  0.13370000  0.53165000  1.0
  H  H69  1  0.42918000  0.86628000  0.46836000  1.0
  H  H70  1  0.89748000  0.17407000  0.26580000  1.0
  H  H71  1  0.10252000  0.82593000  0.73420000  1.0
  H  H72  1  0.84384000  0.18236000  0.14970000  1.0
  H  H73  1  0.15616000  0.81764000  0.85030000  1.0
  H  H74  1  0.47218000  0.05979000  0.21728000  1.0
  H  H75  1  0.52782000  0.94022000  0.78273000  1.0
  H  H76  1  0.51274000  0.04122000  0.33621000  1.0
  H  H77  1  0.48727000  0.95878000  0.66379000  1.0
  C  C78  1  0.53560000  0.38076000  0.82101000  1.0
  C  C79  1  0.46440000  0.61924000  0.17899000  1.0
  C  C80  1  0.79872000  0.55296000  0.75857000  1.0
  C  C81  1  0.20128000  0.44704000  0.24143000  1.0
  C  C82  1  0.80041000  0.64162000  0.72489000  1.0
  C  C83  1  0.19960000  0.35839000  0.27511000  1.0
  C  C84  1  0.78290000  0.70954000  0.76169000  1.0
  C  C85  1  0.21711000  0.29046000  0.23831000  1.0
  C  C86  1  0.76307000  0.68395000  0.83181000  1.0
  C  C87  1  0.23693000  0.31605000  0.16819000  1.0
  C  C88  1  0.76409000  0.59392000  0.86140000  1.0
  C  C89  1  0.23591000  0.40608000  0.13860000  1.0
  C  C90  1  0.78601000  0.80458000  0.72830000  1.0
  C  C91  1  0.21399000  0.19542000  0.27171000  1.0
  C  C92  1  0.75891000  0.83196000  0.66174000  1.0
  C  C93  1  0.24108000  0.16804000  0.33826000  1.0
  C  C94  1  0.76386000  0.92233000  0.63282000  1.0
  C  C95  1  0.23614000  0.07767000  0.36718000  1.0
  C  C96  1  0.81784000  0.95987000  0.72972000  1.0
  C  C97  1  0.18216000  0.04013000  0.27027000  1.0
  C  C98  1  0.81652000  0.87088000  0.76233000  1.0
  C  C99  1  0.18348000  0.12912000  0.23767000  1.0
  C  C100  1  0.64757000  0.41846000  0.01898000  1.0
  C  C101  1  0.35243000  0.58154000  0.98102000  1.0
  C  C102  1  0.63146000  0.41460000  0.08752000  1.0
  C  C103  1  0.36854000  0.58540000  0.91248000  1.0
  C  C104  1  0.74230000  0.39166000  0.12350000  1.0
  C  C105  1  0.25770000  0.60835000  0.87650000  1.0
  C  C106  1  0.86638000  0.37680000  0.08734000  1.0
  C  C107  1  0.13363000  0.62320000  0.91265000  1.0
  C  C108  1  0.87502000  0.38351000  0.01861000  1.0
  C  C109  1  0.12498000  0.61650000  0.98139000  1.0
  C  C110  1  0.72819000  0.37852000  0.19701000  1.0
  C  C111  1  0.27181000  0.62148000  0.80299000  1.0
  C  C112  1  0.60672000  0.34695000  0.23590000  1.0
  C  C113  1  0.39328000  0.65306000  0.76409000  1.0
  C  C114  1  0.60057000  0.32909000  0.30539000  1.0
  C  C115  1  0.39943000  0.67091000  0.69460000  1.0
  C  C116  1  0.82064000  0.37277000  0.30061000  1.0
  C  C117  1  0.17937000  0.62723000  0.69939000  1.0
  C  C118  1  0.83704000  0.39265000  0.23093000  1.0
  C  C119  1  0.16296000  0.60735000  0.76907000  1.0
  C  C120  1  0.79503000  0.16082000  0.90715000  1.0
  C  C121  1  0.20497000  0.83919000  0.09285000  1.0
  C  C122  1  0.80253000  0.07650000  0.95924000  1.0
  C  C123  1  0.19747000  0.92351000  0.04077000  1.0
  C  C124  1  0.76827000  0.07884000  0.02717000  1.0
  C  C125  1  0.23174000  0.92117000  0.97283000  1.0
  C  C126  1  0.77233000  0.00262000  0.07638000  1.0
  C  C127  1  0.22767000  0.99738000  0.92362000  1.0
  C  C128  1  0.80951000  0.92009000  0.06051000  1.0
  C  C129  1  0.19050000  0.07992000  0.93949000  1.0
  C  C130  1  0.84492000  0.91748000  0.99175000  1.0
  C  C131  1  0.15509000  0.08252000  0.00825000  1.0
  C  C132  1  0.84148000  0.99555000  0.94243000  1.0
  C  C133  1  0.15853000  0.00445000  0.05757000  1.0
  C  C134  1  0.77649000  0.85311000  0.17585000  1.0
  C  C135  1  0.22351000  0.14689000  0.82416000  1.0
  C  C136  1  0.64088000  0.84871000  0.20205000  1.0
  C  C137  1  0.35912000  0.15129000  0.79795000  1.0
  C  C138  1  0.60679000  0.85257000  0.26954000  1.0
  C  C139  1  0.39321000  0.14743000  0.73046000  1.0
  C  C140  1  0.70780000  0.85952000  0.30981000  1.0
  C  C141  1  0.29220000  0.14048000  0.69019000  1.0
  C  C142  1  0.84354000  0.86119000  0.28297000  1.0
  C  C143  1  0.15646000  0.13881000  0.71704000  1.0
  C  C144  1  0.87836000  0.85904000  0.21513000  1.0
  C  C145  1  0.12164000  0.14096000  0.78487000  1.0
  C  C146  1  0.46063000  0.84879000  0.29806000  1.0
  C  C147  1  0.53937000  0.15121000  0.70194000  1.0
  C  C148  1  0.04148000  0.36951000  0.80062000  1.0
  C  C149  1  0.95852000  0.63049000  0.19938000  1.0
  C  C150  1  0.18536000  0.37164000  0.76952000  1.0
  C  C151  1  0.81465000  0.62836000  0.23048000  1.0
  C  C152  1  0.28997000  0.37873000  0.80764000  1.0
  C  C153  1  0.71003000  0.62127000  0.19236000  1.0
  C  C154  1  0.42415000  0.37830000  0.77890000  1.0
  C  C155  1  0.57585000  0.62170000  0.22110000  1.0
  C  C156  1  0.45442000  0.37356000  0.71125000  1.0
  C  C157  1  0.54558000  0.62644000  0.28875000  1.0
  C  C158  1  0.34883000  0.36802000  0.67401000  1.0
  C  C159  1  0.65117000  0.63198000  0.32599000  1.0
  C  C160  1  0.21442000  0.36599000  0.70222000  1.0
  C  C161  1  0.78558000  0.63401000  0.29778000  1.0
  C  C162  1  0.34629000  0.42711000  0.55883000  1.0
  C  C163  1  0.65370000  0.57290000  0.44117000  1.0
  C  C164  1  0.33342000  0.41528000  0.49316000  1.0
  C  C165  1  0.66658000  0.58472000  0.50684000  1.0
  C  C166  1  0.29430000  0.48667000  0.44477000  1.0
  C  C167  1  0.70569000  0.51334000  0.55523000  1.0
  C  C168  1  0.26749000  0.57007000  0.45986000  1.0
  C  C169  1  0.73251000  0.42993000  0.54013000  1.0
  C  C170  1  0.28395000  0.58232000  0.52432000  1.0
  C  C171  1  0.71605000  0.41768000  0.47568000  1.0
  C  C172  1  0.32294000  0.51251000  0.57229000  1.0
  C  C173  1  0.67706000  0.48749000  0.42771000  1.0
  C  C174  1  0.95277000  0.86343000  0.32644000  1.0
  C  C175  1  0.04722000  0.13657000  0.67356000  1.0
  C  C176  1  0.22361000  0.64766000  0.40935000  1.0
  C  C177  1  0.77638000  0.35235000  0.59065000  1.0
  C  C178  1  0.87971000  0.09895000  0.46615000  1.0
  C  C179  1  0.12028000  0.90104000  0.53386000  1.0
  C  C180  1  0.86160000  0.09548000  0.40087000  1.0
  C  C181  1  0.13840000  0.90453000  0.59913000  1.0
  C  C182  1  0.73162000  0.10662000  0.38093000  1.0
  C  C183  1  0.26837000  0.89338000  0.61907000  1.0
  C  C184  1  0.62497000  0.11932000  0.42912000  1.0
  C  C185  1  0.37502000  0.88067000  0.57089000  1.0
  C  C186  1  0.65093000  0.12170000  0.49349000  1.0
  C  C187  1  0.34907000  0.87829000  0.50651000  1.0
  C  C188  1  0.70744000  0.10896000  0.31139000  1.0
  C  C189  1  0.29256000  0.89104000  0.68861000  1.0
  C  C190  1  0.80224000  0.14700000  0.25741000  1.0
  C  C191  1  0.19776000  0.85300000  0.74259000  1.0
  C  C192  1  0.77106000  0.15319000  0.19244000  1.0
  C  C193  1  0.22893000  0.84681000  0.80757000  1.0
  C  C194  1  0.56498000  0.08568000  0.22987000  1.0
  C  C195  1  0.43501000  0.91432000  0.77014000  1.0
  C  C196  1  0.58685000  0.07621000  0.29656000  1.0
  C  C197  1  0.41315000  0.92379000  0.70344000  1.0
  N  N198  1  0.78198000  0.52956000  0.82574000  1.0
  N  N199  1  0.21803000  0.47044000  0.17426000  1.0
  N  N200  1  0.79255000  0.98537000  0.66584000  1.0
  N  N201  1  0.20745000  0.01464000  0.33416000  1.0
  N  N202  1  0.76698000  0.40336000  0.98503000  1.0
  N  N203  1  0.23302000  0.59665000  0.01497000  1.0
  N  N204  1  0.70547000  0.34061000  0.33803000  1.0
  N  N205  1  0.29453000  0.65939000  0.66197000  1.0
  N  N206  1  0.88278000  0.83534000  0.96936000  1.0
  N  N207  1  0.11722000  0.16467000  0.03064000  1.0
  N  N208  1  0.35792000  0.33005000  0.47368000  1.0
  N  N209  1  0.64208000  0.66995000  0.52631000  1.0
  N  N210  1  0.77648000  0.11181000  0.51179000  1.0
  N  N211  1  0.22351000  0.88818000  0.48822000  1.0
  N  N212  1  0.65378000  0.12454000  0.17806000  1.0
  N  N213  1  0.34622000  0.87547000  0.82194000  1.0
  O  O214  1  0.65401000  0.35519000  0.79835000  1.0
  O  O215  1  0.34599000  0.64481000  0.20165000  1.0
  O  O216  1  0.51492000  0.40749000  0.87509000  1.0
  O  O217  1  0.48508000  0.59252000  0.12491000  1.0
  O  O218  1  0.76584000  0.23076000  0.92985000  1.0
  O  O219  1  0.23416000  0.76924000  0.07015000  1.0
  O  O220  1  0.81779000  0.15510000  0.84586000  1.0
  O  O221  1  0.18221000  0.84490000  0.15415000  1.0
  O  O222  1  0.92878000  0.84123000  0.90893000  1.0
  O  O223  1  0.07122000  0.15877000  0.09107000  1.0
  O  O224  1  0.86710000  0.76308000  0.00978000  1.0
  O  O225  1  0.13290000  0.23692000  0.99022000  1.0
  O  O226  1  0.81353000  0.84545000  0.10892000  1.0
  O  O227  1  0.18647000  0.15455000  0.89108000  1.0
  O  O228  1  0.37410000  0.83702000  0.26002000  1.0
  O  O229  1  0.62591000  0.16298000  0.73998000  1.0
  O  O230  1  0.43169000  0.86004000  0.35788000  1.0
  O  O231  1  0.56831000  0.13996000  0.64212000  1.0
  O  O232  1  0.01686000  0.38376000  0.85969000  1.0
  O  O233  1  0.98315000  0.61624000  0.14031000  1.0
  O  O234  1  0.94981000  0.35633000  0.76527000  1.0
  O  O235  1  0.05019000  0.64366000  0.23474000  1.0
  O  O236  1  0.37928000  0.35824000  0.60721000  1.0
  O  O237  1  0.62073000  0.64176000  0.39278000  1.0
  O  O238  1  0.41942000  0.27142000  0.50920000  1.0
  O  O239  1  0.58058000  0.72858000  0.49080000  1.0
  O  O240  1  0.31605000  0.32008000  0.42045000  1.0
  O  O241  1  0.68395000  0.67992000  0.57955000  1.0
  O  O242  1  0.07330000  0.84130000  0.30293000  1.0
  O  O243  1  0.92670000  0.15870000  0.69707000  1.0
  O  O244  1  0.93039000  0.88724000  0.38146000  1.0
  O  O245  1  0.06961000  0.11276000  0.61854000  1.0
  O  O246  1  0.23401000  0.63992000  0.34838000  1.0
  O  O247  1  0.76598000  0.36009000  0.65162000  1.0
  O  O248  1  0.17990000  0.71463000  0.43283000  1.0
  O  O249  1  0.82010000  0.28537000  0.56718000  1.0
