# generated using pymatgen
data_CdH12C9O8
_symmetry_space_group_name_H-M   'P 1'
_cell_length_a   6.97984000
_cell_length_b   10.16440000
_cell_length_c   16.41700000
_cell_angle_alpha   90.00000000
_cell_angle_beta   90.00000000
_cell_angle_gamma   99.56580000
_symmetry_Int_Tables_number   1
_chemical_formula_structural   CdH12C9O8
_chemical_formula_sum   'Cd4 H48 C36 O32'
_cell_volume   1148.52366627
_cell_formula_units_Z   4
loop_
 _symmetry_equiv_pos_site_id
 _symmetry_equiv_pos_as_xyz
  1  'x, y, z'
loop_
 _atom_site_type_symbol
 _atom_site_label
 _atom_site_symmetry_multiplicity
 _atom_site_fract_x
 _atom_site_fract_y
 _atom_site_fract_z
 _atom_site_occupancy
  Cd  Cd0  1  0.76583000  0.02648000  0.62086000  1.0
  Cd  Cd1  1  0.23417000  0.47351000  0.12086000  1.0
  Cd  Cd2  1  0.23417000  0.97351000  0.37914000  1.0
  Cd  Cd3  1  0.76583000  0.52649000  0.87914000  1.0
  H  H4  1  0.30324000  0.67392000  0.73978000  1.0
  H  H5  1  0.69676000  0.82608000  0.23978000  1.0
  H  H6  1  0.69675000  0.32608000  0.26023000  1.0
  H  H7  1  0.30324000  0.17393000  0.76023000  1.0
  H  H8  1  0.43540000  0.74168000  0.82646000  1.0
  H  H9  1  0.56460000  0.75832000  0.32647000  1.0
  H  H10  1  0.56459000  0.25832000  0.17354000  1.0
  H  H11  1  0.43541000  0.24168000  0.67354000  1.0
  H  H12  1  0.90656000  0.94702000  0.82297000  1.0
  H  H13  1  0.09345000  0.55298000  0.32297000  1.0
  H  H14  1  0.09344000  0.05299000  0.17703000  1.0
  H  H15  1  0.90656000  0.44702000  0.67703000  1.0
  H  H16  1  0.51004000  0.93890000  0.87733000  1.0
  H  H17  1  0.48996000  0.56110000  0.37733000  1.0
  H  H18  1  0.48995000  0.06110000  0.12267000  1.0
  H  H19  1  0.51004000  0.43890000  0.62267000  1.0
  H  H20  1  0.91297000  0.13920000  0.91723000  1.0
  H  H21  1  0.08703000  0.36080000  0.41723000  1.0
  H  H22  1  0.08703000  0.86080000  0.08278000  1.0
  H  H23  1  0.91297000  0.63920000  0.58277000  1.0
  H  H24  1  0.51475000  0.13043000  0.96890000  1.0
  H  H25  1  0.48524000  0.36957000  0.46890000  1.0
  H  H26  1  0.48525000  0.86957000  0.03110000  1.0
  H  H27  1  0.51475000  0.63042000  0.53109000  1.0
  H  H28  1  0.15141000  0.01295000  0.57678000  1.0
  H  H29  1  0.84859000  0.48705000  0.07679000  1.0
  H  H30  1  0.84859000  0.98705000  0.42322000  1.0
  H  H31  1  0.15141000  0.51295000  0.92322000  1.0
  H  H32  1  0.75142000  0.21459000  0.75610000  1.0
  H  H33  1  0.24858000  0.28541000  0.25610000  1.0
  H  H34  1  0.24858000  0.78541000  0.24391000  1.0
  H  H35  1  0.75142000  0.71459000  0.74390000  1.0
  H  H36  1  0.60174000  0.84762000  0.48895000  1.0
  H  H37  1  0.39826000  0.65238000  0.98895000  1.0
  H  H38  1  0.39825000  0.15238000  0.51105000  1.0
  H  H39  1  0.60175000  0.34762000  0.01105000  1.0
  H  H40  1  0.83281000  0.83125000  0.50120000  1.0
  H  H41  1  0.16719000  0.66875000  0.00120000  1.0
  H  H42  1  0.16719000  0.16875000  0.49880000  1.0
  H  H43  1  0.83281000  0.33125000  0.99880000  1.0
  H  H44  1  0.17620000  0.95923000  0.66402000  1.0
  H  H45  1  0.82380000  0.54077000  0.16402000  1.0
  H  H46  1  0.82380000  0.04077000  0.33598000  1.0
  H  H47  1  0.17620000  0.45923000  0.83598000  1.0
  H  H48  1  0.96343000  0.21308000  0.72367000  1.0
  H  H49  1  0.03657000  0.28692000  0.22367000  1.0
  H  H50  1  0.03657000  0.78691000  0.27633000  1.0
  H  H51  1  0.96343000  0.71309000  0.77633000  1.0
  C  C52  1  0.48742000  0.86079000  0.71660000  1.0
  C  C53  1  0.51258000  0.63921000  0.21660000  1.0
  C  C54  1  0.51258000  0.13921000  0.28340000  1.0
  C  C55  1  0.48742000  0.36080000  0.78340000  1.0
  C  C56  1  0.35513000  0.76713000  0.77265000  1.0
  C  C57  1  0.64487000  0.73287000  0.27265000  1.0
  C  C58  1  0.64487000  0.23287000  0.22735000  1.0
  C  C59  1  0.35513000  0.26713000  0.72735000  1.0
  C  C60  1  0.20456000  0.92820000  0.84634000  1.0
  C  C61  1  0.79544000  0.57180000  0.34634000  1.0
  C  C62  1  0.79543000  0.07180000  0.15366000  1.0
  C  C63  1  0.20456000  0.42820000  0.65366000  1.0
  C  C64  1  0.03756000  0.98607000  0.85702000  1.0
  C  C65  1  0.96244000  0.51393000  0.35702000  1.0
  C  C66  1  0.96244000  0.01393000  0.14298000  1.0
  C  C67  1  0.03756000  0.48607000  0.64297000  1.0
  C  C68  1  0.37805000  0.98128000  0.88571000  1.0
  C  C69  1  0.62195000  0.51872000  0.38570000  1.0
  C  C70  1  0.62195000  0.01872000  0.11430000  1.0
  C  C71  1  0.37805000  0.48128000  0.61429000  1.0
  C  C72  1  0.21457000  0.25633000  0.01099000  1.0
  C  C73  1  0.78543000  0.24367000  0.51099000  1.0
  C  C74  1  0.78543000  0.74367000  0.98901000  1.0
  C  C75  1  0.21457000  0.75633000  0.48901000  1.0
  C  C76  1  0.21344000  0.14644000  0.95128000  1.0
  C  C77  1  0.78656000  0.35356000  0.45128000  1.0
  C  C78  1  0.78656000  0.85356000  0.04872000  1.0
  C  C79  1  0.21344000  0.64644000  0.54872000  1.0
  C  C80  1  0.04233000  0.09373000  0.90925000  1.0
  C  C81  1  0.95767000  0.40627000  0.40925000  1.0
  C  C82  1  0.95767000  0.90627000  0.09075000  1.0
  C  C83  1  0.04232000  0.59372000  0.59074000  1.0
  C  C84  1  0.38052000  0.09005000  0.93757000  1.0
  C  C85  1  0.61948000  0.40994000  0.43757000  1.0
  C  C86  1  0.61948000  0.90995000  0.06243000  1.0
  C  C87  1  0.38051000  0.59005000  0.56242000  1.0
  O  O88  1  0.65517000  0.83159000  0.70197000  1.0
  O  O89  1  0.34482000  0.66841000  0.20197000  1.0
  O  O90  1  0.34482000  0.16841000  0.29803000  1.0
  O  O91  1  0.65518000  0.33158000  0.79803000  1.0
  O  O92  1  0.43051000  0.96174000  0.68635000  1.0
  O  O93  1  0.56949000  0.53826000  0.18635000  1.0
  O  O94  1  0.56949000  0.03826000  0.31365000  1.0
  O  O95  1  0.43052000  0.46175000  0.81365000  1.0
  O  O96  1  0.18485000  0.81966000  0.79512000  1.0
  O  O97  1  0.81515000  0.68034000  0.29512000  1.0
  O  O98  1  0.81515000  0.18034000  0.20488000  1.0
  O  O99  1  0.18486000  0.31966000  0.70488000  1.0
  O  O100  1  0.37681000  0.31145000  0.04364000  1.0
  O  O101  1  0.62319000  0.18854000  0.54364000  1.0
  O  O102  1  0.62319000  0.68855000  0.95636000  1.0
  O  O103  1  0.37682000  0.81145000  0.45636000  1.0
  O  O104  1  0.05638000  0.29374000  0.03143000  1.0
  O  O105  1  0.94362000  0.20627000  0.53143000  1.0
  O  O106  1  0.94361000  0.70626000  0.96857000  1.0
  O  O107  1  0.05638000  0.79374000  0.46856000  1.0
  O  O108  1  0.07532000  0.97010000  0.62358000  1.0
  O  O109  1  0.92468000  0.52990000  0.12358000  1.0
  O  O110  1  0.92468000  0.02990000  0.37642000  1.0
  O  O111  1  0.07533000  0.47010000  0.87642000  1.0
  O  O112  1  0.83854000  0.15409000  0.73349000  1.0
  O  O113  1  0.16146000  0.34591000  0.23349000  1.0
  O  O114  1  0.16146000  0.84591000  0.26651000  1.0
  O  O115  1  0.83854000  0.65409000  0.76651000  1.0
  O  O116  1  0.73614000  0.89270000  0.50452000  1.0
  O  O117  1  0.26387000  0.60729000  0.00452000  1.0
  O  O118  1  0.26386000  0.10730000  0.49548000  1.0
  O  O119  1  0.73614000  0.39271000  0.99548000  1.0
