# generated using pymatgen
data_SbH10C6S4Br3N2
_symmetry_space_group_name_H-M   'P 1'
_cell_length_a   8.52110000
_cell_length_b   12.29500000
_cell_length_c   14.88240000
_cell_angle_alpha   90.00000000
_cell_angle_beta   90.00000000
_cell_angle_gamma   100.36300000
_symmetry_Int_Tables_number   1
_chemical_formula_structural   SbH10C6S4Br3N2
_chemical_formula_sum   'Sb4 H40 C24 S16 Br12 N8'
_cell_volume   1533.74962993
_cell_formula_units_Z   4
loop_
 _symmetry_equiv_pos_site_id
 _symmetry_equiv_pos_as_xyz
  1  'x, y, z'
loop_
 _atom_site_type_symbol
 _atom_site_label
 _atom_site_symmetry_multiplicity
 _atom_site_fract_x
 _atom_site_fract_y
 _atom_site_fract_z
 _atom_site_occupancy
  Sb  Sb0  1  0.25030000  0.21293000  0.76394000  1.0
  Sb  Sb1  1  0.74970000  0.28706000  0.26394000  1.0
  Sb  Sb2  1  0.74968000  0.78708000  0.23606000  1.0
  Sb  Sb3  1  0.25031000  0.71293000  0.73607000  1.0
  H  H4  1  0.69591000  0.99707000  0.82302000  1.0
  H  H5  1  0.30410000  0.50295000  0.32302000  1.0
  H  H6  1  0.30412000  0.00294000  0.17697000  1.0
  H  H7  1  0.69591000  0.49706000  0.67697000  1.0
  H  H8  1  0.73269000  0.88018000  0.88645000  1.0
  H  H9  1  0.26729000  0.61983000  0.38645000  1.0
  H  H10  1  0.26732000  0.11982000  0.11355000  1.0
  H  H11  1  0.73270000  0.38018000  0.61354000  1.0
  H  H12  1  0.59638000  0.04609000  0.96375000  1.0
  H  H13  1  0.40364000  0.45391000  0.46374000  1.0
  H  H14  1  0.40364000  0.95390000  0.03625000  1.0
  H  H15  1  0.59638000  0.54610000  0.53625000  1.0
  H  H16  1  0.72569000  0.97502000  0.02753000  1.0
  H  H17  1  0.27432000  0.52498000  0.52752000  1.0
  H  H18  1  0.27433000  0.02498000  0.97247000  1.0
  H  H19  1  0.72569000  0.47503000  0.47247000  1.0
  H  H20  1  0.84014000  0.88313000  0.54556000  1.0
  H  H21  1  0.15984000  0.61687000  0.04555000  1.0
  H  H22  1  0.15984000  0.11686000  0.45446000  1.0
  H  H23  1  0.84015000  0.38313000  0.95445000  1.0
  H  H24  1  0.79778000  0.88326000  0.66338000  1.0
  H  H25  1  0.20221000  0.61673000  0.16337000  1.0
  H  H26  1  0.20219000  0.11673000  0.33664000  1.0
  H  H27  1  0.79779000  0.38327000  0.83662000  1.0
  H  H28  1  0.68089000  0.02058000  0.51228000  1.0
  H  H29  1  0.31909000  0.47940000  0.01228000  1.0
  H  H30  1  0.31910000  0.97941000  0.48772000  1.0
  H  H31  1  0.68090000  0.52059000  0.98773000  1.0
  H  H32  1  0.56899000  0.95268000  0.60491000  1.0
  H  H33  1  0.43099000  0.54731000  0.10490000  1.0
  H  H34  1  0.43099000  0.04731000  0.39510000  1.0
  H  H35  1  0.56901000  0.45268000  0.89510000  1.0
  H  H36  1  0.80836000  0.19117000  0.01669000  1.0
  H  H37  1  0.19166000  0.30884000  0.51668000  1.0
  H  H38  1  0.19165000  0.80884000  0.98332000  1.0
  H  H39  1  0.80836000  0.69117000  0.48331000  1.0
  H  H40  1  0.64149000  0.14828000  0.65092000  1.0
  H  H41  1  0.35849000  0.35172000  0.15092000  1.0
  H  H42  1  0.35850000  0.85173000  0.34907000  1.0
  H  H43  1  0.64149000  0.64827000  0.84908000  1.0
  C  C44  1  0.96840000  0.13546000  0.93083000  1.0
  C  C45  1  0.03161000  0.36454000  0.43084000  1.0
  C  C46  1  0.03161000  0.86455000  0.06916000  1.0
  C  C47  1  0.96840000  0.63546000  0.56916000  1.0
  C  C48  1  0.75746000  0.97046000  0.88164000  1.0
  C  C49  1  0.24255000  0.52955000  0.38163000  1.0
  C  C50  1  0.24256000  0.02955000  0.11836000  1.0
  C  C51  1  0.75746000  0.47046000  0.61835000  1.0
  C  C52  1  0.71661000  0.02652000  0.96781000  1.0
  C  C53  1  0.28340000  0.47349000  0.46781000  1.0
  C  C54  1  0.28341000  0.97349000  0.03219000  1.0
  C  C55  1  0.71661000  0.52652000  0.53218000  1.0
  C  C56  1  0.87993000  0.13630000  0.65301000  1.0
  C  C57  1  0.12005000  0.36370000  0.15301000  1.0
  C  C58  1  0.12005000  0.86370000  0.34700000  1.0
  C  C59  1  0.87993000  0.63631000  0.84699000  1.0
  C  C60  1  0.81865000  0.93445000  0.60267000  1.0
  C  C61  1  0.18133000  0.56554000  0.10266000  1.0
  C  C62  1  0.18132000  0.06554000  0.39735000  1.0
  C  C63  1  0.81867000  0.43446000  0.89735000  1.0
  C  C64  1  0.68546000  0.99918000  0.58410000  1.0
  C  C65  1  0.31453000  0.50081000  0.08410000  1.0
  C  C66  1  0.31453000  0.00081000  0.41590000  1.0
  C  C67  1  0.68547000  0.49919000  0.91590000  1.0
  S  S68  1  0.97208000  0.01710000  0.86732000  1.0
  S  S69  1  0.02792000  0.48291000  0.36732000  1.0
  S  S70  1  0.02794000  0.98292000  0.13268000  1.0
  S  S71  1  0.97208000  0.51710000  0.63268000  1.0
  S  S72  1  0.12518000  0.24105000  0.93592000  1.0
  S  S73  1  0.87483000  0.25896000  0.43594000  1.0
  S  S74  1  0.87483000  0.75896000  0.06407000  1.0
  S  S75  1  0.12520000  0.74105000  0.56407000  1.0
  S  S76  1  0.99550000  0.04061000  0.61927000  1.0
  S  S77  1  0.00449000  0.45938000  0.11927000  1.0
  S  S78  1  0.00449000  0.95938000  0.38074000  1.0
  S  S79  1  0.99550000  0.54062000  0.88073000  1.0
  S  S80  1  0.95917000  0.25964000  0.69835000  1.0
  S  S81  1  0.04082000  0.24036000  0.19835000  1.0
  S  S82  1  0.04082000  0.74036000  0.30164000  1.0
  S  S83  1  0.95917000  0.75963000  0.80165000  1.0
  Br  Br84  1  0.32130000  0.42653000  0.76698000  1.0
  Br  Br85  1  0.67868000  0.07345000  0.26695000  1.0
  Br  Br86  1  0.67870000  0.57347000  0.23303000  1.0
  Br  Br87  1  0.32131000  0.92653000  0.73302000  1.0
  Br  Br88  1  0.53541000  0.20099000  0.83612000  1.0
  Br  Br89  1  0.46457000  0.29900000  0.33613000  1.0
  Br  Br90  1  0.46455000  0.79900000  0.16388000  1.0
  Br  Br91  1  0.53543000  0.70095000  0.66389000  1.0
  Br  Br92  1  0.39008000  0.21907000  0.59416000  1.0
  Br  Br93  1  0.60993000  0.28091000  0.09417000  1.0
  Br  Br94  1  0.60989000  0.78089000  0.40584000  1.0
  Br  Br95  1  0.39012000  0.71912000  0.90584000  1.0
  N  N96  1  0.83146000  0.12987000  0.97452000  1.0
  N  N97  1  0.16856000  0.37014000  0.47453000  1.0
  N  N98  1  0.16856000  0.87015000  0.02547000  1.0
  N  N99  1  0.83146000  0.62986000  0.52547000  1.0
  N  N100  1  0.72550000  0.10045000  0.63732000  1.0
  N  N101  1  0.27448000  0.39955000  0.13732000  1.0
  N  N102  1  0.27449000  0.89956000  0.36268000  1.0
  N  N103  1  0.72550000  0.60045000  0.86268000  1.0
