# generated using pymatgen
data_CsPH24C13O2
_symmetry_space_group_name_H-M   'P 1'
_cell_length_a   5.84129000
_cell_length_b   9.27585000
_cell_length_c   14.39980000
_cell_angle_alpha   82.83440000
_cell_angle_beta   82.66210000
_cell_angle_gamma   77.58190000
_symmetry_Int_Tables_number   1
_chemical_formula_structural   CsPH24C13O2
_chemical_formula_sum   'Cs2 P2 H48 C26 O4'
_cell_volume   751.90868952
_cell_formula_units_Z   2
loop_
 _symmetry_equiv_pos_site_id
 _symmetry_equiv_pos_as_xyz
  1  'x, y, z'
loop_
 _atom_site_type_symbol
 _atom_site_label
 _atom_site_symmetry_multiplicity
 _atom_site_fract_x
 _atom_site_fract_y
 _atom_site_fract_z
 _atom_site_occupancy
  Cs  Cs0  1  0.18698000  0.16980000  0.03313000  1.0
  Cs  Cs1  1  0.81298000  0.83020000  0.96687000  1.0
  P  P2  1  0.46059000  0.87149000  0.20022000  1.0
  P  P3  1  0.53941000  0.12851000  0.79978000  1.0
  H  H4  1  0.44496000  0.30229000  0.36383000  1.0
  H  H5  1  0.55505000  0.69771000  0.63617000  1.0
  H  H6  1  0.34925000  0.13239000  0.36768000  1.0
  H  H7  1  0.65076000  0.86760000  0.63232000  1.0
  H  H8  1  0.39486000  0.23858000  0.25833000  1.0
  H  H9  1  0.60515000  0.76142000  0.74167000  1.0
  H  H10  1  0.80239000  0.18576000  0.44579000  1.0
  H  H11  1  0.19763000  0.81424000  0.55420000  1.0
  H  H12  1  0.99822000  0.02566000  0.40630000  1.0
  H  H13  1  0.00179000  0.97434000  0.59369000  1.0
  H  H14  1  0.71088000  0.01294000  0.45977000  1.0
  H  H15  1  0.28914000  0.98705000  0.54022000  1.0
  H  H16  1  0.67290000  0.48961000  0.40390000  1.0
  H  H17  1  0.32713000  0.51039000  0.59611000  1.0
  H  H18  1  0.47896000  0.59004000  0.32152000  1.0
  H  H19  1  0.52105000  0.40996000  0.67849000  1.0
  H  H20  1  0.45798000  0.64697000  0.43612000  1.0
  H  H21  1  0.54204000  0.35304000  0.56388000  1.0
  H  H22  1  0.03480000  0.52514000  0.28959000  1.0
  H  H23  1  0.96521000  0.47486000  0.71041000  1.0
  H  H24  1  0.05887000  0.70426000  0.23473000  1.0
  H  H25  1  0.94114000  0.29574000  0.76527000  1.0
  H  H26  1  0.83907000  0.61598000  0.20530000  1.0
  H  H27  1  0.16094000  0.38402000  0.79470000  1.0
  H  H28  1  0.99251000  0.59954000  0.44932000  1.0
  H  H29  1  0.00750000  0.40047000  0.55068000  1.0
  H  H30  1  0.78582000  0.75928000  0.48369000  1.0
  H  H31  1  0.21419000  0.24073000  0.51631000  1.0
  H  H32  1  0.03440000  0.77858000  0.40132000  1.0
  H  H33  1  0.96560000  0.22143000  0.59868000  1.0
  H  H34  1  0.94636000  0.93455000  0.25451000  1.0
  H  H35  1  0.05366000  0.06546000  0.74549000  1.0
  H  H36  1  0.49141000  0.89523000  0.37038000  1.0
  H  H37  1  0.50861000  0.10478000  0.62962000  1.0
  H  H38  1  0.13374000  0.56708000  0.09551000  1.0
  H  H39  1  0.86620000  0.43294000  0.90450000  1.0
  H  H40  1  0.48914000  0.37088000  0.11932000  1.0
  H  H41  1  0.51082000  0.62913000  0.88068000  1.0
  H  H42  1  0.31375000  0.69112000  0.03450000  1.0
  H  H43  1  0.68623000  0.30888000  0.96551000  1.0
  H  H44  1  0.52662000  0.53905000  0.15985000  1.0
  H  H45  1  0.47334000  0.46094000  0.84017000  1.0
  H  H46  1  0.05504000  0.16845000  0.24744000  1.0
  H  H47  1  0.94497000  0.83155000  0.75255000  1.0
  H  H48  1  0.80617000  0.26196000  0.18760000  1.0
  H  H49  1  0.19383000  0.73805000  0.81240000  1.0
  H  H50  1  0.86098000  0.32515000  0.29268000  1.0
  H  H51  1  0.13903000  0.67485000  0.70732000  1.0
  C  C52  1  0.65012000  0.99882000  0.17007000  1.0
  C  C53  1  0.34988000  0.00118000  0.82992000  1.0
  C  C54  1  0.75414000  0.97940000  0.26441000  1.0
  C  C55  1  0.24587000  0.02059000  0.73558000  1.0
  C  C56  1  0.61666000  0.85721000  0.31016000  1.0
  C  C57  1  0.38335000  0.14279000  0.68984000  1.0
  C  C58  1  0.72157000  0.12223000  0.31535000  1.0
  C  C59  1  0.27844000  0.87776000  0.68465000  1.0
  C  C60  1  0.46314000  0.20291000  0.32689000  1.0
  C  C61  1  0.53688000  0.79708000  0.67311000  1.0
  C  C62  1  0.86951000  0.22611000  0.25684000  1.0
  C  C63  1  0.13050000  0.77390000  0.74315000  1.0
  C  C64  1  0.81292000  0.08379000  0.41240000  1.0
  C  C65  1  0.18710000  0.91621000  0.58760000  1.0
  C  C66  1  0.75901000  0.70189000  0.34279000  1.0
  C  C67  1  0.24101000  0.29812000  0.65721000  1.0
  C  C68  1  0.58237000  0.60122000  0.37800000  1.0
  C  C69  1  0.41764000  0.39878000  0.62200000  1.0
  C  C70  1  0.93261000  0.63321000  0.26324000  1.0
  C  C71  1  0.06740000  0.36678000  0.73676000  1.0
  C  C72  1  0.90043000  0.71115000  0.42403000  1.0
  C  C73  1  0.09958000  0.28885000  0.57597000  1.0
  C  C74  1  0.29737000  0.57369000  0.04992000  1.0
  C  C75  1  0.70259000  0.42632000  0.95009000  1.0
  C  C76  1  0.50812000  0.48657000  0.09771000  1.0
  C  C77  1  0.49183000  0.51343000  0.90230000  1.0
  O  O78  1  0.69865000  0.08198000  0.09556000  1.0
  O  O79  1  0.30132000  0.91802000  0.90445000  1.0
  O  O80  1  0.27763000  0.51417000  0.96415000  1.0
  O  O81  1  0.72232000  0.48584000  0.03586000  1.0
