# generated using pymatgen
data_CdH14C15S2N8O
_symmetry_space_group_name_H-M   'P 1'
_cell_length_a   5.78186000
_cell_length_b   13.24190000
_cell_length_c   13.26130000
_cell_angle_alpha   89.69780000
_cell_angle_beta   80.13280000
_cell_angle_gamma   87.30440000
_symmetry_Int_Tables_number   1
_chemical_formula_structural   CdH14C15S2N8O
_chemical_formula_sum   'Cd2 H28 C30 S4 N16 O2'
_cell_volume   999.19250411
_cell_formula_units_Z   2
loop_
 _symmetry_equiv_pos_site_id
 _symmetry_equiv_pos_as_xyz
  1  'x, y, z'
loop_
 _atom_site_type_symbol
 _atom_site_label
 _atom_site_symmetry_multiplicity
 _atom_site_fract_x
 _atom_site_fract_y
 _atom_site_fract_z
 _atom_site_occupancy
  Cd  Cd0  1  0.49967000  0.30192000  0.17685000  1.0
  Cd  Cd1  1  0.50027000  0.69808000  0.82315000  1.0
  H  H2  1  0.32580000  0.19953000  0.95902000  1.0
  H  H3  1  0.67415000  0.80045000  0.04097000  1.0
  H  H4  1  0.35679000  0.04360000  0.82654000  1.0
  H  H5  1  0.64323000  0.95638000  0.17343000  1.0
  H  H6  1  0.62402000  0.96789000  0.81052000  1.0
  H  H7  1  0.37601000  0.03209000  0.18947000  1.0
  H  H8  1  0.97390000  0.02072000  0.69432000  1.0
  H  H9  1  0.02616000  0.97928000  0.30569000  1.0
  H  H10  1  0.28307000  0.17187000  0.47845000  1.0
  H  H11  1  0.71698000  0.82814000  0.52156000  1.0
  H  H12  1  0.15938000  0.05754000  0.45554000  1.0
  H  H13  1  0.84065000  0.94247000  0.54447000  1.0
  H  H14  1  0.31030000  0.06564000  0.56006000  1.0
  H  H15  1  0.68973000  0.93437000  0.43995000  1.0
  H  H16  1  0.28069000  0.48367000  0.73767000  1.0
  H  H17  1  0.71930000  0.51634000  0.26232000  1.0
  H  H18  1  0.27595000  0.33793000  0.60650000  1.0
  H  H19  1  0.72408000  0.66207000  0.39351000  1.0
  H  H20  1  0.48826000  0.34137000  0.49269000  1.0
  H  H21  1  0.51178000  0.65862000  0.50732000  1.0
  H  H22  1  0.89002000  0.26552000  0.48741000  1.0
  H  H23  1  0.11003000  0.73449000  0.51260000  1.0
  H  H24  1  0.93644000  0.10835000  0.07521000  1.0
  H  H25  1  0.06349000  0.89165000  0.92480000  1.0
  H  H26  1  0.93808000  0.59124000  0.60804000  1.0
  H  H27  1  0.06192000  0.40876000  0.39197000  1.0
  H  H28  1  0.16678000  0.21037000  0.71133000  1.0
  H  H29  1  0.83325000  0.78961000  0.28865000  1.0
  C  C30  1  0.48846000  0.16135000  0.97169000  1.0
  C  C31  1  0.51149000  0.83863000  0.02831000  1.0
  C  C32  1  0.54854000  0.04552000  0.81715000  1.0
  C  C33  1  0.45148000  0.95447000  0.18284000  1.0
  C  C34  1  0.64539000  0.10737000  0.72538000  1.0
  C  C35  1  0.35463000  0.89263000  0.27462000  1.0
  C  C36  1  0.87043000  0.08483000  0.67025000  1.0
  C  C37  1  0.12961000  0.91517000  0.32976000  1.0
  C  C38  1  0.96251000  0.14003000  0.58312000  1.0
  C  C39  1  0.03754000  0.85998000  0.41689000  1.0
  C  C40  1  0.19180000  0.10777000  0.51687000  1.0
  C  C41  1  0.80823000  0.89224000  0.48315000  1.0
  C  C42  1  0.45023000  0.49294000  0.68960000  1.0
  C  C43  1  0.54977000  0.50707000  0.31039000  1.0
  C  C44  1  0.46479000  0.33789000  0.57654000  1.0
  C  C45  1  0.53525000  0.66210000  0.42347000  1.0
  C  C46  1  0.59987000  0.24700000  0.60954000  1.0
  C  C47  1  0.40017000  0.75300000  0.39046000  1.0
  C  C48  1  0.50889000  0.18867000  0.69464000  1.0
  C  C49  1  0.49114000  0.81133000  0.30536000  1.0
  C  C50  1  0.82373000  0.22144000  0.55497000  1.0
  C  C51  1  0.17632000  0.77858000  0.44504000  1.0
  C  C52  1  0.98548000  0.19522000  0.27746000  1.0
  C  C53  1  0.01445000  0.80480000  0.72255000  1.0
  C  C54  1  0.03677000  0.39137000  0.09476000  1.0
  C  C55  1  0.96318000  0.60863000  0.90521000  1.0
  C  C56  1  0.80198000  0.11533000  0.02740000  1.0
  C  C57  1  0.19796000  0.88466000  0.97261000  1.0
  C  C58  1  0.78468000  0.54592000  0.62338000  1.0
  C  C59  1  0.21532000  0.45409000  0.37662000  1.0
  S  S60  1  0.71358000  0.16426000  0.30849000  1.0
  S  S61  1  0.28636000  0.83576000  0.69152000  1.0
  S  S62  1  0.30184000  0.41111000  0.03600000  1.0
  S  S63  1  0.69812000  0.58888000  0.96399000  1.0
  N  N64  1  0.80686000  0.05772000  0.94514000  1.0
  N  N65  1  0.19310000  0.94227000  0.05487000  1.0
  N  N66  1  0.76364000  0.46395000  0.56867000  1.0
  N  N67  1  0.23639000  0.53605000  0.43134000  1.0
  N  N68  1  0.60885000  0.18017000  0.04648000  1.0
  N  N69  1  0.39108000  0.81981000  0.95352000  1.0
  N  N70  1  0.60495000  0.08773000  0.91138000  1.0
  N  N71  1  0.39502000  0.91226000  0.08862000  1.0
  N  N72  1  0.59533000  0.56685000  0.69820000  1.0
  N  N73  1  0.40466000  0.43316000  0.30179000  1.0
  N  N74  1  0.54923000  0.43162000  0.61201000  1.0
  N  N75  1  0.45078000  0.56839000  0.38799000  1.0
  N  N76  1  0.18492000  0.21635000  0.25604000  1.0
  N  N77  1  0.81504000  0.78366000  0.74396000  1.0
  N  N78  1  0.84525000  0.37865000  0.13966000  1.0
  N  N79  1  0.15467000  0.62134000  0.86031000  1.0
  O  O80  1  0.29061000  0.21089000  0.75333000  1.0
  O  O81  1  0.70941000  0.78909000  0.24667000  1.0
