# generated using pymatgen
data_ZnH12C10N4O5
_symmetry_space_group_name_H-M   'P 1'
_cell_length_a   10.14070000
_cell_length_b   11.06680000
_cell_length_c   11.36400000
_cell_angle_alpha   90.00020000
_cell_angle_beta   90.47960000
_cell_angle_gamma   89.99990000
_symmetry_Int_Tables_number   1
_chemical_formula_structural   ZnH12C10N4O5
_chemical_formula_sum   'Zn4 H48 C40 N16 O20'
_cell_volume   1275.28134347
_cell_formula_units_Z   4
loop_
 _symmetry_equiv_pos_site_id
 _symmetry_equiv_pos_as_xyz
  1  'x, y, z'
loop_
 _atom_site_type_symbol
 _atom_site_label
 _atom_site_symmetry_multiplicity
 _atom_site_fract_x
 _atom_site_fract_y
 _atom_site_fract_z
 _atom_site_occupancy
  Zn  Zn0  1  0.12027000  0.89517000  0.70069000  1.0
  Zn  Zn1  1  0.37973000  0.39517000  0.79931000  1.0
  Zn  Zn2  1  0.87973000  0.10483000  0.29931000  1.0
  Zn  Zn3  1  0.62027000  0.60483000  0.20069000  1.0
  H  H4  1  0.49568000  0.12478000  0.71977000  1.0
  H  H5  1  0.00432000  0.62478000  0.78023000  1.0
  H  H6  1  0.50432000  0.87522000  0.28023000  1.0
  H  H7  1  0.99569000  0.37522000  0.21977000  1.0
  H  H8  1  0.49572000  0.07495000  0.57132000  1.0
  H  H9  1  0.00428000  0.57495000  0.92868000  1.0
  H  H10  1  0.50428000  0.92505000  0.42867000  1.0
  H  H11  1  0.99573000  0.42505000  0.07132000  1.0
  H  H12  1  0.73425000  0.07493000  0.57278000  1.0
  H  H13  1  0.76575000  0.57493000  0.92722000  1.0
  H  H14  1  0.26575000  0.92507000  0.42722000  1.0
  H  H15  1  0.23425000  0.42507000  0.07278000  1.0
  H  H16  1  0.74632000  0.11753000  0.72360000  1.0
  H  H17  1  0.75368000  0.61753000  0.77640000  1.0
  H  H18  1  0.25368000  0.88246000  0.27640000  1.0
  H  H19  1  0.24632000  0.38247000  0.22360000  1.0
  H  H20  1  0.90978000  0.89528000  0.90913000  1.0
  H  H21  1  0.59022000  0.39528000  0.59087000  1.0
  H  H22  1  0.09022000  0.10472000  0.09087000  1.0
  H  H23  1  0.40978000  0.60471000  0.40913000  1.0
  H  H24  1  0.97243000  0.79347000  0.12689000  1.0
  H  H25  1  0.52757000  0.29347000  0.37311000  1.0
  H  H26  1  0.02757000  0.20653000  0.87311000  1.0
  H  H27  1  0.47244000  0.70653000  0.62689000  1.0
  H  H28  1  0.21274000  0.72018000  0.10680000  1.0
  H  H29  1  0.28726000  0.22018000  0.39320000  1.0
  H  H30  1  0.78726000  0.27982000  0.89320000  1.0
  H  H31  1  0.71274000  0.77982000  0.60680000  1.0
  H  H32  1  0.30136000  0.76842000  0.90183000  1.0
  H  H33  1  0.19864000  0.26842000  0.59817000  1.0
  H  H34  1  0.69864000  0.23158000  0.09817000  1.0
  H  H35  1  0.80136000  0.73158000  0.40183000  1.0
  H  H36  1  0.24227000  0.62485000  0.66555000  1.0
  H  H37  1  0.25773000  0.12485000  0.83446000  1.0
  H  H38  1  0.75773000  0.37515000  0.33445000  1.0
  H  H39  1  0.74227000  0.87515000  0.16554000  1.0
  H  H40  1  0.18382000  0.49624000  0.46054000  1.0
  H  H41  1  0.31617000  0.99624000  0.03947000  1.0
  H  H42  1  0.81618000  0.50376000  0.53946000  1.0
  H  H43  1  0.68382000  0.00376000  0.96054000  1.0
  H  H44  1  0.03650000  0.64111000  0.33782000  1.0
  H  H45  1  0.46350000  0.14112000  0.16219000  1.0
  H  H46  1  0.96351000  0.35889000  0.66218000  1.0
  H  H47  1  0.53649000  0.85889000  0.83782000  1.0
  H  H48  1  0.00803000  0.84223000  0.44063000  1.0
  H  H49  1  0.49198000  0.34223000  0.05937000  1.0
  H  H50  1  0.99198000  0.15777000  0.55937000  1.0
  H  H51  1  0.50803000  0.65777000  0.94063000  1.0
  C  C52  1  0.38066000  0.96455000  0.68904000  1.0
  C  C53  1  0.11935000  0.46455000  0.81096000  1.0
  C  C54  1  0.61934000  0.03544000  0.31096000  1.0
  C  C55  1  0.88066000  0.53545000  0.18904000  1.0
  C  C56  1  0.50006000  0.04336000  0.66347000  1.0
  C  C57  1  0.99993000  0.54336000  0.83653000  1.0
  C  C58  1  0.49993000  0.95664000  0.33653000  1.0
  C  C59  1  0.00007000  0.45664000  0.16347000  1.0
  C  C60  1  0.73425000  0.03951000  0.66385000  1.0
  C  C61  1  0.76575000  0.53951000  0.83615000  1.0
  C  C62  1  0.26575000  0.96048000  0.33615000  1.0
  C  C63  1  0.23425000  0.46049000  0.16385000  1.0
  C  C64  1  0.85161000  0.95422000  0.67778000  1.0
  C  C65  1  0.64840000  0.45422000  0.82221000  1.0
  C  C66  1  0.14839000  0.04578000  0.32221000  1.0
  C  C67  1  0.35161000  0.54578000  0.17779000  1.0
  C  C68  1  0.00079000  0.85540000  0.94035000  1.0
  C  C69  1  0.49921000  0.35540000  0.55964000  1.0
  C  C70  1  0.99922000  0.14460000  0.05965000  1.0
  C  C71  1  0.50079000  0.64460000  0.44036000  1.0
  C  C72  1  0.03017000  0.80593000  0.04821000  1.0
  C  C73  1  0.46983000  0.30593000  0.45179000  1.0
  C  C74  1  0.96984000  0.19407000  0.95180000  1.0
  C  C75  1  0.53017000  0.69407000  0.54821000  1.0
  C  C76  1  0.20414000  0.79076000  0.93330000  1.0
  C  C77  1  0.29586000  0.29076000  0.56670000  1.0
  C  C78  1  0.79586000  0.20924000  0.06670000  1.0
  C  C79  1  0.70414000  0.70924000  0.43330000  1.0
  C  C80  1  0.18477000  0.65063000  0.58879000  1.0
  C  C81  1  0.31522000  0.15062000  0.91122000  1.0
  C  C82  1  0.81522000  0.34938000  0.41121000  1.0
  C  C83  1  0.68478000  0.84937000  0.08878000  1.0
  C  C84  1  0.15673000  0.58653000  0.48792000  1.0
  C  C85  1  0.34327000  0.08653000  0.01208000  1.0
  C  C86  1  0.84327000  0.41347000  0.51208000  1.0
  C  C87  1  0.65673000  0.91347000  0.98792000  1.0
  C  C88  1  0.06097000  0.76547000  0.47715000  1.0
  C  C89  1  0.43903000  0.26548000  0.02284000  1.0
  C  C90  1  0.93904000  0.23453000  0.52284000  1.0
  C  C91  1  0.56096000  0.73452000  0.97716000  1.0
  N  N92  1  0.11047000  0.84577000  0.86916000  1.0
  N  N93  1  0.38953000  0.34577000  0.63084000  1.0
  N  N94  1  0.88953000  0.15423000  0.13083000  1.0
  N  N95  1  0.61047000  0.65423000  0.36916000  1.0
  N  N96  1  0.15874000  0.76630000  0.04174000  1.0
  N  N97  1  0.34126000  0.26629000  0.45826000  1.0
  N  N98  1  0.84127000  0.23371000  0.95826000  1.0
  N  N99  1  0.65874000  0.73370000  0.54174000  1.0
  N  N100  1  0.12412000  0.76239000  0.58096000  1.0
  N  N101  1  0.37588000  0.26238000  0.91903000  1.0
  N  N102  1  0.87588000  0.23761000  0.41904000  1.0
  N  N103  1  0.62412000  0.73761000  0.08096000  1.0
  N  N104  1  0.07971000  0.66104000  0.41891000  1.0
  N  N105  1  0.42028000  0.16104000  0.08110000  1.0
  N  N106  1  0.92029000  0.33896000  0.58109000  1.0
  N  N107  1  0.57971000  0.83896000  0.91891000  1.0
  O  O108  1  0.26836000  0.00819000  0.65629000  1.0
  O  O109  1  0.23164000  0.50819000  0.84371000  1.0
  O  O110  1  0.73164000  0.99181000  0.34371000  1.0
  O  O111  1  0.76836000  0.49181000  0.15629000  1.0
  O  O112  1  0.39545000  0.86516000  0.74086000  1.0
  O  O113  1  0.10455000  0.36516000  0.75914000  1.0
  O  O114  1  0.60454000  0.13484000  0.25914000  1.0
  O  O115  1  0.89546000  0.63484000  0.24086000  1.0
  O  O116  1  0.61606000  0.97498000  0.68672000  1.0
  O  O117  1  0.88394000  0.47498000  0.81328000  1.0
  O  O118  1  0.38394000  0.02501000  0.31328000  1.0
  O  O119  1  0.11606000  0.52502000  0.18673000  1.0
  O  O120  1  0.83499000  0.84228000  0.68664000  1.0
  O  O121  1  0.66502000  0.34228000  0.81335000  1.0
  O  O122  1  0.16501000  0.15772000  0.31336000  1.0
  O  O123  1  0.33498000  0.65772000  0.18665000  1.0
  O  O124  1  0.96532000  0.00676000  0.67870000  1.0
  O  O125  1  0.53468000  0.50675000  0.82130000  1.0
  O  O126  1  0.03468000  0.99325000  0.32130000  1.0
  O  O127  1  0.46532000  0.49325000  0.17870000  1.0
