# generated using pymatgen
data_Cu2H15C22N3O4
_symmetry_space_group_name_H-M   'P 1'
_cell_length_a   7.21796000
_cell_length_b   11.57450000
_cell_length_c   25.54170000
_cell_angle_alpha   90.00070000
_cell_angle_beta   90.00070000
_cell_angle_gamma   76.76200000
_symmetry_Int_Tables_number   1
_chemical_formula_structural   Cu2H15C22N3O4
_chemical_formula_sum   'Cu8 H60 C88 N12 O16'
_cell_volume   2077.16026087
_cell_formula_units_Z   4
loop_
 _symmetry_equiv_pos_site_id
 _symmetry_equiv_pos_as_xyz
  1  'x, y, z'
loop_
 _atom_site_type_symbol
 _atom_site_label
 _atom_site_symmetry_multiplicity
 _atom_site_fract_x
 _atom_site_fract_y
 _atom_site_fract_z
 _atom_site_occupancy
  Cu  Cu0  1  0.86293000  0.30820000  0.09210000  1.0
  Cu  Cu1  1  0.13706000  0.19180000  0.59210000  1.0
  Cu  Cu2  1  0.13707000  0.69179000  0.90790000  1.0
  Cu  Cu3  1  0.86292000  0.80822000  0.40791000  1.0
  Cu  Cu4  1  0.12566000  0.82660000  0.16693000  1.0
  Cu  Cu5  1  0.87434000  0.67340000  0.66693000  1.0
  Cu  Cu6  1  0.87434000  0.17340000  0.83307000  1.0
  Cu  Cu7  1  0.12566000  0.32659000  0.33307000  1.0
  H  H8  1  0.25695000  0.37369000  0.18825000  1.0
  H  H9  1  0.74305000  0.12631000  0.68826000  1.0
  H  H10  1  0.74305000  0.62631000  0.81175000  1.0
  H  H11  1  0.25695000  0.87369000  0.31175000  1.0
  H  H12  1  0.58141000  0.04299000  0.12793000  1.0
  H  H13  1  0.41857000  0.45701000  0.62794000  1.0
  H  H14  1  0.41857000  0.95701000  0.87207000  1.0
  H  H15  1  0.58141000  0.54299000  0.37208000  1.0
  H  H16  1  0.83972000  0.24175000  0.23702000  1.0
  H  H17  1  0.16027000  0.25824000  0.73702000  1.0
  H  H18  1  0.16029000  0.75825000  0.76298000  1.0
  H  H19  1  0.83973000  0.74174000  0.26299000  1.0
  H  H20  1  0.40959000  0.43773000  0.27778000  1.0
  H  H21  1  0.59042000  0.06226000  0.77778000  1.0
  H  H22  1  0.59042000  0.56227000  0.72222000  1.0
  H  H23  1  0.40960000  0.93772000  0.22222000  1.0
  H  H24  1  0.65980000  0.42284000  0.27386000  1.0
  H  H25  1  0.34019000  0.07715000  0.77386000  1.0
  H  H26  1  0.34021000  0.57716000  0.72614000  1.0
  H  H27  1  0.65980000  0.92283000  0.22614000  1.0
  H  H28  1  0.19998000  0.60745000  0.23843000  1.0
  H  H29  1  0.80003000  0.89254000  0.73843000  1.0
  H  H30  1  0.80004000  0.39255000  0.76157000  1.0
  H  H31  1  0.19998000  0.10745000  0.26156000  1.0
  H  H32  1  0.89141000  0.44391000  0.19146000  1.0
  H  H33  1  0.10858000  0.05609000  0.69147000  1.0
  H  H34  1  0.10860000  0.55611000  0.80853000  1.0
  H  H35  1  0.89141000  0.94389000  0.30854000  1.0
  H  H36  1  0.04537000  0.55462000  0.12822000  1.0
  H  H37  1  0.95463000  0.94538000  0.62822000  1.0
  H  H38  1  0.95463000  0.44540000  0.87177000  1.0
  H  H39  1  0.04537000  0.05460000  0.37178000  1.0
  H  H40  1  0.86984000  0.74625000  0.09036000  1.0
  H  H41  1  0.13016000  0.75375000  0.59035000  1.0
  H  H42  1  0.13013000  0.25376000  0.90963000  1.0
  H  H43  1  0.86986000  0.24624000  0.40964000  1.0
  H  H44  1  0.52636000  0.82816000  0.11099000  1.0
  H  H45  1  0.47363000  0.67185000  0.61098000  1.0
  H  H46  1  0.47362000  0.17185000  0.88901000  1.0
  H  H47  1  0.52639000  0.32816000  0.38901000  1.0
  H  H48  1  0.58688000  0.52436000  0.08672000  1.0
  H  H49  1  0.41314000  0.97564000  0.58672000  1.0
  H  H50  1  0.41312000  0.47563000  0.91328000  1.0
  H  H51  1  0.58686000  0.02439000  0.41329000  1.0
  H  H52  1  0.25650000  0.58849000  0.05601000  1.0
  H  H53  1  0.74351000  0.91152000  0.55601000  1.0
  H  H54  1  0.74351000  0.41149000  0.94399000  1.0
  H  H55  1  0.25647000  0.08852000  0.44399000  1.0
  H  H56  1  0.30073000  0.23040000  0.99944000  1.0
  H  H57  1  0.69926000  0.26960000  0.49944000  1.0
  H  H58  1  0.69932000  0.76959000  0.00055000  1.0
  H  H59  1  0.30069000  0.73042000  0.50056000  1.0
  H  H60  1  0.63074000  0.17985000  0.03324000  1.0
  H  H61  1  0.36925000  0.32014000  0.53324000  1.0
  H  H62  1  0.36930000  0.82013000  0.96676000  1.0
  H  H63  1  0.63071000  0.67988000  0.46676000  1.0
  H  H64  1  0.00447000  0.36897000  0.98741000  1.0
  H  H65  1  0.99553000  0.13104000  0.48742000  1.0
  H  H66  1  0.99558000  0.63100000  0.01258000  1.0
  H  H67  1  0.00443000  0.86900000  0.51258000  1.0
  C  C68  1  0.54714000  0.32089000  0.21617000  1.0
  C  C69  1  0.45286000  0.17911000  0.71618000  1.0
  C  C70  1  0.45287000  0.67911000  0.78383000  1.0
  C  C71  1  0.54714000  0.82088000  0.28383000  1.0
  C  C72  1  0.39072000  0.30705000  0.18657000  1.0
  C  C73  1  0.60927000  0.19295000  0.68657000  1.0
  C  C74  1  0.60928000  0.69295000  0.81344000  1.0
  C  C75  1  0.39072000  0.80705000  0.31344000  1.0
  C  C76  1  0.40199000  0.20768000  0.15451000  1.0
  C  C77  1  0.59801000  0.29231000  0.65451000  1.0
  C  C78  1  0.59801000  0.79232000  0.84549000  1.0
  C  C79  1  0.40199000  0.70768000  0.34550000  1.0
  C  C80  1  0.57249000  0.12101000  0.15243000  1.0
  C  C81  1  0.42751000  0.37898000  0.65244000  1.0
  C  C82  1  0.42750000  0.87898000  0.84757000  1.0
  C  C83  1  0.57249000  0.62102000  0.34758000  1.0
  C  C84  1  0.72986000  0.13356000  0.18202000  1.0
  C  C85  1  0.27014000  0.36643000  0.68203000  1.0
  C  C86  1  0.27014000  0.86644000  0.81798000  1.0
  C  C87  1  0.72986000  0.63356000  0.31799000  1.0
  C  C88  1  0.71642000  0.23420000  0.21367000  1.0
  C  C89  1  0.28358000  0.26579000  0.71368000  1.0
  C  C90  1  0.28359000  0.76580000  0.78632000  1.0
  C  C91  1  0.71642000  0.73420000  0.28633000  1.0
  C  C92  1  0.53018000  0.42878000  0.25059000  1.0
  C  C93  1  0.46982000  0.07122000  0.75060000  1.0
  C  C94  1  0.46983000  0.57122000  0.74940000  1.0
  C  C95  1  0.53018000  0.92877000  0.24941000  1.0
  C  C96  1  0.32359000  0.61649000  0.21557000  1.0
  C  C97  1  0.67641000  0.88350000  0.71557000  1.0
  C  C98  1  0.67641000  0.38350000  0.78443000  1.0
  C  C99  1  0.32360000  0.11650000  0.28443000  1.0
  C  C100  1  0.51697000  0.68103000  0.16285000  1.0
  C  C101  1  0.48303000  0.81897000  0.66285000  1.0
  C  C102  1  0.48303000  0.31897000  0.83714000  1.0
  C  C103  1  0.51698000  0.18103000  0.33714000  1.0
  C  C104  1  0.62108000  0.57477000  0.18622000  1.0
  C  C105  1  0.37892000  0.92523000  0.68622000  1.0
  C  C106  1  0.37893000  0.42523000  0.81377000  1.0
  C  C107  1  0.62107000  0.07477000  0.31378000  1.0
  C  C108  1  0.81168000  0.52633000  0.17422000  1.0
  C  C109  1  0.18832000  0.97367000  0.67422000  1.0
  C  C110  1  0.18833000  0.47368000  0.82577000  1.0
  C  C111  1  0.81167000  0.02631000  0.32578000  1.0
  C  C112  1  0.89697000  0.58987000  0.13880000  1.0
  C  C113  1  0.10303000  0.91014000  0.63879000  1.0
  C  C114  1  0.10302000  0.41015000  0.86119000  1.0
  C  C115  1  0.89697000  0.08985000  0.36120000  1.0
  C  C116  1  0.79621000  0.69758000  0.11665000  1.0
  C  C117  1  0.20379000  0.80242000  0.61665000  1.0
  C  C118  1  0.20377000  0.30243000  0.88334000  1.0
  C  C119  1  0.79623000  0.19757000  0.38335000  1.0
  C  C120  1  0.60479000  0.74471000  0.12796000  1.0
  C  C121  1  0.39521000  0.75529000  0.62795000  1.0
  C  C122  1  0.39519000  0.25530000  0.87204000  1.0
  C  C123  1  0.60481000  0.24470000  0.37204000  1.0
  C  C124  1  0.23386000  0.19483000  0.12183000  1.0
  C  C125  1  0.76613000  0.30517000  0.62184000  1.0
  C  C126  1  0.76613000  0.80518000  0.87817000  1.0
  C  C127  1  0.23386000  0.69482000  0.37817000  1.0
  C  C128  1  0.90921000  0.03797000  0.18357000  1.0
  C  C129  1  0.09078000  0.46202000  0.68357000  1.0
  C  C130  1  0.09080000  0.96203000  0.81643000  1.0
  C  C131  1  0.90921000  0.53797000  0.31644000  1.0
  C  C132  1  0.51778000  0.46193000  0.06729000  1.0
  C  C133  1  0.48222000  0.03807000  0.56730000  1.0
  C  C134  1  0.48223000  0.53805000  0.93271000  1.0
  C  C135  1  0.51776000  0.96197000  0.43271000  1.0
  C  C136  1  0.33255000  0.49687000  0.04956000  1.0
  C  C137  1  0.66745000  0.00313000  0.54956000  1.0
  C  C138  1  0.66746000  0.50310000  0.95043000  1.0
  C  C139  1  0.33253000  0.99691000  0.45044000  1.0
  C  C140  1  0.24734000  0.41512000  0.02343000  1.0
  C  C141  1  0.75266000  0.08489000  0.52344000  1.0
  C  C142  1  0.75269000  0.58486000  0.97656000  1.0
  C  C143  1  0.24731000  0.91515000  0.47657000  1.0
  C  C144  1  0.35933000  0.29909000  0.01776000  1.0
  C  C145  1  0.64067000  0.20092000  0.51776000  1.0
  C  C146  1  0.64071000  0.70089000  0.98224000  1.0
  C  C147  1  0.35930000  0.79911000  0.48224000  1.0
  C  C148  1  0.54378000  0.26974000  0.03674000  1.0
  C  C149  1  0.45621000  0.23026000  0.53675000  1.0
  C  C150  1  0.45626000  0.73025000  0.96325000  1.0
  C  C151  1  0.54375000  0.76977000  0.46325000  1.0
  C  C152  1  0.05603000  0.44447000  0.00211000  1.0
  C  C153  1  0.94397000  0.05553000  0.50211000  1.0
  C  C154  1  0.94401000  0.55550000  0.99788000  1.0
  C  C155  1  0.05599000  0.94450000  0.49788000  1.0
  N  N156  1  0.62468000  0.34967000  0.06135000  1.0
  N  N157  1  0.37532000  0.15033000  0.56135000  1.0
  N  N158  1  0.37535000  0.65031000  0.93865000  1.0
  N  N159  1  0.62465000  0.84970000  0.43865000  1.0
  N  N160  1  0.33053000  0.70352000  0.18164000  1.0
  N  N161  1  0.66947000  0.79648000  0.68164000  1.0
  N  N162  1  0.66947000  0.29648000  0.81836000  1.0
  N  N163  1  0.33054000  0.20352000  0.31836000  1.0
  N  N164  1  0.49411000  0.53787000  0.21958000  1.0
  N  N165  1  0.50589000  0.96213000  0.71958000  1.0
  N  N166  1  0.50590000  0.46213000  0.78042000  1.0
  N  N167  1  0.49410000  0.03786000  0.28042000  1.0
  O  O168  1  0.08805000  0.28542000  0.12725000  1.0
  O  O169  1  0.91195000  0.21458000  0.62725000  1.0
  O  O170  1  0.91195000  0.71459000  0.87275000  1.0
  O  O171  1  0.08805000  0.78542000  0.37276000  1.0
  O  O172  1  0.24263000  0.10819000  0.09255000  1.0
  O  O173  1  0.75736000  0.39181000  0.59256000  1.0
  O  O174  1  0.75735000  0.89181000  0.90745000  1.0
  O  O175  1  0.24264000  0.60819000  0.40745000  1.0
  O  O176  1  0.90765000  0.94419000  0.15551000  1.0
  O  O177  1  0.09235000  0.55580000  0.65552000  1.0
  O  O178  1  0.09235000  0.05581000  0.84448000  1.0
  O  O179  1  0.90765000  0.44418000  0.34448000  1.0
  O  O180  1  0.04502000  0.04856000  0.21227000  1.0
  O  O181  1  0.95497000  0.45143000  0.71227000  1.0
  O  O182  1  0.95500000  0.95144000  0.78772000  1.0
  O  O183  1  0.04501000  0.54857000  0.28774000  1.0
