# generated using pymatgen
data_CuHC2(N2O)2
_symmetry_space_group_name_H-M   'P 1'
_cell_length_a   4.85756000
_cell_length_b   9.40136000
_cell_length_c   10.42960000
_cell_angle_alpha   90.00010000
_cell_angle_beta   90.00220000
_cell_angle_gamma   89.99970000
_symmetry_Int_Tables_number   1
_chemical_formula_structural   CuHC2(N2O)2
_chemical_formula_sum   'Cu4 H4 C8 N16 O8'
_cell_volume   476.29553361
_cell_formula_units_Z   4
loop_
 _symmetry_equiv_pos_site_id
 _symmetry_equiv_pos_as_xyz
  1  'x, y, z'
loop_
 _atom_site_type_symbol
 _atom_site_label
 _atom_site_symmetry_multiplicity
 _atom_site_fract_x
 _atom_site_fract_y
 _atom_site_fract_z
 _atom_site_occupancy
  Cu  Cu0  1  0.14559000  0.85358000  0.59128000  1.0
  Cu  Cu1  1  0.35441000  0.14640000  0.09129000  1.0
  Cu  Cu2  1  0.85441000  0.35358000  0.90871000  1.0
  Cu  Cu3  1  0.64557000  0.64641000  0.40871000  1.0
  H  H4  1  0.81098000  0.13195000  0.68233000  1.0
  H  H5  1  0.68900000  0.86805000  0.18236000  1.0
  H  H6  1  0.18901000  0.63196000  0.81766000  1.0
  H  H7  1  0.31100000  0.36804000  0.31764000  1.0
  C  C8  1  0.28752000  0.99271000  0.84533000  1.0
  C  C9  1  0.21249000  0.00729000  0.34533000  1.0
  C  C10  1  0.71247000  0.49272000  0.65468000  1.0
  C  C11  1  0.78752000  0.50728000  0.15467000  1.0
  C  C12  1  0.96422000  0.09902000  0.75160000  1.0
  C  C13  1  0.53576000  0.90098000  0.25161000  1.0
  C  C14  1  0.03577000  0.59902000  0.74840000  1.0
  C  C15  1  0.46424000  0.40098000  0.24839000  1.0
  N  N16  1  0.00871000  0.16885000  0.86253000  1.0
  N  N17  1  0.49128000  0.83115000  0.36254000  1.0
  N  N18  1  0.99128000  0.66885000  0.63746000  1.0
  N  N19  1  0.50872000  0.33115000  0.13746000  1.0
  N  N20  1  0.21633000  0.10012000  0.92415000  1.0
  N  N21  1  0.28367000  0.89988000  0.42416000  1.0
  N  N22  1  0.78366000  0.60011000  0.57585000  1.0
  N  N23  1  0.71633000  0.39988000  0.07584000  1.0
  N  N24  1  0.13436000  0.98748000  0.73681000  1.0
  N  N25  1  0.36565000  0.01253000  0.23683000  1.0
  N  N26  1  0.86565000  0.48748000  0.76319000  1.0
  N  N27  1  0.63436000  0.51252000  0.26317000  1.0
  N  N28  1  0.50091000  0.89564000  0.87341000  1.0
  N  N29  1  0.99911000  0.10437000  0.37341000  1.0
  N  N30  1  0.49909000  0.39564000  0.62659000  1.0
  N  N31  1  0.00089000  0.60436000  0.12659000  1.0
  O  O32  1  0.64373000  0.91743000  0.97144000  1.0
  O  O33  1  0.85629000  0.08260000  0.47142000  1.0
  O  O34  1  0.35626000  0.41741000  0.52857000  1.0
  O  O35  1  0.14371000  0.58256000  0.02858000  1.0
  O  O36  1  0.53660000  0.79406000  0.79755000  1.0
  O  O37  1  0.96341000  0.20595000  0.29753000  1.0
  O  O38  1  0.46341000  0.29406000  0.70246000  1.0
  O  O39  1  0.03660000  0.70594000  0.20246000  1.0
