# generated using pymatgen
data_Al2H18(C11O6)3
_symmetry_space_group_name_H-M   'P 1'
_cell_length_a   3.98861000
_cell_length_b   17.22080000
_cell_length_c   17.22016911
_cell_angle_alpha   60.00236446
_cell_angle_beta   89.99789990
_cell_angle_gamma   89.99950000
_symmetry_Int_Tables_number   1
_chemical_formula_structural   Al2H18(C11O6)3
_chemical_formula_sum   'Al2 H18 C33 O18'
_cell_volume   1024.36159379
_cell_formula_units_Z   1
loop_
 _symmetry_equiv_pos_site_id
 _symmetry_equiv_pos_as_xyz
  1  'x, y, z'
loop_
 _atom_site_type_symbol
 _atom_site_label
 _atom_site_symmetry_multiplicity
 _atom_site_fract_x
 _atom_site_fract_y
 _atom_site_fract_z
 _atom_site_occupancy
  Al  Al0  1  0.95922000  1.00000000  0.50001000  1.0
  Al  Al1  1  0.04457000  0.66666000  0.16667000  1.0
  H  H2  1  0.63386000  0.41840000  0.16825000  1.0
  H  H3  1  0.15489000  0.41660000  0.46046000  1.0
  H  H4  1  0.59159000  0.41062000  0.48365000  1.0
  H  H5  1  0.56416000  0.24195000  0.56428000  1.0
  H  H6  1  0.12925000  0.24772000  0.54057000  1.0
  H  H7  1  0.63393000  0.66826000  0.41332000  1.0
  H  H8  1  0.15481000  0.96043000  0.12296000  1.0
  H  H9  1  0.59149000  0.98365000  0.10572000  1.0
  H  H10  1  0.56399000  0.06428000  0.19376000  1.0
  H  H11  1  0.12908000  0.04054000  0.21173000  1.0
  H  H12  1  0.63389000  0.91333000  0.91843000  1.0
  H  H13  1  0.15484000  0.62295000  0.91660000  1.0
  H  H14  1  0.59155000  0.60574000  0.91059000  1.0
  H  H15  1  0.56395000  0.69378000  0.74192000  1.0
  H  H16  1  0.12906000  0.71174000  0.74773000  1.0
  H  H17  1  0.92994000  0.16125000  0.31072000  1.0
  H  H18  1  0.92997000  0.81074000  0.52802000  1.0
  H  H19  1  0.92993000  0.02803000  0.66126000  1.0
  C  C20  1  0.46596000  0.93370000  0.63838000  1.0
  C  C21  1  0.46600000  0.13837000  0.42793000  1.0
  C  C22  1  0.46599000  0.92793000  0.43370000  1.0
  C  C23  1  0.54276000  0.52937000  0.23671000  1.0
  C  C24  1  0.54274000  0.73671000  0.23392000  1.0
  C  C25  1  0.54277000  0.73391000  0.02937000  1.0
  C  C26  1  0.53004000  0.42986000  0.28545000  1.0
  C  C27  1  0.49369000  0.23770000  0.37673000  1.0
  C  C28  1  0.46173000  0.37906000  0.37689000  1.0
  C  C29  1  0.55815000  0.28840000  0.28332000  1.0
  C  C30  1  0.45162000  0.28553000  0.42159000  1.0
  C  C31  1  0.58043000  0.38217000  0.23993000  1.0
  C  C32  1  0.38962000  0.38288000  0.46144000  1.0
  C  C33  1  0.37449000  0.27693000  0.51194000  1.0
  C  C34  1  0.53003000  0.78545000  0.28469000  1.0
  C  C35  1  0.49367000  0.87674000  0.38556000  1.0
  C  C36  1  0.46170000  0.87689000  0.24405000  1.0
  C  C37  1  0.55816000  0.78334000  0.42826000  1.0
  C  C38  1  0.45158000  0.92160000  0.29287000  1.0
  C  C39  1  0.58045000  0.73994000  0.37789000  1.0
  C  C40  1  0.38953000  0.96143000  0.15568000  1.0
  C  C41  1  0.37437000  0.01194000  0.21113000  1.0
  C  C42  1  0.53003000  0.78468000  0.92986000  1.0
  C  C43  1  0.49362000  0.88557000  0.73771000  1.0
  C  C44  1  0.46170000  0.74406000  0.87905000  1.0
  C  C45  1  0.55812000  0.92827000  0.78841000  1.0
  C  C46  1  0.45154000  0.79288000  0.78553000  1.0
  C  C47  1  0.58043000  0.87789000  0.88218000  1.0
  C  C48  1  0.38956000  0.65569000  0.88287000  1.0
  C  C49  1  0.37435000  0.71115000  0.77691000  1.0
  C  C50  1  0.59861000  0.24585000  0.22603000  1.0
  C  C51  1  0.59865000  0.72605000  0.52810000  1.0
  C  C52  1  0.59859000  0.02811000  0.74587000  1.0
  O  O53  1  0.68847000  0.98722000  0.41638000  1.0
  O  O54  1  0.68843000  0.91637000  0.59642000  1.0
  O  O55  1  0.68845000  0.09641000  0.48723000  1.0
  O  O56  1  0.21796000  0.91242000  0.48719000  1.0
  O  O57  1  0.21796000  0.10040000  0.41242000  1.0
  O  O58  1  0.21794000  0.98719000  0.60041000  1.0
  O  O59  1  0.78073000  0.75165000  0.06745000  1.0
  O  O60  1  0.78072000  0.56745000  0.18089000  1.0
  O  O61  1  0.78069000  0.68089000  0.25165000  1.0
  O  O62  1  0.31145000  0.67621000  0.06963000  1.0
  O  O63  1  0.31142000  0.75415000  0.17622000  1.0
  O  O64  1  0.31143000  0.56962000  0.25416000  1.0
  O  O65  1  0.78997000  0.17064000  0.25946000  1.0
  O  O66  1  0.46163000  0.27534000  0.15360000  1.0
  O  O67  1  0.78999000  0.75948000  0.56988000  1.0
  O  O68  1  0.46168000  0.65361000  0.57105000  1.0
  O  O69  1  0.78996000  0.06989000  0.67066000  1.0
  O  O70  1  0.46156000  0.07105000  0.77536000  1.0
