# generated using pymatgen
data_ZnH30C34NO6
_symmetry_space_group_name_H-M   'P 1'
_cell_length_a   10.94950000
_cell_length_b   18.57800000
_cell_length_c   19.59770000
_cell_angle_alpha   90.77080000
_cell_angle_beta   91.71960000
_cell_angle_gamma   90.52900000
_symmetry_Int_Tables_number   1
_chemical_formula_structural   ZnH30C34NO6
_chemical_formula_sum   'Zn2 H60 C68 N2 O12'
_cell_volume   3984.21931447
_cell_formula_units_Z   2
loop_
 _symmetry_equiv_pos_site_id
 _symmetry_equiv_pos_as_xyz
  1  'x, y, z'
loop_
 _atom_site_type_symbol
 _atom_site_label
 _atom_site_symmetry_multiplicity
 _atom_site_fract_x
 _atom_site_fract_y
 _atom_site_fract_z
 _atom_site_occupancy
  Zn  Zn0  1  0.49738000  0.41924000  0.49729000  1.0
  Zn  Zn1  1  0.50500000  0.57949000  0.50326000  1.0
  H  H2  1  0.26866000  0.76969000  0.68154000  1.0
  H  H3  1  0.32983000  0.82816000  0.44489000  1.0
  H  H4  1  0.39491000  0.16435000  0.40418000  1.0
  H  H5  1  0.64982000  0.83366000  0.58063000  1.0
  H  H6  1  0.38117000  0.05975000  0.41300000  1.0
  H  H7  1  0.61620000  0.93841000  0.59705000  1.0
  H  H8  1  0.37419000  0.92968000  0.41928000  1.0
  H  H9  1  0.62961000  0.06805000  0.58827000  1.0
  H  H10  1  0.29512000  0.64219000  0.71781000  1.0
  H  H11  1  0.64851000  0.32467000  0.31461000  1.0
  H  H12  1  0.20509000  0.54254000  0.64734000  1.0
  H  H13  1  0.72961000  0.20228000  0.33988000  1.0
  H  H14  1  0.74153000  0.43214000  0.37001000  1.0
  H  H15  1  0.05334000  0.69530000  0.50612000  1.0
  H  H16  1  0.99936000  0.29840000  0.47845000  1.0
  H  H17  1  0.14733000  0.79591000  0.57529000  1.0
  H  H18  1  0.90665000  0.18984000  0.42200000  1.0
  H  H19  1  0.88526000  0.59640000  0.54402000  1.0
  H  H20  1  0.11628000  0.39542000  0.44704000  1.0
  H  H21  1  0.52362000  0.61027000  0.71733000  1.0
  H  H22  1  0.47291000  0.39504000  0.28633000  1.0
  H  H23  1  0.51781000  0.61164000  0.84474000  1.0
  H  H24  1  0.47133000  0.38176000  0.71334000  1.0
  H  H25  1  0.46386000  0.38972000  0.15853000  1.0
  H  H26  1  0.46443000  0.38147000  0.84086000  1.0
  H  H27  1  0.49939000  0.62086000  0.15464000  1.0
  H  H28  1  0.80250000  0.32052000  0.55478000  1.0
  H  H29  1  0.78414000  0.25805000  0.62299000  1.0
  H  H30  1  0.74971000  0.42080000  0.63581000  1.0
  H  H31  1  0.75147000  0.35942000  0.70404000  1.0
  H  H32  1  0.97601000  0.33189000  0.67961000  1.0
  H  H33  1  0.95349000  0.42392000  0.70037000  1.0
  H  H34  1  0.97018000  0.39719000  0.61406000  1.0
  H  H35  1  0.50136000  0.62470000  0.28205000  1.0
  H  H36  1  0.30562000  0.73319000  0.35026000  1.0
  H  H37  1  0.18454000  0.74780000  0.40836000  1.0
  H  H38  1  0.25113000  0.59909000  0.35322000  1.0
  H  H39  1  0.11894000  0.62121000  0.39795000  1.0
  H  H40  1  0.04867000  0.70004000  0.29744000  1.0
  H  H41  1  0.06497000  0.60837000  0.27357000  1.0
  H  H42  1  0.17973000  0.67178000  0.25301000  1.0
  H  H43  1  0.22215000  0.33622000  0.36867000  1.0
  H  H44  1  0.23325000  0.24661000  0.39924000  1.0
  H  H45  1  0.34143000  0.29925000  0.26572000  1.0
  H  H46  1  0.59105000  0.40082000  0.94061000  1.0
  H  H47  1  0.33381000  0.20860000  0.29167000  1.0
  H  H48  1  0.09942000  0.21636000  0.28718000  1.0
  H  H49  1  0.16316000  0.23366000  0.20664000  1.0
  H  H50  1  0.11264000  0.30596000  0.25843000  1.0
  H  H51  1  0.70635000  0.66510000  0.68128000  1.0
  H  H52  1  0.64773000  0.75386000  0.67229000  1.0
  H  H53  1  0.89186000  0.70181000  0.61653000  1.0
  H  H54  1  0.84058000  0.79147000  0.61542000  1.0
  H  H55  1  0.84681000  0.79392000  0.74571000  1.0
  H  H56  1  0.99192000  0.77265000  0.71255000  1.0
  H  H57  1  0.37613000  0.59876000  0.05830000  1.0
  H  H58  1  0.89866000  0.70350000  0.74500000  1.0
  H  H59  1  0.58849000  0.40493000  0.06646000  1.0
  H  H60  1  0.37956000  0.59487000  0.93248000  1.0
  H  H61  1  0.63040000  0.17274000  0.58638000  1.0
  C  C62  1  0.49380000  0.51155000  0.36811000  1.0
  C  C63  1  0.47449000  0.44139000  0.18533000  1.0
  C  C64  1  0.49000000  0.49664000  0.85187000  1.0
  C  C65  1  0.48202000  0.50494000  0.14733000  1.0
  C  C66  1  0.47863000  0.43185000  0.81407000  1.0
  C  C67  1  0.49088000  0.57108000  0.18312000  1.0
  C  C68  1  0.48167000  0.43157000  0.74309000  1.0
  C  C69  1  0.49316000  0.57360000  0.25418000  1.0
  C  C70  1  0.49765000  0.49605000  0.70807000  1.0
  C  C71  1  0.48801000  0.50992000  0.29148000  1.0
  C  C72  1  0.54205000  0.44377000  0.96627000  1.0
  C  C73  1  0.50113000  0.49637000  0.63158000  1.0
  C  C74  1  0.42514000  0.55576000  0.03275000  1.0
  C  C75  1  0.54041000  0.44605000  0.03723000  1.0
  C  C76  1  0.42707000  0.55359000  0.96182000  1.0
  C  C77  1  0.26616000  0.49037000  0.50135000  1.0
  C  C78  1  0.73541000  0.49865000  0.49425000  1.0
  C  C79  1  0.48217000  0.50218000  0.07206000  1.0
  C  C80  1  0.48596000  0.49771000  0.92705000  1.0
  C  C81  1  0.57548000  0.27183000  0.54186000  1.0
  C  C82  1  0.40710000  0.72743000  0.47601000  1.0
  C  C83  1  0.57904000  0.19686000  0.54444000  1.0
  C  C84  1  0.87228000  0.49564000  0.49060000  1.0
  C  C85  1  0.40245000  0.80254000  0.47434000  1.0
  C  C86  1  0.51128000  0.15553000  0.49605000  1.0
  C  C87  1  0.49042000  0.84287000  0.51226000  1.0
  C  C88  1  0.44587000  0.19260000  0.44489000  1.0
  C  C89  1  0.57689000  0.80561000  0.55212000  1.0
  C  C90  1  0.44875000  0.26776000  0.44513000  1.0
  C  C91  1  0.57496000  0.73029000  0.55078000  1.0
  C  C92  1  0.43457000  0.03405000  0.45346000  1.0
  C  C93  1  0.56547000  0.96422000  0.55559000  1.0
  C  C94  1  0.42921000  0.95949000  0.45753000  1.0
  C  C95  1  0.12903000  0.49433000  0.50246000  1.0
  C  C96  1  0.57222000  0.03867000  0.55087000  1.0
  C  C97  1  0.49432000  0.92240000  0.50881000  1.0
  C  C98  1  0.50664000  0.07592000  0.49980000  1.0
  C  C99  1  0.24263000  0.65439000  0.67129000  1.0
  C  C100  1  0.72627000  0.31839000  0.35001000  1.0
  C  C101  1  0.19164000  0.59818000  0.63188000  1.0
  C  C102  1  0.77884000  0.37937000  0.38148000  1.0
  C  C103  1  0.12371000  0.61222000  0.57169000  1.0
  C  C104  1  0.87752000  0.37320000  0.42837000  1.0
  C  C105  1  0.10680000  0.68401000  0.55261000  1.0
  C  C106  1  0.93585000  0.43657000  0.46317000  1.0
  C  C107  1  0.92331000  0.30406000  0.44165000  1.0
  C  C108  1  0.15954000  0.74040000  0.59149000  1.0
  C  C109  1  0.87079000  0.24299000  0.41009000  1.0
  C  C110  1  0.22771000  0.72574000  0.65097000  1.0
  C  C111  1  0.77153000  0.24993000  0.36424000  1.0
  C  C112  1  0.93767000  0.55238000  0.52254000  1.0
  C  C113  1  0.06340000  0.43859000  0.46934000  1.0
  C  C114  1  0.75834000  0.31157000  0.60363000  1.0
  C  C115  1  0.79198000  0.37118000  0.65460000  1.0
  C  C116  1  0.93044000  0.38136000  0.66256000  1.0
  C  C117  1  0.06512000  0.55265000  0.53095000  1.0
  C  C118  1  0.24903000  0.70753000  0.38898000  1.0
  C  C119  1  0.18253000  0.64122000  0.35997000  1.0
  C  C120  1  0.11526000  0.65640000  0.29242000  1.0
  C  C121  1  0.27681000  0.28691000  0.36692000  1.0
  C  C122  1  0.28570000  0.26041000  0.29349000  1.0
  C  C123  1  0.15839000  0.25353000  0.25952000  1.0
  C  C124  1  0.70827000  0.71353000  0.64961000  1.0
  C  C125  1  0.83861000  0.74142000  0.64496000  1.0
  C  C126  1  0.89702000  0.75379000  0.71600000  1.0
  C  C127  1  0.51036000  0.56069000  0.74534000  1.0
  C  C128  1  0.47823000  0.44387000  0.25631000  1.0
  C  C129  1  0.50597000  0.56110000  0.81616000  1.0
  N  N130  1  0.51126000  0.30692000  0.49319000  1.0
  N  N131  1  0.49324000  0.69179000  0.51248000  1.0
  O  O132  1  0.51301000  0.45160000  0.39696000  1.0
  O  O133  1  0.32770000  0.68299000  0.44369000  1.0
  O  O134  1  0.39360000  0.30843000  0.39732000  1.0
  O  O135  1  0.65616000  0.68927000  0.58458000  1.0
  O  O136  1  0.53414000  0.55524000  0.60471000  1.0
  O  O137  1  0.47940000  0.57216000  0.39753000  1.0
  O  O138  1  0.47119000  0.43832000  0.60025000  1.0
  O  O139  1  0.31091000  0.42927000  0.48623000  1.0
  O  O140  1  0.68663000  0.55948000  0.48420000  1.0
  O  O141  1  0.32572000  0.54810000  0.51372000  1.0
  O  O142  1  0.68155000  0.44053000  0.50995000  1.0
  O  O143  1  0.62699000  0.31443000  0.59109000  1.0
