# generated using pymatgen
data_ZnH9C17NO5
_symmetry_space_group_name_H-M   'P 1'
_cell_length_a   9.35935000
_cell_length_b   11.07370000
_cell_length_c   13.80730000
_cell_angle_alpha   89.07140000
_cell_angle_beta   86.65700000
_cell_angle_gamma   87.30330000
_symmetry_Int_Tables_number   1
_chemical_formula_structural   ZnH9C17NO5
_chemical_formula_sum   'Zn2 H18 C34 N2 O10'
_cell_volume   1426.87771944
_cell_formula_units_Z   2
loop_
 _symmetry_equiv_pos_site_id
 _symmetry_equiv_pos_as_xyz
  1  'x, y, z'
loop_
 _atom_site_type_symbol
 _atom_site_label
 _atom_site_symmetry_multiplicity
 _atom_site_fract_x
 _atom_site_fract_y
 _atom_site_fract_z
 _atom_site_occupancy
  Zn  Zn0  1  0.86319000  0.50988000  0.46930000  1.0
  Zn  Zn1  1  0.13887000  0.50019000  0.53187000  1.0
  H  H2  1  0.19598000  0.43034000  0.86688000  1.0
  H  H3  1  0.77817000  0.66292000  0.12025000  1.0
  H  H4  1  0.63776000  0.49238000  0.76206000  1.0
  H  H5  1  0.35415000  0.54995000  0.23530000  1.0
  H  H6  1  0.04602000  0.62838000  0.81553000  1.0
  H  H7  1  0.93982000  0.43074000  0.17608000  1.0
  H  H8  1  0.01754000  0.40743000  0.00084000  1.0
  H  H9  1  0.96051000  0.67611000  0.98589000  1.0
  H  H10  1  0.43596000  0.47948000  0.80564000  1.0
  H  H11  1  0.54077000  0.60763000  0.18336000  1.0
  H  H12  1  0.23400000  0.10988000  0.48546000  1.0
  H  H13  1  0.77536000  0.90024000  0.51832000  1.0
  H  H14  1  0.23420000  0.88352000  0.48122000  1.0
  H  H15  1  0.77479000  0.12666000  0.52091000  1.0
  H  H16  1  0.63836000  0.67974000  0.53190000  1.0
  H  H17  1  0.36415000  0.33051000  0.46663000  1.0
  H  H18  1  0.41396000  0.77455000  0.61786000  1.0
  H  H19  1  0.58438000  0.23755000  0.37747000  1.0
  C  C20  1  0.00358000  0.26709000  0.50351000  1.0
  C  C21  1  0.00510000  0.74322000  0.49928000  1.0
  C  C22  1  0.40805000  0.48760000  0.88295000  1.0
  C  C23  1  0.57054000  0.59420000  0.10675000  1.0
  C  C24  1  0.27304000  0.45997000  0.91682000  1.0
  C  C25  1  0.70385000  0.62567000  0.07180000  1.0
  C  C26  1  0.13395000  0.06321000  0.49268000  1.0
  C  C27  1  0.87530000  0.94705000  0.51080000  1.0
  C  C28  1  0.13423000  0.93765000  0.49073000  1.0
  C  C29  1  0.87494000  0.07262000  0.51215000  1.0
  C  C30  1  0.00485000  0.87848000  0.49997000  1.0
  C  C31  1  0.00433000  0.13176000  0.50317000  1.0
  C  C32  1  0.43645000  0.59041000  0.55757000  1.0
  C  C33  1  0.56556000  0.42037000  0.44023000  1.0
  C  C34  1  0.57509000  0.60289000  0.51631000  1.0
  C  C35  1  0.42718000  0.40759000  0.48186000  1.0
  C  C36  1  0.09842000  0.50097000  0.31908000  1.0
  C  C37  1  0.89641000  0.52505000  0.67936000  1.0
  C  C38  1  0.14495000  0.49222000  0.21422000  1.0
  C  C39  1  0.84475000  0.55601000  0.78058000  1.0
  C  C40  1  0.09069000  0.44010000  0.05208000  1.0
  C  C41  1  0.88970000  0.63560000  0.93687000  1.0
  C  C42  1  0.04718000  0.45252000  0.14855000  1.0
  C  C43  1  0.93771000  0.60939000  0.84295000  1.0
  C  C44  1  0.28249000  0.52107000  0.18168000  1.0
  C  C45  1  0.70536000  0.53281000  0.81298000  1.0
  C  C46  1  0.32843000  0.51362000  0.08256000  1.0
  C  C47  1  0.65401000  0.55668000  0.90921000  1.0
  C  C48  1  0.22981000  0.47067000  0.01695000  1.0
  C  C49  1  0.74999000  0.60745000  0.97275000  1.0
  C  C50  1  0.47007000  0.54577000  0.04555000  1.0
  C  C51  1  0.51045000  0.52962000  0.94566000  1.0
  C  C52  1  0.37406000  0.68173000  0.62891000  1.0
  C  C53  1  0.62709000  0.32966000  0.36805000  1.0
  N  N54  1  0.63933000  0.51816000  0.45848000  1.0
  N  N55  1  0.36301000  0.49227000  0.53979000  1.0
  O  O56  1  0.88755000  0.32389000  0.48274000  1.0
  O  O57  1  0.12466000  0.68595000  0.51026000  1.0
  O  O58  1  0.11907000  0.31543000  0.52398000  1.0
  O  O59  1  0.88611000  0.69492000  0.48843000  1.0
  O  O60  1  0.96372000  0.51521000  0.33889000  1.0
  O  O61  1  0.03187000  0.51661000  0.66124000  1.0
  O  O62  1  0.19390000  0.49263000  0.38131000  1.0
  O  O63  1  0.80262000  0.51010000  0.61771000  1.0
  O  O64  1  0.29252000  0.65498000  0.69684000  1.0
  O  O65  1  0.71061000  0.35612000  0.30124000  1.0
