# generated using pymatgen
data_CoH11C18(NO2)2
_symmetry_space_group_name_H-M   'P 1'
_cell_length_a   7.23821000
_cell_length_b   13.04320000
_cell_length_c   17.46560000
_cell_angle_alpha   78.31200000
_cell_angle_beta   89.99480000
_cell_angle_gamma   89.99770000
_symmetry_Int_Tables_number   1
_chemical_formula_structural   CoH11C18(NO2)2
_chemical_formula_sum   'Co4 H44 C72 N8 O16'
_cell_volume   1614.72730303
_cell_formula_units_Z   4
loop_
 _symmetry_equiv_pos_site_id
 _symmetry_equiv_pos_as_xyz
  1  'x, y, z'
loop_
 _atom_site_type_symbol
 _atom_site_label
 _atom_site_symmetry_multiplicity
 _atom_site_fract_x
 _atom_site_fract_y
 _atom_site_fract_z
 _atom_site_occupancy
  Co  Co0  1  0.44040000  0.78652000  0.40070000  1.0
  Co  Co1  1  0.44034000  0.21347000  0.09928000  1.0
  Co  Co2  1  0.55961000  0.21348000  0.59929000  1.0
  Co  Co3  1  0.55969000  0.78654000  0.90071000  1.0
  H  H4  1  0.16144000  0.62948000  0.61517000  1.0
  H  H5  1  0.16148000  0.37052000  0.88478000  1.0
  H  H6  1  0.83851000  0.37051000  0.38480000  1.0
  H  H7  1  0.83859000  0.62948000  0.11520000  1.0
  H  H8  1  0.96010000  0.59478000  0.73455000  1.0
  H  H9  1  0.96009000  0.40523000  0.76543000  1.0
  H  H10  1  0.03990000  0.40523000  0.26544000  1.0
  H  H11  1  0.03994000  0.59478000  0.23456000  1.0
  H  H12  1  0.81955000  0.89177000  0.51708000  1.0
  H  H13  1  0.81959000  0.10823000  0.98292000  1.0
  H  H14  1  0.18042000  0.10823000  0.48291000  1.0
  H  H15  1  0.18045000  0.89178000  0.01709000  1.0
  H  H16  1  0.75589000  0.02218000  0.60358000  1.0
  H  H17  1  0.75590000  0.97785000  0.89643000  1.0
  H  H18  1  0.24412000  0.97783000  0.39644000  1.0
  H  H19  1  0.24414000  0.02218000  0.10357000  1.0
  H  H20  1  0.19997000  0.09064000  0.62544000  1.0
  H  H21  1  0.19997000  0.90939000  0.87459000  1.0
  H  H22  1  0.80003000  0.90936000  0.37454000  1.0
  H  H23  1  0.80006000  0.09063000  0.12543000  1.0
  H  H24  1  0.11923000  0.90191000  0.66259000  1.0
  H  H25  1  0.11927000  0.09812000  0.83744000  1.0
  H  H26  1  0.88075000  0.09808000  0.33739000  1.0
  H  H27  1  0.88077000  0.90190000  0.16257000  1.0
  H  H28  1  0.36828000  0.76713000  0.66666667  1.0
  H  H29  1  0.36828000  0.23290000  0.83333000  1.0
  H  H30  1  0.63172000  0.23287000  0.33333333  1.0
  H  H31  1  0.63174000  0.76712000  0.16668000  1.0
  H  H32  1  0.50778000  0.62543000  0.53685000  1.0
  H  H33  1  0.50786000  0.37456000  0.96315000  1.0
  H  H34  1  0.49213000  0.37453000  0.46316000  1.0
  H  H35  1  0.49219000  0.62543000  0.03684000  1.0
  H  H36  1  0.74178000  0.49179000  0.58687000  1.0
  H  H37  1  0.74188000  0.50819000  0.91314000  1.0
  H  H38  1  0.25810000  0.50816000  0.41314000  1.0
  H  H39  1  0.25817000  0.49181000  0.08685000  1.0
  H  H40  1  0.05342000  0.60527000  0.37406000  1.0
  H  H41  1  0.05343000  0.39467000  0.12595000  1.0
  H  H42  1  0.94650000  0.39465000  0.62596000  1.0
  H  H43  1  0.94661000  0.60533000  0.87406000  1.0
  H  H44  1  0.80163000  0.73184000  0.33238000  1.0
  H  H45  1  0.80161000  0.26812000  0.16762000  1.0
  H  H46  1  0.19836000  0.26811000  0.66764000  1.0
  H  H47  1  0.19841000  0.73189000  0.83238000  1.0
  C  C48  1  0.12022000  0.79013000  0.48708000  1.0
  C  C49  1  0.12026000  0.20986000  0.01287000  1.0
  C  C50  1  0.87973000  0.20986000  0.51290000  1.0
  C  C51  1  0.87979000  0.79015000  0.98710000  1.0
  C  C52  1  0.00350000  0.76420000  0.55923000  1.0
  C  C53  1  0.00355000  0.23581000  0.94075000  1.0
  C  C54  1  0.99644000  0.23580000  0.44075000  1.0
  C  C55  1  0.99651000  0.76421000  0.05925000  1.0
  C  C56  1  0.04368000  0.67966000  0.62031000  1.0
  C  C57  1  0.04369000  0.32035000  0.87966000  1.0
  C  C58  1  0.95629000  0.32034000  0.37967000  1.0
  C  C59  1  0.95634000  0.67966000  0.12033000  1.0
  C  C60  1  0.93219000  0.66048000  0.68650000  1.0
  C  C61  1  0.93216000  0.33952000  0.81348000  1.0
  C  C62  1  0.06781000  0.33952000  0.31348000  1.0
  C  C63  1  0.06784000  0.66048000  0.18651000  1.0
  C  C64  1  0.78309000  0.72625000  0.69454000  1.0
  C  C65  1  0.78304000  0.27378000  0.80546000  1.0
  C  C66  1  0.21692000  0.27376000  0.30545000  1.0
  C  C67  1  0.21695000  0.72623000  0.19454000  1.0
  C  C68  1  0.73968000  0.81069000  0.63271000  1.0
  C  C69  1  0.73966000  0.18932000  0.86729000  1.0
  C  C70  1  0.26032000  0.18932000  0.36727000  1.0
  C  C71  1  0.26035000  0.81069000  0.13272000  1.0
  C  C72  1  0.85064000  0.82739000  0.56566000  1.0
  C  C73  1  0.85065000  0.17263000  0.93433000  1.0
  C  C74  1  0.14933000  0.17261000  0.43433000  1.0
  C  C75  1  0.14938000  0.82739000  0.06567000  1.0
  C  C76  1  0.68951000  0.70826000  0.77307000  1.0
  C  C77  1  0.68943000  0.29181000  0.72697000  1.0
  C  C78  1  0.31052000  0.29177000  0.22694000  1.0
  C  C79  1  0.31054000  0.70822000  0.27306000  1.0
  C  C80  1  0.58336000  0.88333000  0.63500000  1.0
  C  C81  1  0.58337000  0.11667000  0.86502000  1.0
  C  C82  1  0.41664000  0.11666000  0.36499000  1.0
  C  C83  1  0.41666000  0.88333000  0.13499000  1.0
  C  C84  1  0.61671000  0.99093000  0.61597000  1.0
  C  C85  1  0.61673000  0.00910000  0.88404000  1.0
  C  C86  1  0.38329000  0.00908000  0.38404000  1.0
  C  C87  1  0.38331000  0.99092000  0.11596000  1.0
  C  C88  1  0.30700000  0.03083000  0.63036000  1.0
  C  C89  1  0.30700000  0.96921000  0.86966000  1.0
  C  C90  1  0.69299000  0.96918000  0.36963000  1.0
  C  C91  1  0.69301000  0.03082000  0.13035000  1.0
  C  C92  1  0.26262000  0.92489000  0.65039000  1.0
  C  C93  1  0.26264000  0.07514000  0.84963000  1.0
  C  C94  1  0.73738000  0.07511000  0.34960000  1.0
  C  C95  1  0.73739000  0.92488000  0.15038000  1.0
  C  C96  1  0.40123000  0.85037000  0.65264000  1.0
  C  C97  1  0.40125000  0.14965000  0.84738000  1.0
  C  C98  1  0.59877000  0.14963000  0.34735000  1.0
  C  C99  1  0.59878000  0.85036000  0.15263000  1.0
  C  C100  1  0.63141000  0.61775000  0.50294000  1.0
  C  C101  1  0.63147000  0.38223000  0.99706000  1.0
  C  C102  1  0.36852000  0.38220000  0.49707000  1.0
  C  C103  1  0.36857000  0.61777000  0.00294000  1.0
  C  C104  1  0.76501000  0.54335000  0.53035000  1.0
  C  C105  1  0.76509000  0.45662000  0.96966000  1.0
  C  C106  1  0.23489000  0.45659000  0.46966000  1.0
  C  C107  1  0.23495000  0.54338000  0.03034000  1.0
  C  C108  1  0.92455000  0.53696000  0.48559000  1.0
  C  C109  1  0.92460000  0.46300000  0.01442000  1.0
  C  C110  1  0.07537000  0.46298000  0.51443000  1.0
  C  C111  1  0.07544000  0.53699000  0.98558000  1.0
  C  C112  1  0.93461000  0.60542000  0.41228000  1.0
  C  C113  1  0.93465000  0.39454000  0.08773000  1.0
  C  C114  1  0.06531000  0.39451000  0.58774000  1.0
  C  C115  1  0.06539000  0.60546000  0.91228000  1.0
  C  C116  1  0.79447000  0.67736000  0.38862000  1.0
  C  C117  1  0.79451000  0.32261000  0.11138000  1.0
  C  C118  1  0.20547000  0.32260000  0.61140000  1.0
  C  C119  1  0.20551000  0.67740000  0.88862000  1.0
  N  N120  1  0.64515000  0.68550000  0.43338000  1.0
  N  N121  1  0.64521000  0.31449000  0.06663000  1.0
  N  N122  1  0.35480000  0.31447000  0.56664000  1.0
  N  N123  1  0.35481000  0.68551000  0.93338000  1.0
  N  N124  1  0.48215000  0.06325000  0.61348000  1.0
  N  N125  1  0.48214000  0.93681000  0.88654000  1.0
  N  N126  1  0.51785000  0.93677000  0.38652000  1.0
  N  N127  1  0.51788000  0.06323000  0.11347000  1.0
  O  O128  1  0.27933000  0.74260000  0.49036000  1.0
  O  O129  1  0.27936000  0.25739000  0.00962000  1.0
  O  O130  1  0.72061000  0.25739000  0.50963000  1.0
  O  O131  1  0.72067000  0.74262000  0.99039000  1.0
  O  O132  1  0.06533000  0.85475000  0.42855000  1.0
  O  O133  1  0.06544000  0.14524000  0.07141000  1.0
  O  O134  1  0.93461000  0.14526000  0.57142000  1.0
  O  O135  1  0.93466000  0.85478000  0.92858000  1.0
  O  O136  1  0.67806000  0.61824000  0.81392000  1.0
  O  O137  1  0.67790000  0.38182000  0.68613000  1.0
  O  O138  1  0.32204000  0.38179000  0.18610000  1.0
  O  O139  1  0.32197000  0.61819000  0.31390000  1.0
  O  O140  1  0.63581000  0.79331000  0.79471000  1.0
  O  O141  1  0.63580000  0.20676000  0.70532000  1.0
  O  O142  1  0.36414000  0.20671000  0.20528000  1.0
  O  O143  1  0.36422000  0.79326000  0.29471000  1.0
