# generated using pymatgen
data_CdH14C18N4(ClO2)2
_symmetry_space_group_name_H-M   'P 1'
_cell_length_a   7.89209000
_cell_length_b   10.57310000
_cell_length_c   12.04480000
_cell_angle_alpha   90.00000000
_cell_angle_beta   102.06400000
_cell_angle_gamma   89.99990000
_symmetry_Int_Tables_number   1
_chemical_formula_structural   CdH14C18N4(ClO2)2
_chemical_formula_sum   'Cd2 H28 C36 N8 Cl4 O8'
_cell_volume   982.86746490
_cell_formula_units_Z   2
loop_
 _symmetry_equiv_pos_site_id
 _symmetry_equiv_pos_as_xyz
  1  'x, y, z'
loop_
 _atom_site_type_symbol
 _atom_site_label
 _atom_site_symmetry_multiplicity
 _atom_site_fract_x
 _atom_site_fract_y
 _atom_site_fract_z
 _atom_site_occupancy
  Cd  Cd0  1  0.75000000  0.62083000  0.75000000  1.0
  Cd  Cd1  1  0.25000000  0.37917000  0.25000000  1.0
  H  H2  1  0.21895000  0.37869000  0.89227000  1.0
  H  H3  1  0.28105000  0.37869000  0.60773000  1.0
  H  H4  1  0.78105000  0.62131000  0.10773000  1.0
  H  H5  1  0.71895000  0.62131000  0.39227000  1.0
  H  H6  1  0.39401000  0.19999000  0.98950000  1.0
  H  H7  1  0.10599000  0.19999000  0.51050000  1.0
  H  H8  1  0.60599000  0.80001000  0.01050000  1.0
  H  H9  1  0.89401000  0.80001000  0.48950000  1.0
  H  H10  1  0.71199000  0.18839000  0.98248000  1.0
  H  H11  1  0.78801000  0.18838000  0.51752000  1.0
  H  H12  1  0.28801000  0.81162000  0.01752000  1.0
  H  H13  1  0.21200000  0.81161000  0.48248000  1.0
  H  H14  1  0.83655000  0.35794000  0.88054000  1.0
  H  H15  1  0.66345000  0.35794000  0.61945000  1.0
  H  H16  1  0.16345000  0.64206000  0.11945000  1.0
  H  H17  1  0.33655000  0.64206000  0.38055000  1.0
  H  H18  1  0.43150000  0.12274000  0.57127000  1.0
  H  H19  1  0.06850000  0.12274000  0.92873000  1.0
  H  H20  1  0.56850000  0.87726000  0.42873000  1.0
  H  H21  1  0.93150000  0.87726000  0.07127000  1.0
  H  H22  1  0.62502000  0.05400000  0.65698000  1.0
  H  H23  1  0.87497000  0.05400000  0.84302000  1.0
  H  H24  1  0.37497000  0.94600000  0.34302000  1.0
  H  H25  1  0.12502000  0.94600000  0.15698000  1.0
  H  H26  1  0.48967000  0.15490000  0.72151000  1.0
  H  H27  1  0.01033000  0.15490000  0.77849000  1.0
  H  H28  1  0.51032000  0.84510000  0.27849000  1.0
  H  H29  1  0.98967000  0.84510000  0.22151000  1.0
  C  C30  1  0.34138000  0.79017000  0.76463000  1.0
  C  C31  1  0.15862000  0.79017000  0.73537000  1.0
  C  C32  1  0.65862000  0.20983000  0.23537000  1.0
  C  C33  1  0.84139000  0.20983000  0.26463000  1.0
  C  C34  1  0.33819000  0.57234000  0.77887000  1.0
  C  C35  1  0.16181000  0.57234000  0.72113000  1.0
  C  C36  1  0.66181000  0.42766000  0.22113000  1.0
  C  C37  1  0.83819000  0.42766000  0.27887000  1.0
  C  C38  1  0.43413000  0.45946000  0.83035000  1.0
  C  C39  1  0.06587000  0.45946000  0.66964000  1.0
  C  C40  1  0.56587000  0.54054000  0.16964000  1.0
  C  C41  1  0.93413000  0.54054000  0.33035000  1.0
  C  C42  1  0.35419000  0.36867000  0.88655000  1.0
  C  C43  1  0.14580000  0.36867000  0.61345000  1.0
  C  C44  1  0.64581000  0.63133000  0.11345000  1.0
  C  C45  1  0.85419000  0.63133000  0.38655000  1.0
  C  C46  1  0.45279000  0.26890000  0.94172000  1.0
  C  C47  1  0.04721000  0.26890000  0.55829000  1.0
  C  C48  1  0.54721000  0.73111000  0.05829000  1.0
  C  C49  1  0.95279000  0.73111000  0.44172000  1.0
  C  C50  1  0.62839000  0.26294000  0.93898000  1.0
  C  C51  1  0.87162000  0.26294000  0.56102000  1.0
  C  C52  1  0.37162000  0.73706000  0.06102000  1.0
  C  C53  1  0.12839000  0.73706000  0.43898000  1.0
  C  C54  1  0.69883000  0.35749000  0.88167000  1.0
  C  C55  1  0.80117000  0.35749000  0.61833000  1.0
  C  C56  1  0.30118000  0.64251000  0.11833000  1.0
  C  C57  1  0.19883000  0.64251000  0.38167000  1.0
  C  C58  1  0.45062000  0.90645000  0.76459000  1.0
  C  C59  1  0.04937000  0.90645000  0.73541000  1.0
  C  C60  1  0.54937000  0.09355000  0.23541000  1.0
  C  C61  1  0.95063000  0.09355000  0.26459000  1.0
  C  C62  1  0.49143000  0.08472000  0.65466000  1.0
  C  C63  1  0.00857000  0.08472000  0.84534000  1.0
  C  C64  1  0.50857000  0.91528000  0.34534000  1.0
  C  C65  1  0.99143000  0.91528000  0.15466000  1.0
  N  N66  1  0.42515000  0.68162000  0.79199000  1.0
  N  N67  1  0.07484000  0.68162000  0.70801000  1.0
  N  N68  1  0.57484000  0.31838000  0.20801000  1.0
  N  N69  1  0.92516000  0.31838000  0.29199000  1.0
  N  N70  1  0.60445000  0.45343000  0.82807000  1.0
  N  N71  1  0.89554000  0.45343000  0.67193000  1.0
  N  N72  1  0.39554000  0.54657000  0.17193000  1.0
  N  N73  1  0.10446000  0.54657000  0.32807000  1.0
  Cl  Cl74  1  0.92240000  0.69625000  0.93046000  1.0
  Cl  Cl75  1  0.57760000  0.69625000  0.56954000  1.0
  Cl  Cl76  1  0.07760000  0.30375000  0.06954000  1.0
  Cl  Cl77  1  0.42240000  0.30375000  0.43046000  1.0
  O  O78  1  0.57942000  0.93131000  0.83683000  1.0
  O  O79  1  0.92057000  0.93132000  0.66317000  1.0
  O  O80  1  0.42058000  0.06868000  0.16317000  1.0
  O  O81  1  0.07943000  0.06868000  0.33683000  1.0
  O  O82  1  0.38721000  0.97613000  0.67168000  1.0
  O  O83  1  0.11279000  0.97613000  0.82832000  1.0
  O  O84  1  0.61279000  0.02387000  0.32832000  1.0
  O  O85  1  0.88721000  0.02387000  0.17168000  1.0
