# generated using pymatgen
data_SrH13C5NO7
_symmetry_space_group_name_H-M   'P 1'
_cell_length_a   7.27065000
_cell_length_b   8.25933000
_cell_length_c   15.87380000
_cell_angle_alpha   89.99960000
_cell_angle_beta   90.00050000
_cell_angle_gamma   90.00000000
_symmetry_Int_Tables_number   1
_chemical_formula_structural   SrH13C5NO7
_chemical_formula_sum   'Sr4 H52 C20 N4 O28'
_cell_volume   953.23276453
_cell_formula_units_Z   4
loop_
 _symmetry_equiv_pos_site_id
 _symmetry_equiv_pos_as_xyz
  1  'x, y, z'
loop_
 _atom_site_type_symbol
 _atom_site_label
 _atom_site_symmetry_multiplicity
 _atom_site_fract_x
 _atom_site_fract_y
 _atom_site_fract_z
 _atom_site_occupancy
  Sr  Sr0  1  0.53762000  0.24959000  0.92775000  1.0
  Sr  Sr1  1  0.96237000  0.75041000  0.42775000  1.0
  Sr  Sr2  1  0.46238000  0.74960000  0.57225000  1.0
  Sr  Sr3  1  0.03762000  0.25039000  0.07225000  1.0
  H  H4  1  0.51868000  0.98728000  0.22637000  1.0
  H  H5  1  0.98133000  0.01272000  0.72637000  1.0
  H  H6  1  0.48133000  0.48730000  0.27364000  1.0
  H  H7  1  0.01867000  0.51269000  0.77363000  1.0
  H  H8  1  0.83292000  0.03076000  0.24243000  1.0
  H  H9  1  0.66708000  0.96925000  0.74244000  1.0
  H  H10  1  0.16708000  0.53077000  0.25756000  1.0
  H  H11  1  0.33292000  0.46923000  0.75756000  1.0
  H  H12  1  0.88951000  0.93586000  0.15321000  1.0
  H  H13  1  0.61048000  0.06414000  0.65321000  1.0
  H  H14  1  0.11051000  0.43587000  0.34679000  1.0
  H  H15  1  0.38952000  0.56413000  0.84679000  1.0
  H  H16  1  0.40027000  0.82421000  0.10649000  1.0
  H  H17  1  0.09972000  0.17579000  0.60649000  1.0
  H  H18  1  0.59975000  0.32422000  0.39351000  1.0
  H  H19  1  0.90027000  0.67578000  0.89351000  1.0
  H  H20  1  0.53391000  0.70921000  0.17763000  1.0
  H  H21  1  0.96610000  0.29080000  0.67763000  1.0
  H  H22  1  0.46611000  0.20923000  0.32238000  1.0
  H  H23  1  0.03389000  0.79077000  0.82237000  1.0
  H  H24  1  0.70668000  0.86525000  0.02150000  1.0
  H  H25  1  0.79329000  0.13475000  0.52150000  1.0
  H  H26  1  0.29335000  0.36527000  0.47851000  1.0
  H  H27  1  0.20669000  0.63474000  0.97850000  1.0
  H  H28  1  0.80158000  0.71234000  0.08527000  1.0
  H  H29  1  0.69840000  0.28766000  0.58528000  1.0
  H  H30  1  0.19841000  0.21237000  0.41473000  1.0
  H  H31  1  0.30160000  0.78766000  0.91471000  1.0
  H  H32  1  0.68119000  0.22747000  0.74936000  1.0
  H  H33  1  0.81881000  0.77253000  0.24936000  1.0
  H  H34  1  0.31880000  0.72746000  0.75064000  1.0
  H  H35  1  0.18120000  0.27254000  0.25065000  1.0
  H  H36  1  0.77360000  0.35990000  0.81354000  1.0
  H  H37  1  0.72640000  0.64011000  0.31355000  1.0
  H  H38  1  0.22639000  0.85989000  0.68646000  1.0
  H  H39  1  0.27360000  0.14011000  0.18646000  1.0
  H  H40  1  0.32458000  0.99133000  0.79949000  1.0
  H  H41  1  0.17542000  0.00868000  0.29948000  1.0
  H  H42  1  0.67542000  0.49133000  0.70051000  1.0
  H  H43  1  0.82457000  0.50867000  0.20051000  1.0
  H  H44  1  0.20183000  0.05082000  0.87759000  1.0
  H  H45  1  0.29817000  0.94917000  0.37758000  1.0
  H  H46  1  0.79816000  0.55083000  0.62241000  1.0
  H  H47  1  0.70182000  0.44918000  0.12241000  1.0
  H  H48  1  0.83459000  0.98486000  0.90933000  1.0
  H  H49  1  0.66541000  0.01515000  0.40933000  1.0
  H  H50  1  0.16540000  0.48486000  0.59067000  1.0
  H  H51  1  0.33458000  0.51513000  0.09066000  1.0
  H  H52  1  0.66589000  0.86695000  0.89443000  1.0
  H  H53  1  0.83411000  0.13306000  0.39443000  1.0
  H  H54  1  0.33410000  0.36695000  0.60558000  1.0
  H  H55  1  0.16589000  0.63305000  0.10557000  1.0
  C  C56  1  0.57612000  0.09776000  0.10575000  1.0
  C  C57  1  0.92387000  0.90223000  0.60575000  1.0
  C  C58  1  0.42388000  0.59777000  0.39426000  1.0
  C  C59  1  0.07612000  0.40222000  0.89425000  1.0
  C  C60  1  0.60676000  0.96286000  0.17144000  1.0
  C  C61  1  0.89324000  0.03714000  0.67143000  1.0
  C  C62  1  0.39326000  0.46288000  0.32856000  1.0
  C  C63  1  0.10675000  0.53713000  0.82856000  1.0
  C  C64  1  0.54051000  0.80487000  0.12969000  1.0
  C  C65  1  0.95947000  0.19514000  0.62969000  1.0
  C  C66  1  0.45950000  0.30488000  0.37032000  1.0
  C  C67  1  0.04053000  0.69512000  0.87031000  1.0
  C  C68  1  0.67206000  0.75774000  0.05838000  1.0
  C  C69  1  0.82792000  0.24227000  0.55839000  1.0
  C  C70  1  0.32796000  0.25775000  0.44162000  1.0
  C  C71  1  0.17209000  0.74226000  0.94161000  1.0
  C  C72  1  0.60092000  0.62863000  0.99971000  1.0
  C  C73  1  0.89910000  0.37135000  0.49971000  1.0
  C  C74  1  0.39909000  0.12863000  0.50029000  1.0
  C  C75  1  0.10091000  0.87136000  0.00029000  1.0
  N  N76  1  0.79521000  0.94175000  0.20136000  1.0
  N  N77  1  0.70479000  0.05824000  0.70137000  1.0
  N  N78  1  0.20481000  0.44176000  0.29864000  1.0
  N  N79  1  0.29520000  0.55823000  0.79863000  1.0
  O  O80  1  0.71220000  0.14541000  0.06188000  1.0
  O  O81  1  0.78778000  0.85459000  0.56188000  1.0
  O  O82  1  0.28779000  0.64543000  0.43812000  1.0
  O  O83  1  0.21221000  0.35457000  0.93812000  1.0
  O  O84  1  0.41162000  0.14531000  0.09192000  1.0
  O  O85  1  0.08836000  0.85468000  0.59191000  1.0
  O  O86  1  0.58837000  0.64532000  0.40809000  1.0
  O  O87  1  0.91163000  0.35467000  0.90809000  1.0
  O  O88  1  0.55159000  0.49285000  0.03311000  1.0
  O  O89  1  0.94837000  0.50716000  0.53312000  1.0
  O  O90  1  0.44839000  0.99285000  0.46688000  1.0
  O  O91  1  0.05163000  0.00715000  0.96687000  1.0
  O  O92  1  0.59534000  0.65561000  0.92119000  1.0
  O  O93  1  0.90465000  0.34436000  0.42120000  1.0
  O  O94  1  0.40465000  0.15559000  0.57881000  1.0
  O  O95  1  0.09535000  0.84437000  0.07880000  1.0
  O  O96  1  0.66113000  0.33919000  0.77975000  1.0
  O  O97  1  0.83887000  0.66082000  0.27975000  1.0
  O  O98  1  0.33887000  0.83917000  0.72025000  1.0
  O  O99  1  0.16113000  0.16083000  0.22025000  1.0
  O  O100  1  0.30862000  0.07924000  0.84164000  1.0
  O  O101  1  0.19139000  0.92076000  0.34164000  1.0
  O  O102  1  0.69138000  0.57924000  0.65835000  1.0
  O  O103  1  0.80861000  0.42076000  0.15835000  1.0
  O  O104  1  0.70867000  0.98009000  0.88562000  1.0
  O  O105  1  0.79133000  0.01992000  0.38562000  1.0
  O  O106  1  0.29132000  0.48010000  0.61438000  1.0
  O  O107  1  0.20867000  0.51990000  0.11438000  1.0
