# generated using pymatgen
data_Nd2H16(CO)19
_symmetry_space_group_name_H-M   'P 1'
_cell_length_a   9.69323000
_cell_length_b   10.52910000
_cell_length_c   13.96230000
_cell_angle_alpha   95.93480000
_cell_angle_beta   104.92500000
_cell_angle_gamma   100.06200000
_symmetry_Int_Tables_number   1
_chemical_formula_structural   Nd2H16(CO)19
_chemical_formula_sum   'Nd4 H32 C38 O38'
_cell_volume   1339.16053787
_cell_formula_units_Z   2
loop_
 _symmetry_equiv_pos_site_id
 _symmetry_equiv_pos_as_xyz
  1  'x, y, z'
loop_
 _atom_site_type_symbol
 _atom_site_label
 _atom_site_symmetry_multiplicity
 _atom_site_fract_x
 _atom_site_fract_y
 _atom_site_fract_z
 _atom_site_occupancy
  Nd  Nd0  1  0.24037000  0.02347000  0.96720000  1.0
  Nd  Nd1  1  0.75963000  0.97653000  0.03279000  1.0
  Nd  Nd2  1  0.13584000  0.55300000  0.64161000  1.0
  Nd  Nd3  1  0.86416000  0.44700000  0.35839000  1.0
  H  H4  1  0.18616000  0.84732000  0.64661000  1.0
  H  H5  1  0.81385000  0.15268000  0.35339000  1.0
  H  H6  1  0.11197000  0.83027000  0.73426000  1.0
  H  H7  1  0.88804000  0.16974000  0.26575000  1.0
  H  H8  1  0.44058000  0.03454000  0.83053000  1.0
  H  H9  1  0.55942000  0.96546000  0.16947000  1.0
  H  H10  1  0.34470000  0.13932000  0.80610000  1.0
  H  H11  1  0.65530000  0.86069000  0.19390000  1.0
  H  H12  1  0.16578000  0.26455000  0.84029000  1.0
  H  H13  1  0.83423000  0.73545000  0.15970000  1.0
  H  H14  1  0.02985000  0.18952000  0.87426000  1.0
  H  H15  1  0.97016000  0.81048000  0.12574000  1.0
  H  H16  1  0.14248000  0.67575000  0.85417000  1.0
  H  H17  1  0.85752000  0.32425000  0.14583000  1.0
  H  H18  1  0.46149000  0.02123000  0.66010000  1.0
  H  H19  1  0.53850000  0.97878000  0.33991000  1.0
  H  H20  1  0.51512000  0.14161000  0.50371000  1.0
  H  H21  1  0.48489000  0.85839000  0.49629000  1.0
  H  H22  1  0.67090000  0.61415000  0.88932000  1.0
  H  H23  1  0.32910000  0.38585000  0.11069000  1.0
  H  H24  1  0.81454000  0.46560000  0.01370000  1.0
  H  H25  1  0.18546000  0.53440000  0.98630000  1.0
  H  H26  1  0.50224000  0.61918000  0.56558000  1.0
  H  H27  1  0.49775000  0.38082000  0.43442000  1.0
  H  H28  1  0.56492000  0.74912000  0.75546000  1.0
  H  H29  1  0.43509000  0.25088000  0.24455000  1.0
  H  H30  1  0.85444000  0.52365000  0.78746000  1.0
  H  H31  1  0.14556000  0.47636000  0.21255000  1.0
  H  H32  1  0.95944000  0.59921000  0.91168000  1.0
  H  H33  1  0.04056000  0.40080000  0.08832000  1.0
  H  H34  1  0.98394000  0.44402000  0.85819000  1.0
  H  H35  1  0.01606000  0.55598000  0.14181000  1.0
  C  C36  1  0.72418000  0.09841000  0.84126000  1.0
  C  C37  1  0.27582000  0.90159000  0.15875000  1.0
  C  C38  1  0.68428000  0.13002000  0.73919000  1.0
  C  C39  1  0.31571000  0.86999000  0.26081000  1.0
  C  C40  1  0.55975000  0.08839000  0.65950000  1.0
  C  C41  1  0.44025000  0.91161000  0.34050000  1.0
  C  C42  1  0.58777000  0.14928000  0.57847000  1.0
  C  C43  1  0.41224000  0.85072000  0.42154000  1.0
  C  C44  1  0.72712000  0.22469000  0.61361000  1.0
  C  C45  1  0.27288000  0.77531000  0.38640000  1.0
  C  C46  1  0.81655000  0.31670000  0.56952000  1.0
  C  C47  1  0.18345000  0.68330000  0.43048000  1.0
  C  C48  1  0.35393000  0.48056000  0.80029000  1.0
  C  C49  1  0.64607000  0.51944000  0.19971000  1.0
  C  C50  1  0.48346000  0.45287000  0.86986000  1.0
  C  C51  1  0.51654000  0.54713000  0.13014000  1.0
  C  C52  1  0.62637000  0.52003000  0.90630000  1.0
  C  C53  1  0.37363000  0.47997000  0.09370000  1.0
  C  C54  1  0.70061000  0.44308000  0.97102000  1.0
  C  C55  1  0.29939000  0.55692000  0.02898000  1.0
  C  C56  1  0.59836000  0.33475000  0.97215000  1.0
  C  C57  1  0.40164000  0.66524000  0.02785000  1.0
  C  C58  1  0.60095000  0.22320000  0.02638000  1.0
  C  C59  1  0.39905000  0.77679000  0.97362000  1.0
  C  C60  1  0.78355000  0.61288000  0.50769000  1.0
  C  C61  1  0.21644000  0.38711000  0.49230000  1.0
  C  C62  1  0.74055000  0.67584000  0.59115000  1.0
  C  C63  1  0.25944000  0.32416000  0.40884000  1.0
  C  C64  1  0.60891000  0.67014000  0.61318000  1.0
  C  C65  1  0.39109000  0.32986000  0.38682000  1.0
  C  C66  1  0.64188000  0.73725000  0.71259000  1.0
  C  C67  1  0.35812000  0.26276000  0.28742000  1.0
  C  C68  1  0.79155000  0.78091000  0.74488000  1.0
  C  C69  1  0.20845000  0.21909000  0.25512000  1.0
  C  C70  1  0.89413000  0.85168000  0.83964000  1.0
  C  C71  1  0.10587000  0.14832000  0.16035000  1.0
  C  C72  1  0.96181000  0.54007000  0.84263000  1.0
  C  C73  1  0.03819000  0.45993000  0.15737000  1.0
  O  O74  1  0.62079000  0.03110000  0.86903000  1.0
  O  O75  1  0.37920000  0.96889000  0.13097000  1.0
  O  O76  1  0.85361000  0.13281000  0.89836000  1.0
  O  O77  1  0.14639000  0.86719000  0.10164000  1.0
  O  O78  1  0.78670000  0.21328000  0.71170000  1.0
  O  O79  1  0.21330000  0.78672000  0.28831000  1.0
  O  O80  1  0.92858000  0.39065000  0.63124000  1.0
  O  O81  1  0.07143000  0.60935000  0.36877000  1.0
  O  O82  1  0.77251000  0.31493000  0.47519000  1.0
  O  O83  1  0.22749000  0.68506000  0.52482000  1.0
  O  O84  1  0.23559000  0.39395000  0.76964000  1.0
  O  O85  1  0.76441000  0.60605000  0.23035000  1.0
  O  O86  1  0.36820000  0.59342000  0.77359000  1.0
  O  O87  1  0.63180000  0.40658000  0.22642000  1.0
  O  O88  1  0.46526000  0.33960000  0.90942000  1.0
  O  O89  1  0.53474000  0.66039000  0.09058000  1.0
  O  O90  1  0.48087000  0.15109000  0.02389000  1.0
  O  O91  1  0.51913000  0.84890000  0.97611000  1.0
  O  O92  1  0.72604000  0.20117000  0.07097000  1.0
  O  O93  1  0.27396000  0.79883000  0.92903000  1.0
  O  O94  1  0.91924000  0.60693000  0.52183000  1.0
  O  O95  1  0.08075000  0.39306000  0.47817000  1.0
  O  O96  1  0.68807000  0.56248000  0.42610000  1.0
  O  O97  1  0.31192000  0.43752000  0.57389000  1.0
  O  O98  1  0.85220000  0.74456000  0.67076000  1.0
  O  O99  1  0.14780000  0.25544000  0.32924000  1.0
  O  O100  1  0.84658000  0.85989000  0.91648000  1.0
  O  O101  1  0.15343000  0.14011000  0.08351000  1.0
  O  O102  1  0.02492000  0.89835000  0.83978000  1.0
  O  O103  1  0.97509000  0.10165000  0.16022000  1.0
  O  O104  1  0.16983000  0.79130000  0.69533000  1.0
  O  O105  1  0.83017000  0.20870000  0.30467000  1.0
  O  O106  1  0.33762000  0.04834000  0.81626000  1.0
  O  O107  1  0.66238000  0.95166000  0.18374000  1.0
  O  O108  1  0.13564000  0.19867000  0.88079000  1.0
  O  O109  1  0.86436000  0.80134000  0.11921000  1.0
  O  O110  1  0.06953000  0.60756000  0.80190000  1.0
  O  O111  1  0.93047000  0.39244000  0.19810000  1.0
