# generated using pymatgen
data_H14PbC12(BrN)2
_symmetry_space_group_name_H-M   'P 1'
_cell_length_a   7.98414000
_cell_length_b   9.88215000
_cell_length_c   9.88210000
_cell_angle_alpha   86.95780000
_cell_angle_beta   87.15470000
_cell_angle_gamma   87.15410000
_symmetry_Int_Tables_number   1
_chemical_formula_structural   H14PbC12(BrN)2
_chemical_formula_sum   'H28 Pb2 C24 Br4 N4'
_cell_volume   776.77913432
_cell_formula_units_Z   2
loop_
 _symmetry_equiv_pos_site_id
 _symmetry_equiv_pos_as_xyz
  1  'x, y, z'
loop_
 _atom_site_type_symbol
 _atom_site_label
 _atom_site_symmetry_multiplicity
 _atom_site_fract_x
 _atom_site_fract_y
 _atom_site_fract_z
 _atom_site_occupancy
  H  H0  1  0.62372000  0.13622000  0.75178000  1.0
  H  H1  1  0.87628000  0.24823000  0.86378000  1.0
  H  H2  1  0.37628000  0.86378000  0.24823000  1.0
  H  H3  1  0.12372000  0.75177000  0.13622000  1.0
  H  H4  1  0.55129000  0.22929000  0.32629000  1.0
  H  H5  1  0.94871000  0.67371000  0.77069000  1.0
  H  H6  1  0.44871000  0.77070000  0.67371000  1.0
  H  H7  1  0.05128000  0.32629000  0.22929000  1.0
  H  H8  1  0.24758000  0.18681000  0.37185000  1.0
  H  H9  1  0.25241000  0.62816000  0.81318000  1.0
  H  H10  1  0.75241000  0.81319000  0.62816000  1.0
  H  H11  1  0.74758000  0.37185000  0.18680000  1.0
  H  H12  1  0.14518000  0.12364000  0.60992000  1.0
  H  H13  1  0.35482000  0.39009000  0.87636000  1.0
  H  H14  1  0.85482000  0.87636000  0.39009000  1.0
  H  H15  1  0.64518000  0.60992000  0.12364000  1.0
  H  H16  1  0.86345000  0.19344000  0.60819000  1.0
  H  H17  1  0.63655000  0.39181000  0.80655000  1.0
  H  H18  1  0.13655000  0.80656000  0.39181000  1.0
  H  H19  1  0.36345000  0.60819000  0.19344000  1.0
  H  H20  1  0.85532000  0.15142000  0.43578000  1.0
  H  H21  1  0.64467000  0.56422000  0.84857000  1.0
  H  H22  1  0.14467000  0.84857000  0.56421000  1.0
  H  H23  1  0.35532000  0.43578000  0.15142000  1.0
  H  H24  1  0.81534000  0.32126000  0.47998000  1.0
  H  H25  1  0.68465000  0.52003000  0.67873000  1.0
  H  H26  1  0.18466000  0.67873000  0.52002000  1.0
  H  H27  1  0.31534000  0.47997000  0.32127000  1.0
  Pb  Pb28  1  0.25000000  0.06923000  0.93079000  1.0
  Pb  Pb29  1  0.75000000  0.93078000  0.06923000  1.0
  C  C30  1  0.54423000  0.15117000  0.66478000  1.0
  C  C31  1  0.95576000  0.33524000  0.84882000  1.0
  C  C32  1  0.45577000  0.84882000  0.33523000  1.0
  C  C33  1  0.04423000  0.66477000  0.15117000  1.0
  C  C34  1  0.61341000  0.18995000  0.53647000  1.0
  C  C35  1  0.88659000  0.46354000  0.81004000  1.0
  C  C36  1  0.38659000  0.81005000  0.46354000  1.0
  C  C37  1  0.11341000  0.53646000  0.18995000  1.0
  C  C38  1  0.50397000  0.20317000  0.42948000  1.0
  C  C39  1  0.99603000  0.57053000  0.79681000  1.0
  C  C40  1  0.49603000  0.79682000  0.57053000  1.0
  C  C41  1  0.00397000  0.42948000  0.20317000  1.0
  C  C42  1  0.33431000  0.18000000  0.45395000  1.0
  C  C43  1  0.16570000  0.54605000  0.81999000  1.0
  C  C44  1  0.66569000  0.82000000  0.54606000  1.0
  C  C45  1  0.83430000  0.45395000  0.18000000  1.0
  C  C46  1  0.27669000  0.14381000  0.58546000  1.0
  C  C47  1  0.22332000  0.41455000  0.85619000  1.0
  C  C48  1  0.72331000  0.85619000  0.41455000  1.0
  C  C49  1  0.77668000  0.58546000  0.14381000  1.0
  C  C50  1  0.79662000  0.21523000  0.51470000  1.0
  C  C51  1  0.70337000  0.48530000  0.78476000  1.0
  C  C52  1  0.20338000  0.78476000  0.48530000  1.0
  C  C53  1  0.29662000  0.51470000  0.21523000  1.0
  Br  Br54  1  0.96165000  0.95430000  0.79528000  1.0
  Br  Br55  1  0.53838000  0.20474000  0.04568000  1.0
  Br  Br56  1  0.03838000  0.04567000  0.20475000  1.0
  Br  Br57  1  0.46162000  0.79527000  0.95432000  1.0
  N  N58  1  0.38039000  0.12916000  0.68883000  1.0
  N  N59  1  0.11961000  0.31119000  0.87083000  1.0
  N  N60  1  0.61961000  0.87083000  0.31118000  1.0
  N  N61  1  0.88039000  0.68882000  0.12917000  1.0
