# generated using pymatgen
data_CoH8C8(SN4)2
_symmetry_space_group_name_H-M   'P 1'
_cell_length_a   5.52444000
_cell_length_b   6.32261000
_cell_length_c   8.58706000
_cell_angle_alpha   101.74700000
_cell_angle_beta   100.89900000
_cell_angle_gamma   93.33130000
_symmetry_Int_Tables_number   1
_chemical_formula_structural   CoH8C8(SN4)2
_chemical_formula_sum   'Co1 H8 C8 S2 N8'
_cell_volume   286.89817751
_cell_formula_units_Z   1
loop_
 _symmetry_equiv_pos_site_id
 _symmetry_equiv_pos_as_xyz
  1  'x, y, z'
loop_
 _atom_site_type_symbol
 _atom_site_label
 _atom_site_symmetry_multiplicity
 _atom_site_fract_x
 _atom_site_fract_y
 _atom_site_fract_z
 _atom_site_occupancy
  Co  Co0  1  0.99999000  0.00000000  0.00000000  1.0
  H  H1  1  0.56478000  0.97944000  0.68678000  1.0
  H  H2  1  0.43522000  0.02057000  0.31322000  1.0
  H  H3  1  0.28864000  0.30146000  0.81333000  1.0
  H  H4  1  0.71136000  0.69855000  0.18667000  1.0
  H  H5  1  0.07858000  0.30375000  0.38908000  1.0
  H  H6  1  0.92143000  0.69624000  0.61091000  1.0
  H  H7  1  0.27214000  0.46836000  0.56769000  1.0
  H  H8  1  0.72786000  0.53163000  0.43230000  1.0
  C  C9  1  0.73040000  0.07889000  0.68550000  1.0
  C  C10  1  0.26960000  0.92111000  0.31450000  1.0
  C  C11  1  0.10061000  0.23761000  0.75194000  1.0
  C  C12  1  0.89939000  0.76239000  0.24806000  1.0
  C  C13  1  0.07997000  0.40658000  0.50874000  1.0
  C  C14  1  0.92004000  0.59340000  0.49126000  1.0
  C  C15  1  0.58198000  0.24268000  0.10450000  1.0
  C  C16  1  0.41803000  0.75732000  0.89551000  1.0
  S  S17  1  0.33479000  0.35196000  0.14382000  1.0
  S  S18  1  0.66521000  0.64806000  0.85619000  1.0
  N  N19  1  0.98618000  0.27583000  0.60925000  1.0
  N  N20  1  0.01382000  0.72416000  0.39075000  1.0
  N  N21  1  0.75087000  0.17554000  0.56458000  1.0
  N  N22  1  0.24913000  0.82445000  0.43541000  1.0
  N  N23  1  0.94220000  0.11216000  0.80333000  1.0
  N  N24  1  0.05779000  0.88785000  0.19667000  1.0
  N  N25  1  0.75740000  0.15761000  0.07360000  1.0
  N  N26  1  0.24259000  0.84240000  0.92641000  1.0
