# generated using pymatgen
data_CuSiH8C20(N4F7)2
_symmetry_space_group_name_H-M   'P 1'
_cell_length_a   7.98452000
_cell_length_b   12.17165113
_cell_length_c   12.22509116
_cell_angle_alpha   81.67134673
_cell_angle_beta   78.15893149
_cell_angle_gamma   77.93121260
_symmetry_Int_Tables_number   1
_chemical_formula_structural   CuSiH8C20(N4F7)2
_chemical_formula_sum   'Cu1 Si1 H8 C20 N8 F14'
_cell_volume   1130.64043132
_cell_formula_units_Z   1
loop_
 _symmetry_equiv_pos_site_id
 _symmetry_equiv_pos_as_xyz
  1  'x, y, z'
loop_
 _atom_site_type_symbol
 _atom_site_label
 _atom_site_symmetry_multiplicity
 _atom_site_fract_x
 _atom_site_fract_y
 _atom_site_fract_z
 _atom_site_occupancy
  Cu  Cu0  1  0.49025000  0.50173000  0.50470000  1.0
  Si  Si1  1  0.02403000  0.46732000  0.46818000  1.0
  H  H2  1  0.19288000  0.42019000  0.63813000  1.0
  H  H3  1  0.00357000  0.43777000  0.82439000  1.0
  H  H4  1  0.67956000  0.38875000  0.08641000  1.0
  H  H5  1  0.94947000  0.62780000  0.17650000  1.0
  H  H6  1  0.19506000  0.63579000  0.42017000  1.0
  H  H7  1  0.00536000  0.82313000  0.43760000  1.0
  H  H8  1  0.68437000  0.08914000  0.38526000  1.0
  H  H9  1  0.94620000  0.17470000  0.63056000  1.0
  C  C10  1  0.23333000  0.45583000  0.70282000  1.0
  C  C11  1  0.12934000  0.46391000  0.80769000  1.0
  C  C12  1  0.18247000  0.51036000  0.89045000  1.0
  C  C13  1  0.34505000  0.54369000  0.86292000  1.0
  C  C14  1  0.44194000  0.53345000  0.75456000  1.0
  C  C15  1  0.69427000  0.44573000  0.14304000  1.0
  C  C16  1  0.83534000  0.50211000  0.12065000  1.0
  C  C17  1  0.84412000  0.58090000  0.19095000  1.0
  C  C18  1  0.71243000  0.59393000  0.28378000  1.0
  C  C19  1  0.57099000  0.46800000  0.23887000  1.0
  C  C20  1  0.23519000  0.70046000  0.45622000  1.0
  C  C21  1  0.13105000  0.80601000  0.46409000  1.0
  C  C22  1  0.18382000  0.88884000  0.51090000  1.0
  C  C23  1  0.34650000  0.86079000  0.54439000  1.0
  C  C24  1  0.44368000  0.75172000  0.53433000  1.0
  C  C25  1  0.69786000  0.14514000  0.44325000  1.0
  C  C26  1  0.83626000  0.12071000  0.50209000  1.0
  C  C27  1  0.84291000  0.19051000  0.58177000  1.0
  C  C28  1  0.71266000  0.28499000  0.59306000  1.0
  C  C29  1  0.57606000  0.24273000  0.46316000  1.0
  N  N30  1  0.38603000  0.49361000  0.67543000  1.0
  N  N31  1  0.07614000  0.53307000  0.99542000  1.0
  N  N32  1  0.95622000  0.47569000  0.02177000  1.0
  N  N33  1  0.58293000  0.53464000  0.31390000  1.0
  N  N34  1  0.38766000  0.67232000  0.49464000  1.0
  N  N35  1  0.07755000  0.99459000  0.53331000  1.0
  N  N36  1  0.95672000  0.02082000  0.47654000  1.0
  N  N37  1  0.58614000  0.31740000  0.53107000  1.0
  F  F38  1  0.25082000  0.46204000  0.46450000  1.0
  F  F39  1  0.79950000  0.47667000  0.47600000  1.0
  F  F40  1  0.03136000  0.36072000  0.57606000  1.0
  F  F41  1  0.03313000  0.57463000  0.36126000  1.0
  F  F42  1  0.97819000  0.56398000  0.56350000  1.0
  F  F43  1  0.06659000  0.37219000  0.37470000  1.0
  F  F44  1  0.59701000  0.56456000  0.72945000  1.0
  F  F45  1  0.41114000  0.58478000  0.93795000  1.0
  F  F46  1  0.42870000  0.42238000  0.25735000  1.0
  F  F47  1  0.70502000  0.67547000  0.34804000  1.0
  F  F48  1  0.59880000  0.72615000  0.56553000  1.0
  F  F49  1  0.41261000  0.93601000  0.58540000  1.0
  F  F50  1  0.43810000  0.26370000  0.41305000  1.0
  F  F51  1  0.70393000  0.34898000  0.67479000  1.0
