# generated using pymatgen
data_LuH13C8SO12
_symmetry_space_group_name_H-M   'P 1'
_cell_length_a   9.19602000
_cell_length_b   10.45060000
_cell_length_c   15.51680000
_cell_angle_alpha   89.99950000
_cell_angle_beta   85.02920000
_cell_angle_gamma   89.99970000
_symmetry_Int_Tables_number   1
_chemical_formula_structural   LuH13C8SO12
_chemical_formula_sum   'Lu4 H52 C32 S4 O48'
_cell_volume   1485.61688939
_cell_formula_units_Z   4
loop_
 _symmetry_equiv_pos_site_id
 _symmetry_equiv_pos_as_xyz
  1  'x, y, z'
loop_
 _atom_site_type_symbol
 _atom_site_label
 _atom_site_symmetry_multiplicity
 _atom_site_fract_x
 _atom_site_fract_y
 _atom_site_fract_z
 _atom_site_occupancy
  Lu  Lu0  1  0.82028000  0.94494000  0.17427000  1.0
  Lu  Lu1  1  0.67972000  0.44495000  0.32572000  1.0
  Lu  Lu2  1  0.17971000  0.05504000  0.82572000  1.0
  Lu  Lu3  1  0.32030000  0.55505000  0.67428000  1.0
  H  H4  1  0.49895000  0.77458000  0.41221000  1.0
  H  H5  1  0.00107000  0.27455000  0.08780000  1.0
  H  H6  1  0.50107000  0.22544000  0.58782000  1.0
  H  H7  1  0.99890000  0.72546000  0.91216000  1.0
  H  H8  1  0.15213000  0.97200000  0.56083000  1.0
  H  H9  1  0.34788000  0.47198000  0.93917000  1.0
  H  H10  1  0.84790000  0.02802000  0.43919000  1.0
  H  H11  1  0.65212000  0.52801000  0.06081000  1.0
  H  H12  1  0.37124000  0.15224000  0.33612000  1.0
  H  H13  1  0.12875000  0.65222000  0.16388000  1.0
  H  H14  1  0.62879000  0.84779000  0.66391000  1.0
  H  H15  1  0.87121000  0.34779000  0.83609000  1.0
  H  H16  1  0.79146000  0.16137000  0.06002000  1.0
  H  H17  1  0.70857000  0.66138000  0.43997000  1.0
  H  H18  1  0.20854000  0.83861000  0.93996000  1.0
  H  H19  1  0.29145000  0.33863000  0.56003000  1.0
  H  H20  1  0.82191000  0.22225000  0.15392000  1.0
  H  H21  1  0.67809000  0.72226000  0.34607000  1.0
  H  H22  1  0.17808000  0.77774000  0.84606000  1.0
  H  H23  1  0.32190000  0.27775000  0.65393000  1.0
  H  H24  1  0.96427000  0.82608000  0.31340000  1.0
  H  H25  1  0.53573000  0.32611000  0.18661000  1.0
  H  H26  1  0.03571000  0.17390000  0.68660000  1.0
  H  H27  1  0.46427000  0.67390000  0.81341000  1.0
  H  H28  1  0.93999000  0.71369000  0.24834000  1.0
  H  H29  1  0.56000000  0.21371000  0.25166000  1.0
  H  H30  1  0.05998000  0.28629000  0.75166000  1.0
  H  H31  1  0.44001000  0.78629000  0.74835000  1.0
  H  H32  1  0.54390000  0.01695000  0.10822000  1.0
  H  H33  1  0.95610000  0.51695000  0.39178000  1.0
  H  H34  1  0.45609000  0.98304000  0.89176000  1.0
  H  H35  1  0.04393000  0.48305000  0.60822000  1.0
  H  H36  1  0.54552000  0.86562000  0.10197000  1.0
  H  H37  1  0.95446000  0.36562000  0.39804000  1.0
  H  H38  1  0.45446000  0.13436000  0.89803000  1.0
  H  H39  1  0.04555000  0.63439000  0.60198000  1.0
  H  H40  1  0.13487000  0.92441000  0.10833000  1.0
  H  H41  1  0.36513000  0.42445000  0.39168000  1.0
  H  H42  1  0.86512000  0.07558000  0.89167000  1.0
  H  H43  1  0.63489000  0.57557000  0.60833000  1.0
  H  H44  1  0.07876000  0.05581000  0.07811000  1.0
  H  H45  1  0.42126000  0.55585000  0.42190000  1.0
  H  H46  1  0.92121000  0.94417000  0.92188000  1.0
  H  H47  1  0.57878000  0.44416000  0.57812000  1.0
  H  H48  1  0.99657000  0.09371000  0.28952000  1.0
  H  H49  1  0.50343000  0.59372000  0.21048000  1.0
  H  H50  1  0.00340000  0.90627000  0.71049000  1.0
  H  H51  1  0.49658000  0.40628000  0.78952000  1.0
  H  H52  1  0.83291000  0.12689000  0.31874000  1.0
  H  H53  1  0.66710000  0.62690000  0.18125000  1.0
  H  H54  1  0.16707000  0.87310000  0.68126000  1.0
  H  H55  1  0.33291000  0.37309000  0.81874000  1.0
  C  C56  1  0.44917000  0.96297000  0.36582000  1.0
  C  C57  1  0.05083000  0.46294000  0.13418000  1.0
  C  C58  1  0.55085000  0.03705000  0.63419000  1.0
  C  C59  1  0.94915000  0.53706000  0.86580000  1.0
  C  C60  1  0.42935000  0.85815000  0.42130000  1.0
  C  C61  1  0.07066000  0.35812000  0.07870000  1.0
  C  C62  1  0.57067000  0.14187000  0.57872000  1.0
  C  C63  1  0.92931000  0.64188000  0.92127000  1.0
  C  C64  1  0.32458000  0.86039000  0.49152000  1.0
  C  C65  1  0.17543000  0.36036000  0.00847000  1.0
  C  C66  1  0.67545000  0.13963000  0.50850000  1.0
  C  C67  1  0.82455000  0.63965000  0.99150000  1.0
  C  C68  1  0.23347000  0.96726000  0.50567000  1.0
  C  C69  1  0.26653000  0.46724000  0.99433000  1.0
  C  C70  1  0.76655000  0.03276000  0.49436000  1.0
  C  C71  1  0.73346000  0.53276000  0.00565000  1.0
  C  C72  1  0.24982000  0.06948000  0.44795000  1.0
  C  C73  1  0.25017000  0.56947000  0.05205000  1.0
  C  C74  1  0.75020000  0.93053000  0.55207000  1.0
  C  C75  1  0.74981000  0.43053000  0.94793000  1.0
  C  C76  1  0.35737000  0.06927000  0.37853000  1.0
  C  C77  1  0.14262000  0.56924000  0.12147000  1.0
  C  C78  1  0.64265000  0.93075000  0.62150000  1.0
  C  C79  1  0.85736000  0.43075000  0.87850000  1.0
  C  C80  1  0.57407000  0.96226000  0.29825000  1.0
  C  C81  1  0.92593000  0.46224000  0.20174000  1.0
  C  C82  1  0.42593000  0.03774000  0.70176000  1.0
  C  C83  1  0.07406000  0.53776000  0.79824000  1.0
  C  C84  1  0.32318000  0.75089000  0.55273000  1.0
  C  C85  1  0.17684000  0.25087000  0.94727000  1.0
  C  C86  1  0.67684000  0.24912000  0.44729000  1.0
  C  C87  1  0.82315000  0.74912000  0.05271000  1.0
  S  S88  1  0.14094000  0.21002000  0.46583000  1.0
  S  S89  1  0.35905000  0.71000000  0.03417000  1.0
  S  S90  1  0.85907000  0.78999000  0.53419000  1.0
  S  S91  1  0.64095000  0.28998000  0.96582000  1.0
  O  O92  1  0.65654000  0.86337000  0.28788000  1.0
  O  O93  1  0.84345000  0.36335000  0.21211000  1.0
  O  O94  1  0.34343000  0.13662000  0.71212000  1.0
  O  O95  1  0.15655000  0.63664000  0.78788000  1.0
  O  O96  1  0.60333000  0.05992000  0.25084000  1.0
  O  O97  1  0.89666000  0.55990000  0.24915000  1.0
  O  O98  1  0.39667000  0.94008000  0.74916000  1.0
  O  O99  1  0.10333000  0.44009000  0.75084000  1.0
  O  O100  1  0.38118000  0.64417000  0.52979000  1.0
  O  O101  1  0.11887000  0.14414000  0.97022000  1.0
  O  O102  1  0.61887000  0.35585000  0.47023000  1.0
  O  O103  1  0.88112000  0.85585000  0.02977000  1.0
  O  O104  1  0.26880000  0.76502000  0.63120000  1.0
  O  O105  1  0.23120000  0.26500000  0.86880000  1.0
  O  O106  1  0.73121000  0.23498000  0.36881000  1.0
  O  O107  1  0.76880000  0.73498000  0.13119000  1.0
  O  O108  1  0.05730000  0.19566000  0.54962000  1.0
  O  O109  1  0.44270000  0.69566000  0.95038000  1.0
  O  O110  1  0.94272000  0.80436000  0.45040000  1.0
  O  O111  1  0.55731000  0.30434000  0.04960000  1.0
  O  O112  1  0.24887000  0.31626000  0.46446000  1.0
  O  O113  1  0.25111000  0.81624000  0.03553000  1.0
  O  O114  1  0.75113000  0.68376000  0.53554000  1.0
  O  O115  1  0.74889000  0.18375000  0.96446000  1.0
  O  O116  1  0.05238000  0.22132000  0.39149000  1.0
  O  O117  1  0.44761000  0.72132000  0.10851000  1.0
  O  O118  1  0.94762000  0.77866000  0.60853000  1.0
  O  O119  1  0.55241000  0.27866000  0.89147000  1.0
  O  O120  1  0.81989000  0.14206000  0.11972000  1.0
  O  O121  1  0.68015000  0.64208000  0.38027000  1.0
  O  O122  1  0.18011000  0.85792000  0.88027000  1.0
  O  O123  1  0.31989000  0.35793000  0.61972000  1.0
  O  O124  1  0.96357000  0.80702000  0.25158000  1.0
  O  O125  1  0.53640000  0.30704000  0.24842000  1.0
  O  O126  1  0.03639000  0.19297000  0.74842000  1.0
  O  O127  1  0.46359000  0.69296000  0.75159000  1.0
  O  O128  1  0.60770000  0.94368000  0.09637000  1.0
  O  O129  1  0.89229000  0.44369000  0.40363000  1.0
  O  O130  1  0.39228000  0.05630000  0.90363000  1.0
  O  O131  1  0.10774000  0.55632000  0.59637000  1.0
  O  O132  1  0.06940000  0.99552000  0.12742000  1.0
  O  O133  1  0.43061000  0.49556000  0.37259000  1.0
  O  O134  1  0.93058000  0.00446000  0.87258000  1.0
  O  O135  1  0.56942000  0.50446000  0.62743000  1.0
  O  O136  1  0.89739000  0.06269000  0.28573000  1.0
  O  O137  1  0.60261000  0.56270000  0.21427000  1.0
  O  O138  1  0.10258000  0.93731000  0.71427000  1.0
  O  O139  1  0.39740000  0.43730000  0.78573000  1.0
