# generated using pymatgen
data_AlH9C27(OF)6
_symmetry_space_group_name_H-M   'P 1'
_cell_length_a   4.02206000
_cell_length_b   27.81300000
_cell_length_c   27.84623913
_cell_angle_alpha   60.06696943
_cell_angle_beta   89.78837447
_cell_angle_gamma   89.58980000
_symmetry_Int_Tables_number   1
_chemical_formula_structural   AlH9C27(OF)6
_chemical_formula_sum   'Al3 H27 C81 O18 F18'
_cell_volume   2699.44886557
_cell_formula_units_Z   3
loop_
 _symmetry_equiv_pos_site_id
 _symmetry_equiv_pos_as_xyz
  1  'x, y, z'
loop_
 _atom_site_type_symbol
 _atom_site_label
 _atom_site_symmetry_multiplicity
 _atom_site_fract_x
 _atom_site_fract_y
 _atom_site_fract_z
 _atom_site_occupancy
  Al  Al0  1  0.00002000  0.99996000  0.49998000  1.0
  Al  Al1  1  0.05330000  0.33366000  0.83337000  1.0
  Al  Al2  1  0.93262000  0.66747000  0.16619000  1.0
  H  H3  1  0.48388000  0.00040000  0.92253000  1.0
  H  H4  1  0.49352000  0.91110000  0.83349000  1.0
  H  H5  1  0.48469000  0.08945000  0.74446000  1.0
  H  H6  1  0.23751000  0.07527000  0.91107000  1.0
  H  H7  1  0.78888000  0.14814000  0.75617000  1.0
  H  H8  1  0.73414000  0.92607000  0.98530000  1.0
  H  H9  1  0.18887000  0.85205000  0.90413000  1.0
  H  H10  1  0.22584000  0.92204000  0.76081000  1.0
  H  H11  1  0.75783000  0.07836000  0.68298000  1.0
  H  H12  1  0.48385000  0.42287000  0.07742000  1.0
  H  H13  1  0.49406000  0.24457000  0.16636000  1.0
  H  H14  1  0.48370000  0.33387000  0.25549000  1.0
  H  H15  1  0.73497000  0.48509000  0.08913000  1.0
  H  H16  1  0.18068000  0.40548000  0.24377000  1.0
  H  H17  1  0.23588000  0.41113000  0.01495000  1.0
  H  H18  1  0.79662000  0.25641000  0.09521000  1.0
  H  H19  1  0.76556000  0.18309000  0.23903000  1.0
  H  H20  1  0.21761000  0.26102000  0.31705000  1.0
  H  H21  1  0.52928000  0.57681000  0.49950000  1.0
  H  H22  1  0.52047000  0.75509000  0.41065000  1.0
  H  H23  1  0.52580000  0.66594000  0.58875000  1.0
  H  H24  1  0.27520000  0.51485000  0.57326000  1.0
  H  H25  1  0.82147000  0.59446000  0.64877000  1.0
  H  H26  1  0.76697000  0.58856000  0.42378000  1.0
  H  H27  1  0.21018000  0.74359000  0.35292000  1.0
  H  H28  1  0.24815000  0.81645000  0.42191000  1.0
  H  H29  1  0.78956000  0.73896000  0.57767000  1.0
  C  C30  1  0.50438000  0.92630000  0.50002000  1.0
  C  C31  1  0.49796000  0.00006000  0.57344000  1.0
  C  C32  1  0.49779000  0.07353000  0.42649000  1.0
  C  C33  1  0.55441000  0.26049000  0.83276000  1.0
  C  C34  1  0.54998000  0.33292000  0.90719000  1.0
  C  C35  1  0.55177000  0.40747000  0.76041000  1.0
  C  C36  1  0.43234000  0.74020000  0.09225000  1.0
  C  C37  1  0.43655000  0.59321000  0.16767000  1.0
  C  C38  1  0.43419000  0.66840000  0.23911000  1.0
  C  C39  1  0.47658000  0.94967000  0.88409000  1.0
  C  C40  1  0.48512000  0.00039000  0.88340000  1.0
  C  C41  1  0.49603000  0.05106000  0.83350000  1.0
  C  C42  1  0.49293000  0.05032000  0.78353000  1.0
  C  C43  1  0.48876000  0.00028000  0.78279000  1.0
  C  C44  1  0.48289000  0.95030000  0.83344000  1.0
  C  C45  1  0.39277000  0.15932000  0.87642000  1.0
  C  C46  1  0.37147000  0.10918000  0.87723000  1.0
  C  C47  1  0.51010000  0.10418000  0.83354000  1.0
  C  C48  1  0.66685000  0.15042000  0.78993000  1.0
  C  C49  1  0.67894000  0.19984000  0.79070000  1.0
  C  C50  1  0.54405000  0.20615000  0.83347000  1.0
  C  C51  1  0.60345000  0.89183000  0.98551000  1.0
  C  C52  1  0.58704000  0.84157000  0.03467000  1.0
  C  C53  1  0.44030000  0.79440000  0.03864000  1.0
  C  C54  1  0.30417000  0.80047000  0.98989000  1.0
  C  C55  1  0.31154000  0.84999000  0.93990000  1.0
  C  C56  1  0.46459000  0.89656000  0.93711000  1.0
  C  C57  1  0.34932000  0.95642000  0.72576000  1.0
  C  C58  1  0.35295000  0.95715000  0.67562000  1.0
  C  C59  1  0.49602000  0.00010000  0.62698000  1.0
  C  C60  1  0.63665000  0.04311000  0.63282000  1.0
  C  C61  1  0.63578000  0.04397000  0.68217000  1.0
  C  C62  1  0.49127000  0.00023000  0.72974000  1.0
  C  C63  1  0.49950000  0.33372000  0.11579000  1.0
  C  C64  1  0.48499000  0.38372000  0.11654000  1.0
  C  C65  1  0.47265000  0.38448000  0.16648000  1.0
  C  C66  1  0.47754000  0.33378000  0.21642000  1.0
  C  C67  1  0.48855000  0.28304000  0.21711000  1.0
  C  C68  1  0.49787000  0.28371000  0.16643000  1.0
  C  C69  1  0.59078000  0.53491000  0.12427000  1.0
  C  C70  1  0.60370000  0.48569000  0.12307000  1.0
  C  C71  1  0.46080000  0.43763000  0.16656000  1.0
  C  C72  1  0.30670000  0.44089000  0.21021000  1.0
  C  C73  1  0.30275000  0.49094000  0.20984000  1.0
  C  C74  1  0.44348000  0.53933000  0.16737000  1.0
  C  C75  1  0.37056000  0.37728000  0.01449000  1.0
  C  C76  1  0.38837000  0.37636000  0.96521000  1.0
  C  C77  1  0.54046000  0.33341000  0.96090000  1.0
  C  C78  1  0.68000000  0.29076000  0.00949000  1.0
  C  C79  1  0.67121000  0.29010000  0.05961000  1.0
  C  C80  1  0.51338000  0.33371000  0.06269000  1.0
  C  C81  1  0.64001000  0.18232000  0.27410000  1.0
  C  C82  1  0.64084000  0.13295000  0.32427000  1.0
  C  C83  1  0.49595000  0.12712000  0.37298000  1.0
  C  C84  1  0.34852000  0.17581000  0.36717000  1.0
  C  C85  1  0.34484000  0.22598000  0.31781000  1.0
  C  C86  1  0.49119000  0.22995000  0.27015000  1.0
  C  C87  1  0.51346000  0.66596000  0.44900000  1.0
  C  C88  1  0.52850000  0.61597000  0.49957000  1.0
  C  C89  1  0.53940000  0.61528000  0.55023000  1.0
  C  C90  1  0.53424000  0.66600000  0.54960000  1.0
  C  C91  1  0.52467000  0.71672000  0.49970000  1.0
  C  C92  1  0.51635000  0.71597000  0.44976000  1.0
  C  C93  1  0.40824000  0.46534000  0.65849000  1.0
  C  C94  1  0.40239000  0.51432000  0.60795000  1.0
  C  C95  1  0.54655000  0.56227000  0.60343000  1.0
  C  C96  1  0.69488000  0.55915000  0.65052000  1.0
  C  C97  1  0.69185000  0.50936000  0.70029000  1.0
  C  C98  1  0.54960000  0.46108000  0.70617000  1.0
  C  C99  1  0.63025000  0.62263000  0.39026000  1.0
  C  C100  1  0.60408000  0.62389000  0.34000000  1.0
  C  C101  1  0.44908000  0.66716000  0.29361000  1.0
  C  C102  1  0.31498000  0.70970000  0.30055000  1.0
  C  C103  1  0.33183000  0.70999000  0.35012000  1.0
  C  C104  1  0.49313000  0.66616000  0.39586000  1.0
  C  C105  1  0.37143000  0.81733000  0.45619000  1.0
  C  C106  1  0.36760000  0.86672000  0.45711000  1.0
  C  C107  1  0.50900000  0.87268000  0.49999000  1.0
  C  C108  1  0.65616000  0.82410000  0.54278000  1.0
  C  C109  1  0.66290000  0.77391000  0.54346000  1.0
  C  C110  1  0.51998000  0.76984000  0.49976000  1.0
  O  O111  1  0.26103000  0.06529000  0.46009000  1.0
  O  O112  1  0.26656000  0.95980000  0.47469000  1.0
  O  O113  1  0.26321000  0.97464000  0.56519000  1.0
  O  O114  1  0.73569000  0.03992000  0.43469000  1.0
  O  O115  1  0.73402000  0.02543000  0.53990000  1.0
  O  O116  1  0.73925000  0.93467000  0.52538000  1.0
  O  O117  1  0.31566000  0.39949000  0.79383000  1.0
  O  O118  1  0.32052000  0.29457000  0.80710000  1.0
  O  O119  1  0.31717000  0.30743000  0.89883000  1.0
  O  O120  1  0.79085000  0.37437000  0.76823000  1.0
  O  O121  1  0.78875000  0.35803000  0.87454000  1.0
  O  O122  1  0.79377000  0.26793000  0.85776000  1.0
  O  O123  1  0.19400000  0.64355000  0.23175000  1.0
  O  O124  1  0.19216000  0.73288000  0.12476000  1.0
  O  O125  1  0.19712000  0.62604000  0.14236000  1.0
  O  O126  1  0.66550000  0.69420000  0.20485000  1.0
  O  O127  1  0.67059000  0.60163000  0.19293000  1.0
  O  O128  1  0.66729000  0.70620000  0.10070000  1.0
  F  F129  1  0.83233000  0.24414000  0.74833000  1.0
  F  F130  1  0.25655000  0.16356000  0.91886000  1.0
  F  F131  1  0.72312000  0.83761000  0.08108000  1.0
  F  F132  1  0.15421000  0.75584000  0.99199000  1.0
  F  F133  1  0.21339000  0.91341000  0.67485000  1.0
  F  F134  1  0.77822000  0.08679000  0.58851000  1.0
  F  F135  1  0.15205000  0.49347000  0.25227000  1.0
  F  F136  1  0.73119000  0.58095000  0.08203000  1.0
  F  F137  1  0.24766000  0.41870000  0.91904000  1.0
  F  F138  1  0.83443000  0.24838000  0.00714000  1.0
  F  F139  1  0.78683000  0.08861000  0.32498000  1.0
  F  F140  1  0.20439000  0.17508000  0.41152000  1.0
  F  F141  1  0.83689000  0.50699000  0.74541000  1.0
  F  F142  1  0.26624000  0.41943000  0.66223000  1.0
  F  F143  1  0.73886000  0.58158000  0.33519000  1.0
  F  F144  1  0.15750000  0.75230000  0.25674000  1.0
  F  F145  1  0.22213000  0.91095000  0.41359000  1.0
  F  F146  1  0.79669000  0.82494000  0.58644000  1.0
