# generated using pymatgen
data_CaH10C14(O3F2)2
_symmetry_space_group_name_H-M   'P 1'
_cell_length_a   7.81535000
_cell_length_b   10.20620000
_cell_length_c   10.20620000
_cell_angle_alpha   63.60820000
_cell_angle_beta   89.47520000
_cell_angle_gamma   89.47530000
_symmetry_Int_Tables_number   1
_chemical_formula_structural   CaH10C14(O3F2)2
_chemical_formula_sum   'Ca2 H20 C28 O12 F8'
_cell_volume   729.20642450
_cell_formula_units_Z   2
loop_
 _symmetry_equiv_pos_site_id
 _symmetry_equiv_pos_as_xyz
  1  'x, y, z'
loop_
 _atom_site_type_symbol
 _atom_site_label
 _atom_site_symmetry_multiplicity
 _atom_site_fract_x
 _atom_site_fract_y
 _atom_site_fract_z
 _atom_site_occupancy
  Ca  Ca0  1  0.25000000  0.05272000  0.94728000  1.0
  Ca  Ca1  1  0.75000000  0.94728000  0.05272000  1.0
  H  H2  1  0.34251000  0.37181000  0.88432000  1.0
  H  H3  1  0.15749000  0.11567000  0.62819000  1.0
  H  H4  1  0.65749000  0.62819000  0.11568000  1.0
  H  H5  1  0.84251000  0.88432000  0.37181000  1.0
  H  H6  1  0.50432000  0.26722000  0.94204000  1.0
  H  H7  1  0.99568000  0.05796000  0.73278000  1.0
  H  H8  1  0.49568000  0.73278000  0.05796000  1.0
  H  H9  1  0.00432000  0.94204000  0.26722000  1.0
  H  H10  1  0.33169000  0.86040000  0.73970000  1.0
  H  H11  1  0.16831000  0.26030000  0.13960000  1.0
  H  H12  1  0.66831000  0.13960000  0.26030000  1.0
  H  H13  1  0.83169000  0.73971000  0.86040000  1.0
  H  H14  1  0.51144000  0.63444000  0.83014000  1.0
  H  H15  1  0.98856000  0.16986000  0.36556000  1.0
  H  H16  1  0.48856000  0.36556000  0.16986000  1.0
  H  H17  1  0.01145000  0.83014000  0.63444000  1.0
  H  H18  1  0.62085000  0.54138000  0.65373000  1.0
  H  H19  1  0.87915000  0.34627000  0.45863000  1.0
  H  H20  1  0.37915000  0.45862000  0.34627000  1.0
  H  H21  1  0.12085000  0.65373000  0.54137000  1.0
  C  C22  1  0.40406000  0.84609000  0.41396000  1.0
  C  C23  1  0.09594000  0.58604000  0.15392000  1.0
  C  C24  1  0.59594000  0.15392000  0.58604000  1.0
  C  C25  1  0.90406000  0.41396000  0.84609000  1.0
  C  C26  1  0.34489000  0.89143000  0.51727000  1.0
  C  C27  1  0.15511000  0.48273000  0.10857000  1.0
  C  C28  1  0.65511000  0.10857000  0.48273000  1.0
  C  C29  1  0.84489000  0.51727000  0.89143000  1.0
  C  C30  1  0.38156000  0.81903000  0.66523000  1.0
  C  C31  1  0.11844000  0.33477000  0.18097000  1.0
  C  C32  1  0.61844000  0.18097000  0.33477000  1.0
  C  C33  1  0.88156000  0.66523000  0.81903000  1.0
  C  C34  1  0.48154000  0.69242000  0.71437000  1.0
  C  C35  1  0.01846000  0.28563000  0.30758000  1.0
  C  C36  1  0.51846000  0.30758000  0.28563000  1.0
  C  C37  1  0.98155000  0.71437000  0.69242000  1.0
  C  C38  1  0.54322000  0.64023000  0.61758000  1.0
  C  C39  1  0.95679000  0.38242000  0.35977000  1.0
  C  C40  1  0.45679000  0.35977000  0.38242000  1.0
  C  C41  1  0.04322000  0.61758000  0.64023000  1.0
  C  C42  1  0.50394000  0.71822000  0.47046000  1.0
  C  C43  1  0.99606000  0.52954000  0.28178000  1.0
  C  C44  1  0.49606000  0.28178000  0.52954000  1.0
  C  C45  1  0.00394000  0.47046000  0.71822000  1.0
  C  C46  1  0.36513000  0.92895000  0.25367000  1.0
  C  C47  1  0.13487000  0.74633000  0.07105000  1.0
  C  C48  1  0.63487000  0.07105000  0.74633000  1.0
  C  C49  1  0.86513000  0.25367000  0.92895000  1.0
  O  O50  1  0.37665000  0.27026000  0.94012000  1.0
  O  O51  1  0.12335000  0.05988000  0.72974000  1.0
  O  O52  1  0.62335000  0.72974000  0.05988000  1.0
  O  O53  1  0.87665000  0.94012000  0.27026000  1.0
  O  O54  1  0.48656000  0.95622000  0.16231000  1.0
  O  O55  1  0.01343000  0.83769000  0.04378000  1.0
  O  O56  1  0.51343000  0.04378000  0.83769000  1.0
  O  O57  1  0.98657000  0.16231000  0.95622000  1.0
  O  O58  1  0.21168000  0.96831000  0.21440000  1.0
  O  O59  1  0.28832000  0.78560000  0.03169000  1.0
  O  O60  1  0.78832000  0.03169000  0.78560000  1.0
  O  O61  1  0.71168000  0.21440000  0.96831000  1.0
  F  F62  1  0.24698000  0.01588000  0.46875000  1.0
  F  F63  1  0.25302000  0.53125000  0.98411000  1.0
  F  F64  1  0.75302000  0.98411000  0.53125000  1.0
  F  F65  1  0.74698000  0.46876000  0.01588000  1.0
  F  F66  1  0.56335000  0.66605000  0.37653000  1.0
  F  F67  1  0.93665000  0.62347000  0.33396000  1.0
  F  F68  1  0.43665000  0.33395000  0.62347000  1.0
  F  F69  1  0.06335000  0.37653000  0.66605000  1.0
