# generated using pymatgen
data_ZnH8C17S4N(O8F)2
_symmetry_space_group_name_H-M   'P 1'
_cell_length_a   14.52770000
_cell_length_b   15.70790000
_cell_length_c   15.96770000
_cell_angle_alpha   87.39010000
_cell_angle_beta   89.29480000
_cell_angle_gamma   87.63760000
_symmetry_Int_Tables_number   1
_chemical_formula_structural   ZnH8C17S4N(O8F)2
_chemical_formula_sum   'Zn2 H16 C34 S8 N2 O32 F4'
_cell_volume   3636.75171946
_cell_formula_units_Z   2
loop_
 _symmetry_equiv_pos_site_id
 _symmetry_equiv_pos_as_xyz
  1  'x, y, z'
loop_
 _atom_site_type_symbol
 _atom_site_label
 _atom_site_symmetry_multiplicity
 _atom_site_fract_x
 _atom_site_fract_y
 _atom_site_fract_z
 _atom_site_occupancy
  Zn  Zn0  1  0.41064000  0.52704000  0.50867000  1.0
  Zn  Zn1  1  0.60457000  0.48883000  0.50980000  1.0
  H  H2  1  0.06930000  0.62893000  0.54714000  1.0
  H  H3  1  0.72978000  0.06391000  0.59668000  1.0
  H  H4  1  0.29189000  0.19589000  0.37392000  1.0
  H  H5  1  0.61986000  0.08743000  0.28636000  1.0
  H  H6  1  0.42338000  0.59718000  0.23312000  1.0
  H  H7  1  0.55959000  0.30919000  0.20366000  1.0
  H  H8  1  0.79461000  0.37733000  0.36580000  1.0
  H  H9  1  0.29113000  0.36621000  0.52603000  1.0
  H  H10  1  0.89931000  0.60516000  0.54955000  1.0
  H  H11  1  0.60834000  0.11611000  0.46281000  1.0
  H  H12  1  0.33461000  0.04997000  0.55084000  1.0
  H  H13  1  0.63549000  0.97626000  0.43480000  1.0
  H  H14  1  0.37398000  0.91348000  0.52833000  1.0
  H  H15  1  0.40539000  0.58573000  0.94051000  1.0
  H  H16  1  0.61818000  0.38491000  0.92759000  1.0
  H  H17  1  0.56263000  0.92255000  0.69811000  1.0
  C  C18  1  0.51271000  0.51100000  0.66836000  1.0
  C  C19  1  0.57162000  0.42545000  0.96379000  1.0
  C  C20  1  0.45171000  0.53810000  0.97114000  1.0
  C  C21  1  0.51274000  0.48744000  0.92312000  1.0
  C  C22  1  0.51195000  0.45991000  0.18813000  1.0
  C  C23  1  0.45582000  0.34452000  0.52209000  1.0
  C  C24  1  0.51344000  0.49773000  0.83479000  1.0
  C  C25  1  0.51264000  0.50608000  0.75868000  1.0
  C  C26  1  0.51606000  0.45862000  0.26430000  1.0
  C  C27  1  0.07316000  0.42424000  0.47700000  1.0
  C  C28  1  0.97845000  0.41703000  0.46568000  1.0
  C  C29  1  0.47168000  0.95648000  0.40220000  1.0
  C  C30  1  0.10349000  0.50306000  0.50346000  1.0
  C  C31  1  0.91750000  0.48145000  0.49565000  1.0
  C  C32  1  0.04232000  0.56951000  0.52719000  1.0
  C  C33  1  0.94865000  0.55707000  0.52713000  1.0
  C  C34  1  0.19827000  0.52135000  0.50452000  1.0
  C  C35  1  0.82107000  0.47083000  0.49989000  1.0
  C  C36  1  0.52062000  0.47200000  0.35289000  1.0
  C  C37  1  0.53405000  0.66696000  0.48273000  1.0
  C  C38  1  0.40867000  0.03895000  0.55965000  1.0
  C  C39  1  0.56974000  0.07419000  0.50552000  1.0
  C  C40  1  0.43618000  0.05239000  0.40258000  1.0
  C  C41  1  0.59939000  0.98060000  0.49532000  1.0
  C  C42  1  0.43402000  0.94271000  0.55495000  1.0
  C  C43  1  0.54374000  0.75824000  0.47790000  1.0
  C  C44  1  0.46330000  0.08947000  0.48914000  1.0
  C  C45  1  0.51408000  0.92484000  0.49041000  1.0
  C  C46  1  0.53653000  0.83470000  0.48450000  1.0
  C  C47  1  0.44560000  0.18013000  0.49693000  1.0
  C  C48  1  0.44650000  0.25484000  0.51248000  1.0
  C  C49  1  0.44984000  0.52698000  0.05778000  1.0
  C  C50  1  0.57021000  0.41604000  0.05053000  1.0
  C  C51  1  0.51010000  0.46674000  0.09993000  1.0
  S  S52  1  0.43024000  0.88600000  0.65918000  1.0
  S  S53  1  0.69369000  0.93985000  0.56293000  1.0
  S  S54  1  0.30367000  0.05846000  0.38536000  1.0
  S  S55  1  0.47768000  0.11629000  0.30702000  1.0
  S  S56  1  0.36248000  0.58645000  0.11360000  1.0
  S  S57  1  0.64900000  0.33882000  0.09953000  1.0
  S  S58  1  0.92912000  0.33134000  0.40927000  1.0
  S  S59  1  0.15465000  0.33161000  0.47322000  1.0
  N  N60  1  0.74242000  0.46478000  0.51005000  1.0
  N  N61  1  0.27286000  0.54513000  0.50267000  1.0
  O  O62  1  0.43452000  0.51813000  0.63307000  1.0
  O  O63  1  0.46278000  0.79957000  0.64849000  1.0
  O  O64  1  0.49740000  0.93212000  0.71735000  1.0
  O  O65  1  0.66290000  0.92337000  0.64832000  1.0
  O  O66  1  0.74410000  0.87552000  0.51922000  1.0
  O  O67  1  0.75711000  0.02072000  0.55996000  1.0
  O  O68  1  0.29012000  0.05362000  0.29727000  1.0
  O  O69  1  0.26242000  0.00104000  0.44549000  1.0
  O  O70  1  0.27706000  0.15060000  0.41629000  1.0
  O  O71  1  0.47007000  0.06972000  0.23290000  1.0
  O  O72  1  0.43689000  0.20039000  0.31534000  1.0
  O  O73  1  0.59156000  0.50617000  0.63259000  1.0
  O  O74  1  0.58623000  0.12388000  0.32576000  1.0
  O  O75  1  0.32624000  0.65216000  0.05682000  1.0
  O  O76  1  0.30507000  0.52596000  0.15690000  1.0
  O  O77  1  0.41960000  0.63423000  0.18182000  1.0
  O  O78  1  0.68710000  0.28595000  0.03606000  1.0
  O  O79  1  0.70597000  0.38196000  0.15571000  1.0
  O  O80  1  0.58081000  0.27887000  0.15387000  1.0
  O  O81  1  0.99825000  0.29897000  0.35382000  1.0
  O  O82  1  0.87641000  0.27957000  0.46699000  1.0
  O  O83  1  0.85879000  0.38960000  0.35148000  1.0
  O  O84  1  0.38207000  0.39353000  0.51738000  1.0
  O  O85  1  0.10129000  0.26160000  0.50322000  1.0
  O  O86  1  0.20209000  0.33208000  0.39347000  1.0
  O  O87  1  0.22070000  0.35436000  0.54379000  1.0
  O  O88  1  0.53560000  0.37010000  0.53191000  1.0
  O  O89  1  0.44683000  0.50238000  0.38579000  1.0
  O  O90  1  0.59745000  0.45479000  0.38846000  1.0
  O  O91  1  0.45054000  0.64617000  0.49122000  1.0
  O  O92  1  0.60529000  0.61742000  0.47948000  1.0
  O  O93  1  0.33881000  0.90576000  0.68898000  1.0
  F  F94  1  0.42799000  0.07233000  0.63635000  1.0
  F  F95  1  0.58933000  0.09953000  0.58688000  1.0
  F  F96  1  0.40353000  0.90463000  0.38124000  1.0
  F  F97  1  0.53970000  0.94572000  0.34155000  1.0
