# generated using pymatgen
data_ZnH14C26N3O4
_symmetry_space_group_name_H-M   'P 1'
_cell_length_a   14.69250000
_cell_length_b   15.73600000
_cell_length_c   19.32540000
_cell_angle_alpha   90.14480000
_cell_angle_beta   105.66800000
_cell_angle_gamma   98.36100000
_symmetry_Int_Tables_number   1
_chemical_formula_structural   ZnH14C26N3O4
_chemical_formula_sum   'Zn2 H28 C52 N6 O8'
_cell_volume   4252.21158796
_cell_formula_units_Z   2
loop_
 _symmetry_equiv_pos_site_id
 _symmetry_equiv_pos_as_xyz
  1  'x, y, z'
loop_
 _atom_site_type_symbol
 _atom_site_label
 _atom_site_symmetry_multiplicity
 _atom_site_fract_x
 _atom_site_fract_y
 _atom_site_fract_z
 _atom_site_occupancy
  Zn  Zn0  1  0.59381000  0.48271000  0.52056000  1.0
  Zn  Zn1  1  0.40576000  0.51606000  0.48168000  1.0
  H  H2  1  0.64529000  0.47919000  0.30945000  1.0
  H  H3  1  0.35879000  0.53393000  0.69332000  1.0
  H  H4  1  0.97692000  0.67020000  0.37420000  1.0
  H  H5  1  0.02227000  0.32804000  0.62610000  1.0
  H  H6  1  0.76567000  0.53747000  0.47849000  1.0
  H  H7  1  0.23511000  0.46472000  0.52593000  1.0
  H  H8  1  0.69358000  0.35160000  0.61200000  1.0
  H  H9  1  0.30577000  0.64583000  0.38838000  1.0
  H  H10  1  0.14272000  0.69157000  0.35828000  1.0
  H  H11  1  0.85664000  0.30625000  0.64183000  1.0
  H  H12  1  0.85905000  0.59537000  0.42971000  1.0
  H  H13  1  0.14049000  0.40378000  0.57132000  1.0
  H  H14  1  0.65286000  0.49658000  0.18184000  1.0
  H  H15  1  0.36534000  0.55117000  0.82383000  1.0
  H  H16  1  0.36703000  0.55944000  0.12413000  1.0
  H  H17  1  0.65604000  0.50066000  0.88235000  1.0
  H  H18  1  0.75332000  0.04913000  0.48243000  1.0
  H  H19  1  0.23879000  0.94712000  0.40087000  1.0
  H  H20  1  0.54005000  0.21948000  0.47915000  1.0
  H  H21  1  0.45747000  0.77834000  0.46752000  1.0
  H  H22  1  0.24629000  0.25033000  0.43553000  1.0
  H  H23  1  0.75192000  0.74766000  0.52013000  1.0
  H  H24  1  0.79835000  0.90474000  0.50575000  1.0
  H  H25  1  0.19635000  0.09212000  0.40771000  1.0
  H  H26  1  0.63233000  0.14510000  0.46318000  1.0
  H  H27  1  0.35996000  0.85115000  0.42173000  1.0
  H  H28  1  0.36085000  0.54160000  0.25199000  1.0
  H  H29  1  0.64852000  0.48469000  0.75154000  1.0
  C  C30  1  0.57183000  0.66226000  0.50479000  1.0
  C  C31  1  0.42838000  0.33610000  0.47963000  1.0
  C  C32  1  0.60105000  0.75547000  0.49406000  1.0
  C  C33  1  0.39695000  0.24224000  0.45966000  1.0
  C  C34  1  0.72332000  0.87692000  0.49659000  1.0
  C  C35  1  0.27186000  0.12010000  0.42297000  1.0
  C  C36  1  0.69829000  0.79028000  0.50459000  1.0
  C  C37  1  0.29882000  0.20724000  0.43847000  1.0
  C  C38  1  0.53109000  0.80803000  0.47402000  1.0
  C  C39  1  0.46555000  0.18943000  0.46236000  1.0
  C  C40  1  0.55424000  0.89681000  0.46562000  1.0
  C  C41  1  0.44036000  0.10017000  0.44662000  1.0
  C  C42  1  0.65300000  0.93209000  0.47847000  1.0
  C  C43  1  0.34110000  0.06467000  0.42798000  1.0
  C  C44  1  0.48238000  0.95325000  0.44873000  1.0
  C  C45  1  0.51131000  0.04350000  0.45292000  1.0
  C  C46  1  0.61038000  0.07606000  0.46417000  1.0
  C  C47  1  0.38258000  0.92042000  0.42863000  1.0
  C  C48  1  0.67818000  0.02258000  0.47485000  1.0
  C  C49  1  0.31470000  0.97385000  0.41699000  1.0
  C  C50  1  0.16017000  0.64080000  0.39567000  1.0
  C  C51  1  0.83943000  0.35781000  0.60524000  1.0
  C  C52  1  0.50018000  0.50284000  0.36478000  1.0
  C  C53  1  0.50048000  0.50215000  0.63689000  1.0
  C  C54  1  0.24961000  0.61656000  0.41172000  1.0
  C  C55  1  0.75005000  0.38210000  0.58950000  1.0
  C  C56  1  0.20951000  0.51379000  0.48915000  1.0
  C  C57  1  0.79076000  0.48699000  0.51387000  1.0
  C  C58  1  0.11576000  0.53303000  0.47614000  1.0
  C  C59  1  0.88420000  0.46714000  0.52608000  1.0
  C  C60  1  0.09048000  0.59908000  0.42734000  1.0
  C  C61  1  0.90929000  0.40028000  0.57408000  1.0
  C  C62  1  0.04646000  0.48855000  0.50942000  1.0
  C  C63  1  0.95346000  0.51161000  0.49273000  1.0
  C  C64  1  0.93059000  0.57783000  0.44330000  1.0
  C  C65  1  0.06917000  0.42174000  0.55821000  1.0
  C  C66  1  0.99622000  0.62010000  0.41189000  1.0
  C  C67  1  0.00337000  0.37897000  0.58919000  1.0
  C  C68  1  0.58508000  0.49686000  0.26820000  1.0
  C  C69  1  0.42319000  0.52642000  0.73537000  1.0
  C  C70  1  0.58913000  0.50627000  0.19758000  1.0
  C  C71  1  0.42682000  0.53589000  0.80762000  1.0
  C  C72  1  0.51058000  0.52953000  0.14532000  1.0
  C  C73  1  0.51118000  0.52726000  0.86109000  1.0
  C  C74  1  0.42766000  0.54166000  0.16491000  1.0
  C  C75  1  0.59098000  0.50750000  0.84071000  1.0
  C  C76  1  0.42421000  0.53206000  0.23567000  1.0
  C  C77  1  0.58692000  0.49857000  0.76830000  1.0
  C  C78  1  0.50304000  0.51028000  0.28796000  1.0
  C  C79  1  0.50334000  0.50853000  0.71503000  1.0
  C  C80  1  0.51594000  0.54010000  0.93729000  1.0
  C  C81  1  0.51555000  0.54139000  0.07111000  1.0
  N  N82  1  0.43947000  0.56542000  0.02231000  1.0
  N  N83  1  0.59930000  0.53504000  0.98752000  1.0
  N  N84  1  0.43976000  0.56497000  0.95434000  1.0
  N  N85  1  0.59918000  0.53590000  0.05557000  1.0
  N  N86  1  0.27331000  0.55346000  0.45804000  1.0
  N  N87  1  0.72681000  0.44647000  0.54445000  1.0
  O  O88  1  0.63674000  0.61425000  0.51947000  1.0
  O  O89  1  0.36410000  0.38473000  0.46867000  1.0
  O  O90  1  0.48311000  0.63759000  0.49797000  1.0
  O  O91  1  0.51791000  0.36046000  0.50596000  1.0
  O  O92  1  0.57465000  0.48402000  0.40970000  1.0
  O  O93  1  0.42102000  0.50741000  0.59115000  1.0
  O  O94  1  0.42384000  0.51682000  0.37911000  1.0
  O  O95  1  0.57821000  0.49287000  0.62247000  1.0
