# generated using pymatgen
data_Zn2H22C19(NO4)2
_symmetry_space_group_name_H-M   'P 1'
_cell_length_a   9.82940000
_cell_length_b   10.93880000
_cell_length_c   11.31260000
_cell_angle_alpha   89.85950000
_cell_angle_beta   85.62600000
_cell_angle_gamma   75.47080000
_symmetry_Int_Tables_number   1
_chemical_formula_structural   Zn2H22C19(NO4)2
_chemical_formula_sum   'Zn2 H22 C19 N2 O8'
_cell_volume   1173.84782711
_cell_formula_units_Z   1
loop_
 _symmetry_equiv_pos_site_id
 _symmetry_equiv_pos_as_xyz
  1  'x, y, z'
loop_
 _atom_site_type_symbol
 _atom_site_label
 _atom_site_symmetry_multiplicity
 _atom_site_fract_x
 _atom_site_fract_y
 _atom_site_fract_z
 _atom_site_occupancy
  Zn  Zn0  1  0.35845000  0.53925000  0.48410000  1.0
  Zn  Zn1  1  0.64261000  0.47009000  0.51285000  1.0
  H  H2  1  0.34454000  0.93691000  0.37572000  1.0
  H  H3  1  0.68354000  0.07094000  0.60116000  1.0
  H  H4  1  0.43314000  0.91085000  0.68341000  1.0
  H  H5  1  0.42574000  0.12545000  0.68555000  1.0
  H  H6  1  0.62233000  0.48801000  0.89754000  1.0
  H  H7  1  0.37951000  0.53081000  0.10145000  1.0
  H  H8  1  0.29951000  0.54407000  0.89195000  1.0
  H  H9  1  0.70288000  0.47274000  0.10366000  1.0
  H  H10  1  0.12885000  0.42386000  0.56450000  1.0
  H  H11  1  0.87252000  0.58300000  0.42927000  1.0
  H  H12  1  0.09287000  0.63825000  0.40440000  1.0
  H  H13  1  0.90792000  0.37185000  0.59325000  1.0
  H  H14  1  0.53028000  0.10396000  0.30852000  1.0
  H  H15  1  0.35162000  0.14674000  0.36448000  1.0
  H  H16  1  0.29589000  0.93913000  0.58692000  1.0
  H  H17  1  0.29082000  0.15467000  0.58678000  1.0
  H  H18  1  0.68536000  0.85658000  0.59964000  1.0
  H  H19  1  0.72823000  0.84964000  0.44591000  1.0
  H  H20  1  0.72273000  0.06433000  0.44686000  1.0
  H  H21  1  0.49561000  0.91993000  0.18720000  1.0
  H  H22  1  0.64949000  0.87750000  0.26532000  1.0
  H  H23  1  0.53406000  0.77535000  0.26446000  1.0
  C  C24  1  0.56469000  0.49441000  0.26802000  1.0
  C  C25  1  0.50050000  0.12397000  0.49982000  1.0
  C  C26  1  0.39702000  0.09634000  0.59977000  1.0
  C  C27  1  0.64944000  0.04288000  0.51734000  1.0
  C  C28  1  0.59238000  0.49235000  0.13732000  1.0
  C  C29  1  0.48829000  0.51190000  0.06268000  1.0
  C  C30  1  0.41059000  0.52392000  0.85992000  1.0
  C  C31  1  0.51326000  0.50726000  0.93573000  1.0
  C  C32  1  0.92623000  0.50963000  0.48828000  1.0
  C  C33  1  0.07497000  0.49847000  0.50680000  1.0
  C  C34  1  0.50173000  0.74487000  0.49701000  1.0
  C  C35  1  0.44203000  0.51649000  0.72947000  1.0
  C  C36  1  0.49608000  0.26478000  0.49920000  1.0
  C  C37  1  0.45397000  0.94416000  0.37808000  1.0
  C  C38  1  0.45575000  0.08586000  0.38018000  1.0
  C  C39  1  0.40051000  0.95398000  0.59871000  1.0
  C  C40  1  0.65186000  0.90106000  0.51593000  1.0
  C  C41  1  0.50465000  0.88390000  0.49690000  1.0
  C  C42  1  0.53817000  0.87476000  0.26810000  1.0
  N  N43  1  0.85416000  0.43848000  0.53804000  1.0
  N  N44  1  0.14691000  0.57051000  0.45848000  1.0
  O  O45  1  0.43627000  0.51815000  0.31029000  1.0
  O  O46  1  0.67262000  0.47198000  0.32841000  1.0
  O  O47  1  0.38295000  0.72036000  0.48700000  1.0
  O  O48  1  0.61753000  0.66281000  0.50730000  1.0
  O  O49  1  0.33558000  0.53923000  0.66698000  1.0
  O  O50  1  0.57111000  0.48828000  0.68943000  1.0
  O  O51  1  0.37704000  0.34300000  0.49130000  1.0
  O  O52  1  0.61274000  0.29436000  0.50573000  1.0
