# generated using pymatgen
data_MnH15C21(NO4)2
_symmetry_space_group_name_H-M   'P 1'
_cell_length_a   8.93312000
_cell_length_b   11.35130000
_cell_length_c   11.55324780
_cell_angle_alpha   109.28898661
_cell_angle_beta   102.25949594
_cell_angle_gamma   112.46600000
_symmetry_Int_Tables_number   1
_chemical_formula_structural   MnH15C21(NO4)2
_chemical_formula_sum   'Mn2 H30 C42 N4 O16'
_cell_volume   941.71999093
_cell_formula_units_Z   2
loop_
 _symmetry_equiv_pos_site_id
 _symmetry_equiv_pos_as_xyz
  1  'x, y, z'
loop_
 _atom_site_type_symbol
 _atom_site_label
 _atom_site_symmetry_multiplicity
 _atom_site_fract_x
 _atom_site_fract_y
 _atom_site_fract_z
 _atom_site_occupancy
  Mn  Mn0  1  0.01626000  0.01832000  0.37296000  1.0
  Mn  Mn1  1  0.97886000  0.98285000  0.61455000  1.0
  H  H2  1  0.44043000  0.71757000  0.11678000  1.0
  H  H3  1  0.56009000  0.28588000  0.90063000  1.0
  H  H4  1  0.43665000  0.86890000  0.50989000  1.0
  H  H5  1  0.54977000  0.12397000  0.50354000  1.0
  H  H6  1  0.11451000  0.61074000  0.02145000  1.0
  H  H7  1  0.88539000  0.39499000  0.98978000  1.0
  H  H8  1  0.96955000  0.47640000  0.28564000  1.0
  H  H9  1  0.02402000  0.51908000  0.71381000  1.0
  H  H10  1  0.61871000  0.60791000  0.12130000  1.0
  H  H11  1  0.37558000  0.39335000  0.88763000  1.0
  H  H12  1  0.76197000  0.36173000  0.37782000  1.0
  H  H13  1  0.23532000  0.63441000  0.62481000  1.0
  H  H14  1  0.40793000  0.49039000  0.21290000  1.0
  H  H15  1  0.59011000  0.51114000  0.79909000  1.0
  H  H16  1  0.34768000  0.05803000  0.27974000  1.0
  H  H17  1  0.65742000  0.95683000  0.69901000  1.0
  H  H18  1  0.80779000  0.80223000  0.03566000  1.0
  H  H19  1  0.20009000  0.18106000  0.93194000  1.0
  H  H20  1  0.99754000  0.79800000  0.87513000  1.0
  H  H21  1  0.01938000  0.17929000  0.10002000  1.0
  H  H22  1  0.21373000  0.92061000  0.83086000  1.0
  H  H23  1  0.80084000  0.07777000  0.15167000  1.0
  H  H24  1  0.55172000  0.02191000  0.21875000  1.0
  H  H25  1  0.46017000  0.97018000  0.76148000  1.0
  H  H26  1  0.41317000  0.25912000  0.47034000  1.0
  H  H27  1  0.58812000  0.74523000  0.54364000  1.0
  H  H28  1  0.95924000  0.22470000  0.38332000  1.0
  H  H29  1  0.03589000  0.78627000  0.61809000  1.0
  H  H30  1  0.13720000  0.26799000  0.34982000  1.0
  H  H31  1  0.86072000  0.75808000  0.65848000  1.0
  C  C32  1  0.65493000  0.85577000  0.38021000  1.0
  C  C33  1  0.33814000  0.14480000  0.63224000  1.0
  C  C34  1  0.46170000  0.79600000  0.32097000  1.0
  C  C35  1  0.53080000  0.20058000  0.69442000  1.0
  C  C36  1  0.36943000  0.72684000  0.18218000  1.0
  C  C37  1  0.62715000  0.27376000  0.83263000  1.0
  C  C38  1  0.36818000  0.81184000  0.40239000  1.0
  C  C39  1  0.62199000  0.18301000  0.61079000  1.0
  C  C40  1  0.18731000  0.76009000  0.35048000  1.0
  C  C41  1  0.80349000  0.23598000  0.65962000  1.0
  C  C42  1  0.09636000  0.68221000  0.21186000  1.0
  C  C43  1  0.89805000  0.31900000  0.79770000  1.0
  C  C44  1  0.18803000  0.66821000  0.12848000  1.0
  C  C45  1  0.80919000  0.33457000  0.88314000  1.0
  C  C46  1  0.10801000  0.79215000  0.45084000  1.0
  C  C47  1  0.88259000  0.20490000  0.55822000  1.0
  C  C48  1  0.84639000  0.47906000  0.26950000  1.0
  C  C49  1  0.14815000  0.51788000  0.73277000  1.0
  C  C50  1  0.80631000  0.55158000  0.20129000  1.0
  C  C51  1  0.18805000  0.44810000  0.80428000  1.0
  C  C52  1  0.64622000  0.55201000  0.17619000  1.0
  C  C53  1  0.34863000  0.44818000  0.83135000  1.0
  C  C54  1  0.73009000  0.41504000  0.32128000  1.0
  C  C55  1  0.26647000  0.58182000  0.68238000  1.0
  C  C56  1  0.57369000  0.42175000  0.30327000  1.0
  C  C57  1  0.42525000  0.57846000  0.70506000  1.0
  C  C58  1  0.53087000  0.48762000  0.22757000  1.0
  C  C59  1  0.46643000  0.51297000  0.78170000  1.0
  C  C60  1  0.45249000  0.36497000  0.36429000  1.0
  C  C61  1  0.55111000  0.64252000  0.65051000  1.0
  C  C62  1  0.22555000  0.98716000  0.19336000  1.0
  C  C63  1  0.78065000  0.01697000  0.78353000  1.0
  C  C64  1  0.94876000  0.85481000  0.06311000  1.0
  C  C65  1  0.06014000  0.13390000  0.90854000  1.0
  C  C66  1  0.04086000  0.85073000  0.98224000  1.0
  C  C67  1  0.97242000  0.13371000  0.99258000  1.0
  C  C68  1  0.36427000  0.96660000  0.02877000  1.0
  C  C69  1  0.64940000  0.02714000  0.95155000  1.0
  C  C70  1  0.34126000  0.95190000  0.90048000  1.0
  C  C71  1  0.67237000  0.04212000  0.08006000  1.0
  C  C72  1  0.53038000  0.01171000  0.11878000  1.0
  C  C73  1  0.48267000  0.98113000  0.86158000  1.0
  N  N74  1  0.06520000  0.94018000  0.19464000  1.0
  N  N75  1  0.93906000  0.06074000  0.77774000  1.0
  N  N76  1  0.21761000  0.93613000  0.06640000  1.0
  N  N77  1  0.79428000  0.05792000  0.91201000  1.0
  O  O78  1  0.74299000  0.89167000  0.31321000  1.0
  O  O79  1  0.23968000  0.09815000  0.69089000  1.0
  O  O80  1  0.72141000  0.86998000  0.49934000  1.0
  O  O81  1  0.28246000  0.14478000  0.51939000  1.0
  O  O82  1  0.02179000  0.86010000  0.44378000  1.0
  O  O83  1  0.97274000  0.13915000  0.56050000  1.0
  O  O84  1  0.13960000  0.75531000  0.54104000  1.0
  O  O85  1  0.85154000  0.24480000  0.47052000  1.0
  O  O86  1  0.91647000  0.62210000  0.15056000  1.0
  O  O87  1  0.07881000  0.38187000  0.85782000  1.0
  O  O88  1  0.31946000  0.37858000  0.35389000  1.0
  O  O89  1  0.69500000  0.64489000  0.67237000  1.0
  O  O90  1  0.49881000  0.30002000  0.43105000  1.0
  O  O91  1  0.49775000  0.69827000  0.57609000  1.0
  O  O92  1  0.01874000  0.18783000  0.32603000  1.0
  O  O93  1  0.97657000  0.83306000  0.67000000  1.0
