# generated using pymatgen
data_CdH4C8(SN2)2
_symmetry_space_group_name_H-M   'P 1'
_cell_length_a   8.12367000
_cell_length_b   10.06970000
_cell_length_c   15.22560000
_cell_angle_alpha   106.81000000
_cell_angle_beta   90.00390000
_cell_angle_gamma   113.77800000
_symmetry_Int_Tables_number   1
_chemical_formula_structural   CdH4C8(SN2)2
_chemical_formula_sum   'Cd4 H16 C32 S8 N16'
_cell_volume   1081.35010063
_cell_formula_units_Z   4
loop_
 _symmetry_equiv_pos_site_id
 _symmetry_equiv_pos_as_xyz
  1  'x, y, z'
loop_
 _atom_site_type_symbol
 _atom_site_label
 _atom_site_symmetry_multiplicity
 _atom_site_fract_x
 _atom_site_fract_y
 _atom_site_fract_z
 _atom_site_occupancy
  Cd  Cd0  1  0.77991000  0.75259000  0.82422000  1.0
  Cd  Cd1  1  0.97254000  0.75219000  0.32416000  1.0
  Cd  Cd2  1  0.22008000  0.24740000  0.17577000  1.0
  Cd  Cd3  1  0.02745000  0.24780000  0.67584000  1.0
  H  H4  1  0.23958000  0.00393000  0.50661000  1.0
  H  H5  1  0.76431000  0.00420000  0.00672000  1.0
  H  H6  1  0.76041000  0.99608000  0.49339000  1.0
  H  H7  1  0.23568000  0.99579000  0.99328000  1.0
  H  H8  1  0.43328000  0.03002000  0.64399000  1.0
  H  H9  1  0.59653000  0.03004000  0.14403000  1.0
  H  H10  1  0.56671000  0.96999000  0.35601000  1.0
  H  H11  1  0.40346000  0.96996000  0.85596000  1.0
  H  H12  1  0.27853000  0.54116000  0.53416000  1.0
  H  H13  1  0.26275000  0.54116000  0.03398000  1.0
  H  H14  1  0.72150000  0.45885000  0.46584000  1.0
  H  H15  1  0.73724000  0.45884000  0.96602000  1.0
  H  H16  1  0.08896000  0.53755000  0.40232000  1.0
  H  H17  1  0.44883000  0.53781000  0.90217000  1.0
  H  H18  1  0.91105000  0.46246000  0.59768000  1.0
  H  H19  1  0.55118000  0.46218000  0.09783000  1.0
  C  C20  1  0.47356000  0.42113000  0.68885000  1.0
  C  C21  1  0.94754000  0.42071000  0.18883000  1.0
  C  C22  1  0.52645000  0.57887000  0.31115000  1.0
  C  C23  1  0.05245000  0.57929000  0.81116000  1.0
  C  C24  1  0.03605000  0.11825000  0.85802000  1.0
  C  C25  1  0.08152000  0.11770000  0.35778000  1.0
  C  C26  1  0.96394000  0.88174000  0.14199000  1.0
  C  C27  1  0.91848000  0.88229000  0.64222000  1.0
  C  C28  1  0.46803000  0.79324000  0.67879000  1.0
  C  C29  1  0.32500000  0.79303000  0.17865000  1.0
  C  C30  1  0.53198000  0.20676000  0.32122000  1.0
  C  C31  1  0.67499000  0.20696000  0.82135000  1.0
  C  C32  1  0.25234000  0.90497000  0.51582000  1.0
  C  C33  1  0.65256000  0.90519000  0.01583000  1.0
  C  C34  1  0.74766000  0.09503000  0.48418000  1.0
  C  C35  1  0.34743000  0.09481000  0.98417000  1.0
  C  C36  1  0.35992000  0.91904000  0.59189000  1.0
  C  C37  1  0.55907000  0.91909000  0.09191000  1.0
  C  C38  1  0.64008000  0.08096000  0.40811000  1.0
  C  C39  1  0.44092000  0.08091000  0.90808000  1.0
  C  C40  1  0.36842000  0.78638000  0.59952000  1.0
  C  C41  1  0.41783000  0.78636000  0.09941000  1.0
  C  C42  1  0.63158000  0.21362000  0.40048000  1.0
  C  C43  1  0.58216000  0.21363000  0.90058000  1.0
  C  C44  1  0.27279000  0.64571000  0.53046000  1.0
  C  C45  1  0.37293000  0.64577000  0.03029000  1.0
  C  C46  1  0.72723000  0.35430000  0.46954000  1.0
  C  C47  1  0.62707000  0.35423000  0.96970000  1.0
  C  C48  1  0.16799000  0.64357000  0.45752000  1.0
  C  C49  1  0.47569000  0.64378000  0.95737000  1.0
  C  C50  1  0.83202000  0.35644000  0.54248000  1.0
  C  C51  1  0.52431000  0.35622000  0.04263000  1.0
  S  S52  1  0.33333333  0.31308000  0.59363000  1.0
  S  S53  1  0.97977000  0.31290000  0.09352000  1.0
  S  S54  1  0.66666667  0.68691000  0.40637000  1.0
  S  S55  1  0.02023000  0.68711000  0.90649000  1.0
  S  S56  1  0.19115000  0.26113000  0.83349000  1.0
  S  S57  1  0.06920000  0.26055000  0.33324000  1.0
  S  S58  1  0.80884000  0.73887000  0.16651000  1.0
  S  S59  1  0.93080000  0.73945000  0.66677000  1.0
  N  N60  1  0.57634000  0.49839000  0.75762000  1.0
  N  N61  1  0.92213000  0.49798000  0.25765000  1.0
  N  N62  1  0.42366000  0.50161000  0.24237000  1.0
  N  N63  1  0.07786000  0.50203000  0.74236000  1.0
  N  N64  1  0.92582000  0.01543000  0.87813000  1.0
  N  N65  1  0.08892000  0.01496000  0.37803000  1.0
  N  N66  1  0.07419000  0.98458000  0.12187000  1.0
  N  N67  1  0.91108000  0.98503000  0.62197000  1.0
  N  N68  1  0.54535000  0.79895000  0.74512000  1.0
  N  N69  1  0.25349000  0.79868000  0.24504000  1.0
  N  N70  1  0.45465000  0.20105000  0.25487000  1.0
  N  N71  1  0.74650000  0.20132000  0.75496000  1.0
  N  N72  1  0.15707000  0.76983000  0.45065000  1.0
  N  N73  1  0.61287000  0.77012000  0.95062000  1.0
  N  N74  1  0.84294000  0.23017000  0.54935000  1.0
  N  N75  1  0.38713000  0.22987000  0.04938000  1.0
