# generated using pymatgen
data_ZnH13C26N(O2F)3
_symmetry_space_group_name_H-M   'P 1'
_cell_length_a   13.55430000
_cell_length_b   17.55164120
_cell_length_c   19.63510000
_cell_angle_alpha   88.38116689
_cell_angle_beta   89.95200000
_cell_angle_gamma   70.51995779
_symmetry_Int_Tables_number   1
_chemical_formula_structural   ZnH13C26N(O2F)3
_chemical_formula_sum   'Zn2 H26 C52 N2 O12 F6'
_cell_volume   4401.86432875
_cell_formula_units_Z   2
loop_
 _symmetry_equiv_pos_site_id
 _symmetry_equiv_pos_as_xyz
  1  'x, y, z'
loop_
 _atom_site_type_symbol
 _atom_site_label
 _atom_site_symmetry_multiplicity
 _atom_site_fract_x
 _atom_site_fract_y
 _atom_site_fract_z
 _atom_site_occupancy
  Zn  Zn0  1  0.06034000  0.41757000  0.50185000  1.0
  Zn  Zn1  1  0.93743000  0.58163000  0.49688000  1.0
  H  H2  1  0.17858000  0.67838000  0.57781000  1.0
  H  H3  1  0.16724000  0.41417000  0.71189000  1.0
  H  H4  1  0.00651000  0.39124000  0.94002000  1.0
  H  H5  1  0.00340000  0.39280000  0.06664000  1.0
  H  H6  1  0.93460000  0.63155000  0.15312000  1.0
  H  H7  1  0.91986000  0.62799000  0.27955000  1.0
  H  H8  1  0.10802000  0.37718000  0.28685000  1.0
  H  H9  1  0.53566000  0.65030000  0.61616000  1.0
  H  H10  1  0.12541000  0.37993000  0.16034000  1.0
  H  H11  1  0.25629000  0.34173000  0.57814000  1.0
  H  H12  1  0.40519000  0.21055000  0.58210000  1.0
  H  H13  1  0.25451000  0.13442000  0.41574000  1.0
  H  H14  1  0.11337000  0.26975000  0.41832000  1.0
  H  H15  1  0.43581000  0.07337000  0.39059000  1.0
  H  H16  1  0.57099000  0.93287000  0.61143000  1.0
  H  H17  1  0.90587000  0.73765000  0.56545000  1.0
  H  H18  1  0.72442000  0.65533000  0.43574000  1.0
  H  H19  1  0.57865000  0.78886000  0.43556000  1.0
  H  H20  1  0.82666000  0.31184000  0.46124000  1.0
  H  H21  1  0.49352000  0.36766000  0.47066000  1.0
  H  H22  1  0.66631000  0.27294000  0.44425000  1.0
  H  H23  1  0.70599000  0.56041000  0.57667000  1.0
  H  H24  1  0.87526000  0.59349000  0.90244000  1.0
  H  H25  1  0.25421000  0.37688000  0.81430000  1.0
  H  H26  1  0.08040000  0.61768000  0.88032000  1.0
  H  H27  1  0.63111000  0.88422000  0.38262000  1.0
  C  C28  1  0.00212000  0.50039000  0.36683000  1.0
  C  C29  1  0.54974000  0.46098000  0.50859000  1.0
  C  C30  1  0.64240000  0.47989000  0.52332000  1.0
  C  C31  1  0.44829000  0.51944000  0.52525000  1.0
  C  C32  1  0.44508000  0.58775000  0.56450000  1.0
  C  C33  1  0.54013000  0.59968000  0.58405000  1.0
  C  C34  1  0.63446000  0.54942000  0.56245000  1.0
  C  C35  1  0.35056000  0.51463000  0.50458000  1.0
  C  C36  1  0.25319000  0.63504000  0.56304000  1.0
  C  C37  1  0.74150000  0.42611000  0.50255000  1.0
  C  C38  1  0.93375000  0.55423000  0.74776000  1.0
  C  C39  1  0.83876000  0.44884000  0.50402000  1.0
  C  C40  1  0.94249000  0.55477000  0.81899000  1.0
  C  C41  1  0.03416000  0.50499000  0.85255000  1.0
  C  C42  1  0.11591000  0.45505000  0.81308000  1.0
  C  C43  1  0.10538000  0.45399000  0.74269000  1.0
  C  C44  1  0.01421000  0.50350000  0.70904000  1.0
  C  C45  1  0.02059000  0.44030000  0.96668000  1.0
  C  C46  1  0.01961000  0.44091000  0.03736000  1.0
  C  C47  1  0.03513000  0.50481000  0.07273000  1.0
  C  C48  1  0.05388000  0.56640000  0.03384000  1.0
  C  C49  1  0.05645000  0.56662000  0.96239000  1.0
  C  C50  1  0.00782000  0.49905000  0.63289000  1.0
  C  C51  1  0.03796000  0.50312000  0.92819000  1.0
  C  C52  1  0.97312000  0.57571000  0.18222000  1.0
  C  C53  1  0.96425000  0.57388000  0.25279000  1.0
  C  C54  1  0.01189000  0.50218000  0.29083000  1.0
  C  C55  1  0.06973000  0.43238000  0.25693000  1.0
  C  C56  1  0.07880000  0.43411000  0.18637000  1.0
  C  C57  1  0.02995000  0.50560000  0.14789000  1.0
  C  C58  1  0.25975000  0.29348000  0.54349000  1.0
  C  C59  1  0.34186000  0.22051000  0.54531000  1.0
  C  C60  1  0.34185000  0.16049000  0.49949000  1.0
  C  C61  1  0.15226000  0.55725000  0.50669000  1.0
  C  C62  1  0.25879000  0.17879000  0.45230000  1.0
  C  C63  1  0.17946000  0.25320000  0.45383000  1.0
  C  C64  1  0.46366000  0.04259000  0.43940000  1.0
  C  C65  1  0.54034000  0.96620000  0.43911000  1.0
  C  C66  1  0.58051000  0.92502000  0.50132000  1.0
  C  C67  1  0.54272000  0.96303000  0.56252000  1.0
  C  C68  1  0.46704000  0.03880000  0.56132000  1.0
  C  C69  1  0.42498000  0.08074000  0.50031000  1.0
  C  C70  1  0.75493000  0.82627000  0.53933000  1.0
  C  C71  1  0.83267000  0.75119000  0.53700000  1.0
  C  C72  1  0.34660000  0.64279000  0.58216000  1.0
  C  C73  1  0.73098000  0.70634000  0.46352000  1.0
  C  C74  1  0.65106000  0.78067000  0.46363000  1.0
  C  C75  1  0.66154000  0.84435000  0.50176000  1.0
  C  C76  1  0.25410000  0.56917000  0.52326000  1.0
  C  C77  1  0.74951000  0.35222000  0.47524000  1.0
  C  C78  1  0.65964000  0.33131000  0.46522000  1.0
  C  C79  1  0.56175000  0.38501000  0.48023000  1.0
  N  N80  1  0.17918000  0.30912000  0.49929000  1.0
  N  N81  1  0.82040000  0.69266000  0.49894000  1.0
  O  O82  1  0.03514000  0.43154000  0.39761000  1.0
  O  O83  1  0.96151000  0.56833000  0.39506000  1.0
  O  O84  1  0.92557000  0.39230000  0.51504000  1.0
  O  O85  1  0.82759000  0.52268000  0.49088000  1.0
  O  O86  1  0.06816000  0.43493000  0.60661000  1.0
  O  O87  1  0.94444000  0.55952000  0.60086000  1.0
  O  O88  1  0.15695000  0.48599000  0.49256000  1.0
  O  O89  1  0.06850000  0.61786000  0.51057000  1.0
  O  O90  1  0.85911000  0.60322000  0.85366000  1.0
  O  O91  1  0.20437000  0.40778000  0.84743000  1.0
  O  O92  1  0.07733000  0.62860000  0.92907000  1.0
  O  O93  1  0.57485000  0.93608000  0.37674000  1.0
  F  F94  1  0.07325000  0.62841000  0.06495000  1.0
  F  F95  1  0.43032000  0.07196000  0.62230000  1.0
  F  F96  1  0.77221000  0.88331000  0.57811000  1.0
  F  F97  1  0.34527000  0.70735000  0.62026000  1.0
  F  F98  1  0.35070000  0.45500000  0.46178000  1.0
  F  F99  1  0.84216000  0.60246000  0.71927000  1.0
