# generated using pymatgen
data_H18PbC24N6O7
_symmetry_space_group_name_H-M   'P 1'
_cell_length_a   14.55240000
_cell_length_b   14.55240000
_cell_length_c   15.88630000
_cell_angle_alpha   112.20700000
_cell_angle_beta   112.20700000
_cell_angle_gamma   91.76940000
_symmetry_Int_Tables_number   1
_chemical_formula_structural   H18PbC24N6O7
_chemical_formula_sum   'H72 Pb4 C96 N24 O28'
_cell_volume   2823.84446458
_cell_formula_units_Z   4
loop_
 _symmetry_equiv_pos_site_id
 _symmetry_equiv_pos_as_xyz
  1  'x, y, z'
loop_
 _atom_site_type_symbol
 _atom_site_label
 _atom_site_symmetry_multiplicity
 _atom_site_fract_x
 _atom_site_fract_y
 _atom_site_fract_z
 _atom_site_occupancy
  H  H0  1  0.09151000  0.14718000  0.47926000  1.0
  H  H1  1  0.35282000  0.40851000  0.02073000  1.0
  H  H2  1  0.90850000  0.85280000  0.52072000  1.0
  H  H3  1  0.64717000  0.59149000  0.97926000  1.0
  H  H4  1  0.09448000  0.16687000  0.64320000  1.0
  H  H5  1  0.33315000  0.40553000  0.85679000  1.0
  H  H6  1  0.90553000  0.83312000  0.35680000  1.0
  H  H7  1  0.66688000  0.59447000  0.14320000  1.0
  H  H8  1  0.77095000  0.06362000  0.50414000  1.0
  H  H9  1  0.43639000  0.72905000  0.99583000  1.0
  H  H10  1  0.22905000  0.93640000  0.49584000  1.0
  H  H11  1  0.56356000  0.27095000  0.00416000  1.0
  H  H12  1  0.76701000  0.04595000  0.33996000  1.0
  H  H13  1  0.45404000  0.73299000  0.16002000  1.0
  H  H14  1  0.23300000  0.95406000  0.66003000  1.0
  H  H15  1  0.54588000  0.26700000  0.83996000  1.0
  H  H16  1  0.82147000  0.95153000  0.22214000  1.0
  H  H17  1  0.54846000  0.67855000  0.27785000  1.0
  H  H18  1  0.17855000  0.04846000  0.77785000  1.0
  H  H19  1  0.45149000  0.32145000  0.72213000  1.0
  H  H20  1  0.75487000  0.85913000  0.04362000  1.0
  H  H21  1  0.64086000  0.74516000  0.45637000  1.0
  H  H22  1  0.24520000  0.14087000  0.95638000  1.0
  H  H23  1  0.35910000  0.25480000  0.54361000  1.0
  H  H24  1  0.74838000  0.84204000  0.87941000  1.0
  H  H25  1  0.65796000  0.75162000  0.62058000  1.0
  H  H26  1  0.25168000  0.15794000  0.12058000  1.0
  H  H27  1  0.34207000  0.24830000  0.37941000  1.0
  H  H28  1  0.85283000  0.97900000  0.87431000  1.0
  H  H29  1  0.52102000  0.64712000  0.62565000  1.0
  H  H30  1  0.14723000  0.02101000  0.12568000  1.0
  H  H31  1  0.47899000  0.35276000  0.37431000  1.0
  H  H32  1  0.95985000  0.12933000  0.03723000  1.0
  H  H33  1  0.37068000  0.54010000  0.46272000  1.0
  H  H34  1  0.04016000  0.87068000  0.96277000  1.0
  H  H35  1  0.62932000  0.45982000  0.53724000  1.0
  H  H36  1  0.30196000  0.71305000  0.36817000  1.0
  H  H37  1  0.78692000  0.19802000  0.13184000  1.0
  H  H38  1  0.69799000  0.28692000  0.63183000  1.0
  H  H39  1  0.21304000  0.80194000  0.86819000  1.0
  H  H40  1  0.30675000  0.88947000  0.37569000  1.0
  H  H41  1  0.61053000  0.19327000  0.12437000  1.0
  H  H42  1  0.69326000  0.11052000  0.62433000  1.0
  H  H43  1  0.38945000  0.80675000  0.87570000  1.0
  H  H44  1  0.23260000  0.91005000  0.21671000  1.0
  H  H45  1  0.58996000  0.26747000  0.28335000  1.0
  H  H46  1  0.76749000  0.08996000  0.78332000  1.0
  H  H47  1  0.41002000  0.73260000  0.71671000  1.0
  H  H48  1  0.15616000  0.75174000  0.05240000  1.0
  H  H49  1  0.74828000  0.34391000  0.44765000  1.0
  H  H50  1  0.84391000  0.24826000  0.94762000  1.0
  H  H51  1  0.25172000  0.65616000  0.55242000  1.0
  H  H52  1  0.09992000  0.57619000  0.96708000  1.0
  H  H53  1  0.92386000  0.40018000  0.53294000  1.0
  H  H54  1  0.90014000  0.42383000  0.03291000  1.0
  H  H55  1  0.07616000  0.59992000  0.46710000  1.0
  H  H56  1  0.05194000  0.46463000  0.83639000  1.0
  H  H57  1  0.03540000  0.44805000  0.66361000  1.0
  H  H58  1  0.94801000  0.53536000  0.16360000  1.0
  H  H59  1  0.96461000  0.55196000  0.33641000  1.0
  H  H60  1  0.95872000  0.31194000  0.68250000  1.0
  H  H61  1  0.18809000  0.54126000  0.81749000  1.0
  H  H62  1  0.04126000  0.68806000  0.31749000  1.0
  H  H63  1  0.81192000  0.45874000  0.18251000  1.0
  H  H64  1  0.01880000  0.12989000  0.84927000  1.0
  H  H65  1  0.37012000  0.48124000  0.65071000  1.0
  H  H66  1  0.98122000  0.87009000  0.15071000  1.0
  H  H67  1  0.62988000  0.51876000  0.34928000  1.0
  H  H68  1  0.11925000  0.28431000  0.00678000  1.0
  H  H69  1  0.21571000  0.38079000  0.49321000  1.0
  H  H70  1  0.88076000  0.71568000  0.99320000  1.0
  H  H71  1  0.78428000  0.61920000  0.50679000  1.0
  Pb  Pb72  1  0.03694000  0.23502000  0.29443000  1.0
  Pb  Pb73  1  0.26499000  0.46306000  0.20555000  1.0
  Pb  Pb74  1  0.96304000  0.76498000  0.70558000  1.0
  Pb  Pb75  1  0.73501000  0.53694000  0.79445000  1.0
  C  C76  1  0.02159000  0.12869000  0.48501000  1.0
  C  C77  1  0.37133000  0.47842000  0.01497000  1.0
  C  C78  1  0.97842000  0.87131000  0.51498000  1.0
  C  C79  1  0.62867000  0.52158000  0.98503000  1.0
  C  C80  1  0.02322000  0.13941000  0.57613000  1.0
  C  C81  1  0.36060000  0.47678000  0.92385000  1.0
  C  C82  1  0.97679000  0.86059000  0.42387000  1.0
  C  C83  1  0.63940000  0.52321000  0.07614000  1.0
  C  C84  1  0.93264000  0.11569000  0.58219000  1.0
  C  C85  1  0.38433000  0.56737000  0.91780000  1.0
  C  C86  1  0.06737000  0.88429000  0.41780000  1.0
  C  C87  1  0.61568000  0.43263000  0.08220000  1.0
  C  C88  1  0.84051000  0.08040000  0.49716000  1.0
  C  C89  1  0.41960000  0.65950000  0.00281000  1.0
  C  C90  1  0.15949000  0.91961000  0.50281000  1.0
  C  C91  1  0.58034000  0.34051000  0.99718000  1.0
  C  C92  1  0.83921000  0.06889000  0.40560000  1.0
  C  C93  1  0.43111000  0.66079000  0.09437000  1.0
  C  C94  1  0.16080000  0.93111000  0.59438000  1.0
  C  C95  1  0.56885000  0.33921000  0.90562000  1.0
  C  C96  1  0.92967000  0.09253000  0.39839000  1.0
  C  C97  1  0.40746000  0.57033000  0.10159000  1.0
  C  C98  1  0.07034000  0.90747000  0.60161000  1.0
  C  C99  1  0.59249000  0.42967000  0.89839000  1.0
  C  C100  1  0.86991000  0.01256000  0.22406000  1.0
  C  C101  1  0.48743000  0.63011000  0.27592000  1.0
  C  C102  1  0.13010000  0.98743000  0.77592000  1.0
  C  C103  1  0.51253000  0.36989000  0.72407000  1.0
  C  C104  1  0.86169000  0.00362000  0.12663000  1.0
  C  C105  1  0.49638000  0.63832000  0.37335000  1.0
  C  C106  1  0.13835000  0.99635000  0.87335000  1.0
  C  C107  1  0.50359000  0.36167000  0.62664000  1.0
  C  C108  1  0.79872000  0.91833000  0.03977000  1.0
  C  C109  1  0.58168000  0.70129000  0.46021000  1.0
  C  C110  1  0.20131000  0.08167000  0.96022000  1.0
  C  C111  1  0.41831000  0.29868000  0.53976000  1.0
  C  C112  1  0.79493000  0.90872000  0.94773000  1.0
  C  C113  1  0.59128000  0.70505000  0.55225000  1.0
  C  C114  1  0.20513000  0.09127000  0.05227000  1.0
  C  C115  1  0.40872000  0.29489000  0.44772000  1.0
  C  C116  1  0.85280000  0.98447000  0.94472000  1.0
  C  C117  1  0.51554000  0.64716000  0.55524000  1.0
  C  C118  1  0.14722000  0.01555000  0.05527000  1.0
  C  C119  1  0.48445000  0.35277000  0.44472000  1.0
  C  C120  1  0.91262000  0.06787000  0.03480000  1.0
  C  C121  1  0.43215000  0.58733000  0.46517000  1.0
  C  C122  1  0.08741000  0.93214000  0.96520000  1.0
  C  C123  1  0.56785000  0.41258000  0.53481000  1.0
  C  C124  1  0.27223000  0.72556000  0.30011000  1.0
  C  C125  1  0.77444000  0.22777000  0.19992000  1.0
  C  C126  1  0.72774000  0.27443000  0.69990000  1.0
  C  C127  1  0.22556000  0.77224000  0.80013000  1.0
  C  C128  1  0.27485000  0.82313000  0.30411000  1.0
  C  C129  1  0.67687000  0.22514000  0.19594000  1.0
  C  C130  1  0.72516000  0.17686000  0.69590000  1.0
  C  C131  1  0.32313000  0.77487000  0.80413000  1.0
  C  C132  1  0.23344000  0.83433000  0.21458000  1.0
  C  C133  1  0.66567000  0.26658000  0.28546000  1.0
  C  C134  1  0.76660000  0.16567000  0.78543000  1.0
  C  C135  1  0.33432000  0.73345000  0.71460000  1.0
  C  C136  1  0.19180000  0.65194000  0.12666000  1.0
  C  C137  1  0.84806000  0.30822000  0.37337000  1.0
  C  C138  1  0.80818000  0.34805000  0.87335000  1.0
  C  C139  1  0.15194000  0.69180000  0.62668000  1.0
  C  C140  1  0.19062000  0.74760000  0.12465000  1.0
  C  C141  1  0.75241000  0.30943000  0.37539000  1.0
  C  C142  1  0.80944000  0.25239000  0.87537000  1.0
  C  C143  1  0.24760000  0.69062000  0.62467000  1.0
  C  C144  1  0.14409000  0.56151000  0.03225000  1.0
  C  C145  1  0.93851000  0.35598000  0.46776000  1.0
  C  C146  1  0.85594000  0.43850000  0.96774000  1.0
  C  C147  1  0.06148000  0.64407000  0.53227000  1.0
  C  C148  1  0.09563000  0.38589000  0.93382000  1.0
  C  C149  1  0.11413000  0.40439000  0.56617000  1.0
  C  C150  1  0.90436000  0.61411000  0.06617000  1.0
  C  C151  1  0.88587000  0.59561000  0.43384000  1.0
  C  C152  1  0.04924000  0.39198000  0.84097000  1.0
  C  C153  1  0.10805000  0.45076000  0.65902000  1.0
  C  C154  1  0.95074000  0.60801000  0.15901000  1.0
  C  C155  1  0.89196000  0.54926000  0.34100000  1.0
  C  C156  1  0.99558000  0.30577000  0.75335000  1.0
  C  C157  1  0.19425000  0.50444000  0.74664000  1.0
  C  C158  1  0.00440000  0.69423000  0.24664000  1.0
  C  C159  1  0.80575000  0.49557000  0.25337000  1.0
  C  C160  1  0.98697000  0.21127000  0.75676000  1.0
  C  C161  1  0.28874000  0.51306000  0.74322000  1.0
  C  C162  1  0.01304000  0.78872000  0.24323000  1.0
  C  C163  1  0.71125000  0.48695000  0.25677000  1.0
  C  C164  1  0.02987000  0.20366000  0.84810000  1.0
  C  C165  1  0.29636000  0.47017000  0.65188000  1.0
  C  C166  1  0.97015000  0.79634000  0.15188000  1.0
  C  C167  1  0.70364000  0.52983000  0.34812000  1.0
  C  C168  1  0.08505000  0.29033000  0.93562000  1.0
  C  C169  1  0.20969000  0.41498000  0.56436000  1.0
  C  C170  1  0.91496000  0.70966000  0.06436000  1.0
  C  C171  1  0.79031000  0.58502000  0.43564000  1.0
  N  N172  1  0.93109000  0.08494000  0.30797000  1.0
  N  N173  1  0.41504000  0.56892000  0.19201000  1.0
  N  N174  1  0.06892000  0.91506000  0.69203000  1.0
  N  N175  1  0.58490000  0.43107000  0.80796000  1.0
  N  N176  1  0.91706000  0.07765000  0.12344000  1.0
  N  N177  1  0.42237000  0.58291000  0.37653000  1.0
  N  N178  1  0.08293000  0.92235000  0.87654000  1.0
  N  N179  1  0.57764000  0.41705000  0.62346000  1.0
  N  N180  1  0.23295000  0.64190000  0.21386000  1.0
  N  N181  1  0.85811000  0.26708000  0.28616000  1.0
  N  N182  1  0.76703000  0.35810000  0.78615000  1.0
  N  N183  1  0.14190000  0.73294000  0.71388000  1.0
  N  N184  1  0.14920000  0.47082000  0.02588000  1.0
  N  N185  1  0.02919000  0.35082000  0.47413000  1.0
  N  N186  1  0.85078000  0.52918000  0.97412000  1.0
  N  N187  1  0.97079000  0.64918000  0.52589000  1.0
  N  N188  1  0.20151000  0.10285000  0.35764000  1.0
  N  N189  1  0.39717000  0.29847000  0.14231000  1.0
  N  N190  1  0.79847000  0.89716000  0.64231000  1.0
  N  N191  1  0.60282000  0.70154000  0.85768000  1.0
  N  N192  1  0.02469000  0.33227000  0.13797000  1.0
  N  N193  1  0.16774000  0.47533000  0.36204000  1.0
  N  N194  1  0.97531000  0.66774000  0.86204000  1.0
  N  N195  1  0.83226000  0.52469000  0.63802000  1.0
  O  O196  1  0.93196000  0.12355000  0.67160000  1.0
  O  O197  1  0.37648000  0.56803000  0.82838000  1.0
  O  O198  1  0.06803000  0.87645000  0.32838000  1.0
  O  O199  1  0.62353000  0.43198000  0.17161000  1.0
  O  O200  1  0.13860000  0.07027000  0.26587000  1.0
  O  O201  1  0.42975000  0.36139000  0.23408000  1.0
  O  O202  1  0.86141000  0.92977000  0.73407000  1.0
  O  O203  1  0.57022000  0.63861000  0.76592000  1.0
  O  O204  1  0.19058000  0.18281000  0.42191000  1.0
  O  O205  1  0.31720000  0.30944000  0.07808000  1.0
  O  O206  1  0.80942000  0.81718000  0.57807000  1.0
  O  O207  1  0.68280000  0.69058000  0.92192000  1.0
  O  O208  1  0.27268000  0.05995000  0.38525000  1.0
  O  O209  1  0.44007000  0.22731000  0.11466000  1.0
  O  O210  1  0.72730000  0.94004000  0.61466000  1.0
  O  O211  1  0.55994000  0.77272000  0.88532000  1.0
  O  O212  1  0.08583000  0.27156000  0.14368000  1.0
  O  O213  1  0.22844000  0.41418000  0.35630000  1.0
  O  O214  1  0.91419000  0.72846000  0.85633000  1.0
  O  O215  1  0.77154000  0.58582000  0.64372000  1.0
  O  O216  1  0.93672000  0.30849000  0.13108000  1.0
  O  O217  1  0.19152000  0.56330000  0.36896000  1.0
  O  O218  1  0.06329000  0.69152000  0.86897000  1.0
  O  O219  1  0.80846000  0.43672000  0.63110000  1.0
  O  O220  1  0.05242000  0.41668000  0.13984000  1.0
  O  O221  1  0.08332000  0.44762000  0.36017000  1.0
  O  O222  1  0.94758000  0.58333000  0.86019000  1.0
  O  O223  1  0.91667000  0.55242000  0.63988000  1.0
