# generated using pymatgen
data_ZnH9C8(NO2)2
_symmetry_space_group_name_H-M   'P 1'
_cell_length_a   9.72538000
_cell_length_b   15.72810000
_cell_length_c   15.87170000
_cell_angle_alpha   89.92480000
_cell_angle_beta   88.24500000
_cell_angle_gamma   87.36720000
_symmetry_Int_Tables_number   1
_chemical_formula_structural   ZnH9C8(NO2)2
_chemical_formula_sum   'Zn4 H36 C32 N8 O16'
_cell_volume   2424.06271939
_cell_formula_units_Z   4
loop_
 _symmetry_equiv_pos_site_id
 _symmetry_equiv_pos_as_xyz
  1  'x, y, z'
loop_
 _atom_site_type_symbol
 _atom_site_label
 _atom_site_symmetry_multiplicity
 _atom_site_fract_x
 _atom_site_fract_y
 _atom_site_fract_z
 _atom_site_occupancy
  Zn  Zn0  1  0.64437000  0.50269000  0.99796000  1.0
  Zn  Zn1  1  0.63727000  0.00058000  0.50067000  1.0
  Zn  Zn2  1  0.36711000  0.50804000  0.00043000  1.0
  Zn  Zn3  1  0.36047000  0.01088000  0.50161000  1.0
  H  H4  1  0.31534000  0.35133000  0.22506000  1.0
  H  H5  1  0.59754000  0.71366000  0.19413000  1.0
  H  H6  1  0.60806000  0.22583000  0.31673000  1.0
  H  H7  1  0.57196000  0.18170000  0.73082000  1.0
  H  H8  1  0.89031000  0.37489000  0.02898000  1.0
  H  H9  1  0.88815000  0.87339000  0.52037000  1.0
  H  H10  1  0.09434000  0.55758000  0.02123000  1.0
  H  H11  1  0.08804000  0.05664000  0.53418000  1.0
  H  H12  1  0.26848000  0.67661000  0.87434000  1.0
  H  H13  1  0.05229000  0.73376000  0.84019000  1.0
  H  H14  1  0.12214000  0.75343000  0.73750000  1.0
  H  H15  1  0.29955000  0.34567000  0.77905000  1.0
  H  H16  1  0.12420000  0.83295000  0.81751000  1.0
  H  H17  1  0.25765000  0.67833000  0.13158000  1.0
  H  H18  1  0.04129000  0.73562000  0.17111000  1.0
  H  H19  1  0.11267000  0.83390000  0.19533000  1.0
  H  H20  1  0.10634000  0.75172000  0.27298000  1.0
  H  H21  1  0.26380000  0.16548000  0.35825000  1.0
  H  H22  1  0.05066000  0.21624000  0.31225000  1.0
  H  H23  1  0.13611000  0.23447000  0.21353000  1.0
  H  H24  1  0.11612000  0.31732000  0.29028000  1.0
  H  H25  1  0.29447000  0.21735000  0.58958000  1.0
  H  H26  1  0.31618000  0.86021000  0.73619000  1.0
  H  H27  1  0.17926000  0.34277000  0.55285000  1.0
  H  H28  1  0.28936000  0.39930000  0.61767000  1.0
  H  H29  1  0.13337000  0.35945000  0.66097000  1.0
  H  H30  1  0.90159000  0.55060000  0.96859000  1.0
  H  H31  1  0.89223000  0.05395000  0.47536000  1.0
  H  H32  1  0.14915000  0.37612000  0.98922000  1.0
  H  H33  1  0.14494000  0.88229000  0.47493000  1.0
  H  H34  1  0.29807000  0.85193000  0.27726000  1.0
  H  H35  1  0.60415000  0.27302000  0.18260000  1.0
  H  H36  1  0.61369000  0.31372000  0.78074000  1.0
  H  H37  1  0.58965000  0.77010000  0.67815000  1.0
  H  H38  1  0.58869000  0.77887000  0.31318000  1.0
  H  H39  1  0.61069000  0.72452000  0.80937000  1.0
  C  C40  1  0.49592000  0.62513000  0.11601000  1.0
  C  C41  1  0.39874000  0.31601000  0.75830000  1.0
  C  C42  1  0.40092000  0.81232000  0.73883000  1.0
  C  C43  1  0.38822000  0.80867000  0.26762000  1.0
  C  C44  1  0.51252000  0.31548000  0.17960000  1.0
  C  C45  1  0.51029000  0.33705000  0.80028000  1.0
  C  C46  1  0.50298000  0.81666000  0.68014000  1.0
  C  C47  1  0.49421000  0.81891000  0.31850000  1.0
  C  C48  1  0.39309000  0.74554000  0.80310000  1.0
  C  C49  1  0.38087000  0.74289000  0.20276000  1.0
  C  C50  1  0.39235000  0.24029000  0.29694000  1.0
  C  C51  1  0.51282000  0.63111000  0.88793000  1.0
  C  C52  1  0.39693000  0.25467000  0.68890000  1.0
  C  C53  1  0.51116000  0.70257000  0.83050000  1.0
  C  C54  1  0.49714000  0.69629000  0.17351000  1.0
  C  C55  1  0.50792000  0.20075000  0.33144000  1.0
  C  C56  1  0.49276000  0.18689000  0.68401000  1.0
  C  C57  1  0.93686000  0.43383000  0.00806000  1.0
  C  C58  1  0.93201000  0.93461000  0.50446000  1.0
  C  C59  1  0.08899000  0.43586000  0.00068000  1.0
  C  C60  1  0.08364000  0.93907000  0.49591000  1.0
  C  C61  1  0.13604000  0.76399000  0.80531000  1.0
  C  C62  1  0.49575000  0.12158000  0.61950000  1.0
  C  C63  1  0.12363000  0.76459000  0.20524000  1.0
  C  C64  1  0.13660000  0.24836000  0.28162000  1.0
  C  C65  1  0.22063000  0.34566000  0.61632000  1.0
  C  C66  1  0.50519000  0.12875000  0.38823000  1.0
  C  C67  1  0.50180000  0.39397000  0.87503000  1.0
  C  C68  1  0.51511000  0.38249000  0.11338000  1.0
  C  C69  1  0.49179000  0.88651000  0.38400000  1.0
  C  C70  1  0.50634000  0.88435000  0.61497000  1.0
  C  C71  1  0.40395000  0.30714000  0.23300000  1.0
  N  N72  1  0.85546000  0.49716000  0.99092000  1.0
  N  N73  1  0.84813000  0.99823000  0.49304000  1.0
  N  N74  1  0.15516000  0.50385000  0.00769000  1.0
  N  N75  1  0.14867000  0.00595000  0.51152000  1.0
  N  N76  1  0.26563000  0.72774000  0.83401000  1.0
  N  N77  1  0.25417000  0.72875000  0.17293000  1.0
  N  N78  1  0.26261000  0.21855000  0.32035000  1.0
  N  N79  1  0.29317000  0.26519000  0.63338000  1.0
  O  O80  1  0.61144000  0.58719000  0.09443000  1.0
  O  O81  1  0.63329000  0.40051000  0.08311000  1.0
  O  O82  1  0.60782000  0.91473000  0.40224000  1.0
  O  O83  1  0.62294000  0.89427000  0.57790000  1.0
  O  O84  1  0.38306000  0.41666000  0.90633000  1.0
  O  O85  1  0.39969000  0.41616000  0.09144000  1.0
  O  O86  1  0.37496000  0.91046000  0.41733000  1.0
  O  O87  1  0.39442000  0.92658000  0.60016000  1.0
  O  O88  1  0.62964000  0.59996000  0.91174000  1.0
  O  O89  1  0.60586000  0.07475000  0.60725000  1.0
  O  O90  1  0.61851000  0.10224000  0.42118000  1.0
  O  O91  1  0.37829000  0.60186000  0.08899000  1.0
  O  O92  1  0.39568000  0.60102000  0.91255000  1.0
  O  O93  1  0.38524000  0.11339000  0.57669000  1.0
  O  O94  1  0.38860000  0.09332000  0.40302000  1.0
  O  O95  1  0.61695000  0.41574000  0.90266000  1.0
