# generated using pymatgen
data_CuH4C2O3
_symmetry_space_group_name_H-M   'P 1'
_cell_length_a   3.81662000
_cell_length_b   7.75316000
_cell_length_c   12.80680000
_cell_angle_alpha   88.99260000
_cell_angle_beta   83.17060000
_cell_angle_gamma   87.88280000
_symmetry_Int_Tables_number   1
_chemical_formula_structural   CuH4C2O3
_chemical_formula_sum   'Cu4 H16 C8 O12'
_cell_volume   375.98531907
_cell_formula_units_Z   4
loop_
 _symmetry_equiv_pos_site_id
 _symmetry_equiv_pos_as_xyz
  1  'x, y, z'
loop_
 _atom_site_type_symbol
 _atom_site_label
 _atom_site_symmetry_multiplicity
 _atom_site_fract_x
 _atom_site_fract_y
 _atom_site_fract_z
 _atom_site_occupancy
  Cu  Cu0  1  0.71052000  0.43650000  0.39663000  1.0
  Cu  Cu1  1  0.26906000  0.93595000  0.09454000  1.0
  Cu  Cu2  1  0.28842000  0.56343000  0.60328000  1.0
  Cu  Cu3  1  0.73341000  0.06391000  0.90576000  1.0
  H  H4  1  0.78403000  0.72982000  0.24616000  1.0
  H  H5  1  0.20006000  0.20929000  0.25495000  1.0
  H  H6  1  0.21890000  0.27031000  0.75421000  1.0
  H  H7  1  0.79777000  0.79253000  0.74412000  1.0
  H  H8  1  0.05408000  0.79496000  0.44112000  1.0
  H  H9  1  0.96271000  0.32696000  0.06672000  1.0
  H  H10  1  0.94392000  0.20558000  0.55887000  1.0
  H  H11  1  0.03754000  0.67262000  0.93321000  1.0
  H  H12  1  0.72532000  0.87785000  0.53952000  1.0
  H  H13  1  0.29568000  0.39517000  0.96634000  1.0
  H  H14  1  0.27234000  0.12234000  0.46045000  1.0
  H  H15  1  0.70411000  0.60447000  0.03349000  1.0
  H  H16  1  0.63339000  0.87236000  0.40634000  1.0
  H  H17  1  0.40891000  0.33539000  0.09379000  1.0
  H  H18  1  0.36438000  0.12761000  0.59362000  1.0
  H  H19  1  0.59132000  0.66494000  0.90605000  1.0
  C  C20  1  0.04212000  0.66021000  0.23845000  1.0
  C  C21  1  0.93473000  0.15685000  0.25757000  1.0
  C  C22  1  0.96053000  0.33957000  0.76189000  1.0
  C  C23  1  0.06412000  0.84338000  0.74213000  1.0
  C  C24  1  0.76816000  0.80265000  0.46685000  1.0
  C  C25  1  0.23942000  0.30551000  0.03301000  1.0
  C  C26  1  0.22982000  0.19753000  0.53313000  1.0
  C  C27  1  0.76087000  0.69429000  0.96693000  1.0
  O  O28  1  0.08680000  0.52666000  0.29546000  1.0
  O  O29  1  0.88300000  0.03441000  0.19683000  1.0
  O  O30  1  0.91480000  0.47328000  0.70516000  1.0
  O  O31  1  0.11787000  0.96530000  0.80297000  1.0
  O  O32  1  0.28792000  0.71440000  0.17163000  1.0
  O  O33  1  0.68755000  0.21915000  0.32312000  1.0
  O  O34  1  0.71454000  0.28497000  0.82850000  1.0
  O  O35  1  0.31158000  0.78008000  0.67706000  1.0
  O  O36  1  0.63826000  0.63501000  0.48788000  1.0
  O  O37  1  0.29343000  0.13338000  0.99660000  1.0
  O  O38  1  0.36048000  0.36502000  0.51213000  1.0
  O  O39  1  0.70813000  0.86636000  0.00350000  1.0
