# generated using pymatgen
data_CoH30C44(N5O3)2
_symmetry_space_group_name_H-M   'P 1'
_cell_length_a   12.13140000
_cell_length_b   13.97040000
_cell_length_c   14.73360000
_cell_angle_alpha   62.61920000
_cell_angle_beta   67.73950000
_cell_angle_gamma   78.36530000
_symmetry_Int_Tables_number   1
_chemical_formula_structural   CoH30C44(N5O3)2
_chemical_formula_sum   'Co2 H60 C88 N20 O12'
_cell_volume   2050.91246920
_cell_formula_units_Z   2
loop_
 _symmetry_equiv_pos_site_id
 _symmetry_equiv_pos_as_xyz
  1  'x, y, z'
loop_
 _atom_site_type_symbol
 _atom_site_label
 _atom_site_symmetry_multiplicity
 _atom_site_fract_x
 _atom_site_fract_y
 _atom_site_fract_z
 _atom_site_occupancy
  Co  Co0  1  0.31513000  0.58443000  0.04936000  1.0
  Co  Co1  1  0.68488000  0.41556000  0.95064000  1.0
  H  H2  1  0.11439000  0.64327000  0.17014000  1.0
  H  H3  1  0.88562000  0.35673000  0.82985000  1.0
  H  H4  1  0.29655000  0.63828000  0.48575000  1.0
  H  H5  1  0.70344000  0.36173000  0.51425000  1.0
  H  H6  1  0.10224000  0.82116000  0.26783000  1.0
  H  H7  1  0.89775000  0.17884000  0.73219000  1.0
  H  H8  1  0.25140000  0.04136000  0.48825000  1.0
  H  H9  1  0.74861000  0.95864000  0.51176000  1.0
  H  H10  1  0.83072000  0.18804000  0.20475000  1.0
  H  H11  1  0.16928000  0.81197000  0.79525000  1.0
  H  H12  1  0.59013000  0.52750000  0.66348000  1.0
  H  H13  1  0.40989000  0.47251000  0.33649000  1.0
  H  H14  1  0.05351000  0.09872000  0.94877000  1.0
  H  H15  1  0.94649000  0.90127000  0.05124000  1.0
  H  H16  1  0.62108000  0.79210000  0.48406000  1.0
  H  H17  1  0.37892000  0.20790000  0.51594000  1.0
  H  H18  1  0.49776000  0.83259000  0.36791000  1.0
  H  H19  1  0.50223000  0.16742000  0.63209000  1.0
  H  H20  1  0.65743000  0.11650000  0.38640000  1.0
  H  H21  1  0.34255000  0.88350000  0.61361000  1.0
  H  H22  1  0.49803000  0.58046000  0.52170000  1.0
  H  H23  1  0.50197000  0.41956000  0.47828000  1.0
  H  H24  1  0.36946000  0.61348000  0.21803000  1.0
  H  H25  1  0.63055000  0.38652000  0.78196000  1.0
  H  H26  1  0.13168000  0.93828000  0.08048000  1.0
  H  H27  1  0.86831000  0.06171000  0.91954000  1.0
  H  H28  1  0.53862000  0.17096000  0.26420000  1.0
  H  H29  1  0.46137000  0.82904000  0.73580000  1.0
  H  H30  1  0.29851000  0.68555000  0.82672000  1.0
  H  H31  1  0.70150000  0.31444000  0.17327000  1.0
  H  H32  1  0.28613000  0.09586000  0.02545000  1.0
  H  H33  1  0.71386000  0.90414000  0.97455000  1.0
  H  H34  1  0.34540000  0.82764000  0.91816000  1.0
  H  H35  1  0.65461000  0.17235000  0.08184000  1.0
  H  H36  1  0.20675000  0.73869000  0.68486000  1.0
  H  H37  1  0.79325000  0.26131000  0.31514000  1.0
  H  H38  1  0.29047000  0.21222000  0.42238000  1.0
  H  H39  1  0.70952000  0.78779000  0.57762000  1.0
  H  H40  1  0.38237000  0.34880000  0.10087000  1.0
  H  H41  1  0.61764000  0.65121000  0.89913000  1.0
  H  H42  1  0.23955000  0.40689000  0.33050000  1.0
  H  H43  1  0.76043000  0.59311000  0.66950000  1.0
  H  H44  1  0.91428000  0.03280000  0.33559000  1.0
  H  H45  1  0.08572000  0.96721000  0.66441000  1.0
  H  H46  1  0.06860000  0.40983000  0.94487000  1.0
  H  H47  1  0.93141000  0.59018000  0.05512000  1.0
  H  H48  1  0.13623000  0.55538000  0.96475000  1.0
  H  H49  1  0.86378000  0.44463000  0.03524000  1.0
  H  H50  1  0.96205000  0.32438000  0.26882000  1.0
  H  H51  1  0.03795000  0.67560000  0.73119000  1.0
  H  H52  1  0.01447000  0.12858000  0.35808000  1.0
  H  H53  1  0.98552000  0.87141000  0.64193000  1.0
  H  H54  1  0.35873000  0.98544000  0.94716000  1.0
  H  H55  1  0.64128000  0.01455000  0.05284000  1.0
  H  H56  1  0.38906000  0.76366000  0.25922000  1.0
  H  H57  1  0.61093000  0.23632000  0.74079000  1.0
  H  H58  1  0.38518000  0.19349000  0.22109000  1.0
  H  H59  1  0.61482000  0.80651000  0.77891000  1.0
  H  H60  1  0.15004000  0.22190000  0.02389000  1.0
  H  H61  1  0.84995000  0.77811000  0.97612000  1.0
  C  C62  1  0.09626000  0.37765000  0.29466000  1.0
  C  C63  1  0.90374000  0.62235000  0.70534000  1.0
  C  C64  1  0.89920000  0.13474000  0.17735000  1.0
  C  C65  1  0.10080000  0.86526000  0.82265000  1.0
  C  C66  1  0.50519000  0.57263000  0.66925000  1.0
  C  C67  1  0.49482000  0.42738000  0.33073000  1.0
  C  C68  1  0.50679000  0.00528000  0.30613000  1.0
  C  C69  1  0.49321000  0.99472000  0.69387000  1.0
  C  C70  1  0.02325000  0.08337000  0.03372000  1.0
  C  C71  1  0.97674000  0.91663000  0.96629000  1.0
  C  C72  1  0.34577000  0.66320000  0.59431000  1.0
  C  C73  1  0.65423000  0.33681000  0.40568000  1.0
  C  C74  1  0.60158000  0.87579000  0.43381000  1.0
  C  C75  1  0.39841000  0.12421000  0.56620000  1.0
  C  C76  1  0.53241000  0.89764000  0.36943000  1.0
  C  C77  1  0.46758000  0.10236000  0.63056000  1.0
  C  C78  1  0.37681000  0.97731000  0.13397000  1.0
  C  C79  1  0.62318000  0.02269000  0.86603000  1.0
  C  C80  1  0.62140000  0.05573000  0.37922000  1.0
  C  C81  1  0.37859000  0.94427000  0.62079000  1.0
  C  C82  1  0.12651000  0.88185000  0.35839000  1.0
  C  C83  1  0.87349000  0.11815000  0.64162000  1.0
  C  C84  1  0.45355000  0.60210000  0.58976000  1.0
  C  C85  1  0.54646000  0.39792000  0.41022000  1.0
  C  C86  1  0.36868000  0.69741000  0.16046000  1.0
  C  C87  1  0.63132000  0.30259000  0.83954000  1.0
  C  C88  1  0.06815000  0.99514000  0.10678000  1.0
  C  C89  1  0.93185000  0.00486000  0.89323000  1.0
  C  C90  1  0.55315000  0.08556000  0.31209000  1.0
  C  C91  1  0.44684000  0.91444000  0.68791000  1.0
  C  C92  1  0.34243000  0.66310000  0.75937000  1.0
  C  C93  1  0.65758000  0.33690000  0.24063000  1.0
  C  C94  1  0.43698000  0.03189000  0.23353000  1.0
  C  C95  1  0.56301000  0.96811000  0.76647000  1.0
  C  C96  1  0.32707000  0.07988000  0.08540000  1.0
  C  C97  1  0.67292000  0.92012000  0.91460000  1.0
  C  C98  1  0.35413000  0.81651000  0.99335000  1.0
  C  C99  1  0.64587000  0.18348000  0.00665000  1.0
  C  C100  1  0.29062000  0.69260000  0.68068000  1.0
  C  C101  1  0.70938000  0.30741000  0.31932000  1.0
  C  C102  1  0.06479000  0.49206000  0.23579000  1.0
  C  C103  1  0.93523000  0.50793000  0.76419000  1.0
  C  C104  1  0.21756000  0.23732000  0.38956000  1.0
  C  C105  1  0.78244000  0.76268000  0.61044000  1.0
  C  C106  1  0.15540000  0.15729000  0.39730000  1.0
  C  C107  1  0.84460000  0.84272000  0.60270000  1.0
  C  C108  1  0.93676000  0.15370000  0.06814000  1.0
  C  C109  1  0.06324000  0.84631000  0.93186000  1.0
  C  C110  1  0.30866000  0.35699000  0.07273000  1.0
  C  C111  1  0.69135000  0.64301000  0.92727000  1.0
  C  C112  1  0.23251000  0.78708000  0.47108000  1.0
  C  C113  1  0.76749000  0.21292000  0.52892000  1.0
  C  C114  1  0.37258000  0.88788000  0.10800000  1.0
  C  C115  1  0.62742000  0.11211000  0.89200000  1.0
  C  C116  1  0.45045000  0.60312000  0.75522000  1.0
  C  C117  1  0.54957000  0.39688000  0.24476000  1.0
  C  C118  1  0.88519000  0.24394000  0.98892000  1.0
  C  C119  1  0.11481000  0.75606000  0.01108000  1.0
  C  C120  1  0.18876000  0.34579000  0.33878000  1.0
  C  C121  1  0.81123000  0.65421000  0.66122000  1.0
  C  C122  1  0.94584000  0.04818000  0.25067000  1.0
  C  C123  1  0.05415000  0.95182000  0.74934000  1.0
  C  C124  1  0.03093000  0.97716000  0.21570000  1.0
  C  C125  1  0.96907000  0.02284000  0.78430000  1.0
  C  C126  1  0.13451000  0.39151000  0.98487000  1.0
  C  C127  1  0.86548000  0.60850000  0.01514000  1.0
  C  C128  1  0.50158000  0.57431000  0.84255000  1.0
  C  C129  1  0.49843000  0.42570000  0.15744000  1.0
  C  C130  1  0.17338000  0.47338000  0.99329000  1.0
  C  C131  1  0.82663000  0.52662000  0.00671000  1.0
  C  C132  1  0.03334000  0.29805000  0.30395000  1.0
  C  C133  1  0.96666000  0.70195000  0.69605000  1.0
  C  C134  1  0.06180000  0.18917000  0.35397000  1.0
  C  C135  1  0.93819000  0.81083000  0.64604000  1.0
  C  C136  1  0.36045000  0.90462000  0.01076000  1.0
  C  C137  1  0.63955000  0.09536000  0.98924000  1.0
  C  C138  1  0.18054000  0.96175000  0.43720000  1.0
  C  C139  1  0.81946000  0.03826000  0.56280000  1.0
  C  C140  1  0.37925000  0.78063000  0.18283000  1.0
  C  C141  1  0.62075000  0.21936000  0.81717000  1.0
  C  C142  1  0.32806000  0.16071000  0.11626000  1.0
  C  C143  1  0.67193000  0.83929000  0.88374000  1.0
  C  C144  1  0.38436000  0.13468000  0.19233000  1.0
  C  C145  1  0.61564000  0.86532000  0.80766000  1.0
  C  C146  1  0.18300000  0.28767000  0.02589000  1.0
  C  C147  1  0.81699000  0.71234000  0.97412000  1.0
  C  C148  1  0.27254000  0.26872000  0.07122000  1.0
  C  C149  1  0.72746000  0.73128000  0.92879000  1.0
  N  N150  1  0.25919000  0.45676000  0.03694000  1.0
  N  N151  1  0.74081000  0.54324000  0.96307000  1.0
  N  N152  1  0.64642000  0.95284000  0.43932000  1.0
  N  N153  1  0.35357000  0.04715000  0.56068000  1.0
  N  N154  1  0.29383000  0.69246000  0.51455000  1.0
  N  N155  1  0.70617000  0.30754000  0.48544000  1.0
  N  N156  1  0.43037000  0.95351000  0.20719000  1.0
  N  N157  1  0.56963000  0.04649000  0.79281000  1.0
  N  N158  1  0.35553000  0.71376000  0.06743000  1.0
  N  N159  1  0.64448000  0.28623000  0.93257000  1.0
  N  N160  1  0.07804000  0.88577000  0.28638000  1.0
  N  N161  1  0.92195000  0.11423000  0.71363000  1.0
  N  N162  1  0.12193000  0.97137000  0.37204000  1.0
  N  N163  1  0.87807000  0.02863000  0.62796000  1.0
  N  N164  1  0.17974000  0.78676000  0.40573000  1.0
  N  N165  1  0.82025000  0.21325000  0.59428000  1.0
  N  N166  1  0.19221000  0.05047000  0.44892000  1.0
  N  N167  1  0.80780000  0.94953000  0.55108000  1.0
  N  N168  1  0.23564000  0.87042000  0.49152000  1.0
  N  N169  1  0.76436000  0.12958000  0.50848000  1.0
  O  O170  1  0.44902000  0.61525000  0.91131000  1.0
  O  O171  1  0.55098000  0.38475000  0.08870000  1.0
  O  O172  1  0.14714000  0.56188000  0.20852000  1.0
  O  O173  1  0.85287000  0.43811000  0.79147000  1.0
  O  O174  1  0.80837000  0.30907000  0.02180000  1.0
  O  O175  1  0.19165000  0.69093000  0.97819000  1.0
  O  O176  1  0.91889000  0.25123000  0.89288000  1.0
  O  O177  1  0.08112000  0.74876000  0.10712000  1.0
  O  O178  1  0.59602000  0.51512000  0.84280000  1.0
  O  O179  1  0.40398000  0.48487000  0.15720000  1.0
  O  O180  1  0.97290000  0.52187000  0.21172000  1.0
  O  O181  1  0.02711000  0.47813000  0.78826000  1.0
