# generated using pymatgen
data_SrHgH9C9S2N3O7
_symmetry_space_group_name_H-M   'P 1'
_cell_length_a   6.75290000
_cell_length_b   15.64530000
_cell_length_c   15.70801451
_cell_angle_alpha   100.48074681
_cell_angle_beta   102.08244206
_cell_angle_gamma   90.06150000
_symmetry_Int_Tables_number   1
_chemical_formula_structural   SrHgH9C9S2N3O7
_chemical_formula_sum   'Sr4 Hg4 H36 C36 S8 N12 O28'
_cell_volume   1594.40802051
_cell_formula_units_Z   4
loop_
 _symmetry_equiv_pos_site_id
 _symmetry_equiv_pos_as_xyz
  1  'x, y, z'
loop_
 _atom_site_type_symbol
 _atom_site_label
 _atom_site_symmetry_multiplicity
 _atom_site_fract_x
 _atom_site_fract_y
 _atom_site_fract_z
 _atom_site_occupancy
  Sr  Sr0  1  0.95549000  0.67232000  0.44427000  1.0
  Sr  Sr1  1  0.51065000  0.82782000  0.55570000  1.0
  Sr  Sr2  1  0.04450000  0.32768000  0.55572000  1.0
  Sr  Sr3  1  0.48935000  0.17218000  0.44430000  1.0
  Hg  Hg4  1  0.09840000  0.36969000  0.14778000  1.0
  Hg  Hg5  1  0.94817000  0.13073000  0.85228000  1.0
  Hg  Hg6  1  0.90160000  0.63031000  0.85221000  1.0
  Hg  Hg7  1  0.05183000  0.86927000  0.14772000  1.0
  H  H8  1  0.59236000  0.56349000  0.44979000  1.0
  H  H9  1  0.14214000  0.93645000  0.55026000  1.0
  H  H10  1  0.40764000  0.43651000  0.55021000  1.0
  H  H11  1  0.85787000  0.06354000  0.44975000  1.0
  H  H12  1  0.73092000  0.51141000  0.51635000  1.0
  H  H13  1  0.21533000  0.98867000  0.48372000  1.0
  H  H14  1  0.26909000  0.48859000  0.48365000  1.0
  H  H15  1  0.78466000  0.01133000  0.51628000  1.0
  H  H16  1  0.95647000  0.84596000  0.35962000  1.0
  H  H17  1  0.59417000  0.65444000  0.64070000  1.0
  H  H18  1  0.04353000  0.15404000  0.64038000  1.0
  H  H19  1  0.40584000  0.34557000  0.35930000  1.0
  H  H20  1  0.73117000  0.83451000  0.37296000  1.0
  H  H21  1  0.35573000  0.66547000  0.62698000  1.0
  H  H22  1  0.26883000  0.16549000  0.62704000  1.0
  H  H23  1  0.64427000  0.33453000  0.37302000  1.0
  H  H24  1  0.00634000  0.60511000  0.63074000  1.0
  H  H25  1  0.37788000  0.89474000  0.36903000  1.0
  H  H26  1  0.99367000  0.39490000  0.36926000  1.0
  H  H27  1  0.62212000  0.10526000  0.63097000  1.0
  H  H28  1  0.17183000  0.54994000  0.58937000  1.0
  H  H29  1  0.58387000  0.95003000  0.41023000  1.0
  H  H30  1  0.82818000  0.45006000  0.41063000  1.0
  H  H31  1  0.41613000  0.04997000  0.58977000  1.0
  H  H32  1  0.47473000  0.74726000  0.23242000  1.0
  H  H33  1  0.24005000  0.75317000  0.76676000  1.0
  H  H34  1  0.52526000  0.25274000  0.76758000  1.0
  H  H35  1  0.75995000  0.24683000  0.23324000  1.0
  H  H36  1  0.41596000  0.66060000  0.07785000  1.0
  H  H37  1  0.33585000  0.84008000  0.92118000  1.0
  H  H38  1  0.58403000  0.33940000  0.92215000  1.0
  H  H39  1  0.66415000  0.15992000  0.07882000  1.0
  H  H40  1  0.26880000  0.50760000  0.04922000  1.0
  H  H41  1  0.21706000  0.99303000  0.95015000  1.0
  H  H42  1  0.73121000  0.49240000  0.95078000  1.0
  H  H43  1  0.78293000  0.00697000  0.04984000  1.0
  C  C44  1  0.25155000  0.50784000  0.33497000  1.0
  C  C45  1  0.91458000  0.99228000  0.66505000  1.0
  C  C46  1  0.74845000  0.49216000  0.66503000  1.0
  C  C47  1  0.08540000  0.00772000  0.33495000  1.0
  C  C48  1  0.40266000  0.69592000  0.37719000  1.0
  C  C49  1  0.02349000  0.80418000  0.62260000  1.0
  C  C50  1  0.59734000  0.30408000  0.62281000  1.0
  C  C51  1  0.97650000  0.19582000  0.37740000  1.0
  C  C52  1  0.29410000  0.55504000  0.26439000  1.0
  C  C53  1  0.02717000  0.94517000  0.73543000  1.0
  C  C54  1  0.70591000  0.44496000  0.73561000  1.0
  C  C55  1  0.97283000  0.05483000  0.26457000  1.0
  C  C56  1  0.36768000  0.64180000  0.28537000  1.0
  C  C57  1  0.07969000  0.85839000  0.71435000  1.0
  C  C58  1  0.63232000  0.35820000  0.71463000  1.0
  C  C59  1  0.92031000  0.14161000  0.28565000  1.0
  C  C60  1  0.41308000  0.68046000  0.21761000  1.0
  C  C61  1  0.19303000  0.81992000  0.78181000  1.0
  C  C62  1  0.58693000  0.31953000  0.78240000  1.0
  C  C63  1  0.80697000  0.18008000  0.21819000  1.0
  C  C64  1  0.38092000  0.63272000  0.13194000  1.0
  C  C65  1  0.24653000  0.86778000  0.86735000  1.0
  C  C66  1  0.61908000  0.36728000  0.86806000  1.0
  C  C67  1  0.75347000  0.13222000  0.13265000  1.0
  C  C68  1  0.30203000  0.54750000  0.11547000  1.0
  C  C69  1  0.18400000  0.95298000  0.88399000  1.0
  C  C70  1  0.69797000  0.45250000  0.88453000  1.0
  C  C71  1  0.81600000  0.04702000  0.11601000  1.0
  C  C72  1  0.78911000  0.49828000  0.22539000  1.0
  C  C73  1  0.56186000  0.00185000  0.77521000  1.0
  C  C74  1  0.21089000  0.50172000  0.77460000  1.0
  C  C75  1  0.43814000  0.99815000  0.22480000  1.0
  C  C76  1  0.11805000  0.32320000  0.92544000  1.0
  C  C77  1  0.19328000  0.17731000  0.07384000  1.0
  C  C78  1  0.88195000  0.67680000  0.07457000  1.0
  C  C79  1  0.80672000  0.82269000  0.92616000  1.0
  S  S80  1  0.73275000  0.41196000  0.14518000  1.0
  S  S81  1  0.58601000  0.08771000  0.85606000  1.0
  S  S82  1  0.26725000  0.58805000  0.85482000  1.0
  S  S83  1  0.41399000  0.91229000  0.14394000  1.0
  S  S84  1  0.11376000  0.26385000  0.82705000  1.0
  S  S85  1  0.28924000  0.23658000  0.17183000  1.0
  S  S86  1  0.88622000  0.73615000  0.17294000  1.0
  S  S87  1  0.71075000  0.76342000  0.82818000  1.0
  N  N88  1  0.26207000  0.51022000  0.18052000  1.0
  N  N89  1  0.07909000  0.99011000  0.81919000  1.0
  N  N90  1  0.73793000  0.48978000  0.81947000  1.0
  N  N91  1  0.92091000  0.00989000  0.18081000  1.0
  N  N92  1  0.82716000  0.55942000  0.28322000  1.0
  N  N93  1  0.54155000  0.94101000  0.71698000  1.0
  N  N94  1  0.17285000  0.44058000  0.71678000  1.0
  N  N95  1  0.45845000  0.05899000  0.28302000  1.0
  N  N96  1  0.12343000  0.36962000  0.99418000  1.0
  N  N97  1  0.12823000  0.13112000  0.00528000  1.0
  N  N98  1  0.87657000  0.63037000  0.00581000  1.0
  N  N99  1  0.87177000  0.86888000  0.99473000  1.0
  O  O100  1  0.21096000  0.42648000  0.31625000  1.0
  O  O101  1  0.89184000  0.07358000  0.68382000  1.0
  O  O102  1  0.78904000  0.57352000  0.68375000  1.0
  O  O103  1  0.10816000  0.92642000  0.31618000  1.0
  O  O104  1  0.26333000  0.55365000  0.41220000  1.0
  O  O105  1  0.85050000  0.94646000  0.58787000  1.0
  O  O106  1  0.73669000  0.44635000  0.58780000  1.0
  O  O107  1  0.14947000  0.05354000  0.41213000  1.0
  O  O108  1  0.25725000  0.73821000  0.40074000  1.0
  O  O109  1  0.85467000  0.76210000  0.59928000  1.0
  O  O110  1  0.74275000  0.26179000  0.59926000  1.0
  O  O111  1  0.14534000  0.23789000  0.40073000  1.0
  O  O112  1  0.58080000  0.70141000  0.42442000  1.0
  O  O113  1  0.15513000  0.79842000  0.57511000  1.0
  O  O114  1  0.41919000  0.29859000  0.57557000  1.0
  O  O115  1  0.84486000  0.20158000  0.42488000  1.0
  O  O116  1  0.72814000  0.54111000  0.46440000  1.0
  O  O117  1  0.26363000  0.95902000  0.53566000  1.0
  O  O118  1  0.27187000  0.45890000  0.53560000  1.0
  O  O119  1  0.73637000  0.04098000  0.46434000  1.0
  O  O120  1  0.86033000  0.80511000  0.37174000  1.0
  O  O121  1  0.48619000  0.69522000  0.62874000  1.0
  O  O122  1  0.13967000  0.19489000  0.62826000  1.0
  O  O123  1  0.51382000  0.30479000  0.37127000  1.0
  O  O124  1  0.11550000  0.60881000  0.59836000  1.0
  O  O125  1  0.51872000  0.89110000  0.40123000  1.0
  O  O126  1  0.88451000  0.39119000  0.40164000  1.0
  O  O127  1  0.48128000  0.10890000  0.59877000  1.0
