# generated using pymatgen
data_AlH25C23O7
_symmetry_space_group_name_H-M   'P 1'
_cell_length_a   6.60631000
_cell_length_b   24.13020000
_cell_length_c   25.49790000
_cell_angle_alpha   78.30160000
_cell_angle_beta   89.99990000
_cell_angle_gamma   89.99930000
_symmetry_Int_Tables_number   1
_chemical_formula_structural   AlH25C23O7
_chemical_formula_sum   'Al4 H100 C92 O28'
_cell_volume   3980.23135906
_cell_formula_units_Z   4
loop_
 _symmetry_equiv_pos_site_id
 _symmetry_equiv_pos_as_xyz
  1  'x, y, z'
loop_
 _atom_site_type_symbol
 _atom_site_label
 _atom_site_symmetry_multiplicity
 _atom_site_fract_x
 _atom_site_fract_y
 _atom_site_fract_z
 _atom_site_occupancy
  Al  Al0  1  0.85531000  0.49810000  0.49929000  1.0
  Al  Al1  1  0.35530000  0.50190000  0.50071000  1.0
  Al  Al2  1  0.26517000  0.99669000  0.99875000  1.0
  Al  Al3  1  0.76516000  0.00329000  0.00125000  1.0
  H  H4  1  0.38036000  0.18181000  0.15364000  1.0
  H  H5  1  0.88025000  0.81818000  0.84632000  1.0
  H  H6  1  0.74695000  0.15359000  0.19026000  1.0
  H  H7  1  0.24680000  0.84642000  0.80976000  1.0
  H  H8  1  0.73058000  0.08975000  0.12484000  1.0
  H  H9  1  0.23054000  0.91024000  0.87520000  1.0
  H  H10  1  0.81765000  0.25826000  0.18331000  1.0
  H  H11  1  0.31772000  0.74168000  0.81673000  1.0
  H  H12  1  0.83498000  0.32418000  0.24474000  1.0
  H  H13  1  0.33515000  0.67577000  0.75529000  1.0
  H  H14  1  0.35400000  0.23262000  0.32191000  1.0
  H  H15  1  0.85368000  0.76748000  0.67800000  1.0
  H  H16  1  0.41565000  0.30652000  0.35028000  1.0
  H  H17  1  0.91560000  0.69350000  0.64970000  1.0
  H  H18  1  0.80825000  0.41950000  0.37288000  1.0
  H  H19  1  0.30824000  0.58051000  0.62711000  1.0
  H  H20  1  0.79128000  0.35191000  0.31288000  1.0
  H  H21  1  0.29124000  0.64811000  0.68710000  1.0
  H  H22  1  0.10918000  0.22252000  0.66202000  1.0
  H  H23  1  0.60906000  0.77747000  0.33798000  1.0
  H  H24  1  0.08509000  0.15067000  0.73794000  1.0
  H  H25  1  0.58524000  0.84933000  0.26206000  1.0
  H  H26  1  0.75657000  0.24118000  0.80265000  1.0
  H  H27  1  0.25651000  0.75886000  0.19736000  1.0
  H  H28  1  0.76111000  0.19311000  0.75955000  1.0
  H  H29  1  0.26120000  0.80689000  0.24050000  1.0
  H  H30  1  0.78227000  0.26889000  0.68633000  1.0
  H  H31  1  0.28222000  0.73105000  0.31367000  1.0
  H  H32  1  0.79383000  0.31728000  0.72958000  1.0
  H  H33  1  0.29391000  0.68270000  0.27038000  1.0
  H  H34  1  0.09076000  0.27447000  0.83728000  1.0
  H  H35  1  0.59066000  0.72552000  0.16273000  1.0
  H  H36  1  0.35774000  0.31435000  0.74476000  1.0
  H  H37  1  0.85780000  0.68567000  0.25523000  1.0
  H  H38  1  0.13373000  0.34678000  0.76162000  1.0
  H  H39  1  0.63385000  0.65320000  0.23838000  1.0
  H  H40  1  0.63200000  0.15610000  0.03691000  1.0
  H  H41  1  0.48467000  0.20388000  0.06616000  1.0
  H  H42  1  0.34303000  0.14373000  0.97709000  1.0
  H  H43  1  0.19268000  0.19039000  0.00613000  1.0
  H  H44  1  0.44073000  0.27006000  0.97187000  1.0
  H  H45  1  0.34116000  0.24046000  0.91891000  1.0
  H  H46  1  0.58910000  0.22239000  0.94294000  1.0
  H  H47  1  0.13199000  0.84388000  0.96307000  1.0
  H  H48  1  0.98463000  0.79610000  0.93384000  1.0
  H  H49  1  0.84301000  0.85629000  0.02288000  1.0
  H  H50  1  0.69264000  0.80961000  0.99386000  1.0
  H  H51  1  0.94071000  0.72995000  0.02813000  1.0
  H  H52  1  0.84112000  0.75956000  0.08108000  1.0
  H  H53  1  0.08907000  0.77763000  0.05705000  1.0
  H  H54  1  0.70140000  0.33497000  0.45917000  1.0
  H  H55  1  0.53808000  0.28781000  0.43387000  1.0
  H  H56  1  0.42715000  0.35265000  0.52215000  1.0
  H  H57  1  0.26640000  0.30482000  0.49786000  1.0
  H  H58  1  0.51624000  0.22518000  0.53134000  1.0
  H  H59  1  0.43223000  0.25793000  0.58392000  1.0
  H  H60  1  0.67523000  0.27416000  0.55539000  1.0
  H  H61  1  0.20139000  0.66504000  0.54082000  1.0
  H  H62  1  0.03806000  0.71220000  0.56611000  1.0
  H  H63  1  0.92716000  0.64736000  0.47783000  1.0
  H  H64  1  0.76640000  0.69519000  0.50213000  1.0
  H  H65  1  0.01622000  0.77483000  0.46865000  1.0
  H  H66  1  0.93224000  0.74208000  0.41607000  1.0
  H  H67  1  0.17524000  0.72585000  0.44460000  1.0
  H  H68  1  0.32157000  0.24398000  0.82197000  1.0
  H  H69  1  0.82152000  0.75601000  0.17800000  1.0
  H  H70  1  0.59705000  0.11426000  0.76092000  1.0
  H  H71  1  0.41450000  0.11884000  0.70889000  1.0
  H  H72  1  0.35273000  0.06170000  0.82715000  1.0
  H  H73  1  0.16613000  0.06591000  0.77717000  1.0
  H  H74  1  0.40687000  0.01336000  0.72440000  1.0
  H  H75  1  0.33185000  0.97251000  0.78714000  1.0
  H  H76  1  0.57480000  0.00358000  0.78007000  1.0
  H  H77  1  0.09738000  0.88558000  0.23912000  1.0
  H  H78  1  0.91484000  0.88103000  0.29116000  1.0
  H  H79  1  0.85317000  0.93823000  0.17290000  1.0
  H  H80  1  0.66666667  0.93407000  0.22291000  1.0
  H  H81  1  0.90775000  0.98653000  0.27567000  1.0
  H  H82  1  0.83287000  0.02742000  0.21292000  1.0
  H  H83  1  0.07565000  0.99623000  0.22000000  1.0
  H  H84  1  0.34504000  0.24233000  0.68618000  1.0
  H  H85  1  0.84498000  0.75765000  0.31386000  1.0
  H  H86  1  0.16076000  0.09724000  0.26599000  1.0
  H  H87  1  0.28416000  0.10359000  0.32688000  1.0
  H  H88  1  0.47062000  0.06259000  0.23109000  1.0
  H  H89  1  0.61536000  0.07767000  0.28479000  1.0
  H  H90  1  0.42624000  0.00317000  0.35000000  1.0
  H  H91  1  0.53470000  0.97331000  0.29837000  1.0
  H  H92  1  0.27232000  0.98866000  0.29734000  1.0
  H  H93  1  0.65996000  0.90280000  0.73404000  1.0
  H  H94  1  0.78318000  0.89655000  0.67310000  1.0
  H  H95  1  0.96966000  0.93757000  0.76887000  1.0
  H  H96  1  0.11442000  0.92251000  0.71517000  1.0
  H  H97  1  0.92522000  0.99697000  0.64995000  1.0
  H  H98  1  0.03350000  0.02685000  0.70159000  1.0
  H  H99  1  0.77116000  0.01145000  0.70261000  1.0
  H  H100  1  0.59265000  0.44130000  0.47229000  1.0
  H  H101  1  0.09264000  0.55870000  0.52772000  1.0
  H  H102  1  0.49518000  0.05755000  0.02880000  1.0
  H  H103  1  0.99519000  0.94244000  0.97120000  1.0
  C  C104  1  0.51964000  0.91984000  0.07558000  1.0
  C  C105  1  0.01969000  0.08015000  0.92443000  1.0
  C  C106  1  0.60825000  0.58079000  0.42525000  1.0
  C  C107  1  0.10829000  0.41920000  0.57475000  1.0
  C  C108  1  0.61108000  0.55695000  0.56790000  1.0
  C  C109  1  0.11106000  0.44304000  0.43210000  1.0
  C  C110  1  0.22850000  0.12608000  0.11073000  1.0
  C  C111  1  0.72847000  0.87390000  0.88926000  1.0
  C  C112  1  0.23706000  0.16172000  0.14759000  1.0
  C  C113  1  0.73697000  0.83827000  0.85239000  1.0
  C  C114  1  0.06586000  0.17181000  0.17669000  1.0
  C  C115  1  0.56572000  0.82819000  0.82330000  1.0
  C  C116  1  0.88111000  0.14640000  0.16756000  1.0
  C  C117  1  0.38099000  0.85359000  0.83246000  1.0
  C  C118  1  0.87253000  0.11022000  0.13170000  1.0
  C  C119  1  0.37248000  0.88977000  0.86832000  1.0
  C  C120  1  0.04457000  0.09838000  0.10351000  1.0
  C  C121  1  0.54456000  0.90160000  0.89650000  1.0
  C  C122  1  0.93485000  0.25267000  0.21410000  1.0
  C  C123  1  0.43480000  0.74731000  0.78590000  1.0
  C  C124  1  0.94437000  0.28977000  0.24916000  1.0
  C  C125  1  0.44438000  0.71021000  0.75085000  1.0
  C  C126  1  0.09554000  0.28434000  0.28877000  1.0
  C  C127  1  0.59545000  0.71568000  0.71120000  1.0
  C  C128  1  0.23631000  0.24013000  0.29132000  1.0
  C  C129  1  0.73609000  0.75993000  0.70862000  1.0
  C  C130  1  0.22920000  0.20357000  0.25547000  1.0
  C  C131  1  0.72889000  0.79649000  0.74447000  1.0
  C  C132  1  0.07736000  0.20922000  0.21576000  1.0
  C  C133  1  0.57717000  0.79080000  0.78422000  1.0
  C  C134  1  0.27923000  0.33033000  0.35527000  1.0
  C  C135  1  0.77919000  0.66969000  0.64472000  1.0
  C  C136  1  0.28893000  0.36858000  0.38983000  1.0
  C  C137  1  0.78891000  0.63143000  0.61016000  1.0
  C  C138  1  0.11807000  0.40220000  0.39562000  1.0
  C  C139  1  0.61807000  0.59780000  0.60437000  1.0
  C  C140  1  0.94154000  0.39483000  0.36710000  1.0
  C  C141  1  0.44153000  0.60518000  0.63289000  1.0
  C  C142  1  0.93292000  0.35658000  0.33333333  1.0
  C  C143  1  0.43288000  0.64343000  0.66659000  1.0
  C  C144  1  0.10338000  0.32377000  0.32623000  1.0
  C  C145  1  0.60332000  0.67625000  0.67375000  1.0
  C  C146  1  0.17095000  0.18675000  0.74700000  1.0
  C  C147  1  0.67099000  0.81323000  0.25301000  1.0
  C  C148  1  0.84329000  0.22884000  0.77009000  1.0
  C  C149  1  0.34329000  0.77116000  0.22992000  1.0
  C  C150  1  0.86169000  0.27833000  0.72139000  1.0
  C  C151  1  0.36170000  0.72165000  0.27861000  1.0
  C  C152  1  0.10872000  0.37336000  0.62092000  1.0
  C  C153  1  0.60869000  0.62663000  0.37909000  1.0
  C  C154  1  0.05523000  0.20864000  0.79183000  1.0
  C  C155  1  0.55523000  0.79135000  0.20818000  1.0
  C  C156  1  0.18444000  0.23470000  0.69644000  1.0
  C  C157  1  0.68440000  0.76528000  0.30357000  1.0
  C  C158  1  0.08762000  0.28989000  0.70691000  1.0
  C  C159  1  0.58764000  0.71009000  0.29309000  1.0
  C  C160  1  0.19733000  0.30664000  0.75516000  1.0
  C  C161  1  0.69738000  0.69336000  0.24484000  1.0
  C  C162  1  0.17367000  0.25927000  0.80560000  1.0
  C  C163  1  0.67365000  0.74073000  0.19440000  1.0
  C  C164  1  0.10433000  0.33495000  0.65992000  1.0
  C  C165  1  0.60432000  0.66503000  0.34007000  1.0
  C  C166  1  0.03775000  0.16361000  0.83881000  1.0
  C  C167  1  0.53775000  0.83639000  0.16121000  1.0
  C  C168  1  0.02466000  0.12564000  0.87801000  1.0
  C  C169  1  0.52466000  0.87436000  0.12201000  1.0
  C  C170  1  0.52460000  0.94235000  0.93279000  1.0
  C  C171  1  0.02455000  0.05763000  0.06722000  1.0
  C  C172  1  0.47679000  0.16760000  0.04594000  1.0
  C  C173  1  0.34901000  0.18124000  0.99535000  1.0
  C  C174  1  0.43488000  0.23144000  0.95518000  1.0
  C  C175  1  0.97677000  0.83238000  0.95404000  1.0
  C  C176  1  0.84898000  0.81876000  0.00463000  1.0
  C  C177  1  0.93485000  0.76857000  0.04481000  1.0
  C  C178  1  0.54199000  0.32499000  0.45292000  1.0
  C  C179  1  0.42589000  0.31396000  0.50561000  1.0
  C  C180  1  0.51752000  0.26497000  0.54616000  1.0
  C  C181  1  0.04198000  0.67502000  0.54707000  1.0
  C  C182  1  0.92590000  0.68604000  0.49438000  1.0
  C  C183  1  0.01752000  0.73504000  0.45382000  1.0
  C  C184  1  0.43337000  0.11651000  0.75250000  1.0
  C  C185  1  0.33081000  0.06346000  0.78409000  1.0
  C  C186  1  0.41544000  0.01043000  0.76802000  1.0
  C  C187  1  0.93369000  0.88338000  0.24754000  1.0
  C  C188  1  0.83131000  0.93646000  0.21597000  1.0
  C  C189  1  0.91625000  0.98946000  0.23204000  1.0
  C  C190  1  0.30744000  0.10567000  0.28356000  1.0
  C  C191  1  0.46572000  0.06316000  0.27414000  1.0
  C  C192  1  0.42213000  0.00386000  0.30675000  1.0
  C  C193  1  0.80662000  0.89444000  0.71641000  1.0
  C  C194  1  0.96476000  0.93700000  0.72582000  1.0
  C  C195  1  0.92103000  0.99629000  0.69321000  1.0
  O  O196  1  0.43579000  0.54370000  0.55323000  1.0
  O  O197  1  0.93576000  0.45632000  0.44675000  1.0
  O  O198  1  0.78036000  0.56122000  0.44234000  1.0
  O  O199  1  0.28039000  0.43878000  0.55768000  1.0
  O  O200  1  0.77618000  0.53805000  0.55326000  1.0
  O  O201  1  0.27615000  0.46193000  0.44675000  1.0
  O  O202  1  0.93527000  0.43499000  0.55531000  1.0
  O  O203  1  0.43523000  0.56498000  0.44468000  1.0
  O  O204  1  0.18503000  0.03630000  0.05271000  1.0
  O  O205  1  0.68506000  0.96371000  0.94726000  1.0
  O  O206  1  0.60262000  0.46600000  0.49797000  1.0
  O  O207  1  0.10261000  0.53399000  0.50203000  1.0
  O  O208  1  0.34680000  0.93393000  0.05506000  1.0
  O  O209  1  0.84688000  0.06608000  0.94498000  1.0
  O  O210  1  0.51051000  0.03410000  0.00208000  1.0
  O  O211  1  0.01051000  0.96588000  0.99792000  1.0
  O  O212  1  0.69080000  0.94103000  0.05931000  1.0
  O  O213  1  0.19084000  0.05893000  0.94067000  1.0
  O  O214  1  0.34635000  0.95363000  0.94701000  1.0
  O  O215  1  0.84629000  0.04633000  0.05303000  1.0
  O  O216  1  0.40121000  0.11804000  0.08294000  1.0
  O  O217  1  0.90122000  0.88194000  0.91703000  1.0
  O  O218  1  0.46634000  0.37452000  0.41628000  1.0
  O  O219  1  0.96632000  0.62549000  0.58371000  1.0
  O  O220  1  0.36758000  0.16820000  0.76635000  1.0
  O  O221  1  0.86766000  0.83172000  0.23365000  1.0
  O  O222  1  0.37634000  0.16201000  0.25940000  1.0
  O  O223  1  0.87583000  0.83811000  0.74051000  1.0
