# generated using pymatgen
data_GdAgH6C12(NO2)4
_symmetry_space_group_name_H-M   'P 1'
_cell_length_a   8.05911000
_cell_length_b   10.08080000
_cell_length_c   18.50410000
_cell_angle_alpha   90.00000000
_cell_angle_beta   89.99990000
_cell_angle_gamma   95.66260000
_symmetry_Int_Tables_number   1
_chemical_formula_structural   GdAgH6C12(NO2)4
_chemical_formula_sum   'Gd4 Ag4 H24 C48 N16 O32'
_cell_volume   1495.97930727
_cell_formula_units_Z   4
loop_
 _symmetry_equiv_pos_site_id
 _symmetry_equiv_pos_as_xyz
  1  'x, y, z'
loop_
 _atom_site_type_symbol
 _atom_site_label
 _atom_site_symmetry_multiplicity
 _atom_site_fract_x
 _atom_site_fract_y
 _atom_site_fract_z
 _atom_site_occupancy
  Gd  Gd0  1  0.25867000  0.14376000  0.10582000  1.0
  Gd  Gd1  1  0.24133000  0.85624000  0.60582000  1.0
  Gd  Gd2  1  0.74134000  0.85624000  0.89418000  1.0
  Gd  Gd3  1  0.75867000  0.14375000  0.39418000  1.0
  Ag  Ag4  1  0.60605000  0.65122000  0.07406000  1.0
  Ag  Ag5  1  0.89395000  0.34877000  0.57406000  1.0
  Ag  Ag6  1  0.39395000  0.34877000  0.92593000  1.0
  Ag  Ag7  1  0.10605000  0.65122000  0.42593000  1.0
  H  H8  1  0.61634000  0.35182000  0.08257000  1.0
  H  H9  1  0.88366000  0.64818000  0.58258000  1.0
  H  H10  1  0.38366000  0.64818000  0.91742000  1.0
  H  H11  1  0.11634000  0.35182000  0.41742000  1.0
  H  H12  1  0.81561000  0.17456000  0.09201000  1.0
  H  H13  1  0.68439000  0.82544000  0.59201000  1.0
  H  H14  1  0.18439000  0.82544000  0.90799000  1.0
  H  H15  1  0.31561000  0.17457000  0.40799000  1.0
  H  H16  1  0.01836000  0.64515000  0.08414000  1.0
  H  H17  1  0.48164000  0.35485000  0.58414000  1.0
  H  H18  1  0.98165000  0.35485000  0.91586000  1.0
  H  H19  1  0.51836000  0.64515000  0.41586000  1.0
  H  H20  1  0.80330000  0.79471000  0.35045000  1.0
  H  H21  1  0.69670000  0.20529000  0.85045000  1.0
  H  H22  1  0.19670000  0.20529000  0.64955000  1.0
  H  H23  1  0.30329000  0.79471000  0.14955000  1.0
  H  H24  1  0.76562000  0.63892000  0.24315000  1.0
  H  H25  1  0.73438000  0.36108000  0.74315000  1.0
  H  H26  1  0.23438000  0.36109000  0.75685000  1.0
  H  H27  1  0.26562000  0.63892000  0.25685000  1.0
  H  H28  1  0.61921000  0.94911000  0.11827000  1.0
  H  H29  1  0.88079000  0.05089000  0.61827000  1.0
  H  H30  1  0.38078000  0.05089000  0.88173000  1.0
  H  H31  1  0.11921000  0.94911000  0.38173000  1.0
  C  C32  1  0.75049000  0.37736000  0.08503000  1.0
  C  C33  1  0.74951000  0.62264000  0.58503000  1.0
  C  C34  1  0.24951000  0.62264000  0.91497000  1.0
  C  C35  1  0.25049000  0.37736000  0.41497000  1.0
  C  C36  1  0.86098000  0.27972000  0.09025000  1.0
  C  C37  1  0.63902000  0.72028000  0.59024000  1.0
  C  C38  1  0.13902000  0.72028000  0.90975000  1.0
  C  C39  1  0.36098000  0.27972000  0.40976000  1.0
  C  C40  1  0.08133000  0.44149000  0.09174000  1.0
  C  C41  1  0.41867000  0.55851000  0.59174000  1.0
  C  C42  1  0.91867000  0.55851000  0.90826000  1.0
  C  C43  1  0.58133000  0.44149000  0.40826000  1.0
  C  C44  1  0.97176000  0.53995000  0.08657000  1.0
  C  C45  1  0.52824000  0.46005000  0.58657000  1.0
  C  C46  1  0.02824000  0.46005000  0.91343000  1.0
  C  C47  1  0.47176000  0.53995000  0.41343000  1.0
  C  C48  1  0.26791000  0.47360000  0.09247000  1.0
  C  C49  1  0.23209000  0.52639000  0.59247000  1.0
  C  C50  1  0.73209000  0.52640000  0.90753000  1.0
  C  C51  1  0.76791000  0.47360000  0.40753000  1.0
  C  C52  1  0.66449000  0.99566000  0.23055000  1.0
  C  C53  1  0.83551000  0.00434000  0.73055000  1.0
  C  C54  1  0.33551000  0.00434000  0.76945000  1.0
  C  C55  1  0.16449000  0.99566000  0.26945000  1.0
  C  C56  1  0.76057000  0.82864000  0.29836000  1.0
  C  C57  1  0.73943000  0.17136000  0.79836000  1.0
  C  C58  1  0.23943000  0.17136000  0.70163000  1.0
  C  C59  1  0.26057000  0.82864000  0.20164000  1.0
  C  C60  1  0.74094000  0.74319000  0.23885000  1.0
  C  C61  1  0.75906000  0.25680000  0.73884000  1.0
  C  C62  1  0.25906000  0.25681000  0.76115000  1.0
  C  C63  1  0.24094000  0.74320000  0.26116000  1.0
  C  C64  1  0.65672000  0.91259000  0.17030000  1.0
  C  C65  1  0.84328000  0.08742000  0.67030000  1.0
  C  C66  1  0.34328000  0.08742000  0.82970000  1.0
  C  C67  1  0.15672000  0.91259000  0.32970000  1.0
  C  C68  1  0.60177000  0.13201000  0.22831000  1.0
  C  C69  1  0.89823000  0.86799000  0.72831000  1.0
  C  C70  1  0.39823000  0.86799000  0.77170000  1.0
  C  C71  1  0.10177000  0.13201000  0.27170000  1.0
  C  C72  1  0.45588000  0.93169000  0.01208000  1.0
  C  C73  1  0.04411000  0.06831000  0.51207000  1.0
  C  C74  1  0.54412000  0.06831000  0.98792000  1.0
  C  C75  1  0.95588000  0.93169000  0.48792000  1.0
  C  C76  1  0.95710000  0.96128000  0.03240000  1.0
  C  C77  1  0.54290000  0.03872000  0.53240000  1.0
  C  C78  1  0.04291000  0.03872000  0.96760000  1.0
  C  C79  1  0.45710000  0.96128000  0.46759000  1.0
  N  N80  1  0.02563000  0.31117000  0.09277000  1.0
  N  N81  1  0.47436000  0.68883000  0.59277000  1.0
  N  N82  1  0.97437000  0.68883000  0.90723000  1.0
  N  N83  1  0.52564000  0.31117000  0.40723000  1.0
  N  N84  1  0.80614000  0.50737000  0.08238000  1.0
  N  N85  1  0.69386000  0.49263000  0.58238000  1.0
  N  N86  1  0.19386000  0.49263000  0.91762000  1.0
  N  N87  1  0.30614000  0.50737000  0.41762000  1.0
  N  N88  1  0.72358000  0.95525000  0.29385000  1.0
  N  N89  1  0.77642000  0.04475000  0.79385000  1.0
  N  N90  1  0.27642000  0.04474000  0.70615000  1.0
  N  N91  1  0.22358000  0.95526000  0.20615000  1.0
  N  N92  1  0.69282000  0.78615000  0.17428000  1.0
  N  N93  1  0.80718000  0.21385000  0.67428000  1.0
  N  N94  1  0.30717000  0.21385000  0.82572000  1.0
  N  N95  1  0.19282000  0.78615000  0.32572000  1.0
  O  O96  1  0.35336000  0.37359000  0.09149000  1.0
  O  O97  1  0.14663000  0.62640000  0.59149000  1.0
  O  O98  1  0.64664000  0.62641000  0.90851000  1.0
  O  O99  1  0.85336000  0.37359000  0.40851000  1.0
  O  O100  1  0.32349000  0.59493000  0.09201000  1.0
  O  O101  1  0.17650000  0.40507000  0.59201000  1.0
  O  O102  1  0.67650000  0.40507000  0.90799000  1.0
  O  O103  1  0.82350000  0.59493000  0.40799000  1.0
  O  O104  1  0.64426000  0.20919000  0.28044000  1.0
  O  O105  1  0.85574000  0.79081000  0.78044000  1.0
  O  O106  1  0.35574000  0.79081000  0.71956000  1.0
  O  O107  1  0.14426000  0.20919000  0.21956000  1.0
  O  O108  1  0.51017000  0.15670000  0.17522000  1.0
  O  O109  1  0.98984000  0.84331000  0.67522000  1.0
  O  O110  1  0.48983000  0.84330000  0.82478000  1.0
  O  O111  1  0.01017000  0.15670000  0.32478000  1.0
  O  O112  1  0.51167000  0.82893000  0.98554000  1.0
  O  O113  1  0.98833000  0.17107000  0.48554000  1.0
  O  O114  1  0.48833000  0.17107000  0.01446000  1.0
  O  O115  1  0.01167000  0.82893000  0.51447000  1.0
  O  O116  1  0.33727000  0.93445000  0.05666000  1.0
  O  O117  1  0.16273000  0.06555000  0.55666000  1.0
  O  O118  1  0.66273000  0.06555000  0.94334000  1.0
  O  O119  1  0.83728000  0.93445000  0.44334000  1.0
  O  O120  1  0.99989000  0.00181000  0.09514000  1.0
  O  O121  1  0.50011000  0.99818000  0.59514000  1.0
  O  O122  1  0.00011000  0.99819000  0.90487000  1.0
  O  O123  1  0.49989000  0.00182000  0.40486000  1.0
  O  O124  1  0.84991000  0.86508000  0.01693000  1.0
  O  O125  1  0.65009000  0.13491000  0.51692000  1.0
  O  O126  1  0.15010000  0.13491000  0.98308000  1.0
  O  O127  1  0.34990000  0.86508000  0.48307000  1.0
