# generated using pymatgen
data_HoH3C4O9
_symmetry_space_group_name_H-M   'P 1'
_cell_length_a   9.90824000
_cell_length_b   10.56960000
_cell_length_c   12.00150000
_cell_angle_alpha   73.05100000
_cell_angle_beta   89.99770000
_cell_angle_gamma   89.99150000
_symmetry_Int_Tables_number   1
_chemical_formula_structural   HoH3C4O9
_chemical_formula_sum   'Ho4 H12 C16 O36'
_cell_volume   1202.27802491
_cell_formula_units_Z   4
loop_
 _symmetry_equiv_pos_site_id
 _symmetry_equiv_pos_as_xyz
  1  'x, y, z'
loop_
 _atom_site_type_symbol
 _atom_site_label
 _atom_site_symmetry_multiplicity
 _atom_site_fract_x
 _atom_site_fract_y
 _atom_site_fract_z
 _atom_site_occupancy
  Ho  Ho0  1  0.42686000  0.20666000  0.11466000  1.0
  Ho  Ho1  1  0.92683000  0.29337000  0.38535000  1.0
  Ho  Ho2  1  0.57314000  0.79325000  0.88540000  1.0
  Ho  Ho3  1  0.07316000  0.70675000  0.61456000  1.0
  H  H4  1  0.23998000  0.09276000  0.33619000  1.0
  H  H5  1  0.73995000  0.40721000  0.16385000  1.0
  H  H6  1  0.76004000  0.90724000  0.66379000  1.0
  H  H7  1  0.26009000  0.59273000  0.83617000  1.0
  H  H8  1  0.33598000  0.98352000  0.31158000  1.0
  H  H9  1  0.83587000  0.51647000  0.18839000  1.0
  H  H10  1  0.66404000  0.01641000  0.68850000  1.0
  H  H11  1  0.16409000  0.48357000  0.81148000  1.0
  H  H12  1  0.44726000  0.13065000  0.38673000  1.0
  H  H13  1  0.94724000  0.36934000  0.11332000  1.0
  H  H14  1  0.55277000  0.86932000  0.61334000  1.0
  H  H15  1  0.05281000  0.63067000  0.88664000  1.0
  C  C16  1  0.18071000  0.34583000  0.19934000  1.0
  C  C17  1  0.68072000  0.15420000  0.30070000  1.0
  C  C18  1  0.81931000  0.65417000  0.80068000  1.0
  C  C19  1  0.31928000  0.84582000  0.69930000  1.0
  C  C20  1  0.55892000  0.49579000  0.04288000  1.0
  C  C21  1  0.05891000  0.00421000  0.45712000  1.0
  C  C22  1  0.44109000  0.50412000  0.95721000  1.0
  C  C23  1  0.94108000  0.99589000  0.54279000  1.0
  C  C24  1  0.12124000  0.28607000  0.10572000  1.0
  C  C25  1  0.62122000  0.21394000  0.39432000  1.0
  C  C26  1  0.87878000  0.71390000  0.89430000  1.0
  C  C27  1  0.37877000  0.78609000  0.60568000  1.0
  C  C28  1  0.45890000  0.94723000  0.04648000  1.0
  C  C29  1  0.95886000  0.55278000  0.45351000  1.0
  C  C30  1  0.54108000  0.05265000  0.95358000  1.0
  C  C31  1  0.04108000  0.44736000  0.54640000  1.0
  O  O32  1  0.30753000  0.34489000  0.20462000  1.0
  O  O33  1  0.80754000  0.15514000  0.29540000  1.0
  O  O34  1  0.69248000  0.65502000  0.79546000  1.0
  O  O35  1  0.19245000  0.84496000  0.70453000  1.0
  O  O36  1  0.09889000  0.38567000  0.26225000  1.0
  O  O37  1  0.59893000  0.11436000  0.23778000  1.0
  O  O38  1  0.90113000  0.61441000  0.73770000  1.0
  O  O39  1  0.40108000  0.88556000  0.76229000  1.0
  O  O40  1  0.58650000  0.38089000  0.11069000  1.0
  O  O41  1  0.08647000  0.11912000  0.38931000  1.0
  O  O42  1  0.41352000  0.61902000  0.88937000  1.0
  O  O43  1  0.91350000  0.88099000  0.61059000  1.0
  O  O44  1  0.62050000  0.60053000  0.03967000  1.0
  O  O45  1  0.12051000  0.89946000  0.46032000  1.0
  O  O46  1  0.37950000  0.39940000  0.96042000  1.0
  O  O47  1  0.87949000  0.10063000  0.53961000  1.0
  O  O48  1  0.99817000  0.31720000  0.06770000  1.0
  O  O49  1  0.49817000  0.18280000  0.43235000  1.0
  O  O50  1  0.00189000  0.68279000  0.93229000  1.0
  O  O51  1  0.50186000  0.81720000  0.56769000  1.0
  O  O52  1  0.19281000  0.21111000  0.06861000  1.0
  O  O53  1  0.69276000  0.28890000  0.43144000  1.0
  O  O54  1  0.80721000  0.78880000  0.93146000  1.0
  O  O55  1  0.30724000  0.71119000  0.56852000  1.0
  O  O56  1  0.46122000  0.83032000  0.03909000  1.0
  O  O57  1  0.96118000  0.66969000  0.46090000  1.0
  O  O58  1  0.53874000  0.16955000  0.96098000  1.0
  O  O59  1  0.03871000  0.33044000  0.53903000  1.0
  O  O60  1  0.39696000  0.98790000  0.12168000  1.0
  O  O61  1  0.89690000  0.51213000  0.37833000  1.0
  O  O62  1  0.60304000  0.01197000  0.87839000  1.0
  O  O63  1  0.10308000  0.48803000  0.62156000  1.0
  O  O64  1  0.33333333  0.07654000  0.31008000  1.0
  O  O65  1  0.83322000  0.42346000  0.18995000  1.0
  O  O66  1  0.66674000  0.92342000  0.68996000  1.0
  O  O67  1  0.16677000  0.57658000  0.80999000  1.0
