# generated using pymatgen
data_CdH9C11N3O4
_symmetry_space_group_name_H-M   'P 1'
_cell_length_a   8.81058000
_cell_length_b   10.33240000
_cell_length_c   13.30610000
_cell_angle_alpha   89.99910000
_cell_angle_beta   89.99980000
_cell_angle_gamma   93.57610000
_symmetry_Int_Tables_number   1
_chemical_formula_structural   CdH9C11N3O4
_chemical_formula_sum   'Cd4 H36 C44 N12 O16'
_cell_volume   1208.95469069
_cell_formula_units_Z   4
loop_
 _symmetry_equiv_pos_site_id
 _symmetry_equiv_pos_as_xyz
  1  'x, y, z'
loop_
 _atom_site_type_symbol
 _atom_site_label
 _atom_site_symmetry_multiplicity
 _atom_site_fract_x
 _atom_site_fract_y
 _atom_site_fract_z
 _atom_site_occupancy
  Cd  Cd0  1  0.51363000  0.86060000  0.91263000  1.0
  Cd  Cd1  1  0.98638000  0.63940000  0.41262000  1.0
  Cd  Cd2  1  0.48638000  0.13941000  0.08739000  1.0
  Cd  Cd3  1  0.01361000  0.36060000  0.58739000  1.0
  H  H4  1  0.14591000  0.92239000  0.36226000  1.0
  H  H5  1  0.35410000  0.57762000  0.86227000  1.0
  H  H6  1  0.85408000  0.07761000  0.63772000  1.0
  H  H7  1  0.64591000  0.42239000  0.13772000  1.0
  H  H8  1  0.32254000  0.09494000  0.44136000  1.0
  H  H9  1  0.17747000  0.40507000  0.94138000  1.0
  H  H10  1  0.67746000  0.90507000  0.55864000  1.0
  H  H11  1  0.82252000  0.59493000  0.05863000  1.0
  H  H12  1  0.41003000  0.06133000  0.61821000  1.0
  H  H13  1  0.08998000  0.43869000  0.11823000  1.0
  H  H14  1  0.58995000  0.93868000  0.38178000  1.0
  H  H15  1  0.91003000  0.56131000  0.88178000  1.0
  H  H16  1  0.76242000  0.85550000  0.10257000  1.0
  H  H17  1  0.73758000  0.64449000  0.60256000  1.0
  H  H18  1  0.23757000  0.14450000  0.89743000  1.0
  H  H19  1  0.26241000  0.35550000  0.39743000  1.0
  H  H20  1  0.07351000  0.84866000  0.07848000  1.0
  H  H21  1  0.42648000  0.65133000  0.57848000  1.0
  H  H22  1  0.92649000  0.15133000  0.92152000  1.0
  H  H23  1  0.57350000  0.34865000  0.42151000  1.0
  H  H24  1  0.81179000  0.75049000  0.73444000  1.0
  H  H25  1  0.68820000  0.74952000  0.23445000  1.0
  H  H26  1  0.18821000  0.24952000  0.26555000  1.0
  H  H27  1  0.31179000  0.25050000  0.76556000  1.0
  H  H28  1  0.96462000  0.87122000  0.72547000  1.0
  H  H29  1  0.53538000  0.62879000  0.22548000  1.0
  H  H30  1  0.03538000  0.12880000  0.27452000  1.0
  H  H31  1  0.46463000  0.37121000  0.77452000  1.0
  H  H32  1  0.77278000  0.91669000  0.74172000  1.0
  H  H33  1  0.72722000  0.58331000  0.24173000  1.0
  H  H34  1  0.22722000  0.08332000  0.25827000  1.0
  H  H35  1  0.27278000  0.41669000  0.75827000  1.0
  H  H36  1  0.11317000  0.85378000  0.88429000  1.0
  H  H37  1  0.38683000  0.64623000  0.38429000  1.0
  H  H38  1  0.88683000  0.14623000  0.11571000  1.0
  H  H39  1  0.61316000  0.35377000  0.61570000  1.0
  C  C40  1  0.18334000  0.91512000  0.43998000  1.0
  C  C41  1  0.31667000  0.58490000  0.93999000  1.0
  C  C42  1  0.81665000  0.08488000  0.56001000  1.0
  C  C43  1  0.68335000  0.41510000  0.06002000  1.0
  C  C44  1  0.28204000  0.00959000  0.48394000  1.0
  C  C45  1  0.21797000  0.49042000  0.98395000  1.0
  C  C46  1  0.71795000  0.99042000  0.51607000  1.0
  C  C47  1  0.78205000  0.50956000  0.01606000  1.0
  C  C48  1  0.33018000  0.99095000  0.58212000  1.0
  C  C49  1  0.16982000  0.50906000  0.08213000  1.0
  C  C50  1  0.66980000  0.00905000  0.41789000  1.0
  C  C51  1  0.83019000  0.49093000  0.91788000  1.0
  C  C52  1  0.27934000  0.87857000  0.63436000  1.0
  C  C53  1  0.22069000  0.62144000  0.13437000  1.0
  C  C54  1  0.72068000  0.12145000  0.36565000  1.0
  C  C55  1  0.77932000  0.37855000  0.86564000  1.0
  C  C56  1  0.17923000  0.78856000  0.58519000  1.0
  C  C57  1  0.32078000  0.71146000  0.08519000  1.0
  C  C58  1  0.82078000  0.21147000  0.41481000  1.0
  C  C59  1  0.67922000  0.28853000  0.91481000  1.0
  C  C60  1  0.34125000  0.86018000  0.73847000  1.0
  C  C61  1  0.15876000  0.63982000  0.23847000  1.0
  C  C62  1  0.65875000  0.13983000  0.26154000  1.0
  C  C63  1  0.84124000  0.36016000  0.76153000  1.0
  C  C64  1  0.12465000  0.66157000  0.63516000  1.0
  C  C65  1  0.37536000  0.83844000  0.13517000  1.0
  C  C66  1  0.87535000  0.33844000  0.36484000  1.0
  C  C67  1  0.62464000  0.16156000  0.86484000  1.0
  C  C68  1  0.82902000  0.84785000  0.03470000  1.0
  C  C69  1  0.67098000  0.65213000  0.53469000  1.0
  C  C70  1  0.17098000  0.15213000  0.96530000  1.0
  C  C71  1  0.32901000  0.34786000  0.46530000  1.0
  C  C72  1  0.98352000  0.84591000  0.02321000  1.0
  C  C73  1  0.51648000  0.65408000  0.52321000  1.0
  C  C74  1  0.01648000  0.15407000  0.97678000  1.0
  C  C75  1  0.48351000  0.34591000  0.47678000  1.0
  C  C76  1  0.87436000  0.84485000  0.87268000  1.0
  C  C77  1  0.62563000  0.65515000  0.37268000  1.0
  C  C78  1  0.12564000  0.15516000  0.12732000  1.0
  C  C79  1  0.37436000  0.34485000  0.62731000  1.0
  C  C80  1  0.85542000  0.84589000  0.76207000  1.0
  C  C81  1  0.64458000  0.65411000  0.26207000  1.0
  C  C82  1  0.14458000  0.15412000  0.23793000  1.0
  C  C83  1  0.35542000  0.34590000  0.73793000  1.0
  N  N84  1  0.13335000  0.80826000  0.48988000  1.0
  N  N85  1  0.36664000  0.69176000  0.98988000  1.0
  N  N86  1  0.86664000  0.19174000  0.51012000  1.0
  N  N87  1  0.63337000  0.30824000  0.01013000  1.0
  N  N88  1  0.76222000  0.84658000  0.94054000  1.0
  N  N89  1  0.73778000  0.65341000  0.44054000  1.0
  N  N90  1  0.23778000  0.15341000  0.05946000  1.0
  N  N91  1  0.26221000  0.34660000  0.55946000  1.0
  N  N92  1  0.00952000  0.84305000  0.92102000  1.0
  N  N93  1  0.49048000  0.65694000  0.42102000  1.0
  N  N94  1  0.99048000  0.15694000  0.07898000  1.0
  N  N95  1  0.50951000  0.34304000  0.57897000  1.0
  O  O96  1  0.47041000  0.81169000  0.74463000  1.0
  O  O97  1  0.02961000  0.68832000  0.24462000  1.0
  O  O98  1  0.52959000  0.18832000  0.25538000  1.0
  O  O99  1  0.97041000  0.31168000  0.75539000  1.0
  O  O100  1  0.27220000  0.90699000  0.81254000  1.0
  O  O101  1  0.22779000  0.59301000  0.31255000  1.0
  O  O102  1  0.72780000  0.09303000  0.18746000  1.0
  O  O103  1  0.77219000  0.40695000  0.68745000  1.0
  O  O104  1  0.03620000  0.58531000  0.58090000  1.0
  O  O105  1  0.46383000  0.91470000  0.08092000  1.0
  O  O106  1  0.96381000  0.41470000  0.41909000  1.0
  O  O107  1  0.53619000  0.08530000  0.91910000  1.0
  O  O108  1  0.16882000  0.63930000  0.72198000  1.0
  O  O109  1  0.33120000  0.86070000  0.22199000  1.0
  O  O110  1  0.83119000  0.36072000  0.27802000  1.0
  O  O111  1  0.66883000  0.13928000  0.77802000  1.0
