# generated using pymatgen
data_Zn2H25C39N5O11F4
_symmetry_space_group_name_H-M   'P 1'
_cell_length_a   12.39760000
_cell_length_b   14.25460000
_cell_length_c   16.24630000
_cell_angle_alpha   83.70730000
_cell_angle_beta   71.33560000
_cell_angle_gamma   70.56480000
_symmetry_Int_Tables_number   1
_chemical_formula_structural   Zn2H25C39N5O11F4
_chemical_formula_sum   'Zn4 H50 C78 N10 O22 F8'
_cell_volume   2565.08812290
_cell_formula_units_Z   2
loop_
 _symmetry_equiv_pos_site_id
 _symmetry_equiv_pos_as_xyz
  1  'x, y, z'
loop_
 _atom_site_type_symbol
 _atom_site_label
 _atom_site_symmetry_multiplicity
 _atom_site_fract_x
 _atom_site_fract_y
 _atom_site_fract_z
 _atom_site_occupancy
  Zn  Zn0  1  0.69689000  0.28561000  0.23264000  1.0
  Zn  Zn1  1  0.30311000  0.71438000  0.76737000  1.0
  Zn  Zn2  1  0.05290000  0.76257000  0.35867000  1.0
  Zn  Zn3  1  0.94709000  0.23744000  0.64133000  1.0
  H  H4  1  0.59468000  0.26107000  0.38119000  1.0
  H  H5  1  0.40532000  0.73893000  0.61881000  1.0
  H  H6  1  0.69449000  0.31147000  0.39200000  1.0
  H  H7  1  0.30551000  0.68853000  0.60800000  1.0
  H  H8  1  0.04370000  0.37917000  0.18224000  1.0
  H  H9  1  0.95631000  0.62083000  0.81776000  1.0
  H  H10  1  0.61589000  0.75663000  0.08489000  1.0
  H  H11  1  0.38411000  0.24336000  0.91511000  1.0
  H  H12  1  0.27844000  0.24368000  0.44369000  1.0
  H  H13  1  0.72157000  0.75632000  0.55631000  1.0
  H  H14  1  0.00574000  0.33295000  0.31623000  1.0
  H  H15  1  0.99426000  0.66706000  0.68377000  1.0
  H  H16  1  0.36438000  0.33741000  0.17493000  1.0
  H  H17  1  0.63562000  0.66258000  0.82507000  1.0
  H  H18  1  0.91256000  0.23525000  0.07896000  1.0
  H  H19  1  0.08744000  0.76475000  0.92104000  1.0
  H  H20  1  0.08212000  0.08241000  0.01752000  1.0
  H  H21  1  0.91788000  0.91760000  0.98247000  1.0
  H  H22  1  0.07567000  0.91745000  0.08965000  1.0
  H  H23  1  0.92433000  0.08256000  0.91034000  1.0
  H  H24  1  0.90098000  0.91271000  0.21823000  1.0
  H  H25  1  0.09903000  0.08729000  0.78175000  1.0
  H  H26  1  0.73673000  0.07342000  0.27075000  1.0
  H  H27  1  0.26328000  0.92658000  0.72924000  1.0
  H  H28  1  0.93001000  0.50415000  0.27395000  1.0
  H  H29  1  0.07000000  0.49585000  0.72605000  1.0
  H  H30  1  0.82290000  0.80495000  0.18468000  1.0
  H  H31  1  0.17711000  0.19504000  0.81532000  1.0
  H  H32  1  0.67766000  0.59232000  0.12622000  1.0
  H  H33  1  0.32235000  0.40767000  0.87378000  1.0
  H  H34  1  0.24514000  0.78164000  0.41405000  1.0
  H  H35  1  0.75486000  0.21836000  0.58595000  1.0
  H  H36  1  0.46477000  0.69387000  0.39228000  1.0
  H  H37  1  0.53522000  0.30613000  0.60772000  1.0
  H  H38  1  0.56550000  0.54006000  0.29812000  1.0
  H  H39  1  0.43449000  0.45994000  0.70188000  1.0
  H  H40  1  0.44383000  0.48217000  0.23129000  1.0
  H  H41  1  0.55616000  0.51784000  0.76872000  1.0
  H  H42  1  0.22382000  0.57963000  0.26046000  1.0
  H  H43  1  0.77617000  0.42038000  0.73953000  1.0
  H  H44  1  0.89312000  0.94508000  0.44836000  1.0
  H  H45  1  0.10688000  0.05492000  0.55165000  1.0
  H  H46  1  0.84795000  0.13092000  0.42512000  1.0
  H  H47  1  0.15205000  0.86907000  0.57488000  1.0
  H  H48  1  0.99043000  0.19320000  0.30477000  1.0
  H  H49  1  0.00956000  0.80680000  0.69524000  1.0
  H  H50  1  0.17803000  0.06983000  0.21399000  1.0
  H  H51  1  0.82195000  0.93018000  0.78601000  1.0
  H  H52  1  0.20895000  0.88764000  0.24474000  1.0
  H  H53  1  0.79104000  0.11237000  0.75526000  1.0
  C  C54  1  0.45675000  0.27790000  0.31148000  1.0
  C  C55  1  0.54324000  0.72210000  0.68852000  1.0
  C  C56  1  0.04121000  0.26277000  0.46709000  1.0
  C  C57  1  0.95879000  0.73723000  0.53292000  1.0
  C  C58  1  0.33306000  0.28953000  0.30966000  1.0
  C  C59  1  0.66694000  0.71047000  0.69033000  1.0
  C  C60  1  0.25094000  0.26921000  0.38573000  1.0
  C  C61  1  0.74906000  0.73079000  0.61427000  1.0
  C  C62  1  0.13328000  0.28317000  0.38724000  1.0
  C  C63  1  0.86673000  0.71683000  0.61277000  1.0
  C  C64  1  0.09887000  0.31866000  0.31328000  1.0
  C  C65  1  0.90113000  0.68134000  0.68672000  1.0
  C  C66  1  0.18114000  0.33754000  0.23645000  1.0
  C  C67  1  0.81886000  0.66246000  0.76355000  1.0
  C  C68  1  0.29971000  0.32265000  0.23393000  1.0
  C  C69  1  0.70029000  0.67734000  0.76607000  1.0
  C  C70  1  0.18449000  0.40481000  0.08684000  1.0
  C  C71  1  0.81554000  0.59519000  0.91316000  1.0
  C  C72  1  0.09072000  0.45394000  0.04051000  1.0
  C  C73  1  0.90929000  0.54606000  0.95949000  1.0
  C  C74  1  0.05699000  0.55607000  0.02449000  1.0
  C  C75  1  0.94302000  0.44393000  0.97551000  1.0
  C  C76  1  0.96744000  0.60070000  0.98521000  1.0
  C  C77  1  0.03258000  0.39930000  0.01479000  1.0
  C  C78  1  0.91326000  0.16234000  0.10702000  1.0
  C  C79  1  0.08674000  0.83767000  0.89297000  1.0
  C  C80  1  0.00736000  0.07698000  0.07371000  1.0
  C  C81  1  0.99264000  0.92303000  0.92628000  1.0
  C  C82  1  0.00323000  0.98596000  0.11388000  1.0
  C  C83  1  0.99677000  0.01404000  0.88610000  1.0
  C  C84  1  0.90533000  0.98287000  0.18527000  1.0
  C  C85  1  0.09468000  0.01713000  0.81472000  1.0
  C  C86  1  0.81477000  0.07147000  0.21476000  1.0
  C  C87  1  0.18524000  0.92853000  0.78523000  1.0
  C  C88  1  0.80319000  0.43153000  0.20442000  1.0
  C  C89  1  0.19681000  0.56846000  0.79558000  1.0
  C  C90  1  0.96662000  0.67667000  0.27368000  1.0
  C  C91  1  0.03338000  0.32333000  0.72632000  1.0
  C  C92  1  0.80367000  0.53677000  0.19988000  1.0
  C  C93  1  0.19634000  0.46322000  0.80012000  1.0
  C  C94  1  0.87751000  0.55983000  0.23842000  1.0
  C  C95  1  0.12249000  0.44016000  0.76158000  1.0
  C  C96  1  0.88420000  0.65606000  0.23287000  1.0
  C  C97  1  0.11580000  0.34394000  0.76712000  1.0
  C  C98  1  0.81638000  0.73050000  0.18962000  1.0
  C  C99  1  0.18362000  0.26949000  0.81038000  1.0
  C  C100  1  0.74098000  0.70781000  0.15189000  1.0
  C  C101  1  0.25902000  0.29218000  0.84811000  1.0
  C  C102  1  0.73391000  0.61103000  0.15733000  1.0
  C  C103  1  0.26609000  0.38897000  0.84268000  1.0
  C  C104  1  0.67296000  0.87459000  0.08563000  1.0
  C  C105  1  0.32703000  0.12540000  0.91437000  1.0
  C  C106  1  0.58054000  0.93526000  0.04206000  1.0
  C  C107  1  0.41946000  0.06473000  0.95795000  1.0
  C  C108  1  0.59597000  0.92286000  0.95462000  1.0
  C  C109  1  0.40403000  0.07714000  0.04539000  1.0
  C  C110  1  0.51673000  0.98649000  0.91303000  1.0
  C  C111  1  0.48326000  0.01351000  0.08697000  1.0
  C  C112  1  0.29411000  0.71604000  0.37301000  1.0
  C  C113  1  0.70588000  0.28397000  0.62699000  1.0
  C  C114  1  0.41520000  0.66626000  0.36133000  1.0
  C  C115  1  0.58480000  0.33375000  0.63867000  1.0
  C  C116  1  0.47073000  0.58110000  0.30963000  1.0
  C  C117  1  0.52927000  0.41890000  0.69037000  1.0
  C  C118  1  0.40339000  0.54865000  0.27151000  1.0
  C  C119  1  0.59660000  0.45135000  0.72849000  1.0
  C  C120  1  0.28246000  0.60233000  0.28620000  1.0
  C  C121  1  0.71753000  0.39768000  0.71380000  1.0
  C  C122  1  0.95322000  0.97701000  0.39766000  1.0
  C  C123  1  0.04678000  0.02299000  0.60235000  1.0
  C  C124  1  0.92897000  0.07895000  0.38448000  1.0
  C  C125  1  0.07103000  0.92105000  0.61553000  1.0
  C  C126  1  0.00920000  0.11377000  0.31715000  1.0
  C  C127  1  0.99079000  0.88623000  0.68286000  1.0
  C  C128  1  0.11275000  0.04529000  0.26652000  1.0
  C  C129  1  0.88724000  0.95472000  0.73348000  1.0
  C  C130  1  0.13049000  0.94431000  0.28354000  1.0
  C  C131  1  0.86950000  0.05569000  0.71646000  1.0
  N  N132  1  0.13321000  0.37391000  0.16739000  1.0
  N  N133  1  0.86679000  0.62609000  0.83262000  1.0
  N  N134  1  0.81889000  0.15973000  0.17658000  1.0
  N  N135  1  0.18111000  0.84027000  0.82341000  1.0
  N  N136  1  0.67031000  0.78010000  0.10738000  1.0
  N  N137  1  0.32969000  0.21989000  0.89262000  1.0
  N  N138  1  0.22927000  0.68492000  0.33571000  1.0
  N  N139  1  0.77072000  0.31509000  0.66429000  1.0
  N  N140  1  0.05194000  0.91058000  0.34739000  1.0
  N  N141  1  0.94806000  0.08942000  0.65261000  1.0
  O  O142  1  0.53273000  0.29177000  0.23919000  1.0
  O  O143  1  0.46727000  0.70824000  0.76081000  1.0
  O  O144  1  0.47954000  0.25670000  0.38344000  1.0
  O  O145  1  0.52046000  0.74331000  0.61656000  1.0
  O  O146  1  0.07862000  0.23426000  0.53472000  1.0
  O  O147  1  0.92138000  0.76574000  0.46529000  1.0
  O  O148  1  0.93756000  0.27307000  0.46549000  1.0
  O  O149  1  0.06244000  0.72693000  0.53451000  1.0
  O  O150  1  0.29134000  0.39792000  0.05251000  1.0
  O  O151  1  0.70865000  0.60208000  0.94749000  1.0
  O  O152  1  0.68549000  0.26048000  0.36194000  1.0
  O  O153  1  0.31451000  0.73951000  0.63806000  1.0
  O  O154  1  0.70748000  0.41847000  0.19778000  1.0
  O  O155  1  0.29252000  0.58152000  0.80223000  1.0
  O  O156  1  0.89146000  0.36188000  0.21558000  1.0
  O  O157  1  0.10854000  0.63812000  0.78441000  1.0
  O  O158  1  0.97231000  0.76666000  0.26725000  1.0
  O  O159  1  0.02768000  0.23334000  0.73275000  1.0
  O  O160  1  0.02541000  0.60814000  0.31261000  1.0
  O  O161  1  0.97459000  0.39187000  0.68739000  1.0
  O  O162  1  0.74067000  0.91363000  0.09937000  1.0
  O  O163  1  0.25934000  0.08636000  0.90062000  1.0
  F  F164  1  0.93436000  0.70090000  0.97307000  1.0
  F  F165  1  0.06565000  0.29910000  0.02692000  1.0
  F  F166  1  0.10912000  0.61364000  0.04876000  1.0
  F  F167  1  0.89089000  0.38636000  0.95124000  1.0
  F  F168  1  0.69117000  0.84919000  0.90856000  1.0
  F  F169  1  0.30883000  0.15080000  0.09144000  1.0
  F  F170  1  0.53553000  0.97249000  0.82798000  1.0
  F  F171  1  0.46448000  0.02750000  0.17202000  1.0
