# generated using pymatgen
data_H16PbC14N2O7
_symmetry_space_group_name_H-M   'P 1'
_cell_length_a   7.55251000
_cell_length_b   7.70091000
_cell_length_c   15.17510000
_cell_angle_alpha   87.49150000
_cell_angle_beta   87.13470000
_cell_angle_gamma   64.37300000
_symmetry_Int_Tables_number   1
_chemical_formula_structural   H16PbC14N2O7
_chemical_formula_sum   'H32 Pb2 C28 N4 O14'
_cell_volume   794.54412918
_cell_formula_units_Z   2
loop_
 _symmetry_equiv_pos_site_id
 _symmetry_equiv_pos_as_xyz
  1  'x, y, z'
loop_
 _atom_site_type_symbol
 _atom_site_label
 _atom_site_symmetry_multiplicity
 _atom_site_fract_x
 _atom_site_fract_y
 _atom_site_fract_z
 _atom_site_occupancy
  H  H0  1  0.24736000  0.12245000  0.51359000  1.0
  H  H1  1  0.75267000  0.87758000  0.48641000  1.0
  H  H2  1  0.29025000  0.33073000  0.79702000  1.0
  H  H3  1  0.70975000  0.66934000  0.20297000  1.0
  H  H4  1  0.35740000  0.15763000  0.65541000  1.0
  H  H5  1  0.64259000  0.84236000  0.34461000  1.0
  H  H6  1  0.69511000  0.67918000  0.72417000  1.0
  H  H7  1  0.30486000  0.32080000  0.27582000  1.0
  H  H8  1  0.76078000  0.50436000  0.58198000  1.0
  H  H9  1  0.23925000  0.49563000  0.41801000  1.0
  H  H10  1  0.63963000  0.47049000  0.41471000  1.0
  H  H11  1  0.36034000  0.52945000  0.58530000  1.0
  H  H12  1  0.59458000  0.26938000  0.44602000  1.0
  H  H13  1  0.40552000  0.73049000  0.55403000  1.0
  H  H14  1  0.52665000  0.38105000  0.33866000  1.0
  H  H15  1  0.47334000  0.61877000  0.66138000  1.0
  H  H16  1  0.23491000  0.01243000  0.23439000  1.0
  H  H17  1  0.76509000  0.98756000  0.76561000  1.0
  H  H18  1  0.13487000  0.85921000  0.27811000  1.0
  H  H19  1  0.86517000  0.14077000  0.72190000  1.0
  H  H20  1  0.39351000  0.79312000  0.28962000  1.0
  H  H21  1  0.60653000  0.20688000  0.71037000  1.0
  H  H22  1  0.41861000  0.49502000  0.89289000  1.0
  H  H23  1  0.58135000  0.50501000  0.10709000  1.0
  H  H24  1  0.64127000  0.41945000  0.82556000  1.0
  H  H25  1  0.35871000  0.58062000  0.17443000  1.0
  H  H26  1  0.63029000  0.51621000  0.92981000  1.0
  H  H27  1  0.36964000  0.48384000  0.07019000  1.0
  H  H28  1  0.47684000  0.14267000  0.15610000  1.0
  H  H29  1  0.52314000  0.85737000  0.84389000  1.0
  H  H30  1  0.67529000  0.11596000  0.20263000  1.0
  H  H31  1  0.32470000  0.88406000  0.79736000  1.0
  Pb  Pb32  1  0.81250000  0.84367000  0.02734000  1.0
  Pb  Pb33  1  0.18747000  0.15638000  0.97266000  1.0
  C  C34  1  0.94813000  0.61583000  0.85619000  1.0
  C  C35  1  0.05186000  0.38421000  0.14381000  1.0
  C  C36  1  0.98774000  0.51465000  0.77012000  1.0
  C  C37  1  0.01225000  0.48539000  0.22987000  1.0
  C  C38  1  0.17441000  0.36883000  0.74993000  1.0
  C  C39  1  0.82556000  0.63120000  0.25009000  1.0
  C  C40  1  0.21255000  0.27197000  0.67101000  1.0
  C  C41  1  0.78746000  0.72803000  0.32899000  1.0
  C  C42  1  0.83916000  0.56334000  0.70884000  1.0
  C  C43  1  0.16081000  0.43665000  0.29115000  1.0
  C  C44  1  0.87444000  0.46797000  0.62989000  1.0
  C  C45  1  0.12555000  0.53201000  0.37011000  1.0
  C  C46  1  0.06214000  0.32177000  0.61119000  1.0
  C  C47  1  0.93788000  0.67822000  0.38882000  1.0
  C  C48  1  0.00769000  0.15273000  0.40281000  1.0
  C  C49  1  0.99235000  0.84724000  0.59719000  1.0
  C  C50  1  0.83205000  0.20647000  0.34978000  1.0
  C  C51  1  0.16797000  0.79347000  0.65022000  1.0
  C  C52  1  0.63557000  0.34099000  0.38967000  1.0
  C  C53  1  0.36446000  0.65889000  0.61037000  1.0
  C  C54  1  0.20667000  0.01320000  0.37496000  1.0
  C  C55  1  0.79337000  0.98681000  0.62503000  1.0
  C  C56  1  0.24542000  0.91113000  0.28976000  1.0
  C  C57  1  0.75461000  0.08886000  0.71024000  1.0
  C  C58  1  0.65867000  0.22782000  0.93425000  1.0
  C  C59  1  0.34131000  0.77220000  0.06574000  1.0
  C  C60  1  0.57952000  0.42741000  0.89313000  1.0
  C  C61  1  0.42045000  0.57263000  0.10685000  1.0
  N  N62  1  0.10532000  0.22045000  0.53257000  1.0
  N  N63  1  0.89472000  0.77952000  0.46745000  1.0
  N  N64  1  0.96734000  0.24557000  0.47885000  1.0
  N  N65  1  0.03268000  0.75439000  0.52116000  1.0
  O  O66  1  0.77779000  0.75623000  0.86968000  1.0
  O  O67  1  0.22218000  0.24379000  0.13032000  1.0
  O  O68  1  0.08157000  0.55877000  0.91231000  1.0
  O  O69  1  0.91840000  0.44128000  0.08767000  1.0
  O  O70  1  0.34692000  0.98057000  0.42474000  1.0
  O  O71  1  0.65314000  0.01950000  0.57524000  1.0
  O  O72  1  0.84360000  0.14361000  0.27472000  1.0
  O  O73  1  0.15643000  0.85637000  0.72528000  1.0
  O  O74  1  0.84432000  0.12972000  0.94008000  1.0
  O  O75  1  0.15565000  0.87032000  0.05989000  1.0
  O  O76  1  0.54096000  0.15744000  0.96345000  1.0
  O  O77  1  0.45902000  0.84260000  0.03655000  1.0
  O  O78  1  0.61476000  0.05300000  0.16719000  1.0
  O  O79  1  0.38524000  0.94704000  0.83280000  1.0
