# generated using pymatgen
data_CdH14C20(NO)4
_symmetry_space_group_name_H-M   'P 1'
_cell_length_a   10.19660000
_cell_length_b   10.19660000
_cell_length_c   23.80020000
_cell_angle_alpha   90.00010000
_cell_angle_beta   89.99990000
_cell_angle_gamma   89.99990000
_symmetry_Int_Tables_number   1
_chemical_formula_structural   CdH14C20(NO)4
_chemical_formula_sum   'Cd4 H56 C80 N16 O16'
_cell_volume   2474.52230125
_cell_formula_units_Z   4
loop_
 _symmetry_equiv_pos_site_id
 _symmetry_equiv_pos_as_xyz
  1  'x, y, z'
loop_
 _atom_site_type_symbol
 _atom_site_label
 _atom_site_symmetry_multiplicity
 _atom_site_fract_x
 _atom_site_fract_y
 _atom_site_fract_z
 _atom_site_occupancy
  Cd  Cd0  1  0.50000000  0.50000000  0.50000000  1.0
  Cd  Cd1  1  0.50000000  0.00000000  0.75000000  1.0
  Cd  Cd2  1  0.00000000  0.50000000  0.25000000  1.0
  Cd  Cd3  1  0.00000000  0.00000000  0.00000000  1.0
  H  H4  1  0.33266000  0.19289000  0.03200000  1.0
  H  H5  1  0.64649000  0.52158000  0.82067000  1.0
  H  H6  1  0.61764000  0.04749000  0.50276000  1.0
  H  H7  1  0.68620000  0.59050000  0.21545000  1.0
  H  H8  1  0.81380000  0.09051000  0.71545000  1.0
  H  H9  1  0.76207000  0.65064000  0.43786000  1.0
  H  H10  1  0.47841000  0.64649000  0.17933000  1.0
  H  H11  1  0.83266000  0.30711000  0.53200000  1.0
  H  H12  1  0.76907000  0.23523000  0.35507000  1.0
  H  H13  1  0.02159000  0.14649000  0.67933000  1.0
  H  H14  1  0.97841000  0.85351000  0.67933000  1.0
  H  H15  1  0.35351000  0.47842000  0.82067000  1.0
  H  H16  1  0.84936000  0.73793000  0.06214000  1.0
  H  H17  1  0.90950000  0.81380000  0.28455000  1.0
  H  H18  1  0.18620000  0.90950000  0.71545000  1.0
  H  H19  1  0.85351000  0.02158000  0.32067000  1.0
  H  H20  1  0.23093000  0.76477000  0.35507000  1.0
  H  H21  1  0.16734000  0.69288000  0.53200000  1.0
  H  H22  1  0.65064000  0.23793000  0.56214000  1.0
  H  H23  1  0.88236000  0.54749000  0.00276000  1.0
  H  H24  1  0.40949000  0.68620000  0.78455000  1.0
  H  H25  1  0.76477000  0.76907000  0.64492000  1.0
  H  H26  1  0.84162000  0.46694000  0.37708000  1.0
  H  H27  1  0.73793000  0.15064000  0.93786000  1.0
  H  H28  1  0.65838000  0.96694000  0.87708000  1.0
  H  H29  1  0.95251000  0.61764000  0.49724000  1.0
  H  H30  1  0.09050000  0.18620000  0.28455000  1.0
  H  H31  1  0.80711000  0.33266000  0.96800000  1.0
  H  H32  1  0.96694000  0.34162000  0.12292000  1.0
  H  H33  1  0.23523000  0.23093000  0.64493000  1.0
  H  H34  1  0.66734000  0.80711000  0.03200000  1.0
  H  H35  1  0.52158000  0.35351000  0.17933000  1.0
  H  H36  1  0.26907000  0.26477000  0.85507000  1.0
  H  H37  1  0.34936000  0.76207000  0.56214000  1.0
  H  H38  1  0.03306000  0.65838000  0.12292000  1.0
  H  H39  1  0.69289000  0.83266000  0.46800000  1.0
  H  H40  1  0.19288000  0.66735000  0.96800000  1.0
  H  H41  1  0.15838000  0.53306000  0.37708000  1.0
  H  H42  1  0.04749000  0.38236000  0.49724000  1.0
  H  H43  1  0.53306000  0.84162000  0.62292000  1.0
  H  H44  1  0.26207000  0.84936000  0.93786000  1.0
  H  H45  1  0.73093000  0.73523000  0.85507000  1.0
  H  H46  1  0.54749000  0.11764000  0.99724000  1.0
  H  H47  1  0.23793000  0.34936000  0.43786000  1.0
  H  H48  1  0.26477000  0.73093000  0.14493000  1.0
  H  H49  1  0.45251000  0.88236000  0.99724000  1.0
  H  H50  1  0.46694000  0.15838000  0.62292000  1.0
  H  H51  1  0.73524000  0.26907000  0.14493000  1.0
  H  H52  1  0.11764000  0.45252000  0.00276000  1.0
  H  H53  1  0.34162000  0.03306000  0.87708000  1.0
  H  H54  1  0.31381000  0.40950000  0.21545000  1.0
  H  H55  1  0.59050000  0.31380000  0.78455000  1.0
  H  H56  1  0.14649000  0.97842000  0.32067000  1.0
  H  H57  1  0.15064000  0.26207000  0.06214000  1.0
  H  H58  1  0.30711000  0.16734000  0.46800000  1.0
  H  H59  1  0.38235000  0.95251000  0.50276000  1.0
  C  C60  1  0.22091000  0.08905000  0.39167000  1.0
  C  C61  1  0.68902000  0.15556000  0.43130000  1.0
  C  C62  1  0.65556000  0.18902000  0.06870000  1.0
  C  C63  1  0.21608000  0.86656000  0.04986000  1.0
  C  C64  1  0.80162000  0.02649000  0.36067000  1.0
  C  C65  1  0.11977000  0.24865000  0.31922000  1.0
  C  C66  1  0.95859000  0.67010000  0.53700000  1.0
  C  C67  1  0.06941000  0.34865000  0.13466000  1.0
  C  C68  1  0.19838000  0.97350000  0.36067000  1.0
  C  C69  1  0.75570000  0.14643000  0.37992000  1.0
  C  C70  1  0.71538000  0.67956000  0.13043000  1.0
  C  C71  1  0.08905000  0.77909000  0.60833000  1.0
  C  C72  1  0.14643000  0.24430000  0.62008000  1.0
  C  C73  1  0.74865000  0.61977000  0.18078000  1.0
  C  C74  1  0.30162000  0.47350000  0.86067000  1.0
  C  C75  1  0.75135000  0.11978000  0.68078000  1.0
  C  C76  1  0.15556000  0.31098000  0.56870000  1.0
  C  C77  1  0.86655000  0.78392000  0.95014000  1.0
  C  C78  1  0.32044000  0.71538000  0.86957000  1.0
  C  C79  1  0.64643000  0.25570000  0.12009000  1.0
  C  C80  1  0.65135000  0.06941000  0.86534000  1.0
  C  C81  1  0.32989000  0.95859000  0.46300000  1.0
  C  C82  1  0.74430000  0.64643000  0.87992000  1.0
  C  C83  1  0.82989000  0.54141000  0.96300000  1.0
  C  C84  1  0.43059000  0.84865000  0.63466000  1.0
  C  C85  1  0.97350000  0.80161000  0.63933000  1.0
  C  C86  1  0.56941000  0.15135000  0.63466000  1.0
  C  C87  1  0.77909000  0.91095000  0.39168000  1.0
  C  C88  1  0.38022000  0.74865000  0.81922000  1.0
  C  C89  1  0.18902000  0.34444000  0.93130000  1.0
  C  C90  1  0.35357000  0.74430000  0.12008000  1.0
  C  C91  1  0.84865000  0.56941000  0.36534000  1.0
  C  C92  1  0.42045000  0.21301000  0.05664000  1.0
  C  C93  1  0.47350000  0.69839000  0.13933000  1.0
  C  C94  1  0.91095000  0.22091000  0.60833000  1.0
  C  C95  1  0.45859000  0.82990000  0.03700000  1.0
  C  C96  1  0.78392000  0.13345000  0.04986000  1.0
  C  C97  1  0.57955000  0.78699000  0.05664000  1.0
  C  C98  1  0.34865000  0.93059000  0.86534000  1.0
  C  C99  1  0.67956000  0.28462000  0.86957000  1.0
  C  C100  1  0.28699000  0.07955000  0.44336000  1.0
  C  C101  1  0.24865000  0.88023000  0.68078000  1.0
  C  C102  1  0.52650000  0.30161000  0.13933000  1.0
  C  C103  1  0.82044000  0.78462000  0.36957000  1.0
  C  C104  1  0.71608000  0.63344000  0.54986000  1.0
  C  C105  1  0.17956000  0.21538000  0.36957000  1.0
  C  C106  1  0.24430000  0.85357000  0.37992000  1.0
  C  C107  1  0.85357000  0.75570000  0.62008000  1.0
  C  C108  1  0.78699000  0.42045000  0.94336000  1.0
  C  C109  1  0.36655000  0.71608000  0.45014000  1.0
  C  C110  1  0.58905000  0.72091000  0.10833000  1.0
  C  C111  1  0.25135000  0.38022000  0.18078000  1.0
  C  C112  1  0.41095000  0.27909000  0.10833000  1.0
  C  C113  1  0.17011000  0.45859000  0.96300000  1.0
  C  C114  1  0.71301000  0.92045000  0.44336000  1.0
  C  C115  1  0.69838000  0.52650000  0.86067000  1.0
  C  C116  1  0.21538000  0.82044000  0.63043000  1.0
  C  C117  1  0.88023000  0.75135000  0.31922000  1.0
  C  C118  1  0.93059000  0.65135000  0.13466000  1.0
  C  C119  1  0.54142000  0.17010000  0.03700000  1.0
  C  C120  1  0.78462000  0.17956000  0.63043000  1.0
  C  C121  1  0.04141000  0.32990000  0.53700000  1.0
  C  C122  1  0.28392000  0.36656000  0.54986000  1.0
  C  C123  1  0.72091000  0.41095000  0.89167000  1.0
  C  C124  1  0.07955000  0.71301000  0.55664000  1.0
  C  C125  1  0.28462000  0.32044000  0.13043000  1.0
  C  C126  1  0.84444000  0.68902000  0.56870000  1.0
  C  C127  1  0.31098000  0.84444000  0.43130000  1.0
  C  C128  1  0.02650000  0.19838000  0.63933000  1.0
  C  C129  1  0.67011000  0.04141000  0.46300000  1.0
  C  C130  1  0.34444000  0.81098000  0.06870000  1.0
  C  C131  1  0.27909000  0.58905000  0.89167000  1.0
  C  C132  1  0.61977000  0.25135000  0.81922000  1.0
  C  C133  1  0.25570000  0.35357000  0.87992000  1.0
  C  C134  1  0.92045000  0.28699000  0.55664000  1.0
  C  C135  1  0.15135000  0.43059000  0.36534000  1.0
  C  C136  1  0.21301000  0.57955000  0.94336000  1.0
  C  C137  1  0.81098000  0.65556000  0.93130000  1.0
  C  C138  1  0.63345000  0.28392000  0.45014000  1.0
  C  C139  1  0.13345000  0.21608000  0.95014000  1.0
  N  N140  1  0.39770000  0.88265000  0.81731000  1.0
  N  N141  1  0.69812000  0.16697000  0.89748000  1.0
  N  N142  1  0.88265000  0.60230000  0.18269000  1.0
  N  N143  1  0.11735000  0.39770000  0.18269000  1.0
  N  N144  1  0.89770000  0.61735000  0.31731000  1.0
  N  N145  1  0.60230000  0.11735000  0.81731000  1.0
  N  N146  1  0.19812000  0.33303000  0.39747000  1.0
  N  N147  1  0.38265000  0.89770000  0.68269000  1.0
  N  N148  1  0.16697000  0.30188000  0.10252000  1.0
  N  N149  1  0.10230000  0.38265000  0.31731000  1.0
  N  N150  1  0.61735000  0.10230000  0.68269000  1.0
  N  N151  1  0.30188000  0.83304000  0.89748000  1.0
  N  N152  1  0.33303000  0.80188000  0.60252000  1.0
  N  N153  1  0.83303000  0.69812000  0.10253000  1.0
  N  N154  1  0.80188000  0.66697000  0.39748000  1.0
  N  N155  1  0.66697000  0.19812000  0.60252000  1.0
  O  O156  1  0.88227000  0.87572000  0.91563000  1.0
  O  O157  1  0.90027000  0.79420000  0.00263000  1.0
  O  O158  1  0.79420000  0.09973000  0.99737000  1.0
  O  O159  1  0.87571000  0.11773000  0.08437000  1.0
  O  O160  1  0.12428000  0.88227000  0.08437000  1.0
  O  O161  1  0.62429000  0.61773000  0.58437000  1.0
  O  O162  1  0.20580000  0.90027000  0.99737000  1.0
  O  O163  1  0.38227000  0.62428000  0.41563000  1.0
  O  O164  1  0.29420000  0.40027000  0.49737000  1.0
  O  O165  1  0.70580000  0.59972000  0.49737000  1.0
  O  O166  1  0.11773000  0.12429000  0.91563000  1.0
  O  O167  1  0.61774000  0.37572000  0.41563000  1.0
  O  O168  1  0.40027000  0.70580000  0.50263000  1.0
  O  O169  1  0.09973000  0.20580000  0.00263000  1.0
  O  O170  1  0.59973000  0.29420000  0.50263000  1.0
  O  O171  1  0.37571000  0.38227000  0.58437000  1.0
