# generated using pymatgen
data_CuH12C10(ClO3)2
_symmetry_space_group_name_H-M   'P 1'
_cell_length_a   7.69886000
_cell_length_b   9.51084774
_cell_length_c   10.11720000
_cell_angle_alpha   107.11628263
_cell_angle_beta   90.05230000
_cell_angle_gamma   113.82416968
_symmetry_Int_Tables_number   1
_chemical_formula_structural   CuH12C10(ClO3)2
_chemical_formula_sum   'Cu2 H24 C20 Cl4 O12'
_cell_volume   641.55995765
_cell_formula_units_Z   2
loop_
 _symmetry_equiv_pos_site_id
 _symmetry_equiv_pos_as_xyz
  1  'x, y, z'
loop_
 _atom_site_type_symbol
 _atom_site_label
 _atom_site_symmetry_multiplicity
 _atom_site_fract_x
 _atom_site_fract_y
 _atom_site_fract_z
 _atom_site_occupancy
  Cu  Cu0  1  0.05177000  0.99977000  0.24965000  1.0
  Cu  Cu1  1  0.94821000  0.00023000  0.75035000  1.0
  H  H2  1  0.98901000  0.80952000  0.43276000  1.0
  H  H3  1  0.17966000  0.19058000  0.06738000  1.0
  H  H4  1  0.01099000  0.19050000  0.56724000  1.0
  H  H5  1  0.82035000  0.80942000  0.93263000  1.0
  H  H6  1  0.70462000  0.60900000  0.19519000  1.0
  H  H7  1  0.09683000  0.39161000  0.30507000  1.0
  H  H8  1  0.29539000  0.39099000  0.80481000  1.0
  H  H9  1  0.90320000  0.60841000  0.69494000  1.0
  H  H10  1  0.65393000  0.72941000  0.34779000  1.0
  H  H11  1  0.92539000  0.27177000  0.15253000  1.0
  H  H12  1  0.34605000  0.27057000  0.65221000  1.0
  H  H13  1  0.07462000  0.72824000  0.84749000  1.0
  H  H14  1  0.55448000  0.44258000  0.34921000  1.0
  H  H15  1  0.11343000  0.55816000  0.15090000  1.0
  H  H16  1  0.44555000  0.55741000  0.65080000  1.0
  H  H17  1  0.88659000  0.44183000  0.84909000  1.0
  H  H18  1  0.73109000  0.58680000  0.49207000  1.0
  H  H19  1  0.14550000  0.41366000  0.00818000  1.0
  H  H20  1  0.26894000  0.41321000  0.50793000  1.0
  H  H21  1  0.85450000  0.58631000  0.99182000  1.0
  H  H22  1  0.79795000  0.47071000  0.34601000  1.0
  H  H23  1  0.32843000  0.52944000  0.15435000  1.0
  H  H24  1  0.20209000  0.52930000  0.65399000  1.0
  H  H25  1  0.67158000  0.47054000  0.84564000  1.0
  C  C26  1  0.36234000  0.93868000  0.17661000  1.0
  C  C27  1  0.42327000  0.06049000  0.32272000  1.0
  C  C28  1  0.63763000  0.06132000  0.82338000  1.0
  C  C29  1  0.57673000  0.93952000  0.67728000  1.0
  C  C30  1  0.49060000  0.87963000  0.10990000  1.0
  C  C31  1  0.61060000  0.11965000  0.38946000  1.0
  C  C32  1  0.50938000  0.12037000  0.89009000  1.0
  C  C33  1  0.38939000  0.88036000  0.61053000  1.0
  C  C34  1  0.67701000  0.93917000  0.17682000  1.0
  C  C35  1  0.73755000  0.06017000  0.32262000  1.0
  C  C36  1  0.32299000  0.06084000  0.82318000  1.0
  C  C37  1  0.26245000  0.93983000  0.67738000  1.0
  C  C38  1  0.74179000  0.66257000  0.30917000  1.0
  C  C39  1  0.08007000  0.33802000  0.19109000  1.0
  C  C40  1  0.25822000  0.33743000  0.69083000  1.0
  C  C41  1  0.91994000  0.66198000  0.80892000  1.0
  C  C42  1  0.70449000  0.53314000  0.37785000  1.0
  C  C43  1  0.17260000  0.46733000  0.12240000  1.0
  C  C44  1  0.29554000  0.46687000  0.62215000  1.0
  C  C45  1  0.82741000  0.53265000  0.87759000  1.0
  Cl  Cl46  1  0.42211000  0.74110000  0.94502000  1.0
  Cl  Cl47  1  0.68073000  0.25845000  0.55424000  1.0
  Cl  Cl48  1  0.57790000  0.25892000  0.05498000  1.0
  Cl  Cl49  1  0.31925000  0.74155000  0.44576000  1.0
  O  O50  1  0.19265000  0.89761000  0.12190000  1.0
  O  O51  1  0.29461000  0.10146000  0.37742000  1.0
  O  O52  1  0.80734000  0.10239000  0.87810000  1.0
  O  O53  1  0.70536000  0.89853000  0.62258000  1.0
  O  O54  1  0.80705000  0.89801000  0.12238000  1.0
  O  O55  1  0.90886000  0.10155000  0.37704000  1.0
  O  O56  1  0.19293000  0.10200000  0.87762000  1.0
  O  O57  1  0.09112000  0.89846000  0.62296000  1.0
  O  O58  1  0.94142000  0.77378000  0.33281000  1.0
  O  O59  1  0.16767000  0.22609000  0.16731000  1.0
  O  O60  1  0.05859000  0.22624000  0.66720000  1.0
  O  O61  1  0.83233000  0.77390000  0.83270000  1.0
