# generated using pymatgen
data_ZnH2(CO2)2
_symmetry_space_group_name_H-M   'P 1'
_cell_length_a   9.87958000
_cell_length_b   18.14810000
_cell_length_c   18.27070000
_cell_angle_alpha   90.00000000
_cell_angle_beta   90.00000000
_cell_angle_gamma   90.00000000
_symmetry_Int_Tables_number   1
_chemical_formula_structural   ZnH2(CO2)2
_chemical_formula_sum   'Zn24 H48 C48 O96'
_cell_volume   3275.85622485
_cell_formula_units_Z   24
loop_
 _symmetry_equiv_pos_site_id
 _symmetry_equiv_pos_as_xyz
  1  'x, y, z'
loop_
 _atom_site_type_symbol
 _atom_site_label
 _atom_site_symmetry_multiplicity
 _atom_site_fract_x
 _atom_site_fract_y
 _atom_site_fract_z
 _atom_site_occupancy
  Zn  Zn0  1  0.92352000  0.93723000  0.67898000  1.0
  Zn  Zn1  1  0.57648000  0.43723000  0.82102000  1.0
  Zn  Zn2  1  0.07648000  0.56277000  0.67898000  1.0
  Zn  Zn3  1  0.42352000  0.06277000  0.82102000  1.0
  Zn  Zn4  1  0.07648000  0.06277000  0.32102000  1.0
  Zn  Zn5  1  0.42352000  0.56277000  0.17898000  1.0
  Zn  Zn6  1  0.92352000  0.43723000  0.32102000  1.0
  Zn  Zn7  1  0.57648000  0.93723000  0.17898000  1.0
  Zn  Zn8  1  0.10878000  0.03712000  0.78581000  1.0
  Zn  Zn9  1  0.39122000  0.53712000  0.71419000  1.0
  Zn  Zn10  1  0.89122000  0.46288000  0.78581000  1.0
  Zn  Zn11  1  0.60878000  0.96288000  0.71419000  1.0
  Zn  Zn12  1  0.89122000  0.96288000  0.21419000  1.0
  Zn  Zn13  1  0.60878000  0.46288000  0.28581000  1.0
  Zn  Zn14  1  0.10878000  0.53712000  0.21419000  1.0
  Zn  Zn15  1  0.39122000  0.03712000  0.28581000  1.0
  Zn  Zn16  1  0.00000000  0.75000000  0.69019000  1.0
  Zn  Zn17  1  0.50000000  0.25000000  0.80981000  1.0
  Zn  Zn18  1  0.00000000  0.25000000  0.30981000  1.0
  Zn  Zn19  1  0.50000000  0.75000000  0.19019000  1.0
  Zn  Zn20  1  0.00000000  0.00000000  0.50000000  1.0
  Zn  Zn21  1  0.50000000  0.50000000  0.00000000  1.0
  Zn  Zn22  1  0.00000000  0.50000000  0.50000000  1.0
  Zn  Zn23  1  0.50000000  0.00000000  0.00000000  1.0
  H  H24  1  0.17014000  0.86602000  0.52202000  1.0
  H  H25  1  0.32986000  0.36602000  0.97798000  1.0
  H  H26  1  0.82986000  0.63398000  0.52202000  1.0
  H  H27  1  0.67014000  0.13398000  0.97798000  1.0
  H  H28  1  0.82986000  0.13398000  0.47798000  1.0
  H  H29  1  0.67014000  0.63398000  0.02202000  1.0
  H  H30  1  0.17014000  0.36602000  0.47798000  1.0
  H  H31  1  0.32986000  0.86602000  0.02202000  1.0
  H  H32  1  0.21385000  0.87930000  0.82943000  1.0
  H  H33  1  0.28615000  0.37929000  0.67057000  1.0
  H  H34  1  0.78615000  0.62070000  0.82943000  1.0
  H  H35  1  0.71385000  0.12070000  0.67057000  1.0
  H  H36  1  0.78615000  0.12070000  0.17057000  1.0
  H  H37  1  0.71385000  0.62070000  0.32943000  1.0
  H  H38  1  0.21385000  0.37930000  0.17057000  1.0
  H  H39  1  0.28615000  0.87930000  0.32943000  1.0
  H  H40  1  0.74361000  0.00530000  0.87065000  1.0
  H  H41  1  0.75639000  0.50530000  0.62935000  1.0
  H  H42  1  0.25639000  0.49470000  0.87065000  1.0
  H  H43  1  0.24361000  0.99470000  0.62935000  1.0
  H  H44  1  0.25639000  0.99470000  0.12935000  1.0
  H  H45  1  0.24361000  0.49470000  0.37065000  1.0
  H  H46  1  0.74361000  0.50530000  0.12935000  1.0
  H  H47  1  0.75639000  0.00530000  0.37065000  1.0
  H  H48  1  0.04314000  0.15277000  0.66134000  1.0
  H  H49  1  0.45686000  0.65277000  0.83866000  1.0
  H  H50  1  0.95686000  0.34723000  0.66134000  1.0
  H  H51  1  0.54314000  0.84723000  0.83866000  1.0
  H  H52  1  0.95686000  0.84723000  0.33866000  1.0
  H  H53  1  0.54314000  0.34723000  0.16134000  1.0
  H  H54  1  0.04314000  0.65277000  0.33866000  1.0
  H  H55  1  0.45686000  0.15277000  0.16134000  1.0
  H  H56  1  0.70139000  0.75013000  0.68797000  1.0
  H  H57  1  0.79861000  0.25013000  0.81203000  1.0
  H  H58  1  0.29861000  0.74987000  0.68797000  1.0
  H  H59  1  0.20139000  0.24987000  0.81203000  1.0
  H  H60  1  0.29861000  0.24987000  0.31203000  1.0
  H  H61  1  0.20139000  0.74987000  0.18797000  1.0
  H  H62  1  0.70139000  0.25013000  0.31203000  1.0
  H  H63  1  0.79861000  0.75013000  0.18797000  1.0
  H  H64  1  0.59978000  0.98883000  0.54761000  1.0
  H  H65  1  0.90022000  0.48883000  0.95239000  1.0
  H  H66  1  0.40022000  0.51117000  0.54761000  1.0
  H  H67  1  0.09978000  0.01117000  0.95239000  1.0
  H  H68  1  0.40022000  0.01117000  0.45239000  1.0
  H  H69  1  0.09978000  0.51117000  0.04761000  1.0
  H  H70  1  0.59978000  0.48883000  0.45239000  1.0
  H  H71  1  0.90022000  0.98883000  0.04761000  1.0
  C  C72  1  0.10554000  0.86124000  0.57108000  1.0
  C  C73  1  0.39446000  0.36124000  0.92892000  1.0
  C  C74  1  0.89446000  0.63876000  0.57108000  1.0
  C  C75  1  0.60554000  0.13876000  0.92892000  1.0
  C  C76  1  0.89446000  0.13876000  0.42892000  1.0
  C  C77  1  0.60554000  0.63876000  0.07108000  1.0
  C  C78  1  0.10554000  0.36124000  0.42892000  1.0
  C  C79  1  0.39446000  0.86124000  0.07108000  1.0
  C  C80  1  0.13864000  0.86623000  0.78631000  1.0
  C  C81  1  0.36136000  0.36623000  0.71369000  1.0
  C  C82  1  0.86136000  0.63377000  0.78631000  1.0
  C  C83  1  0.63864000  0.13377000  0.71369000  1.0
  C  C84  1  0.86136000  0.13377000  0.21369000  1.0
  C  C85  1  0.63864000  0.63377000  0.28631000  1.0
  C  C86  1  0.13864000  0.36623000  0.21369000  1.0
  C  C87  1  0.36136000  0.86623000  0.28631000  1.0
  C  C88  1  0.01714000  0.09814000  0.63824000  1.0
  C  C89  1  0.48286000  0.59814000  0.86176000  1.0
  C  C90  1  0.98286000  0.40186000  0.63824000  1.0
  C  C91  1  0.51714000  0.90186000  0.86176000  1.0
  C  C92  1  0.98286000  0.90186000  0.36176000  1.0
  C  C93  1  0.51714000  0.40186000  0.13824000  1.0
  C  C94  1  0.01714000  0.59814000  0.36176000  1.0
  C  C95  1  0.48286000  0.09814000  0.13824000  1.0
  C  C96  1  0.82780000  0.00060000  0.83125000  1.0
  C  C97  1  0.67220000  0.50060000  0.66875000  1.0
  C  C98  1  0.17220000  0.49940000  0.83125000  1.0
  C  C99  1  0.32780000  0.99940000  0.66875000  1.0
  C  C100  1  0.17220000  0.99940000  0.16875000  1.0
  C  C101  1  0.32780000  0.49940000  0.33125000  1.0
  C  C102  1  0.82780000  0.50060000  0.16875000  1.0
  C  C103  1  0.67220000  0.00060000  0.33125000  1.0
  C  C104  1  0.71820000  0.81003000  0.69239000  1.0
  C  C105  1  0.78180000  0.31003000  0.80761000  1.0
  C  C106  1  0.28180000  0.68997000  0.69239000  1.0
  C  C107  1  0.21820000  0.18997000  0.80761000  1.0
  C  C108  1  0.28180000  0.18997000  0.30761000  1.0
  C  C109  1  0.21820000  0.68997000  0.19239000  1.0
  C  C110  1  0.71820000  0.31003000  0.30761000  1.0
  C  C111  1  0.78180000  0.81003000  0.19239000  1.0
  C  C112  1  0.71006000  0.98587000  0.55799000  1.0
  C  C113  1  0.78994000  0.48587000  0.94201000  1.0
  C  C114  1  0.28993000  0.51413000  0.55799000  1.0
  C  C115  1  0.21006000  0.01413000  0.94201000  1.0
  C  C116  1  0.28994000  0.01413000  0.44201000  1.0
  C  C117  1  0.21006000  0.51413000  0.05799000  1.0
  C  C118  1  0.71006000  0.48587000  0.44201000  1.0
  C  C119  1  0.78993000  0.98587000  0.05799000  1.0
  O  O120  1  0.02905000  0.91759000  0.58412000  1.0
  O  O121  1  0.47095000  0.41759000  0.91588000  1.0
  O  O122  1  0.97095000  0.58241000  0.58412000  1.0
  O  O123  1  0.52905000  0.08241000  0.91588000  1.0
  O  O124  1  0.97095000  0.08241000  0.41588000  1.0
  O  O125  1  0.52905000  0.58241000  0.08412000  1.0
  O  O126  1  0.02905000  0.41759000  0.41588000  1.0
  O  O127  1  0.47095000  0.91759000  0.08412000  1.0
  O  O128  1  0.11349000  0.80395000  0.60855000  1.0
  O  O129  1  0.38651000  0.30395000  0.89145000  1.0
  O  O130  1  0.88651000  0.69605000  0.60855000  1.0
  O  O131  1  0.61349000  0.19605000  0.89145000  1.0
  O  O132  1  0.88651000  0.19605000  0.39145000  1.0
  O  O133  1  0.61349000  0.69605000  0.10855000  1.0
  O  O134  1  0.11349000  0.30395000  0.39145000  1.0
  O  O135  1  0.38651000  0.80395000  0.10855000  1.0
  O  O136  1  0.08535000  0.92207000  0.75423000  1.0
  O  O137  1  0.41465000  0.42207000  0.74577000  1.0
  O  O138  1  0.91465000  0.57793000  0.75423000  1.0
  O  O139  1  0.58535000  0.07793000  0.74577000  1.0
  O  O140  1  0.91465000  0.07793000  0.24577000  1.0
  O  O141  1  0.58535000  0.57793000  0.25423000  1.0
  O  O142  1  0.08535000  0.42207000  0.24577000  1.0
  O  O143  1  0.41465000  0.92207000  0.25423000  1.0
  O  O144  1  0.11481000  0.79978000  0.77349000  1.0
  O  O145  1  0.38519000  0.29978000  0.72651000  1.0
  O  O146  1  0.88519000  0.70022000  0.77349000  1.0
  O  O147  1  0.61481000  0.20022000  0.72651000  1.0
  O  O148  1  0.88519000  0.20022000  0.22651000  1.0
  O  O149  1  0.61481000  0.70022000  0.27349000  1.0
  O  O150  1  0.11481000  0.29978000  0.22651000  1.0
  O  O151  1  0.38519000  0.79978000  0.27349000  1.0
  O  O152  1  0.00812000  0.04524000  0.68476000  1.0
  O  O153  1  0.49188000  0.54524000  0.81524000  1.0
  O  O154  1  0.99188000  0.45476000  0.68476000  1.0
  O  O155  1  0.50812000  0.95476000  0.81524000  1.0
  O  O156  1  0.99188000  0.95476000  0.31524000  1.0
  O  O157  1  0.50812000  0.45476000  0.18476000  1.0
  O  O158  1  0.00812000  0.54524000  0.31524000  1.0
  O  O159  1  0.49188000  0.04524000  0.18476000  1.0
  O  O160  1  0.99870000  0.09294000  0.57072000  1.0
  O  O161  1  0.50130000  0.59294000  0.92928000  1.0
  O  O162  1  0.00130000  0.40706000  0.57072000  1.0
  O  O163  1  0.49870000  0.90706000  0.92928000  1.0
  O  O164  1  0.00130000  0.90706000  0.42928000  1.0
  O  O165  1  0.49870000  0.40706000  0.07072000  1.0
  O  O166  1  0.99870000  0.59294000  0.42928000  1.0
  O  O167  1  0.50130000  0.09294000  0.07072000  1.0
  O  O168  1  0.80174000  0.96900000  0.77002000  1.0
  O  O169  1  0.69826000  0.46900000  0.72998000  1.0
  O  O170  1  0.19826000  0.53100000  0.77002000  1.0
  O  O171  1  0.30174000  0.03100000  0.72998000  1.0
  O  O172  1  0.19826000  0.03100000  0.22998000  1.0
  O  O173  1  0.30174000  0.53100000  0.27002000  1.0
  O  O174  1  0.80174000  0.46900000  0.22998000  1.0
  O  O175  1  0.69826000  0.96900000  0.27002000  1.0
  O  O176  1  0.94047000  0.02617000  0.85095000  1.0
  O  O177  1  0.55953000  0.52617000  0.64905000  1.0
  O  O178  1  0.05953000  0.47383000  0.85095000  1.0
  O  O179  1  0.44047000  0.97383000  0.64905000  1.0
  O  O180  1  0.05953000  0.97383000  0.14905000  1.0
  O  O181  1  0.44047000  0.47383000  0.35095000  1.0
  O  O182  1  0.94047000  0.52617000  0.14905000  1.0
  O  O183  1  0.55953000  0.02617000  0.35095000  1.0
  O  O184  1  0.84202000  0.83148000  0.68663000  1.0
  O  O185  1  0.65798000  0.33148000  0.81337000  1.0
  O  O186  1  0.15798000  0.66852000  0.68663000  1.0
  O  O187  1  0.34202000  0.16852000  0.81337000  1.0
  O  O188  1  0.15798000  0.16852000  0.31337000  1.0
  O  O189  1  0.34202000  0.66852000  0.18663000  1.0
  O  O190  1  0.84202000  0.33148000  0.31337000  1.0
  O  O191  1  0.65798000  0.83148000  0.18663000  1.0
  O  O192  1  0.78870000  0.99017000  0.50439000  1.0
  O  O193  1  0.71130000  0.49017000  0.99561000  1.0
  O  O194  1  0.21130000  0.50983000  0.50439000  1.0
  O  O195  1  0.28870000  0.00983000  0.99561000  1.0
  O  O196  1  0.21130000  0.00983000  0.49561000  1.0
  O  O197  1  0.28870000  0.50983000  0.00439000  1.0
  O  O198  1  0.78870000  0.49017000  0.49561000  1.0
  O  O199  1  0.71130000  0.99017000  0.00439000  1.0
  O  O200  1  0.61644000  0.85024000  0.70223000  1.0
  O  O201  1  0.88356000  0.35024000  0.79777000  1.0
  O  O202  1  0.38356000  0.64976000  0.70223000  1.0
  O  O203  1  0.11644000  0.14976000  0.79777000  1.0
  O  O204  1  0.38356000  0.14976000  0.29777000  1.0
  O  O205  1  0.11644000  0.64976000  0.20223000  1.0
  O  O206  1  0.61644000  0.35024000  0.29777000  1.0
  O  O207  1  0.88356000  0.85024000  0.20223000  1.0
  O  O208  1  0.74487000  0.97865000  0.62550000  1.0
  O  O209  1  0.75513000  0.47865000  0.87450000  1.0
  O  O210  1  0.25513000  0.52135000  0.62550000  1.0
  O  O211  1  0.24487000  0.02135000  0.87450000  1.0
  O  O212  1  0.25513000  0.02135000  0.37450000  1.0
  O  O213  1  0.24487000  0.52135000  0.12550000  1.0
  O  O214  1  0.74487000  0.47865000  0.37450000  1.0
  O  O215  1  0.75513000  0.97865000  0.12550000  1.0
