# generated using pymatgen
data_Zn3H32(C9O4)4
_symmetry_space_group_name_H-M   'P 1'
_cell_length_a   21.12688596
_cell_length_b   21.12680000
_cell_length_c   21.12680000
_cell_angle_alpha   117.81560000
_cell_angle_beta   93.82782538
_cell_angle_gamma   117.81546769
_symmetry_Int_Tables_number   1
_chemical_formula_structural   Zn3H32(C9O4)4
_chemical_formula_sum   'Zn6 H64 C72 O32'
_cell_volume   6871.41903337
_cell_formula_units_Z   2
loop_
 _symmetry_equiv_pos_site_id
 _symmetry_equiv_pos_as_xyz
  1  'x, y, z'
loop_
 _atom_site_type_symbol
 _atom_site_label
 _atom_site_symmetry_multiplicity
 _atom_site_fract_x
 _atom_site_fract_y
 _atom_site_fract_z
 _atom_site_occupancy
  Zn  Zn0  1  0.94088000  0.44088000  0.50000000  1.0
  Zn  Zn1  1  0.95563000  0.00000000  0.95563000  1.0
  Zn  Zn2  1  0.04438000  0.00001000  0.04438000  1.0
  Zn  Zn3  1  0.50001000  0.55910000  0.05910000  1.0
  Zn  Zn4  1  0.05909000  0.55910000  0.50000000  1.0
  Zn  Zn5  1  0.49999000  0.44089000  0.94087000  1.0
  H  H6  1  0.17893000  0.39427000  0.35819000  1.0
  H  H7  1  0.35819000  0.17927000  0.96393000  1.0
  H  H8  1  0.84359000  0.93016000  0.18795000  1.0
  H  H9  1  0.02050000  0.04340000  0.80081000  1.0
  H  H10  1  0.04542000  0.01794000  0.71795000  1.0
  H  H11  1  0.95129000  0.99242000  0.71068000  1.0
  H  H12  1  0.94977000  0.85726000  0.66011000  1.0
  H  H13  1  0.92575000  0.88379000  0.74275000  1.0
  H  H14  1  0.06342000  0.96288000  0.82419000  1.0
  H  H15  1  0.08657000  0.93016000  0.74221000  1.0
  H  H16  1  0.97710000  0.21969000  0.02048000  1.0
  H  H17  1  0.02749000  0.32748000  0.04541000  1.0
  H  H18  1  0.96393000  0.60574000  0.78466000  1.0
  H  H19  1  0.95887000  0.24062000  0.95128000  1.0
  H  H20  1  0.09251000  0.28966000  0.94976000  1.0
  H  H21  1  0.04196000  0.18299000  0.92574000  1.0
  H  H22  1  0.10053000  0.23922000  0.06341000  1.0
  H  H23  1  0.15641000  0.34436000  0.08657000  1.0
  H  H24  1  0.75742000  0.95662000  0.97710000  1.0
  H  H25  1  0.70002000  0.98207000  0.02748000  1.0
  H  H26  1  0.71826000  0.00759000  0.95887000  1.0
  H  H27  1  0.80285000  0.14275000  0.09251000  1.0
  H  H28  1  0.85897000  0.11622000  0.04196000  1.0
  H  H29  1  0.78466000  0.82073000  0.17892000  1.0
  H  H30  1  0.86131000  0.03712000  0.10053000  1.0
  H  H31  1  0.81206000  0.06985000  0.15642000  1.0
  H  H32  1  0.80080000  0.78032000  0.75742000  1.0
  H  H33  1  0.71794000  0.67253000  0.70001000  1.0
  H  H34  1  0.71067000  0.75940000  0.71826000  1.0
  H  H35  1  0.66010000  0.71033000  0.80284000  1.0
  H  H36  1  0.74275000  0.81701000  0.85897000  1.0
  H  H37  1  0.82419000  0.76078000  0.86131000  1.0
  H  H38  1  0.74221000  0.65564000  0.81205000  1.0
  H  H39  1  0.03608000  0.82074000  0.64182000  1.0
  H  H40  1  0.21534000  0.39426000  0.03607000  1.0
  H  H41  1  0.82109000  0.17928000  0.21534000  1.0
  H  H42  1  0.64182000  0.60574000  0.82108000  1.0
  H  H43  1  0.24259000  0.21969000  0.19921000  1.0
  H  H44  1  0.29999000  0.32747000  0.28206000  1.0
  H  H45  1  0.28175000  0.24062000  0.28934000  1.0
  H  H46  1  0.19716000  0.28967000  0.33990000  1.0
  H  H47  1  0.14104000  0.18300000  0.25726000  1.0
  H  H48  1  0.13870000  0.23923000  0.17582000  1.0
  H  H49  1  0.18795000  0.34436000  0.25779000  1.0
  H  H50  1  0.19921000  0.95662000  0.97952000  1.0
  H  H51  1  0.28206000  0.98207000  0.95459000  1.0
  H  H52  1  0.28934000  0.00760000  0.04873000  1.0
  H  H53  1  0.33990000  0.14275000  0.05023000  1.0
  H  H54  1  0.25726000  0.11623000  0.07426000  1.0
  H  H55  1  0.17581000  0.03712000  0.93659000  1.0
  H  H56  1  0.25779000  0.06984000  0.91343000  1.0
  H  H57  1  0.97952000  0.78031000  0.02290000  1.0
  H  H58  1  0.95459000  0.67253000  0.97251000  1.0
  H  H59  1  0.04873000  0.75939000  0.04113000  1.0
  H  H60  1  0.05024000  0.71034000  0.90749000  1.0
  H  H61  1  0.07427000  0.81701000  0.95805000  1.0
  H  H62  1  0.93659000  0.76077000  0.89947000  1.0
  H  H63  1  0.91343000  0.65564000  0.84359000  1.0
  H  H64  1  0.02290000  0.04339000  0.24259000  1.0
  H  H65  1  0.97252000  0.01793000  0.29999000  1.0
  H  H66  1  0.04114000  0.99242000  0.28175000  1.0
  H  H67  1  0.90749000  0.85726000  0.19715000  1.0
  H  H68  1  0.95804000  0.88378000  0.14103000  1.0
  H  H69  1  0.89947000  0.96288000  0.13869000  1.0
  C  C70  1  0.00001000  0.38279000  0.38278000  1.0
  C  C71  1  0.00001000  0.11827000  0.11828000  1.0
  C  C72  1  0.23686000  0.09029000  0.96102000  1.0
  C  C73  1  0.27750000  0.09377000  0.02700000  1.0
  C  C74  1  0.26134000  0.00529000  0.00125000  1.0
  C  C75  1  0.96101000  0.72415000  0.87073000  1.0
  C  C76  1  0.02700000  0.74950000  0.93324000  1.0
  C  C77  1  0.00125000  0.73991000  0.99595000  1.0
  C  C78  1  0.87073000  0.90972000  0.14657000  1.0
  C  C79  1  0.93324000  0.90625000  0.18374000  1.0
  C  C80  1  0.99596000  0.99472000  0.25605000  1.0
  C  C81  1  0.03899000  0.90972000  0.76315000  1.0
  C  C82  1  0.11827000  0.11827000  1.00000000  1.0
  C  C83  1  0.97301000  0.90625000  0.72251000  1.0
  C  C84  1  0.99877000  0.99472000  0.73867000  1.0
  C  C85  1  0.12927000  0.27585000  0.03899000  1.0
  C  C86  1  0.06676000  0.25050000  0.97300000  1.0
  C  C87  1  0.00405000  0.26010000  0.99876000  1.0
  C  C88  1  0.85343000  0.09028000  0.12927000  1.0
  C  C89  1  0.81627000  0.09376000  0.06677000  1.0
  C  C90  1  0.74395000  0.00528000  0.00404000  1.0
  C  C91  1  0.76315000  0.72416000  0.85343000  1.0
  C  C92  1  0.72251000  0.74951000  0.81627000  1.0
  C  C93  1  0.00001000  0.88174000  0.88174000  1.0
  C  C94  1  0.73866000  0.73991000  0.74395000  1.0
  C  C95  1  0.14658000  0.27585000  0.23686000  1.0
  C  C96  1  0.18374000  0.25050000  0.27750000  1.0
  C  C97  1  0.25605000  0.26010000  0.26134000  1.0
  C  C98  1  0.88174000  0.88173000  1.00000000  1.0
  C  C99  1  0.90995000  0.49994000  0.41003000  1.0
  C  C100  1  0.41001000  0.50000000  0.91001000  1.0
  C  C101  1  0.08994000  0.49997000  0.58999000  1.0
  C  C102  1  0.38278000  0.38278000  0.00000000  1.0
  C  C103  1  0.59000000  0.49996000  0.08992000  1.0
  C  C104  1  0.86018000  0.49994000  0.36027000  1.0
  C  C105  1  0.36026000  0.50002000  0.86027000  1.0
  C  C106  1  0.13971000  0.49998000  0.63976000  1.0
  C  C107  1  0.63978000  0.49997000  0.13966000  1.0
  C  C108  1  1.00000000  0.61722000  0.61722000  1.0
  C  C109  1  0.81769000  0.49997000  0.31774000  1.0
  C  C110  1  0.31773000  0.50000000  0.81774000  1.0
  C  C111  1  0.18224000  0.49999000  0.68227000  1.0
  C  C112  1  0.68229000  0.49998000  0.18222000  1.0
  C  C113  1  0.61722000  0.61722000  0.00000000  1.0
  C  C114  1  0.77136000  0.49997000  0.27138000  1.0
  C  C115  1  0.27139000  0.50000000  0.77140000  1.0
  C  C116  1  0.22860000  0.49999000  0.72860000  1.0
  C  C117  1  0.72860000  0.49998000  0.22858000  1.0
  C  C118  1  0.06961000  0.32451000  0.30834000  1.0
  C  C119  1  0.30834000  0.23874000  0.98384000  1.0
  C  C120  1  0.98384000  0.67550000  0.74510000  1.0
  C  C121  1  0.74510000  0.76127000  0.06960000  1.0
  C  C122  1  0.01617000  0.76127000  0.69167000  1.0
  C  C123  1  0.25490000  0.32451000  0.01616000  1.0
  C  C124  1  0.93040000  0.23874000  0.25489000  1.0
  C  C125  1  0.69166000  0.67550000  0.93039000  1.0
  C  C126  1  0.07106000  0.26147000  0.24396000  1.0
  C  C127  1  0.24397000  0.17291000  0.98250000  1.0
  C  C128  1  0.98250000  0.73853000  0.80959000  1.0
  C  C129  1  0.80959000  0.82709000  0.07106000  1.0
  C  C130  1  0.01750000  0.82709000  0.75603000  1.0
  C  C131  1  0.19041000  0.26147000  0.01750000  1.0
  C  C132  1  0.92894000  0.17291000  0.19041000  1.0
  C  C133  1  0.75604000  0.73854000  0.92894000  1.0
  C  C134  1  0.00000000  0.18676000  0.18676000  1.0
  C  C135  1  0.18677000  0.18677000  1.00000000  1.0
  C  C136  1  0.00000000  0.81324000  0.81324000  1.0
  C  C137  1  0.81324000  0.81324000  0.00000000  1.0
  C  C138  1  0.00001000  0.31438000  0.31436000  1.0
  C  C139  1  0.31437000  0.31438000  0.00001000  1.0
  C  C140  1  0.00000000  0.68563000  0.68563000  1.0
  C  C141  1  0.68563000  0.68563000  0.99999000  1.0
  O  O142  1  0.95685000  0.35838000  0.41735000  1.0
  O  O143  1  0.41736000  0.46053000  0.05899000  1.0
  O  O144  1  0.05899000  0.64164000  0.59846000  1.0
  O  O145  1  0.59845000  0.53948000  0.95682000  1.0
  O  O146  1  0.94103000  0.53949000  0.58266000  1.0
  O  O147  1  0.40154000  0.35838000  0.94102000  1.0
  O  O148  1  0.04319000  0.46054000  0.40155000  1.0
  O  O149  1  0.58265000  0.64164000  0.04317000  1.0
  O  O150  1  0.87777000  0.43895000  0.42027000  1.0
  O  O151  1  0.42026000  0.54243000  0.98126000  1.0
  O  O152  1  0.98119000  0.56094000  0.43883000  1.0
  O  O153  1  0.43881000  0.45757000  0.87782000  1.0
  O  O154  1  0.01871000  0.45755000  0.57974000  1.0
  O  O155  1  0.56119000  0.43897000  0.01869000  1.0
  O  O156  1  0.12214000  0.54241000  0.56118000  1.0
  O  O157  1  0.57975000  0.56096000  0.12211000  1.0
  O  O158  1  0.94684000  0.89599000  0.02553000  1.0
  O  O159  1  0.02553000  0.07869000  0.12954000  1.0
  O  O160  1  0.12954000  0.10401000  0.05085000  1.0
  O  O161  1  0.05085000  0.92131000  0.94684000  1.0
  O  O162  1  0.87046000  0.92131000  0.97446000  1.0
  O  O163  1  0.94915000  0.89599000  0.87046000  1.0
  O  O164  1  0.05315000  0.07868000  0.94914000  1.0
  O  O165  1  0.97447000  0.10401000  0.05315000  1.0
  O  O166  1  0.13588000  0.39770000  0.36813000  1.0
  O  O167  1  0.36813000  0.23226000  0.97044000  1.0
  O  O168  1  0.97044000  0.60231000  0.73818000  1.0
  O  O169  1  0.73818000  0.76774000  0.13587000  1.0
  O  O170  1  0.02956000  0.76774000  0.63187000  1.0
  O  O171  1  0.26182000  0.39769000  0.02956000  1.0
  O  O172  1  0.86414000  0.23227000  0.26182000  1.0
  O  O173  1  0.63187000  0.60231000  0.86413000  1.0
