# generated using pymatgen
data_AgH11C9N2
_symmetry_space_group_name_H-M   'P 1'
_cell_length_a   8.45494000
_cell_length_b   9.71611000
_cell_length_c   11.74520000
_cell_angle_alpha   90.00000000
_cell_angle_beta   96.83350000
_cell_angle_gamma   89.99960000
_symmetry_Int_Tables_number   1
_chemical_formula_structural   AgH11C9N2
_chemical_formula_sum   'Ag4 H44 C36 N8'
_cell_volume   958.00368216
_cell_formula_units_Z   4
loop_
 _symmetry_equiv_pos_site_id
 _symmetry_equiv_pos_as_xyz
  1  'x, y, z'
loop_
 _atom_site_type_symbol
 _atom_site_label
 _atom_site_symmetry_multiplicity
 _atom_site_fract_x
 _atom_site_fract_y
 _atom_site_fract_z
 _atom_site_occupancy
  Ag  Ag0  1  0.24205000  0.35703000  0.34850000  1.0
  Ag  Ag1  1  0.25795000  0.85702000  0.15150000  1.0
  Ag  Ag2  1  0.75795000  0.64298000  0.65150000  1.0
  Ag  Ag3  1  0.74205000  0.14298000  0.84850000  1.0
  H  H4  1  0.51097000  0.16270000  0.42781000  1.0
  H  H5  1  0.98903000  0.66270000  0.07219000  1.0
  H  H6  1  0.48903000  0.83729000  0.57219000  1.0
  H  H7  1  0.01097000  0.33730000  0.92781000  1.0
  H  H8  1  0.53204000  0.31147000  0.51637000  1.0
  H  H9  1  0.96795000  0.81147000  0.98362000  1.0
  H  H10  1  0.46797000  0.68852000  0.48363000  1.0
  H  H11  1  0.03204000  0.18852000  0.01637000  1.0
  H  H12  1  0.61122000  0.15214000  0.57067000  1.0
  H  H13  1  0.88878000  0.65213000  0.92932000  1.0
  H  H14  1  0.38879000  0.84786000  0.42932000  1.0
  H  H15  1  0.11122000  0.34786000  0.07068000  1.0
  H  H16  1  0.45826000  0.04219000  0.70097000  1.0
  H  H17  1  0.04174000  0.54219000  0.79902000  1.0
  H  H18  1  0.54174000  0.95781000  0.29903000  1.0
  H  H19  1  0.95826000  0.45781000  0.20098000  1.0
  H  H20  1  0.20107000  0.03498000  0.87694000  1.0
  H  H21  1  0.29893000  0.53497000  0.62306000  1.0
  H  H22  1  0.79892000  0.96502000  0.12306000  1.0
  H  H23  1  0.70107000  0.46502000  0.37694000  1.0
  H  H24  1  0.07631000  0.91689000  0.79475000  1.0
  H  H25  1  0.42368000  0.41689000  0.70525000  1.0
  H  H26  1  0.92368000  0.08311000  0.20525000  1.0
  H  H27  1  0.57632000  0.58312000  0.29475000  1.0
  H  H28  1  0.28811000  0.89510000  0.81094000  1.0
  H  H29  1  0.21189000  0.39509000  0.68906000  1.0
  H  H30  1  0.71188000  0.10490000  0.18906000  1.0
  H  H31  1  0.78812000  0.60490000  0.31094000  1.0
  H  H32  1  0.94814000  0.09451000  0.65873000  1.0
  H  H33  1  0.55185000  0.59451000  0.84127000  1.0
  H  H34  1  0.05186000  0.90550000  0.34128000  1.0
  H  H35  1  0.44815000  0.40550000  0.15873000  1.0
  H  H36  1  0.94174000  0.37359000  0.48262000  1.0
  H  H37  1  0.55825000  0.87359000  0.01738000  1.0
  H  H38  1  0.05826000  0.62641000  0.51738000  1.0
  H  H39  1  0.44174000  0.12641000  0.98262000  1.0
  H  H40  1  0.93785000  0.24177000  0.37766000  1.0
  H  H41  1  0.56215000  0.74177000  0.12234000  1.0
  H  H42  1  0.06215000  0.75823000  0.62234000  1.0
  H  H43  1  0.43785000  0.25824000  0.87766000  1.0
  H  H44  1  0.82711000  0.22294000  0.49720000  1.0
  H  H45  1  0.67289000  0.72294000  0.00280000  1.0
  H  H46  1  0.17290000  0.77707000  0.50280000  1.0
  H  H47  1  0.32711000  0.27707000  0.99720000  1.0
  C  C48  1  0.23552000  0.55541000  0.29517000  1.0
  C  C49  1  0.26448000  0.05541000  0.20483000  1.0
  C  C50  1  0.76448000  0.44458000  0.70483000  1.0
  C  C51  1  0.73552000  0.94459000  0.79517000  1.0
  C  C52  1  0.35655000  0.16747000  0.55997000  1.0
  C  C53  1  0.14344000  0.66747000  0.94002000  1.0
  C  C54  1  0.64345000  0.83253000  0.44002000  1.0
  C  C55  1  0.85656000  0.33253000  0.05998000  1.0
  C  C56  1  0.51169000  0.19956000  0.51638000  1.0
  C  C57  1  0.98831000  0.69956000  0.98362000  1.0
  C  C58  1  0.48831000  0.80044000  0.48362000  1.0
  C  C59  1  0.01169000  0.30044000  0.01638000  1.0
  C  C60  1  0.34863000  0.08481000  0.65626000  1.0
  C  C61  1  0.15137000  0.58482000  0.84375000  1.0
  C  C62  1  0.65136000  0.91518000  0.34374000  1.0
  C  C63  1  0.84863000  0.41518000  0.15626000  1.0
  C  C64  1  0.20165000  0.05698000  0.69486000  1.0
  C  C65  1  0.29834000  0.55698000  0.80514000  1.0
  C  C66  1  0.79834000  0.94302000  0.30514000  1.0
  C  C67  1  0.70167000  0.44301000  0.19487000  1.0
  C  C68  1  0.19102000  0.97051000  0.79925000  1.0
  C  C69  1  0.30898000  0.47051000  0.70075000  1.0
  C  C70  1  0.80898000  0.02949000  0.20074000  1.0
  C  C71  1  0.69102000  0.52949000  0.29926000  1.0
  C  C72  1  0.06573000  0.11357000  0.63267000  1.0
  C  C73  1  0.43427000  0.61358000  0.86733000  1.0
  C  C74  1  0.93427000  0.88642000  0.36733000  1.0
  C  C75  1  0.56573000  0.38643000  0.13267000  1.0
  C  C76  1  0.08008000  0.19603000  0.53715000  1.0
  C  C77  1  0.41992000  0.69603000  0.96285000  1.0
  C  C78  1  0.91993000  0.80397000  0.46285000  1.0
  C  C79  1  0.58008000  0.30397000  0.03715000  1.0
  C  C80  1  0.93822000  0.26129000  0.46991000  1.0
  C  C81  1  0.56178000  0.76129000  0.03009000  1.0
  C  C82  1  0.06179000  0.73871000  0.53009000  1.0
  C  C83  1  0.43822000  0.23872000  0.96991000  1.0
  N  N84  1  0.23064000  0.66788000  0.25830000  1.0
  N  N85  1  0.26936000  0.16786000  0.24169000  1.0
  N  N86  1  0.76936000  0.33214000  0.74170000  1.0
  N  N87  1  0.73064000  0.83213000  0.75831000  1.0
  N  N88  1  0.22373000  0.22259000  0.50231000  1.0
  N  N89  1  0.27627000  0.72260000  0.99769000  1.0
  N  N90  1  0.77627000  0.77741000  0.49769000  1.0
  N  N91  1  0.72372000  0.27741000  0.00231000  1.0
