# generated using pymatgen
data_AgH4C7S2NO2
_symmetry_space_group_name_H-M   'P 1'
_cell_length_a   8.08982000
_cell_length_b   8.10491000
_cell_length_c   12.75460000
_cell_angle_alpha   89.99930000
_cell_angle_beta   79.91500000
_cell_angle_gamma   89.99950000
_symmetry_Int_Tables_number   1
_chemical_formula_structural   AgH4C7S2NO2
_chemical_formula_sum   'Ag4 H16 C28 S8 N4 O8'
_cell_volume   823.36283320
_cell_formula_units_Z   4
loop_
 _symmetry_equiv_pos_site_id
 _symmetry_equiv_pos_as_xyz
  1  'x, y, z'
loop_
 _atom_site_type_symbol
 _atom_site_label
 _atom_site_symmetry_multiplicity
 _atom_site_fract_x
 _atom_site_fract_y
 _atom_site_fract_z
 _atom_site_occupancy
  Ag  Ag0  1  0.59148000  0.14706000  0.46146000  1.0
  Ag  Ag1  1  0.90852000  0.64706000  0.53853000  1.0
  Ag  Ag2  1  0.40852000  0.85294000  0.53854000  1.0
  Ag  Ag3  1  0.09148000  0.35294000  0.46146000  1.0
  H  H4  1  0.82576000  0.49095000  0.27613000  1.0
  H  H5  1  0.67423000  0.99095000  0.72386000  1.0
  H  H6  1  0.17424000  0.50905000  0.72387000  1.0
  H  H7  1  0.32576000  0.00905000  0.27613000  1.0
  H  H8  1  0.03375000  0.41991000  0.11497000  1.0
  H  H9  1  0.46625000  0.91991000  0.88503000  1.0
  H  H10  1  0.96626000  0.58009000  0.88503000  1.0
  H  H11  1  0.53375000  0.08009000  0.11497000  1.0
  H  H12  1  0.18195000  0.64130000  0.99892000  1.0
  H  H13  1  0.31805000  0.14129000  0.00108000  1.0
  H  H14  1  0.81805000  0.35870000  0.00108000  1.0
  H  H15  1  0.68195000  0.85870000  0.99892000  1.0
  H  H16  1  0.13221000  0.93592000  0.04611000  1.0
  H  H17  1  0.36780000  0.43592000  0.95390000  1.0
  H  H18  1  0.86778000  0.06408000  0.95389000  1.0
  H  H19  1  0.63221000  0.56408000  0.04611000  1.0
  C  C20  1  0.74873000  0.82675000  0.34349000  1.0
  C  C21  1  0.75126000  0.32675000  0.65651000  1.0
  C  C22  1  0.25127000  0.17325000  0.65651000  1.0
  C  C23  1  0.24873000  0.67325000  0.34349000  1.0
  C  C24  1  0.86710000  0.75333000  0.25385000  1.0
  C  C25  1  0.63290000  0.25333000  0.74615000  1.0
  C  C26  1  0.13291000  0.24667000  0.74615000  1.0
  C  C27  1  0.36710000  0.74667000  0.25385000  1.0
  C  C28  1  0.89464000  0.58751000  0.22741000  1.0
  C  C29  1  0.60535000  0.08751000  0.77259000  1.0
  C  C30  1  0.10536000  0.41249000  0.77259000  1.0
  C  C31  1  0.39465000  0.91249000  0.22741000  1.0
  C  C32  1  0.00984000  0.54883000  0.13568000  1.0
  C  C33  1  0.49016000  0.04883000  0.86432000  1.0
  C  C34  1  0.99016000  0.45117000  0.86432000  1.0
  C  C35  1  0.50984000  0.95117000  0.13568000  1.0
  C  C36  1  0.09467000  0.67280000  0.07117000  1.0
  C  C37  1  0.40534000  0.17280000  0.92883000  1.0
  C  C38  1  0.90533000  0.32719000  0.92882000  1.0
  C  C39  1  0.59467000  0.82720000  0.07117000  1.0
  C  C40  1  0.06741000  0.83961000  0.09683000  1.0
  C  C41  1  0.43259000  0.33960000  0.90317000  1.0
  C  C42  1  0.93258000  0.16040000  0.90316000  1.0
  C  C43  1  0.56741000  0.66040000  0.09683000  1.0
  C  C44  1  0.95408000  0.87525000  0.18865000  1.0
  C  C45  1  0.54593000  0.37525000  0.81136000  1.0
  C  C46  1  0.04592000  0.12474000  0.81136000  1.0
  C  C47  1  0.45408000  0.62475000  0.18865000  1.0
  S  S48  1  0.64169000  0.70375000  0.44026000  1.0
  S  S49  1  0.85831000  0.20376000  0.55974000  1.0
  S  S50  1  0.35831000  0.29624000  0.55974000  1.0
  S  S51  1  0.14169000  0.79624000  0.44026000  1.0
  S  S52  1  0.88854000  0.06967000  0.24291000  1.0
  S  S53  1  0.61145000  0.56967000  0.75709000  1.0
  S  S54  1  0.11146000  0.93033000  0.75709000  1.0
  S  S55  1  0.38856000  0.43033000  0.24292000  1.0
  N  N56  1  0.74139000  0.99064000  0.34119000  1.0
  N  N57  1  0.75861000  0.49064000  0.65881000  1.0
  N  N58  1  0.25861000  0.00936000  0.65881000  1.0
  N  N59  1  0.24138000  0.50936000  0.34119000  1.0
  O  O60  1  0.81265000  0.16671000  0.16895000  1.0
  O  O61  1  0.68735000  0.66666667  0.83105000  1.0
  O  O62  1  0.18735000  0.83329000  0.83105000  1.0
  O  O63  1  0.31265000  0.33328000  0.16895000  1.0
  O  O64  1  0.01622000  0.14883000  0.29192000  1.0
  O  O65  1  0.48378000  0.64883000  0.70808000  1.0
  O  O66  1  0.98378000  0.85116000  0.70807000  1.0
  O  O67  1  0.51621000  0.35117000  0.29193000  1.0
