# generated using pymatgen
data_NaH3C2(N3O)2
_symmetry_space_group_name_H-M   'P 1'
_cell_length_a   3.63315000
_cell_length_b   8.36416000
_cell_length_c   18.92730000
_cell_angle_alpha   90.00000000
_cell_angle_beta   91.37820000
_cell_angle_gamma   90.00000000
_symmetry_Int_Tables_number   1
_chemical_formula_structural   NaH3C2(N3O)2
_chemical_formula_sum   'Na4 H12 C8 N24 O8'
_cell_volume   575.00109632
_cell_formula_units_Z   4
loop_
 _symmetry_equiv_pos_site_id
 _symmetry_equiv_pos_as_xyz
  1  'x, y, z'
loop_
 _atom_site_type_symbol
 _atom_site_label
 _atom_site_symmetry_multiplicity
 _atom_site_fract_x
 _atom_site_fract_y
 _atom_site_fract_z
 _atom_site_occupancy
  Na  Na0  1  0.76068000  0.16028000  0.21718000  1.0
  Na  Na1  1  0.73932000  0.66027000  0.28282000  1.0
  Na  Na2  1  0.23932000  0.83972000  0.78282000  1.0
  Na  Na3  1  0.26068000  0.33973000  0.71718000  1.0
  H  H4  1  0.53537000  0.85821000  0.98236000  1.0
  H  H5  1  0.96464000  0.35820000  0.51764000  1.0
  H  H6  1  0.46463000  0.14179000  0.01764000  1.0
  H  H7  1  0.03537000  0.64180000  0.48236000  1.0
  H  H8  1  0.50975000  0.64659000  0.99771000  1.0
  H  H9  1  0.99025000  0.14658000  0.50229000  1.0
  H  H10  1  0.49025000  0.35341000  0.00229000  1.0
  H  H11  1  0.00976000  0.85342000  0.49771000  1.0
  H  H12  1  0.13126000  0.75003000  0.95684000  1.0
  H  H13  1  0.36875000  0.25003000  0.54316000  1.0
  H  H14  1  0.86874000  0.24997000  0.04316000  1.0
  H  H15  1  0.63126000  0.74997000  0.45684000  1.0
  C  C16  1  0.35584000  0.75878000  0.99633000  1.0
  C  C17  1  0.14417000  0.25877000  0.50367000  1.0
  C  C18  1  0.64416000  0.24123000  0.00367000  1.0
  C  C19  1  0.85584000  0.74123000  0.49633000  1.0
  C  C20  1  0.13910000  0.68094000  0.11856000  1.0
  C  C21  1  0.36090000  0.18093000  0.38144000  1.0
  C  C22  1  0.86090000  0.31907000  0.88144000  1.0
  C  C23  1  0.63910000  0.81907000  0.61856000  1.0
  N  N24  1  0.20721000  0.78745000  0.06577000  1.0
  N  N25  1  0.29279000  0.28745000  0.43423000  1.0
  N  N26  1  0.79278000  0.21255000  0.93423000  1.0
  N  N27  1  0.70721000  0.71255000  0.56577000  1.0
  N  N28  1  0.09940000  0.93375000  0.08633000  1.0
  N  N29  1  0.40060000  0.43374000  0.41367000  1.0
  N  N30  1  0.90060000  0.06625000  0.91367000  1.0
  N  N31  1  0.59940000  0.56625000  0.58633000  1.0
  N  N32  1  0.98818000  0.76338000  0.17175000  1.0
  N  N33  1  0.51182000  0.26337000  0.32824000  1.0
  N  N34  1  0.01181000  0.23663000  0.82824000  1.0
  N  N35  1  0.48818000  0.73663000  0.67176000  1.0
  N  N36  1  0.97076000  0.91760000  0.14962000  1.0
  N  N37  1  0.52924000  0.41759000  0.35038000  1.0
  N  N38  1  0.02924000  0.08241000  0.85038000  1.0
  N  N39  1  0.47076000  0.58241000  0.64962000  1.0
  N  N40  1  0.24112000  0.52579000  0.10876000  1.0
  N  N41  1  0.25888000  0.02579000  0.39124000  1.0
  N  N42  1  0.75888000  0.47420000  0.89123000  1.0
  N  N43  1  0.74112000  0.97421000  0.60877000  1.0
  N  N44  1  0.15627000  0.42155000  0.15741000  1.0
  N  N45  1  0.34372000  0.92154000  0.34259000  1.0
  N  N46  1  0.84373000  0.57845000  0.84259000  1.0
  N  N47  1  0.65628000  0.07845000  0.65741000  1.0
  O  O48  1  0.26006000  0.27745000  0.14707000  1.0
  O  O49  1  0.23994000  0.77745000  0.35293000  1.0
  O  O50  1  0.73994000  0.72255000  0.85293000  1.0
  O  O51  1  0.76006000  0.22255000  0.64707000  1.0
  O  O52  1  0.97404000  0.45290000  0.21219000  1.0
  O  O53  1  0.52596000  0.95290000  0.28780000  1.0
  O  O54  1  0.02597000  0.54710000  0.78781000  1.0
  O  O55  1  0.47403000  0.04710000  0.71220000  1.0
