# generated using pymatgen
data_LaCuH13C15N2O13
_symmetry_space_group_name_H-M   'P 1'
_cell_length_a   8.13133000
_cell_length_b   10.94990000
_cell_length_c   12.11670000
_cell_angle_alpha   101.06300000
_cell_angle_beta   106.48800000
_cell_angle_gamma   103.21500000
_symmetry_Int_Tables_number   1
_chemical_formula_structural   LaCuH13C15N2O13
_chemical_formula_sum   'La2 Cu2 H26 C30 N4 O26'
_cell_volume   968.23355736
_cell_formula_units_Z   2
loop_
 _symmetry_equiv_pos_site_id
 _symmetry_equiv_pos_as_xyz
  1  'x, y, z'
loop_
 _atom_site_type_symbol
 _atom_site_label
 _atom_site_symmetry_multiplicity
 _atom_site_fract_x
 _atom_site_fract_y
 _atom_site_fract_z
 _atom_site_occupancy
  La  La0  1  0.98095000  0.16229000  0.91852000  1.0
  La  La1  1  0.01905000  0.83771000  0.08148000  1.0
  Cu  Cu2  1  0.97420000  0.26760000  0.44896000  1.0
  Cu  Cu3  1  0.02581000  0.73240000  0.55104000  1.0
  H  H4  1  0.76460000  0.27617000  0.07349000  1.0
  H  H5  1  0.23539000  0.72383000  0.92650000  1.0
  H  H6  1  0.83058000  0.17441000  0.14281000  1.0
  H  H7  1  0.16942000  0.82559000  0.85719000  1.0
  H  H8  1  0.23959000  0.43151000  0.03821000  1.0
  H  H9  1  0.76040000  0.56848000  0.96179000  1.0
  H  H10  1  0.18093000  0.40079000  0.14698000  1.0
  H  H11  1  0.81907000  0.59922000  0.85301000  1.0
  H  H12  1  0.77672000  0.37210000  0.92846000  1.0
  H  H13  1  0.22327000  0.62790000  0.07154000  1.0
  H  H14  1  0.83680000  0.37319000  0.81539000  1.0
  H  H15  1  0.16319000  0.62681000  0.18461000  1.0
  H  H16  1  0.59233000  0.81692000  0.85704000  1.0
  H  H17  1  0.40768000  0.18307000  0.14297000  1.0
  H  H18  1  0.36347000  0.67579000  0.52061000  1.0
  H  H19  1  0.63653000  0.32421000  0.47939000  1.0
  H  H20  1  0.57289000  0.56180000  0.62604000  1.0
  H  H21  1  0.42711000  0.43820000  0.37396000  1.0
  H  H22  1  0.48907000  0.45212000  0.77387000  1.0
  H  H23  1  0.51093000  0.54788000  0.22613000  1.0
  H  H24  1  0.32318000  0.23866000  0.43153000  1.0
  H  H25  1  0.67682000  0.76134000  0.56847000  1.0
  H  H26  1  0.55586000  0.14423000  0.54537000  1.0
  H  H27  1  0.44414000  0.85577000  0.45463000  1.0
  H  H28  1  0.48711000  0.03634000  0.69788000  1.0
  H  H29  1  0.51289000  0.96366000  0.30212000  1.0
  C  C30  1  0.20650000  0.45290000  0.84876000  1.0
  C  C31  1  0.79349000  0.54709000  0.15124000  1.0
  C  C32  1  0.24311000  0.50443000  0.74843000  1.0
  C  C33  1  0.75689000  0.49557000  0.25157000  1.0
  C  C34  1  0.13174000  0.56405000  0.68214000  1.0
  C  C35  1  0.86826000  0.43595000  0.31786000  1.0
  C  C36  1  0.69706000  0.90671000  0.86582000  1.0
  C  C37  1  0.30294000  0.09328000  0.13418000  1.0
  C  C38  1  0.33454000  0.62478000  0.58486000  1.0
  C  C39  1  0.66547000  0.37523000  0.41514000  1.0
  C  C40  1  0.95060000  0.56697000  0.68863000  1.0
  C  C41  1  0.04940000  0.43303000  0.31137000  1.0
  C  C42  1  0.44780000  0.56094000  0.64279000  1.0
  C  C43  1  0.55220000  0.43906000  0.35721000  1.0
  C  C44  1  0.40179000  0.50079000  0.72553000  1.0
  C  C45  1  0.59821000  0.49921000  0.27446000  1.0
  C  C46  1  0.93776000  0.13841000  0.62017000  1.0
  C  C47  1  0.06224000  0.86158000  0.37983000  1.0
  C  C48  1  0.11564000  0.13347000  0.60826000  1.0
  C  C49  1  0.88436000  0.86654000  0.39175000  1.0
  C  C50  1  0.19957000  0.00833000  0.76511000  1.0
  C  C51  1  0.80043000  0.99167000  0.23489000  1.0
  C  C52  1  0.30622000  0.19328000  0.50159000  1.0
  C  C53  1  0.69379000  0.80672000  0.49841000  1.0
  C  C54  1  0.43078000  0.13976000  0.56317000  1.0
  C  C55  1  0.56922000  0.86024000  0.43683000  1.0
  C  C56  1  0.39292000  0.07963000  0.64805000  1.0
  C  C57  1  0.60709000  0.92037000  0.35196000  1.0
  C  C58  1  0.23294000  0.07542000  0.67191000  1.0
  C  C59  1  0.76706000  0.92458000  0.32809000  1.0
  N  N60  1  0.18067000  0.62508000  0.60423000  1.0
  N  N61  1  0.81933000  0.37492000  0.39577000  1.0
  N  N62  1  0.15435000  0.19015000  0.52507000  1.0
  N  N63  1  0.84565000  0.80985000  0.47493000  1.0
  O  O64  1  0.86241000  0.90833000  0.90385000  1.0
  O  O65  1  0.13760000  0.09167000  0.09616000  1.0
  O  O66  1  0.84087000  0.21868000  0.07850000  1.0
  O  O67  1  0.15913000  0.78132000  0.92150000  1.0
  O  O68  1  0.21171000  0.36151000  0.07767000  1.0
  O  O69  1  0.78829000  0.63850000  0.92232000  1.0
  O  O70  1  0.65275000  0.00284000  0.83936000  1.0
  O  O71  1  0.34725000  0.99716000  0.16064000  1.0
  O  O72  1  0.87901000  0.08581000  0.69038000  1.0
  O  O73  1  0.12099000  0.91419000  0.30962000  1.0
  O  O74  1  0.79756000  0.31614000  0.86284000  1.0
  O  O75  1  0.20243000  0.68386000  0.13716000  1.0
  O  O76  1  0.20972000  0.07847000  0.86447000  1.0
  O  O77  1  0.79028000  0.92153000  0.13553000  1.0
  O  O78  1  0.13956000  0.33179000  0.82808000  1.0
  O  O79  1  0.86044000  0.66820000  0.17192000  1.0
  O  O80  1  0.25970000  0.53860000  0.94927000  1.0
  O  O81  1  0.74030000  0.46140000  0.05073000  1.0
  O  O82  1  0.88014000  0.50314000  0.74798000  1.0
  O  O83  1  0.11986000  0.49686000  0.25202000  1.0
  O  O84  1  0.87438000  0.63562000  0.62822000  1.0
  O  O85  1  0.12562000  0.36438000  0.37178000  1.0
  O  O86  1  0.85088000  0.19689000  0.55229000  1.0
  O  O87  1  0.14912000  0.80311000  0.44772000  1.0
  O  O88  1  0.17361000  0.88601000  0.73962000  1.0
  O  O89  1  0.82638000  0.11399000  0.26038000  1.0
