# generated using pymatgen
data_ZnH15C12(NO2)2
_symmetry_space_group_name_H-M   'P 1'
_cell_length_a   10.69060000
_cell_length_b   17.31422340
_cell_length_c   17.31410000
_cell_angle_alpha   59.99670736
_cell_angle_beta   90.00080000
_cell_angle_gamma   89.99920008
_symmetry_Int_Tables_number   1
_chemical_formula_structural   ZnH15C12(NO2)2
_chemical_formula_sum   'Zn6 H90 C72 N12 O24'
_cell_volume   2775.37223881
_cell_formula_units_Z   6
loop_
 _symmetry_equiv_pos_site_id
 _symmetry_equiv_pos_as_xyz
  1  'x, y, z'
loop_
 _atom_site_type_symbol
 _atom_site_label
 _atom_site_symmetry_multiplicity
 _atom_site_fract_x
 _atom_site_fract_y
 _atom_site_fract_z
 _atom_site_occupancy
  Zn  Zn0  1  0.14801000  0.53415000  0.53882000  1.0
  Zn  Zn1  1  0.31453000  0.46129000  0.07301000  1.0
  Zn  Zn2  1  0.48167000  0.92691000  0.53423000  1.0
  Zn  Zn3  1  0.64798000  0.46585000  0.46119000  1.0
  Zn  Zn4  1  0.81482000  0.53872000  0.92697000  1.0
  Zn  Zn5  1  0.98172000  0.07312000  0.46572000  1.0
  H  H6  1  0.70347000  0.90144000  0.44373000  1.0
  H  H7  1  0.86965000  0.55622000  0.34535000  1.0
  H  H8  1  0.03634000  0.65463000  0.90130000  1.0
  H  H9  1  0.20346000  0.09857000  0.55624000  1.0
  H  H10  1  0.36963000  0.44377000  0.65466000  1.0
  H  H11  1  0.53636000  0.34536000  0.09869000  1.0
  H  H12  1  0.35780000  0.77807000  0.52290000  1.0
  H  H13  1  0.52434000  0.47655000  0.30118000  1.0
  H  H14  1  0.69073000  0.69875000  0.77788000  1.0
  H  H15  1  0.85777000  0.22194000  0.47710000  1.0
  H  H16  1  0.02434000  0.52345000  0.69885000  1.0
  H  H17  1  0.19077000  0.30127000  0.22208000  1.0
  H  H18  1  0.76963000  0.79900000  0.38761000  1.0
  H  H19  1  0.93598000  0.61230000  0.18685000  1.0
  H  H20  1  0.10245000  0.81320000  0.79885000  1.0
  H  H21  1  0.26962000  0.20100000  0.61238000  1.0
  H  H22  1  0.43599000  0.38768000  0.81316000  1.0
  H  H23  1  0.60246000  0.18680000  0.20111000  1.0
  H  H24  1  0.77904000  0.63516000  0.52440000  1.0
  H  H25  1  0.94598000  0.47560000  0.15934000  1.0
  H  H26  1  0.11230000  0.84047000  0.63531000  1.0
  H  H27  1  0.27904000  0.36482000  0.47562000  1.0
  H  H28  1  0.44602000  0.52440000  0.84065000  1.0
  H  H29  1  0.61232000  0.15953000  0.36468000  1.0
  H  H30  1  0.79103000  0.51552000  0.67713000  1.0
  H  H31  1  0.95810000  0.32298000  0.19225000  1.0
  H  H32  1  0.12511000  0.80766000  0.51541000  1.0
  H  H33  1  0.29104000  0.48446000  0.32289000  1.0
  H  H34  1  0.45815000  0.67704000  0.80778000  1.0
  H  H35  1  0.62511000  0.19234000  0.48457000  1.0
  H  H36  1  0.55882000  0.64821000  0.36223000  1.0
  H  H37  1  0.72545000  0.63776000  0.01060000  1.0
  H  H38  1  0.89124000  0.98930000  0.64796000  1.0
  H  H39  1  0.05882000  0.35176000  0.63781000  1.0
  H  H40  1  0.22541000  0.36230000  0.98942000  1.0
  H  H41  1  0.39128000  0.01071000  0.35201000  1.0
  H  H42  1  0.71806000  0.68124000  0.35851000  1.0
  H  H43  1  0.88466000  0.64136000  0.04002000  1.0
  H  H44  1  0.05045000  0.96032000  0.68130000  1.0
  H  H45  1  0.21806000  0.31874000  0.64151000  1.0
  H  H46  1  0.38464000  0.35863000  0.96005000  1.0
  H  H47  1  0.55046000  0.03968000  0.31866000  1.0
  H  H48  1  0.40748000  0.67216000  0.46888000  1.0
  H  H49  1  0.57416000  0.53061000  0.14125000  1.0
  H  H50  1  0.74031000  0.85867000  0.67195000  1.0
  H  H51  1  0.90746000  0.32783000  0.53113000  1.0
  H  H52  1  0.07418000  0.46937000  0.85879000  1.0
  H  H53  1  0.24033000  0.14134000  0.32802000  1.0
  H  H54  1  0.57448000  0.42455000  0.63561000  1.0
  H  H55  1  0.74111000  0.36425000  0.06018000  1.0
  H  H56  1  0.90837000  0.93999000  0.42451000  1.0
  H  H57  1  0.07447000  0.57542000  0.36442000  1.0
  H  H58  1  0.24109000  0.63575000  0.93982000  1.0
  H  H59  1  0.40838000  0.06002000  0.57547000  1.0
  H  H60  1  0.63022000  0.39280000  0.74373000  1.0
  H  H61  1  0.79708000  0.25618000  0.13656000  1.0
  H  H62  1  0.96438000  0.86378000  0.39264000  1.0
  H  H63  1  0.13021000  0.60718000  0.25629000  1.0
  H  H64  1  0.29709000  0.74382000  0.86346000  1.0
  H  H65  1  0.46439000  0.13623000  0.60733000  1.0
  H  H66  1  0.72854000  0.38243000  0.66693000  1.0
  H  H67  1  0.89511000  0.33305000  0.04920000  1.0
  H  H68  1  0.06246000  0.95102000  0.38241000  1.0
  H  H69  1  0.22854000  0.61755000  0.33310000  1.0
  H  H70  1  0.39510000  0.66694000  0.95085000  1.0
  H  H71  1  0.56246000  0.04898000  0.61756000  1.0
  H  H72  1  0.64284000  0.64341000  0.63235000  1.0
  H  H73  1  0.81042000  0.36745000  0.27580000  1.0
  H  H74  1  0.97686000  0.72416000  0.64313000  1.0
  H  H75  1  0.14284000  0.35658000  0.36765000  1.0
  H  H76  1  0.31046000  0.63255000  0.72422000  1.0
  H  H77  1  0.47683000  0.27585000  0.35686000  1.0
  H  H78  1  0.59441000  0.54496000  0.72999000  1.0
  H  H79  1  0.76209000  0.26974000  0.27508000  1.0
  H  H80  1  0.92871000  0.72522000  0.54452000  1.0
  H  H81  1  0.09441000  0.45503000  0.27002000  1.0
  H  H82  1  0.26214000  0.73026000  0.72494000  1.0
  H  H83  1  0.42872000  0.27478000  0.45548000  1.0
  H  H84  1  0.51945000  0.57764000  0.62615000  1.0
  H  H85  1  0.68660000  0.37346000  0.20422000  1.0
  H  H86  1  0.85340000  0.79607000  0.57743000  1.0
  H  H87  1  0.01944000  0.42235000  0.37386000  1.0
  H  H88  1  0.18664000  0.62655000  0.79581000  1.0
  H  H89  1  0.35339000  0.20393000  0.42256000  1.0
  H  H90  1  0.11137000  0.78503000  0.36880000  1.0
  H  H91  1  0.27793000  0.63119000  0.15404000  1.0
  H  H92  1  0.44659000  0.84563000  0.78541000  1.0
  H  H93  1  0.61140000  0.21496000  0.63119000  1.0
  H  H94  1  0.77785000  0.36878000  0.84599000  1.0
  H  H95  1  0.94662000  0.15439000  0.21459000  1.0
  C  C96  1  0.86864000  0.51641000  0.53674000  1.0
  C  C97  1  0.03515000  0.46343000  0.05282000  1.0
  C  C98  1  0.20252000  0.94683000  0.51689000  1.0
  C  C99  1  0.36861000  0.48358000  0.46328000  1.0
  C  C100  1  0.53537000  0.53658000  0.94722000  1.0
  C  C101  1  0.70253000  0.05318000  0.48308000  1.0
  C  C102  1  0.64166000  0.84935000  0.44815000  1.0
  C  C103  1  0.80792000  0.55170000  0.29770000  1.0
  C  C104  1  0.97456000  0.70226000  0.84914000  1.0
  C  C105  1  0.14164000  0.15066000  0.55183000  1.0
  C  C106  1  0.30791000  0.44829000  0.70232000  1.0
  C  C107  1  0.47458000  0.29775000  0.15084000  1.0
  C  C108  1  0.44777000  0.78016000  0.49252000  1.0
  C  C109  1  0.61427000  0.50703000  0.27287000  1.0
  C  C110  1  0.78072000  0.72706000  0.77992000  1.0
  C  C111  1  0.94775000  0.21985000  0.50747000  1.0
  C  C112  1  0.11427000  0.49296000  0.72716000  1.0
  C  C113  1  0.28076000  0.27295000  0.22006000  1.0
  C  C114  1  0.67707000  0.79271000  0.41675000  1.0
  C  C115  1  0.84346000  0.58306000  0.20968000  1.0
  C  C116  1  0.00994000  0.79032000  0.79249000  1.0
  C  C117  1  0.17705000  0.20729000  0.58325000  1.0
  C  C118  1  0.34347000  0.41692000  0.79034000  1.0
  C  C119  1  0.50995000  0.20967000  0.20748000  1.0
  C  C120  1  0.74584000  0.56857000  0.54054000  1.0
  C  C121  1  0.91268000  0.45948000  0.10890000  1.0
  C  C122  1  0.07945000  0.89100000  0.56863000  1.0
  C  C123  1  0.24584000  0.43141000  0.45947000  1.0
  C  C124  1  0.41257000  0.54054000  0.89105000  1.0
  C  C125  1  0.57947000  0.10902000  0.43134000  1.0
  C  C126  1  0.70459000  0.51881000  0.64105000  1.0
  C  C127  1  0.87151000  0.35897000  0.15969000  1.0
  C  C128  1  0.03856000  0.84032000  0.51872000  1.0
  C  C129  1  0.20459000  0.48117000  0.35897000  1.0
  C  C130  1  0.37155000  0.64106000  0.84034000  1.0
  C  C131  1  0.53856000  0.15968000  0.48125000  1.0
  C  C132  1  0.63300000  0.65751000  0.40076000  1.0
  C  C133  1  0.79958000  0.59911000  0.05842000  1.0
  C  C134  1  0.96575000  0.94164000  0.65736000  1.0
  C  C135  1  0.13298000  0.34247000  0.59926000  1.0
  C  C136  1  0.29959000  0.40090000  0.94160000  1.0
  C  C137  1  0.46577000  0.05836000  0.34261000  1.0
  C  C138  1  0.59415000  0.72651000  0.42506000  1.0
  C  C139  1  0.76067000  0.57464000  0.15178000  1.0
  C  C140  1  0.92705000  0.84821000  0.72625000  1.0
  C  C141  1  0.09413000  0.27349000  0.57494000  1.0
  C  C142  1  0.26068000  0.42534000  0.84824000  1.0
  C  C143  1  0.42708000  0.15178000  0.27373000  1.0
  C  C144  1  0.47602000  0.72187000  0.46195000  1.0
  C  C145  1  0.64262000  0.53765000  0.18401000  1.0
  C  C146  1  0.80895000  0.81594000  0.72162000  1.0
  C  C147  1  0.97600000  0.27812000  0.53807000  1.0
  C  C148  1  0.14263000  0.46234000  0.81602000  1.0
  C  C149  1  0.30898000  0.18407000  0.27835000  1.0
  C  C150  1  0.65717000  0.42463000  0.67317000  1.0
  C  C151  1  0.82389000  0.32676000  0.09775000  1.0
  C  C152  1  0.99117000  0.90246000  0.42454000  1.0
  C  C153  1  0.15717000  0.57535000  0.32685000  1.0
  C  C154  1  0.32387000  0.67324000  0.90229000  1.0
  C  C155  1  0.49118000  0.09755000  0.57543000  1.0
  C  C156  1  0.60961000  0.57478000  0.65781000  1.0
  C  C157  1  0.77698000  0.34197000  0.23270000  1.0
  C  C158  1  0.94368000  0.76744000  0.57451000  1.0
  C  C159  1  0.10961000  0.42521000  0.34220000  1.0
  C  C160  1  0.27701000  0.65804000  0.76731000  1.0
  C  C161  1  0.44367000  0.23256000  0.42548000  1.0
  C  C162  1  0.08013000  0.71418000  0.40720000  1.0
  C  C163  1  0.24673000  0.59277000  0.12163000  1.0
  C  C164  1  0.41483000  0.87819000  0.71466000  1.0
  C  C165  1  0.58016000  0.28580000  0.59281000  1.0
  C  C166  1  0.74668000  0.40721000  0.87840000  1.0
  C  C167  1  0.91486000  0.12184000  0.28532000  1.0
  N  N168  1  0.52975000  0.84208000  0.48708000  1.0
  N  N169  1  0.69607000  0.51266000  0.32934000  1.0
  N  N170  1  0.86268000  0.67060000  0.84188000  1.0
  N  N171  1  0.02973000  0.15793000  0.51290000  1.0
  N  N172  1  0.19606000  0.48733000  0.67069000  1.0
  N  N173  1  0.36271000  0.32942000  0.15810000  1.0
  N  N174  1  0.65940000  0.57132000  0.47842000  1.0
  N  N175  1  0.82607000  0.52162000  0.04961000  1.0
  N  N176  1  0.99289000  0.95040000  0.57115000  1.0
  N  N177  1  0.15942000  0.42868000  0.52160000  1.0
  N  N178  1  0.32603000  0.47849000  0.95027000  1.0
  N  N179  1  0.49288000  0.04962000  0.42881000  1.0
  O  O180  1  0.96018000  0.52901000  0.57503000  1.0
  O  O181  1  0.12685000  0.42504000  0.10353000  1.0
  O  O182  1  0.29394000  0.89576000  0.52974000  1.0
  O  O183  1  0.46017000  0.47098000  0.42500000  1.0
  O  O184  1  0.62691000  0.57490000  0.89638000  1.0
  O  O185  1  0.79395000  0.10424000  0.47026000  1.0
  O  O186  1  0.86201000  0.47062000  0.49966000  1.0
  O  O187  1  0.02848000  0.50071000  0.96990000  1.0
  O  O188  1  0.19622000  0.02972000  0.47118000  1.0
  O  O189  1  0.36198000  0.52937000  0.50036000  1.0
  O  O190  1  0.52862000  0.49931000  0.03009000  1.0
  O  O191  1  0.69621000  0.97029000  0.52881000  1.0
  O  O192  1  0.16404000  0.66321000  0.46427000  1.0
  O  O193  1  0.33069000  0.53580000  0.12757000  1.0
  O  O194  1  0.49845000  0.87250000  0.66326000  1.0
  O  O195  1  0.66407000  0.33678000  0.53574000  1.0
  O  O196  1  0.83067000  0.46417000  0.87242000  1.0
  O  O197  1  0.99848000  0.12752000  0.33672000  1.0
  O  O198  1  0.97580000  0.69301000  0.39213000  1.0
  O  O199  1  0.14232000  0.60778000  0.08551000  1.0
  O  O200  1  0.31031000  0.91415000  0.69399000  1.0
  O  O201  1  0.47585000  0.30698000  0.60789000  1.0
  O  O202  1  0.64229000  0.39223000  0.91455000  1.0
  O  O203  1  0.81033000  0.08589000  0.30597000  1.0
