# generated using pymatgen
data_CuH14C8(NO3)2
_symmetry_space_group_name_H-M   'P 1'
_cell_length_a   5.16315000
_cell_length_b   7.27016000
_cell_length_c   7.50056000
_cell_angle_alpha   105.82600000
_cell_angle_beta   99.45910000
_cell_angle_gamma   100.72300000
_symmetry_Int_Tables_number   1
_chemical_formula_structural   CuH14C8(NO3)2
_chemical_formula_sum   'Cu1 H14 C8 N2 O6'
_cell_volume   259.16483451
_cell_formula_units_Z   1
loop_
 _symmetry_equiv_pos_site_id
 _symmetry_equiv_pos_as_xyz
  1  'x, y, z'
loop_
 _atom_site_type_symbol
 _atom_site_label
 _atom_site_symmetry_multiplicity
 _atom_site_fract_x
 _atom_site_fract_y
 _atom_site_fract_z
 _atom_site_occupancy
  Cu  Cu0  1  0.50002000  0.50000000  0.50000000  1.0
  H  H1  1  0.39422000  0.12899000  0.96053000  1.0
  H  H2  1  0.60575000  0.87100000  0.03946000  1.0
  H  H3  1  0.58151000  0.37887000  0.05456000  1.0
  H  H4  1  0.41846000  0.62112000  0.94541000  1.0
  H  H5  1  0.08097000  0.34487000  0.98128000  1.0
  H  H6  1  0.91899000  0.65513000  0.01872000  1.0
  H  H7  1  0.04128000  0.20519000  0.13811000  1.0
  H  H8  1  0.95870000  0.79480000  0.86190000  1.0
  H  H9  1  0.05298000  0.51599000  0.32035000  1.0
  H  H10  1  0.94704000  0.48401000  0.67966000  1.0
  H  H11  1  0.29986000  0.62915000  0.24823000  1.0
  H  H12  1  0.70015000  0.37085000  0.75178000  1.0
  H  H13  1  0.47690000  0.11270000  0.26931000  1.0
  H  H14  1  0.52311000  0.88730000  0.73068000  1.0
  C  C15  1  0.44266000  0.26279000  0.08462000  1.0
  C  C16  1  0.55732000  0.73722000  0.91536000  1.0
  C  C17  1  0.18182000  0.32366000  0.11300000  1.0
  C  C18  1  0.81817000  0.67633000  0.88700000  1.0
  C  C19  1  0.90735000  0.85061000  0.46360000  1.0
  C  C20  1  0.09270000  0.14944000  0.53642000  1.0
  C  C21  1  0.12977000  0.96644000  0.40828000  1.0
  C  C22  1  0.87025000  0.03357000  0.59175000  1.0
  N  N23  1  0.23094000  0.50167000  0.27898000  1.0
  N  N24  1  0.76907000  0.49832000  0.72103000  1.0
  O  O25  1  0.58623000  0.23340000  0.25080000  1.0
  O  O26  1  0.41378000  0.76660000  0.74919000  1.0
  O  O27  1  0.80095000  0.66784000  0.41327000  1.0
  O  O28  1  0.19904000  0.33213000  0.58674000  1.0
  O  O29  1  0.28179000  0.92298000  0.29665000  1.0
  O  O30  1  0.71825000  0.07702000  0.70334000  1.0
