# generated using pymatgen
data_CdH16C26S2(NO2)2
_symmetry_space_group_name_H-M   'P 1'
_cell_length_a   10.08860000
_cell_length_b   11.02180000
_cell_length_c   11.87180000
_cell_angle_alpha   96.13330000
_cell_angle_beta   96.03760000
_cell_angle_gamma   117.19700000
_symmetry_Int_Tables_number   1
_chemical_formula_structural   CdH16C26S2(NO2)2
_chemical_formula_sum   'Cd2 H32 C52 S4 N4 O8'
_cell_volume   1149.57100214
_cell_formula_units_Z   2
loop_
 _symmetry_equiv_pos_site_id
 _symmetry_equiv_pos_as_xyz
  1  'x, y, z'
loop_
 _atom_site_type_symbol
 _atom_site_label
 _atom_site_symmetry_multiplicity
 _atom_site_fract_x
 _atom_site_fract_y
 _atom_site_fract_z
 _atom_site_occupancy
  Cd  Cd0  1  0.43986000  0.80777000  0.46532000  1.0
  Cd  Cd1  1  0.56014000  0.19224000  0.53468000  1.0
  H  H2  1  0.35303000  0.55772000  0.24720000  1.0
  H  H3  1  0.64697000  0.44228000  0.75280000  1.0
  H  H4  1  0.44310000  0.38999000  0.17310000  1.0
  H  H5  1  0.55690000  0.61001000  0.82690000  1.0
  H  H6  1  0.66549000  0.39114000  0.29043000  1.0
  H  H7  1  0.33451000  0.60886000  0.70957000  1.0
  H  H8  1  0.86941000  0.49617000  0.46518000  1.0
  H  H9  1  0.13059000  0.50383000  0.53482000  1.0
  H  H10  1  0.99024000  0.66430000  0.64709000  1.0
  H  H11  1  0.00976000  0.33569000  0.35292000  1.0
  H  H12  1  0.99469000  0.85302000  0.79125000  1.0
  H  H13  1  0.00530000  0.14698000  0.20875000  1.0
  H  H14  1  0.88065000  0.00452000  0.84759000  1.0
  H  H15  1  0.11934000  0.99548000  0.15241000  1.0
  H  H16  1  0.65339000  0.98065000  0.71909000  1.0
  H  H17  1  0.34660000  0.01934000  0.28091000  1.0
  H  H18  1  0.91849000  0.57420000  0.26283000  1.0
  H  H19  1  0.08151000  0.42581000  0.73717000  1.0
  H  H20  1  0.71213000  0.50573000  0.09238000  1.0
  H  H21  1  0.28787000  0.49427000  0.90762000  1.0
  H  H22  1  0.78544000  0.57257000  0.90501000  1.0
  H  H23  1  0.21457000  0.42744000  0.09500000  1.0
  H  H24  1  0.05409000  0.69967000  0.88717000  1.0
  H  H25  1  0.94592000  0.30034000  0.11283000  1.0
  H  H26  1  0.27025000  0.99783000  0.02359000  1.0
  H  H27  1  0.72975000  0.00217000  0.97641000  1.0
  H  H28  1  0.20801000  0.18365000  0.98234000  1.0
  H  H29  1  0.79199000  0.81635000  0.01766000  1.0
  H  H30  1  0.19680000  0.23737000  0.78371000  1.0
  H  H31  1  0.80320000  0.76263000  0.21629000  1.0
  H  H32  1  0.25314000  0.10383000  0.62918000  1.0
  H  H33  1  0.74686000  0.89617000  0.37082000  1.0
  C  C34  1  0.44914000  0.55414000  0.29506000  1.0
  C  C35  1  0.55086000  0.44586000  0.70494000  1.0
  C  C36  1  0.50106000  0.46217000  0.25388000  1.0
  C  C37  1  0.49893000  0.53783000  0.74612000  1.0
  C  C38  1  0.62447000  0.46348000  0.31797000  1.0
  C  C39  1  0.37553000  0.53652000  0.68203000  1.0
  C  C40  1  0.69671000  0.55792000  0.42272000  1.0
  C  C41  1  0.30329000  0.44208000  0.57728000  1.0
  C  C42  1  0.82595000  0.56635000  0.49310000  1.0
  C  C43  1  0.17404000  0.43365000  0.50689000  1.0
  C  C44  1  0.89174000  0.65864000  0.59405000  1.0
  C  C45  1  0.10825000  0.34136000  0.40595000  1.0
  C  C46  1  0.83264000  0.74863000  0.63271000  1.0
  C  C47  1  0.16736000  0.25137000  0.36729000  1.0
  C  C48  1  0.89553000  0.84450000  0.73713000  1.0
  C  C49  1  0.10447000  0.15550000  0.26287000  1.0
  C  C50  1  0.83204000  0.92778000  0.76886000  1.0
  C  C51  1  0.16795000  0.07221000  0.23114000  1.0
  C  C52  1  0.70506000  0.91536000  0.69669000  1.0
  C  C53  1  0.29493000  0.08464000  0.30331000  1.0
  C  C54  1  0.70427000  0.74329000  0.56514000  1.0
  C  C55  1  0.29573000  0.25671000  0.43485000  1.0
  C  C56  1  0.63522000  0.64607000  0.45805000  1.0
  C  C57  1  0.36478000  0.35393000  0.54195000  1.0
  C  C58  1  0.21285000  0.71711000  0.27645000  1.0
  C  C59  1  0.78715000  0.28289000  0.72355000  1.0
  C  C60  1  0.09735000  0.67881000  0.17184000  1.0
  C  C61  1  0.90266000  0.32119000  0.82816000  1.0
  C  C62  1  0.94416000  0.60259000  0.17964000  1.0
  C  C63  1  0.05584000  0.39741000  0.82036000  1.0
  C  C64  1  0.83085000  0.56483000  0.08529000  1.0
  C  C65  1  0.16915000  0.43517000  0.91471000  1.0
  C  C66  1  0.87206000  0.60244000  0.98064000  1.0
  C  C67  1  0.12795000  0.39756000  0.01937000  1.0
  C  C68  1  0.02356000  0.67607000  0.97043000  1.0
  C  C69  1  0.97645000  0.32394000  0.02957000  1.0
  C  C70  1  0.13871000  0.71598000  0.06534000  1.0
  C  C71  1  0.86129000  0.28402000  0.93467000  1.0
  C  C72  1  0.29245000  0.94305000  0.85004000  1.0
  C  C73  1  0.70755000  0.05695000  0.14995000  1.0
  C  C74  1  0.26366000  0.02031000  0.93669000  1.0
  C  C75  1  0.73634000  0.97968000  0.06331000  1.0
  C  C76  1  0.23110000  0.12600000  0.91344000  1.0
  C  C77  1  0.76890000  0.87400000  0.08656000  1.0
  C  C78  1  0.22562000  0.15691000  0.80246000  1.0
  C  C79  1  0.77438000  0.84310000  0.19754000  1.0
  C  C80  1  0.25649000  0.08258000  0.71660000  1.0
  C  C81  1  0.74352000  0.91743000  0.28340000  1.0
  C  C82  1  0.29109000  0.97679000  0.73817000  1.0
  C  C83  1  0.70891000  0.02321000  0.26183000  1.0
  C  C84  1  0.32858000  0.90546000  0.64307000  1.0
  C  C85  1  0.67142000  0.09455000  0.35693000  1.0
  S  S86  1  0.33422000  0.80928000  0.05463000  1.0
  S  S87  1  0.66578000  0.19072000  0.94537000  1.0
  S  S88  1  0.32896000  0.80462000  0.87868000  1.0
  S  S89  1  0.67105000  0.19538000  0.12132000  1.0
  N  N90  1  0.51326000  0.64196000  0.39415000  1.0
  N  N91  1  0.48674000  0.35804000  0.60585000  1.0
  N  N92  1  0.64376000  0.82592000  0.59802000  1.0
  N  N93  1  0.35623000  0.17408000  0.40198000  1.0
  O  O94  1  0.34951000  0.80644000  0.27181000  1.0
  O  O95  1  0.65050000  0.19356000  0.72819000  1.0
  O  O96  1  0.17654000  0.66291000  0.36493000  1.0
  O  O97  1  0.82347000  0.33709000  0.63507000  1.0
  O  O98  1  0.36670000  0.96413000  0.55483000  1.0
  O  O99  1  0.63330000  0.03588000  0.44517000  1.0
  O  O100  1  0.32440000  0.79001000  0.65084000  1.0
  O  O101  1  0.67560000  0.20999000  0.34916000  1.0
