# generated using pymatgen
data_CdH21C23N3O11
_symmetry_space_group_name_H-M   'P 1'
_cell_length_a   10.46530000
_cell_length_b   11.42860000
_cell_length_c   12.28497699
_cell_angle_alpha   114.39684532
_cell_angle_beta   105.28588177
_cell_angle_gamma   102.37300000
_symmetry_Int_Tables_number   1
_chemical_formula_structural   CdH21C23N3O11
_chemical_formula_sum   'Cd2 H42 C46 N6 O22'
_cell_volume   1200.27318956
_cell_formula_units_Z   2
loop_
 _symmetry_equiv_pos_site_id
 _symmetry_equiv_pos_as_xyz
  1  'x, y, z'
loop_
 _atom_site_type_symbol
 _atom_site_label
 _atom_site_symmetry_multiplicity
 _atom_site_fract_x
 _atom_site_fract_y
 _atom_site_fract_z
 _atom_site_occupancy
  Cd  Cd0  1  0.59741000  0.28924000  0.23667000  1.0
  Cd  Cd1  1  0.40259000  0.71075000  0.76332000  1.0
  H  H2  1  0.65780000  0.94012000  0.28336000  1.0
  H  H3  1  0.34219000  0.05986000  0.71663000  1.0
  H  H4  1  0.77928000  0.00281000  0.44511000  1.0
  H  H5  1  0.22072000  0.99718000  0.55488000  1.0
  H  H6  1  0.88118000  0.39165000  0.11509000  1.0
  H  H7  1  0.11880000  0.60835000  0.88490000  1.0
  H  H8  1  0.24196000  0.99743000  0.21472000  1.0
  H  H9  1  0.75807000  0.00259000  0.78530000  1.0
  H  H10  1  0.05995000  0.30946000  0.24627000  1.0
  H  H11  1  0.94004000  0.69054000  0.75374000  1.0
  H  H12  1  0.68691000  0.01923000  0.60892000  1.0
  H  H13  1  0.31309000  0.98076000  0.39108000  1.0
  H  H14  1  0.60287000  0.83480000  0.52098000  1.0
  H  H15  1  0.39713000  0.16519000  0.47902000  1.0
  H  H16  1  0.50789000  0.05479000  0.32862000  1.0
  H  H17  1  0.49211000  0.94521000  0.67138000  1.0
  H  H18  1  0.63316000  0.15149000  0.49442000  1.0
  H  H19  1  0.36683000  0.84850000  0.50558000  1.0
  H  H20  1  0.82199000  0.93130000  0.21566000  1.0
  H  H21  1  0.17802000  0.06870000  0.78435000  1.0
  H  H22  1  0.88018000  0.76308000  0.00236000  1.0
  H  H23  1  0.11985000  0.23694000  0.99765000  1.0
  H  H24  1  0.84969000  0.83664000  0.51042000  1.0
  H  H25  1  0.15031000  0.16336000  0.48957000  1.0
  H  H26  1  0.74256000  0.51783000  0.83259000  1.0
  H  H27  1  0.25743000  0.48220000  0.16741000  1.0
  H  H28  1  0.52729000  0.68455000  0.13079000  1.0
  H  H29  1  0.47270000  0.31544000  0.86920000  1.0
  H  H30  1  0.50591000  0.44344000  0.08582000  1.0
  H  H31  1  0.49409000  0.55655000  0.91418000  1.0
  H  H32  1  0.81820000  0.59157000  0.44838000  1.0
  H  H33  1  0.18182000  0.40844000  0.55162000  1.0
  H  H34  1  0.43559000  0.09996000  0.94926000  1.0
  H  H35  1  0.56441000  0.90003000  0.05073000  1.0
  H  H36  1  0.58363000  0.19479000  0.96983000  1.0
  H  H37  1  0.41637000  0.80521000  0.03016000  1.0
  H  H38  1  0.64750000  0.46735000  0.53558000  1.0
  H  H39  1  0.35247000  0.53261000  0.46440000  1.0
  H  H40  1  0.76273000  0.40256000  0.53075000  1.0
  H  H41  1  0.23726000  0.59743000  0.46925000  1.0
  H  H42  1  0.54310000  0.15605000  0.66270000  1.0
  H  H43  1  0.45690000  0.84395000  0.33730000  1.0
  C  C44  1  0.67993000  0.92061000  0.36551000  1.0
  C  C45  1  0.32007000  0.07939000  0.63449000  1.0
  C  C46  1  0.80194000  0.43833000  0.96269000  1.0
  C  C47  1  0.19804000  0.56168000  0.03731000  1.0
  C  C48  1  0.16683000  0.16488000  0.23432000  1.0
  C  C49  1  0.83317000  0.83514000  0.76570000  1.0
  C  C50  1  0.95965000  0.71702000  0.15427000  1.0
  C  C51  1  0.04036000  0.28298000  0.84573000  1.0
  C  C52  1  0.88105000  0.47194000  0.08901000  1.0
  C  C53  1  0.11894000  0.52806000  0.91098000  1.0
  C  C54  1  0.15618000  0.03562000  0.22295000  1.0
  C  C55  1  0.84385000  0.96440000  0.77708000  1.0
  C  C56  1  0.92533000  0.12199000  0.22406000  1.0
  C  C57  1  0.07468000  0.87801000  0.77595000  1.0
  C  C58  1  0.96069000  0.61014000  0.18452000  1.0
  C  C59  1  0.03930000  0.38985000  0.81548000  1.0
  C  C60  1  0.05204000  0.20861000  0.23616000  1.0
  C  C61  1  0.94797000  0.79141000  0.76387000  1.0
  C  C62  1  0.58844000  0.93142000  0.53505000  1.0
  C  C63  1  0.41156000  0.06857000  0.46495000  1.0
  C  C64  1  0.79934000  0.16478000  0.22231000  1.0
  C  C65  1  0.20066000  0.83521000  0.77769000  1.0
  C  C66  1  0.53532000  0.06124000  0.42403000  1.0
  C  C67  1  0.46468000  0.93875000  0.57597000  1.0
  C  C68  1  0.91807000  0.99674000  0.22065000  1.0
  C  C69  1  0.08194000  0.00325000  0.77935000  1.0
  C  C70  1  0.03584000  0.95836000  0.22484000  1.0
  C  C71  1  0.96418000  0.04165000  0.77517000  1.0
  C  C72  1  0.30810000  0.25509000  0.25221000  1.0
  C  C73  1  0.69191000  0.74493000  0.74781000  1.0
  C  C74  1  0.87876000  0.68157000  0.02682000  1.0
  C  C75  1  0.12125000  0.31844000  0.97318000  1.0
  C  C76  1  0.71706000  0.29086000  0.85814000  1.0
  C  C77  1  0.28293000  0.70915000  0.14185000  1.0
  C  C78  1  0.77209000  0.75301000  0.41495000  1.0
  C  C79  1  0.22791000  0.24699000  0.58505000  1.0
  C  C80  1  0.68495000  0.77921000  0.32692000  1.0
  C  C81  1  0.31504000  0.22078000  0.67307000  1.0
  C  C82  1  0.80232000  0.54429000  0.93218000  1.0
  C  C83  1  0.19768000  0.45572000  0.06782000  1.0
  C  C84  1  0.59215000  0.66741000  0.20393000  1.0
  C  C85  1  0.40785000  0.33259000  0.79607000  1.0
  C  C86  1  0.58115000  0.53448000  0.17792000  1.0
  C  C87  1  0.41885000  0.46551000  0.82207000  1.0
  C  C88  1  0.75559000  0.61684000  0.38108000  1.0
  C  C89  1  0.24441000  0.38316000  0.61891000  1.0
  N  N90  1  0.56097000  0.93352000  0.41059000  1.0
  N  N91  1  0.43903000  0.06648000  0.58941000  1.0
  N  N92  1  0.65904000  0.50969000  0.26614000  1.0
  N  N93  1  0.34097000  0.49030000  0.73385000  1.0
  N  N94  1  0.04770000  0.63898000  0.31279000  1.0
  N  N95  1  0.95230000  0.36102000  0.68721000  1.0
  O  O96  1  0.04340000  0.84898000  0.24726000  1.0
  O  O97  1  0.95663000  0.15104000  0.75275000  1.0
  O  O98  1  0.50669000  0.19545000  0.00388000  1.0
  O  O99  1  0.49331000  0.80454000  0.99611000  1.0
  O  O100  1  0.67583000  0.26970000  0.74103000  1.0
  O  O101  1  0.32415000  0.73031000  0.25896000  1.0
  O  O102  1  0.81919000  0.29086000  0.25471000  1.0
  O  O103  1  0.18081000  0.70914000  0.74529000  1.0
  O  O104  1  0.67929000  0.07688000  0.19177000  1.0
  O  O105  1  0.32071000  0.92311000  0.80822000  1.0
  O  O106  1  0.34450000  0.38415000  0.30774000  1.0
  O  O107  1  0.65553000  0.61586000  0.69233000  1.0
  O  O108  1  0.68809000  0.19764000  0.88767000  1.0
  O  O109  1  0.31189000  0.80237000  0.11232000  1.0
  O  O110  1  0.38246000  0.18523000  0.20851000  1.0
  O  O111  1  0.61753000  0.81479000  0.79146000  1.0
  O  O112  1  0.66902000  0.39237000  0.47562000  1.0
  O  O113  1  0.33097000  0.60760000  0.52437000  1.0
  O  O114  1  0.08567000  0.75507000  0.40904000  1.0
  O  O115  1  0.91433000  0.24493000  0.59095000  1.0
  O  O116  1  0.07969000  0.54264000  0.32049000  1.0
  O  O117  1  0.92030000  0.45735000  0.67949000  1.0
