# generated using pymatgen
data_CdH10C9(NO)6
_symmetry_space_group_name_H-M   'P 1'
_cell_length_a   7.44867000
_cell_length_b   8.42291000
_cell_length_c   9.71439000
_cell_angle_alpha   90.00010000
_cell_angle_beta   90.00010000
_cell_angle_gamma   94.33420000
_symmetry_Int_Tables_number   1
_chemical_formula_structural   CdH10C9(NO)6
_chemical_formula_sum   'Cd2 H20 C18 N12 O12'
_cell_volume   607.73277006
_cell_formula_units_Z   2
loop_
 _symmetry_equiv_pos_site_id
 _symmetry_equiv_pos_as_xyz
  1  'x, y, z'
loop_
 _atom_site_type_symbol
 _atom_site_label
 _atom_site_symmetry_multiplicity
 _atom_site_fract_x
 _atom_site_fract_y
 _atom_site_fract_z
 _atom_site_occupancy
  Cd  Cd0  1  0.27288000  0.15375000  0.02233000  1.0
  Cd  Cd1  1  0.77288000  0.15375000  0.97767000  1.0
  H  H2  1  0.93803000  0.69886000  0.12371000  1.0
  H  H3  1  0.43804000  0.69886000  0.87629000  1.0
  H  H4  1  0.11139000  0.58231000  0.06542000  1.0
  H  H5  1  0.61140000  0.58231000  0.93458000  1.0
  H  H6  1  0.75621000  0.22068000  0.36672000  1.0
  H  H7  1  0.25621000  0.22068000  0.63328000  1.0
  H  H8  1  0.75295000  0.03603000  0.28011000  1.0
  H  H9  1  0.25295000  0.03603000  0.71989000  1.0
  H  H10  1  0.27255000  0.49733000  0.82350000  1.0
  H  H11  1  0.77255000  0.49733000  0.17650000  1.0
  H  H12  1  0.16630000  0.44129000  0.66639000  1.0
  H  H13  1  0.66630000  0.44129000  0.33360000  1.0
  H  H14  1  0.90102000  0.88270000  0.70239000  1.0
  H  H15  1  0.40102000  0.88270000  0.29761000  1.0
  H  H16  1  0.18072000  0.52294000  0.28418000  1.0
  H  H17  1  0.68072000  0.52294000  0.71582000  1.0
  H  H18  1  0.07347000  0.72444000  0.83074000  1.0
  H  H19  1  0.57347000  0.72444000  0.16926000  1.0
  H  H20  1  0.80736000  0.09617000  0.56583000  1.0
  H  H21  1  0.30736000  0.09617000  0.43417000  1.0
  C  C22  1  0.06593000  0.69877000  0.38800000  1.0
  C  C23  1  0.56594000  0.69877000  0.61200000  1.0
  C  C24  1  0.05236000  0.70436000  0.62137000  1.0
  C  C25  1  0.55236000  0.70436000  0.37863000  1.0
  C  C26  1  0.93919000  0.90743000  0.48742000  1.0
  C  C27  1  0.43919000  0.90744000  0.51258000  1.0
  C  C28  1  0.08135000  0.67834000  0.13549000  1.0
  C  C29  1  0.58135000  0.67834000  0.86451000  1.0
  C  C30  1  0.17943000  0.83326000  0.08497000  1.0
  C  C31  1  0.67943000  0.83327000  0.91503000  1.0
  C  C32  1  0.83331000  0.11712000  0.34828000  1.0
  C  C33  1  0.33333333  0.11712000  0.65172000  1.0
  C  C34  1  0.00980000  0.17155000  0.27442000  1.0
  C  C35  1  0.50980000  0.17155000  0.72558000  1.0
  C  C36  1  0.14318000  0.49202000  0.76837000  1.0
  C  C37  1  0.64318000  0.49202000  0.23163000  1.0
  C  C38  1  0.01213000  0.37798000  0.84725000  1.0
  C  C39  1  0.51213000  0.37798000  0.15275000  1.0
  N  N40  1  0.10289000  0.62892000  0.50938000  1.0
  N  N41  1  0.60289000  0.62892000  0.49062000  1.0
  N  N42  1  0.96926000  0.84424000  0.61468000  1.0
  N  N43  1  0.46926000  0.84424000  0.38532000  1.0
  N  N44  1  0.98652000  0.83641000  0.37193000  1.0
  N  N45  1  0.48652000  0.83641000  0.62807000  1.0
  N  N46  1  0.11763000  0.62526000  0.27310000  1.0
  N  N47  1  0.61763000  0.62526000  0.72690000  1.0
  N  N48  1  0.08079000  0.64801000  0.74784000  1.0
  N  N49  1  0.58079000  0.64801000  0.25216000  1.0
  N  N50  1  0.86124000  0.04468000  0.48056000  1.0
  N  N51  1  0.36124000  0.04467000  0.51945000  1.0
  O  O52  1  0.14545000  0.87329000  0.96218000  1.0
  O  O53  1  0.64545000  0.87329000  0.03782000  1.0
  O  O54  1  0.28041000  0.92178000  0.16369000  1.0
  O  O55  1  0.78041000  0.92178000  0.83631000  1.0
  O  O56  1  0.05836000  0.23490000  0.85966000  1.0
  O  O57  1  0.55836000  0.23490000  0.14034000  1.0
  O  O58  1  0.86781000  0.42374000  0.89619000  1.0
  O  O59  1  0.36781000  0.42374000  0.10381000  1.0
  O  O60  1  0.14994000  0.21035000  0.34017000  1.0
  O  O61  1  0.64994000  0.21035000  0.65983000  1.0
  O  O62  1  0.00006000  0.17622000  0.14097000  1.0
  O  O63  1  0.50006000  0.17622000  0.85903000  1.0
