# generated using pymatgen
data_SrH8C2(N2O)4
_symmetry_space_group_name_H-M   'P 1'
_cell_length_a   5.41259000
_cell_length_b   14.04080000
_cell_length_c   21.10610000
_cell_angle_alpha   90.00200000
_cell_angle_beta   90.00050000
_cell_angle_gamma   89.99920000
_symmetry_Int_Tables_number   1
_chemical_formula_structural   SrH8C2(N2O)4
_chemical_formula_sum   'Sr4 H32 C8 N32 O16'
_cell_volume   1604.00225756
_cell_formula_units_Z   4
loop_
 _symmetry_equiv_pos_site_id
 _symmetry_equiv_pos_as_xyz
  1  'x, y, z'
loop_
 _atom_site_type_symbol
 _atom_site_label
 _atom_site_symmetry_multiplicity
 _atom_site_fract_x
 _atom_site_fract_y
 _atom_site_fract_z
 _atom_site_occupancy
  Sr  Sr0  1  0.49998000  0.16485000  0.25000000  1.0
  Sr  Sr1  1  0.50002000  0.33515000  0.75001000  1.0
  Sr  Sr2  1  0.50001000  0.83515000  0.75001000  1.0
  Sr  Sr3  1  0.49999000  0.66485000  0.25000000  1.0
  H  H4  1  0.12595000  0.04184000  0.15728000  1.0
  H  H5  1  0.87404000  0.04185000  0.34272000  1.0
  H  H6  1  0.87405000  0.45816000  0.65728000  1.0
  H  H7  1  0.12598000  0.45816000  0.84271000  1.0
  H  H8  1  0.87407000  0.95815000  0.84272000  1.0
  H  H9  1  0.12596000  0.95816000  0.65728000  1.0
  H  H10  1  0.12591000  0.54183000  0.34271000  1.0
  H  H11  1  0.87402000  0.54185000  0.15727000  1.0
  H  H12  1  0.86619000  0.27573000  0.15946000  1.0
  H  H13  1  0.13373000  0.27574000  0.34054000  1.0
  H  H14  1  0.13379000  0.22427000  0.65947000  1.0
  H  H15  1  0.86625000  0.22427000  0.84055000  1.0
  H  H16  1  0.13380000  0.72428000  0.84053000  1.0
  H  H17  1  0.86624000  0.72426000  0.65946000  1.0
  H  H18  1  0.86623000  0.77573000  0.34054000  1.0
  H  H19  1  0.13374000  0.77574000  0.15946000  1.0
  H  H20  1  0.31761000  0.10371000  0.11579000  1.0
  H  H21  1  0.68239000  0.10370000  0.38422000  1.0
  H  H22  1  0.68237000  0.39629000  0.61578000  1.0
  H  H23  1  0.31765000  0.39629000  0.88422000  1.0
  H  H24  1  0.68241000  0.89631000  0.88421000  1.0
  H  H25  1  0.31764000  0.89628000  0.61578000  1.0
  H  H26  1  0.31762000  0.60370000  0.38422000  1.0
  H  H27  1  0.68236000  0.60371000  0.11578000  1.0
  H  H28  1  0.93462000  0.17001000  0.15307000  1.0
  H  H29  1  0.06534000  0.17001000  0.34694000  1.0
  H  H30  1  0.06537000  0.33000000  0.65308000  1.0
  H  H31  1  0.93468000  0.32998000  0.84694000  1.0
  H  H32  1  0.06537000  0.83000000  0.84693000  1.0
  H  H33  1  0.93465000  0.82999000  0.65306000  1.0
  H  H34  1  0.93464000  0.67001000  0.34692000  1.0
  H  H35  1  0.06533000  0.67001000  0.15307000  1.0
  C  C36  1  0.39455000  0.41492000  0.22912000  1.0
  C  C37  1  0.60543000  0.41489000  0.27087000  1.0
  C  C38  1  0.60542000  0.08518000  0.72912000  1.0
  C  C39  1  0.39464000  0.08502000  0.77089000  1.0
  C  C40  1  0.60545000  0.58508000  0.77090000  1.0
  C  C41  1  0.39463000  0.58509000  0.72914000  1.0
  C  C42  1  0.39458000  0.91495000  0.27089000  1.0
  C  C43  1  0.60539000  0.91487000  0.22912000  1.0
  N  N44  1  0.28458000  0.33565000  0.20705000  1.0
  N  N45  1  0.71542000  0.33562000  0.29295000  1.0
  N  N46  1  0.71556000  0.16444000  0.70704000  1.0
  N  N47  1  0.28470000  0.16431000  0.79293000  1.0
  N  N48  1  0.71550000  0.66437000  0.79292000  1.0
  N  N49  1  0.28456000  0.66435000  0.70706000  1.0
  N  N50  1  0.28462000  0.83567000  0.29294000  1.0
  N  N51  1  0.71548000  0.83560000  0.20703000  1.0
  N  N52  1  0.09414000  0.36765000  0.17243000  1.0
  N  N53  1  0.90584000  0.36766000  0.32757000  1.0
  N  N54  1  0.90592000  0.13233000  0.67242000  1.0
  N  N55  1  0.09426000  0.13236000  0.82756000  1.0
  N  N56  1  0.90582000  0.63235000  0.82758000  1.0
  N  N57  1  0.09421000  0.63233000  0.67242000  1.0
  N  N58  1  0.09416000  0.86765000  0.32756000  1.0
  N  N59  1  0.90588000  0.86767000  0.17242000  1.0
  N  N60  1  0.09207000  0.46170000  0.17346000  1.0
  N  N61  1  0.90784000  0.46171000  0.32653000  1.0
  N  N62  1  0.90779000  0.03829000  0.67348000  1.0
  N  N63  1  0.09208000  0.03831000  0.82655000  1.0
  N  N64  1  0.90787000  0.53830000  0.82655000  1.0
  N  N65  1  0.09218000  0.53829000  0.67346000  1.0
  N  N66  1  0.09205000  0.96169000  0.32655000  1.0
  N  N67  1  0.90783000  0.96171000  0.17347000  1.0
  N  N68  1  0.28013000  0.49423000  0.20879000  1.0
  N  N69  1  0.71979000  0.49420000  0.29119000  1.0
  N  N70  1  0.71973000  0.00585000  0.70883000  1.0
  N  N71  1  0.28009000  0.00573000  0.79121000  1.0
  N  N72  1  0.71992000  0.50576000  0.79118000  1.0
  N  N73  1  0.28017000  0.50579000  0.70882000  1.0
  N  N74  1  0.28007000  0.99425000  0.29121000  1.0
  N  N75  1  0.71976000  0.99418000  0.20882000  1.0
  O  O76  1  0.78917000  0.21123000  0.15991000  1.0
  O  O77  1  0.21076000  0.21125000  0.34010000  1.0
  O  O78  1  0.21081000  0.28876000  0.65991000  1.0
  O  O79  1  0.78922000  0.28876000  0.84010000  1.0
  O  O80  1  0.21081000  0.78877000  0.84009000  1.0
  O  O81  1  0.78920000  0.78876000  0.65989000  1.0
  O  O82  1  0.78919000  0.71124000  0.34008000  1.0
  O  O83  1  0.21077000  0.71125000  0.15990000  1.0
  O  O84  1  0.22577000  0.10341000  0.15536000  1.0
  O  O85  1  0.77417000  0.10342000  0.34463000  1.0
  O  O86  1  0.77426000  0.39658000  0.65537000  1.0
  O  O87  1  0.22582000  0.39658000  0.84465000  1.0
  O  O88  1  0.77420000  0.89659000  0.84463000  1.0
  O  O89  1  0.22579000  0.89658000  0.65535000  1.0
  O  O90  1  0.22580000  0.60340000  0.34464000  1.0
  O  O91  1  0.77418000  0.60342000  0.15536000  1.0
