# generated using pymatgen
data_Zn4H7C17ClO13
_symmetry_space_group_name_H-M   'P 1'
_cell_length_a   10.93340000
_cell_length_b   11.01070000
_cell_length_c   16.13650000
_cell_angle_alpha   90.24530000
_cell_angle_beta   98.46330000
_cell_angle_gamma   98.93400000
_symmetry_Int_Tables_number   1
_chemical_formula_structural   Zn4H7C17ClO13
_chemical_formula_sum   'Zn4 H7 C17 Cl1 O13'
_cell_volume   1897.38542164
_cell_formula_units_Z   1
loop_
 _symmetry_equiv_pos_site_id
 _symmetry_equiv_pos_as_xyz
  1  'x, y, z'
loop_
 _atom_site_type_symbol
 _atom_site_label
 _atom_site_symmetry_multiplicity
 _atom_site_fract_x
 _atom_site_fract_y
 _atom_site_fract_z
 _atom_site_occupancy
  Zn  Zn0  1  0.40746000  0.59120000  0.56870000  1.0
  Zn  Zn1  1  0.60647000  0.61986000  0.44019000  1.0
  Zn  Zn2  1  0.37924000  0.38706000  0.41850000  1.0
  Zn  Zn3  1  0.60090000  0.40239000  0.57243000  1.0
  H  H4  1  0.59614000  0.40742000  0.01014000  1.0
  H  H5  1  0.40508000  0.58903000  0.99022000  1.0
  H  H6  1  0.03390000  0.59507000  0.56699000  1.0
  H  H7  1  0.39545000  0.98579000  0.43217000  1.0
  H  H8  1  0.69644000  0.94451000  0.62599000  1.0
  H  H9  1  0.72105000  0.08531000  0.57176000  1.0
  H  H10  1  0.61665000  0.06927000  0.64551000  1.0
  C  C11  1  0.83388000  0.52687000  0.51862000  1.0
  C  C12  1  0.52597000  0.83238000  0.51676000  1.0
  C  C13  1  0.47559000  0.16817000  0.48391000  1.0
  C  C14  1  0.48122000  0.51508000  0.27557000  1.0
  C  C15  1  0.51727000  0.48528000  0.72515000  1.0
  C  C16  1  0.47550000  0.51992000  0.18578000  1.0
  C  C17  1  0.46720000  0.52978000  0.02272000  1.0
  C  C18  1  0.53411000  0.46660000  0.97760000  1.0
  C  C19  1  0.65091000  0.01906000  0.59698000  1.0
  C  C20  1  0.52723000  0.47379000  0.89033000  1.0
  C  C21  1  0.47265000  0.52380000  0.10994000  1.0
  C  C22  1  0.52309000  0.47854000  0.81441000  1.0
  C  C23  1  0.02327000  0.46146000  0.47272000  1.0
  C  C24  1  0.97155000  0.53114000  0.52187000  1.0
  C  C25  1  0.46873000  0.03369000  0.47952000  1.0
  C  C26  1  0.54515000  0.96979000  0.52899000  1.0
  C  C27  1  0.16308000  0.47128000  0.47966000  1.0
  Cl  Cl28  1  0.93355000  0.35779000  0.39932000  1.0
  O  O29  1  0.49776000  0.50118000  0.49851000  1.0
  O  O30  1  0.56451000  0.59453000  0.31800000  1.0
  O  O31  1  0.58314000  0.41862000  0.69115000  1.0
  O  O32  1  0.40306000  0.43249000  0.30265000  1.0
  O  O33  1  0.44680000  0.55741000  0.68839000  1.0
  O  O34  1  0.44932000  0.77091000  0.55885000  1.0
  O  O35  1  0.55860000  0.22902000  0.53928000  1.0
  O  O36  1  0.78441000  0.60310000  0.47079000  1.0
  O  O37  1  0.20537000  0.40443000  0.42990000  1.0
  O  O38  1  0.78078000  0.44931000  0.56524000  1.0
  O  O39  1  0.22595000  0.54728000  0.53595000  1.0
  O  O40  1  0.59178000  0.79094000  0.46768000  1.0
  O  O41  1  0.39649000  0.21395000  0.43124000  1.0
