# generated using pymatgen
data_AgH9C10BrN
_symmetry_space_group_name_H-M   'P 1'
_cell_length_a   4.13951000
_cell_length_b   14.88360000
_cell_length_c   15.48170000
_cell_angle_alpha   90.00030000
_cell_angle_beta   90.00080000
_cell_angle_gamma   86.53530000
_symmetry_Int_Tables_number   1
_chemical_formula_structural   AgH9C10BrN
_chemical_formula_sum   'Ag4 H36 C40 Br4 N4'
_cell_volume   952.09668428
_cell_formula_units_Z   4
loop_
 _symmetry_equiv_pos_site_id
 _symmetry_equiv_pos_as_xyz
  1  'x, y, z'
loop_
 _atom_site_type_symbol
 _atom_site_label
 _atom_site_symmetry_multiplicity
 _atom_site_fract_x
 _atom_site_fract_y
 _atom_site_fract_z
 _atom_site_occupancy
  Ag  Ag0  1  0.67085000  0.92481000  0.95370000  1.0
  Ag  Ag1  1  0.82915000  0.57519000  0.45369000  1.0
  Ag  Ag2  1  0.32914000  0.07520000  0.04630000  1.0
  Ag  Ag3  1  0.17085000  0.42481000  0.54631000  1.0
  H  H4  1  0.17231000  0.77556000  0.91153000  1.0
  H  H5  1  0.32771000  0.72444000  0.41152000  1.0
  H  H6  1  0.82769000  0.22445000  0.08847000  1.0
  H  H7  1  0.67229000  0.27556000  0.58848000  1.0
  H  H8  1  0.80693000  0.72419000  0.93185000  1.0
  H  H9  1  0.69309000  0.77581000  0.43185000  1.0
  H  H10  1  0.19307000  0.27582000  0.06815000  1.0
  H  H11  1  0.30693000  0.22419000  0.56815000  1.0
  H  H12  1  0.10272000  0.66911000  0.86291000  1.0
  H  H13  1  0.39730000  0.83089000  0.36291000  1.0
  H  H14  1  0.89728000  0.33090000  0.13709000  1.0
  H  H15  1  0.60271000  0.16911000  0.63709000  1.0
  H  H16  1  0.02419000  0.68511000  0.71124000  1.0
  H  H17  1  0.47582000  0.81489000  0.21123000  1.0
  H  H18  1  0.97581000  0.31489000  0.28876000  1.0
  H  H19  1  0.52416000  0.18510000  0.78876000  1.0
  H  H20  1  0.77458000  0.76617000  0.58702000  1.0
  H  H21  1  0.72544000  0.73384000  0.08701000  1.0
  H  H22  1  0.22543000  0.23384000  0.41298000  1.0
  H  H23  1  0.27457000  0.26616000  0.91299000  1.0
  H  H24  1  0.42658000  0.90013000  0.53212000  1.0
  H  H25  1  0.07341000  0.59987000  0.03212000  1.0
  H  H26  1  0.57343000  0.09987000  0.46788000  1.0
  H  H27  1  0.92660000  0.40013000  0.96789000  1.0
  H  H28  1  0.09301000  0.04084000  0.56381000  1.0
  H  H29  1  0.40697000  0.45915000  0.06381000  1.0
  H  H30  1  0.90699000  0.95915000  0.43618000  1.0
  H  H31  1  0.59305000  0.54085000  0.93619000  1.0
  H  H32  1  0.02337000  0.09338000  0.71670000  1.0
  H  H33  1  0.47660000  0.40662000  0.21670000  1.0
  H  H34  1  0.97661000  0.90663000  0.28328000  1.0
  H  H35  1  0.52341000  0.59338000  0.78330000  1.0
  H  H36  1  0.29142000  0.00873000  0.83595000  1.0
  H  H37  1  0.20857000  0.49127000  0.33595000  1.0
  H  H38  1  0.70857000  0.99128000  0.16404000  1.0
  H  H39  1  0.79143000  0.50873000  0.66406000  1.0
  C  C40  1  0.83614000  0.78272000  0.80584000  1.0
  C  C41  1  0.66387000  0.71728000  0.30583000  1.0
  C  C42  1  0.16385000  0.21729000  0.19416000  1.0
  C  C43  1  0.33614000  0.28272000  0.69417000  1.0
  C  C44  1  0.98946000  0.73463000  0.88177000  1.0
  C  C45  1  0.51057000  0.76537000  0.38177000  1.0
  C  C46  1  0.01054000  0.26538000  0.11822000  1.0
  C  C47  1  0.48943000  0.23463000  0.61823000  1.0
  C  C48  1  0.87859000  0.74760000  0.72141000  1.0
  C  C49  1  0.62141000  0.75240000  0.22140000  1.0
  C  C50  1  0.12140000  0.25240000  0.27859000  1.0
  C  C51  1  0.37859000  0.24759000  0.77860000  1.0
  C  C52  1  0.73994000  0.79303000  0.65212000  1.0
  C  C53  1  0.76007000  0.70697000  0.15212000  1.0
  C  C54  1  0.26006000  0.20698000  0.34788000  1.0
  C  C55  1  0.23993000  0.29302000  0.84788000  1.0
  C  C56  1  0.55092000  0.87398000  0.66603000  1.0
  C  C57  1  0.94908000  0.62602000  0.16603000  1.0
  C  C58  1  0.44907000  0.12602000  0.33397000  1.0
  C  C59  1  0.05093000  0.37398000  0.83397000  1.0
  C  C60  1  0.39715000  0.92448000  0.59832000  1.0
  C  C61  1  0.10284000  0.57551000  0.09832000  1.0
  C  C62  1  0.60285000  0.07552000  0.40167000  1.0
  C  C63  1  0.89717000  0.42448000  0.90169000  1.0
  C  C64  1  0.21252000  0.00254000  0.61606000  1.0
  C  C65  1  0.28746000  0.49745000  0.11606000  1.0
  C  C66  1  0.78747000  0.99746000  0.38394000  1.0
  C  C67  1  0.71256000  0.50254000  0.88395000  1.0
  C  C68  1  0.17366000  0.03255000  0.70234000  1.0
  C  C69  1  0.32631000  0.46744000  0.20234000  1.0
  C  C70  1  0.82634000  0.96745000  0.29765000  1.0
  C  C71  1  0.67368000  0.53256000  0.79767000  1.0
  C  C72  1  0.32286000  0.98545000  0.76946000  1.0
  C  C73  1  0.17713000  0.51454000  0.26946000  1.0
  C  C74  1  0.67713000  0.01455000  0.23054000  1.0
  C  C75  1  0.82288000  0.48546000  0.73055000  1.0
  C  C76  1  0.51535000  0.90547000  0.75314000  1.0
  C  C77  1  0.98465000  0.59453000  0.25314000  1.0
  C  C78  1  0.48464000  0.09454000  0.24686000  1.0
  C  C79  1  0.01535000  0.40547000  0.74687000  1.0
  Br  Br80  1  0.18543000  0.89222000  0.06335000  1.0
  Br  Br81  1  0.31459000  0.60778000  0.56335000  1.0
  Br  Br82  1  0.81458000  0.10778000  0.93665000  1.0
  Br  Br83  1  0.68542000  0.39222000  0.43665000  1.0
  N  N84  1  0.66193000  0.85965000  0.82086000  1.0
  N  N85  1  0.83807000  0.64035000  0.32086000  1.0
  N  N86  1  0.33806000  0.14036000  0.17913000  1.0
  N  N87  1  0.16193000  0.35964000  0.67914000  1.0
