# generated using pymatgen
data_MnH10C16(NO)4
_symmetry_space_group_name_H-M   'P 1'
_cell_length_a   10.16320000
_cell_length_b   10.92530000
_cell_length_c   11.37770000
_cell_angle_alpha   107.11000000
_cell_angle_beta   93.96050000
_cell_angle_gamma   95.02390000
_symmetry_Int_Tables_number   1
_chemical_formula_structural   MnH10C16(NO)4
_chemical_formula_sum   'Mn3 H30 C48 N12 O12'
_cell_volume   1196.80112757
_cell_formula_units_Z   3
loop_
 _symmetry_equiv_pos_site_id
 _symmetry_equiv_pos_as_xyz
  1  'x, y, z'
loop_
 _atom_site_type_symbol
 _atom_site_label
 _atom_site_symmetry_multiplicity
 _atom_site_fract_x
 _atom_site_fract_y
 _atom_site_fract_z
 _atom_site_occupancy
  Mn  Mn0  1  0.50000000  0.50000000  0.50000000  1.0
  Mn  Mn1  1  0.37376000  0.30714000  0.18896000  1.0
  Mn  Mn2  1  0.62624000  0.69285000  0.81103000  1.0
  H  H3  1  0.48317000  0.95557000  0.63613000  1.0
  H  H4  1  0.51684000  0.04443000  0.36386000  1.0
  H  H5  1  0.54329000  0.16076000  0.58449000  1.0
  H  H6  1  0.45672000  0.83923000  0.41550000  1.0
  H  H7  1  0.46169000  0.39204000  0.94450000  1.0
  H  H8  1  0.53831000  0.60796000  0.05550000  1.0
  H  H9  1  0.99655000  0.89735000  0.73996000  1.0
  H  H10  1  0.00345000  0.10264000  0.26005000  1.0
  H  H11  1  0.12254000  0.84671000  0.55111000  1.0
  H  H12  1  0.87747000  0.15329000  0.44890000  1.0
  H  H13  1  0.10128000  0.35685000  0.74745000  1.0
  H  H14  1  0.89870000  0.64315000  0.25255000  1.0
  H  H15  1  0.23098000  0.40453000  0.58467000  1.0
  H  H16  1  0.76901000  0.59547000  0.41533000  1.0
  H  H17  1  0.25206000  0.00088000  0.40634000  1.0
  H  H18  1  0.74795000  0.99912000  0.59367000  1.0
  H  H19  1  0.31465000  0.99180000  0.05142000  1.0
  H  H20  1  0.68537000  0.00820000  0.94858000  1.0
  H  H21  1  0.12893000  0.41619000  0.38572000  1.0
  H  H22  1  0.87108000  0.58382000  0.61428000  1.0
  H  H23  1  0.89856000  0.41574000  0.45354000  1.0
  H  H24  1  0.10144000  0.58425000  0.54645000  1.0
  H  H25  1  0.72370000  0.27118000  0.07527000  1.0
  H  H26  1  0.27630000  0.72884000  0.92473000  1.0
  H  H27  1  0.38763000  0.87279000  0.83554000  1.0
  H  H28  1  0.61238000  0.12721000  0.16447000  1.0
  H  H29  1  0.18596000  0.26221000  0.93535000  1.0
  H  H30  1  0.81404000  0.73779000  0.06465000  1.0
  H  H31  1  0.94497000  0.21433000  0.90441000  1.0
  H  H32  1  0.05502000  0.78568000  0.09559000  1.0
  C  C33  1  0.42915000  0.18402000  0.90599000  1.0
  C  C34  1  0.57085000  0.81598000  0.09401000  1.0
  C  C35  1  0.43250000  0.06204000  0.81779000  1.0
  C  C36  1  0.56750000  0.93796000  0.18220000  1.0
  C  C37  1  0.47739000  0.04972000  0.70187000  1.0
  C  C38  1  0.52261000  0.95027000  0.29812000  1.0
  C  C39  1  0.51199000  0.16347000  0.67474000  1.0
  C  C40  1  0.48801000  0.83652000  0.32526000  1.0
  C  C41  1  0.50499000  0.28607000  0.76048000  1.0
  C  C42  1  0.49501000  0.71393000  0.23952000  1.0
  C  C43  1  0.46632000  0.29767000  0.87854000  1.0
  C  C44  1  0.53367000  0.70233000  0.12145000  1.0
  C  C45  1  0.52963000  0.40531000  0.72314000  1.0
  C  C46  1  0.47038000  0.59469000  0.27686000  1.0
  C  C47  1  0.15462000  0.05103000  0.57685000  1.0
  C  C48  1  0.84538000  0.94897000  0.42316000  1.0
  C  C49  1  0.10774000  0.14980000  0.67142000  1.0
  C  C50  1  0.89225000  0.85020000  0.32858000  1.0
  C  C51  1  0.04309000  0.97010000  0.70374000  1.0
  C  C52  1  0.95691000  0.02990000  0.29627000  1.0
  C  C53  1  0.13514000  0.27918000  0.67553000  1.0
  C  C54  1  0.86484000  0.72082000  0.32447000  1.0
  C  C55  1  0.20642000  0.30556000  0.58447000  1.0
  C  C56  1  0.79357000  0.69443000  0.41553000  1.0
  C  C57  1  0.24759000  0.20635000  0.48781000  1.0
  C  C58  1  0.75241000  0.79365000  0.51220000  1.0
  C  C59  1  0.22187000  0.07636000  0.48258000  1.0
  C  C60  1  0.77813000  0.92364000  0.51743000  1.0
  C  C61  1  0.35336000  0.03806000  0.98658000  1.0
  C  C62  1  0.64665000  0.96194000  0.01342000  1.0
  C  C63  1  0.30658000  0.23944000  0.38412000  1.0
  C  C64  1  0.69342000  0.76056000  0.61588000  1.0
  C  C65  1  0.04116000  0.38455000  0.31920000  1.0
  C  C66  1  0.95884000  0.61546000  0.68080000  1.0
  C  C67  1  0.91355000  0.38363000  0.35574000  1.0
  C  C68  1  0.08645000  0.61638000  0.64426000  1.0
  C  C69  1  0.79982000  0.34179000  0.26880000  1.0
  C  C70  1  0.20018000  0.65822000  0.73120000  1.0
  C  C71  1  0.81207000  0.29920000  0.14128000  1.0
  C  C72  1  0.18793000  0.70082000  0.85872000  1.0
  C  C73  1  0.66442000  0.34476000  0.31061000  1.0
  C  C74  1  0.33559000  0.65523000  0.68939000  1.0
  C  C75  1  0.05431000  0.34231000  0.19226000  1.0
  C  C76  1  0.94570000  0.65770000  0.80774000  1.0
  C  C77  1  0.94002000  0.29991000  0.10493000  1.0
  C  C78  1  0.05998000  0.70011000  0.89507000  1.0
  C  C79  1  0.12400000  0.28542000  0.01076000  1.0
  C  C80  1  0.87600000  0.71458000  0.98924000  1.0
  N  N81  1  0.03734000  0.09586000  0.74809000  1.0
  N  N82  1  0.96265000  0.90414000  0.25191000  1.0
  N  N83  1  0.11306000  0.93805000  0.60254000  1.0
  N  N84  1  0.88694000  0.06195000  0.39747000  1.0
  N  N85  1  0.38005000  0.16514000  0.01149000  1.0
  N  N86  1  0.61995000  0.83486000  0.98851000  1.0
  N  N87  1  0.38282000  0.97255000  0.87219000  1.0
  N  N88  1  0.61719000  0.02744000  0.12781000  1.0
  N  N89  1  0.16765000  0.33145000  0.12985000  1.0
  N  N90  1  0.83236000  0.66855000  0.87015000  1.0
  N  N91  1  0.98950000  0.26573000  0.99052000  1.0
  N  N92  1  0.01050000  0.73429000  0.00948000  1.0
  O  O93  1  0.52813000  0.38983000  0.60722000  1.0
  O  O94  1  0.47187000  0.61017000  0.39278000  1.0
  O  O95  1  0.54604000  0.51331000  0.80868000  1.0
  O  O96  1  0.45397000  0.48669000  0.19132000  1.0
  O  O97  1  0.36109000  0.35593000  0.39608000  1.0
  O  O98  1  0.63890000  0.64406000  0.60392000  1.0
  O  O99  1  0.29411000  0.15681000  0.27746000  1.0
  O  O100  1  0.70589000  0.84319000  0.72255000  1.0
  O  O101  1  0.57061000  0.26694000  0.23788000  1.0
  O  O102  1  0.42939000  0.73306000  0.76212000  1.0
  O  O103  1  0.64992000  0.42627000  0.41383000  1.0
  O  O104  1  0.35009000  0.57372000  0.58617000  1.0
