# generated using pymatgen
data_CuH12C14(NO3)2
_symmetry_space_group_name_H-M   'P 1'
_cell_length_a   8.57780000
_cell_length_b   8.57779000
_cell_length_c   43.49710000
_cell_angle_alpha   90.00000000
_cell_angle_beta   90.00020000
_cell_angle_gamma   90.00000000
_symmetry_Int_Tables_number   1
_chemical_formula_structural   CuH12C14(NO3)2
_chemical_formula_sum   'Cu8 H96 C112 N16 O48'
_cell_volume   3200.45428933
_cell_formula_units_Z   8
loop_
 _symmetry_equiv_pos_site_id
 _symmetry_equiv_pos_as_xyz
  1  'x, y, z'
loop_
 _atom_site_type_symbol
 _atom_site_label
 _atom_site_symmetry_multiplicity
 _atom_site_fract_x
 _atom_site_fract_y
 _atom_site_fract_z
 _atom_site_occupancy
  Cu  Cu0  1  0.97939000  0.33209000  0.89222000  1.0
  Cu  Cu1  1  0.16791000  0.47939000  0.14222000  1.0
  Cu  Cu2  1  0.83209000  0.52060000  0.64222000  1.0
  Cu  Cu3  1  0.47939000  0.16791000  0.85778000  1.0
  Cu  Cu4  1  0.52061000  0.83209000  0.35778000  1.0
  Cu  Cu5  1  0.02061000  0.66791000  0.39222000  1.0
  Cu  Cu6  1  0.33209000  0.97939000  0.10778000  1.0
  Cu  Cu7  1  0.66791000  0.02061000  0.60778000  1.0
  H  H8  1  0.14468000  0.74146000  0.81742000  1.0
  H  H9  1  0.75854000  0.64468000  0.06742000  1.0
  H  H10  1  0.24146000  0.35532000  0.56742000  1.0
  H  H11  1  0.64468000  0.75854000  0.93258000  1.0
  H  H12  1  0.35532000  0.24146000  0.43258000  1.0
  H  H13  1  0.85532000  0.25854000  0.31742000  1.0
  H  H14  1  0.74146000  0.14468000  0.18258000  1.0
  H  H15  1  0.25854000  0.85532000  0.68258000  1.0
  H  H16  1  0.13583000  0.64002000  0.88783000  1.0
  H  H17  1  0.85998000  0.63583000  0.13783000  1.0
  H  H18  1  0.14002000  0.36416000  0.63783000  1.0
  H  H19  1  0.63583000  0.85998000  0.86217000  1.0
  H  H20  1  0.36417000  0.14002000  0.36217000  1.0
  H  H21  1  0.86417000  0.35998000  0.38783000  1.0
  H  H22  1  0.64002000  0.13583000  0.11217000  1.0
  H  H23  1  0.35997000  0.86416000  0.61217000  1.0
  H  H24  1  0.87214000  0.15395000  0.94799000  1.0
  H  H25  1  0.34605000  0.37214000  0.19799000  1.0
  H  H26  1  0.65395000  0.62786000  0.69799000  1.0
  H  H27  1  0.37214000  0.34605000  0.80201000  1.0
  H  H28  1  0.62786000  0.65395000  0.30201000  1.0
  H  H29  1  0.12786000  0.84605000  0.44799000  1.0
  H  H30  1  0.15395000  0.87214000  0.05201000  1.0
  H  H31  1  0.84605000  0.12786000  0.55201000  1.0
  H  H32  1  0.90585000  0.18121000  0.00426000  1.0
  H  H33  1  0.31879000  0.40585000  0.25426000  1.0
  H  H34  1  0.68120000  0.59415000  0.75426000  1.0
  H  H35  1  0.40585000  0.31880000  0.74574000  1.0
  H  H36  1  0.59415000  0.68121000  0.24574000  1.0
  H  H37  1  0.09415000  0.81880000  0.50426000  1.0
  H  H38  1  0.18120000  0.90585000  0.99574000  1.0
  H  H39  1  0.81880000  0.09415000  0.49574000  1.0
  H  H40  1  0.25078000  0.53811000  0.98554000  1.0
  H  H41  1  0.96190000  0.75078000  0.23554000  1.0
  H  H42  1  0.03811000  0.24922000  0.73554000  1.0
  H  H43  1  0.75078000  0.96190000  0.76446000  1.0
  H  H44  1  0.24922000  0.03811000  0.26446000  1.0
  H  H45  1  0.74922000  0.46190000  0.48554000  1.0
  H  H46  1  0.53811000  0.25078000  0.01446000  1.0
  H  H47  1  0.46189000  0.74922000  0.51446000  1.0
  H  H48  1  0.19832000  0.49876000  0.93027000  1.0
  H  H49  1  0.00124000  0.69832000  0.18027000  1.0
  H  H50  1  0.99876000  0.30168000  0.68027000  1.0
  H  H51  1  0.69831000  0.00124000  0.81973000  1.0
  H  H52  1  0.30169000  0.99876000  0.31973000  1.0
  H  H53  1  0.80169000  0.50124000  0.43027000  1.0
  H  H54  1  0.49876000  0.19831000  0.06973000  1.0
  H  H55  1  0.50124000  0.80169000  0.56973000  1.0
  H  H56  1  0.31325000  0.60304000  0.08589000  1.0
  H  H57  1  0.89696000  0.81325000  0.33589000  1.0
  H  H58  1  0.10303000  0.18675000  0.83589000  1.0
  H  H59  1  0.81325000  0.89696000  0.66411000  1.0
  H  H60  1  0.18675000  0.10304000  0.16411000  1.0
  H  H61  1  0.68675000  0.39696000  0.58589000  1.0
  H  H62  1  0.60304000  0.31325000  0.91411000  1.0
  H  H63  1  0.39697000  0.68675000  0.41411000  1.0
  H  H64  1  0.28321000  0.57014000  0.03030000  1.0
  H  H65  1  0.92986000  0.78321000  0.28030000  1.0
  H  H66  1  0.07014000  0.21679000  0.78030000  1.0
  H  H67  1  0.78321000  0.92986000  0.71970000  1.0
  H  H68  1  0.21679000  0.07014000  0.21970000  1.0
  H  H69  1  0.71679000  0.42986000  0.53030000  1.0
  H  H70  1  0.57014000  0.28321000  0.96970000  1.0
  H  H71  1  0.42986000  0.71679000  0.46970000  1.0
  H  H72  1  0.93572000  0.21463000  0.04949000  1.0
  H  H73  1  0.28537000  0.43572000  0.29949000  1.0
  H  H74  1  0.71463000  0.56428000  0.79949000  1.0
  H  H75  1  0.43572000  0.28538000  0.70051000  1.0
  H  H76  1  0.56428000  0.71462000  0.20051000  1.0
  H  H77  1  0.06428000  0.78537000  0.54949000  1.0
  H  H78  1  0.21463000  0.93572000  0.95051000  1.0
  H  H79  1  0.78538000  0.06427000  0.45051000  1.0
  H  H80  1  0.98052000  0.26188000  0.10404000  1.0
  H  H81  1  0.23812000  0.48053000  0.35404000  1.0
  H  H82  1  0.76188000  0.51947000  0.85404000  1.0
  H  H83  1  0.48053000  0.23812000  0.64596000  1.0
  H  H84  1  0.51947000  0.76188000  0.14596000  1.0
  H  H85  1  0.01947000  0.73812000  0.60404000  1.0
  H  H86  1  0.26188000  0.98053000  0.89596000  1.0
  H  H87  1  0.73812000  0.01948000  0.39596000  1.0
  H  H88  1  0.44175000  0.66213000  0.82502000  1.0
  H  H89  1  0.83787000  0.94175000  0.07502000  1.0
  H  H90  1  0.16213000  0.05825000  0.57502000  1.0
  H  H91  1  0.94174000  0.83787000  0.92498000  1.0
  H  H92  1  0.05825000  0.16213000  0.42498000  1.0
  H  H93  1  0.55826000  0.33787000  0.32502000  1.0
  H  H94  1  0.66213000  0.44175000  0.17498000  1.0
  H  H95  1  0.33787000  0.55825000  0.67498000  1.0
  H  H96  1  0.46473000  0.67352000  0.87977000  1.0
  H  H97  1  0.82647000  0.96473000  0.12977000  1.0
  H  H98  1  0.17353000  0.03526000  0.62977000  1.0
  H  H99  1  0.96473000  0.82647000  0.87023000  1.0
  H  H100  1  0.03527000  0.17352000  0.37023000  1.0
  H  H101  1  0.53527000  0.32647000  0.37977000  1.0
  H  H102  1  0.67353000  0.46474000  0.12023000  1.0
  H  H103  1  0.32647000  0.53526000  0.62023000  1.0
  C  C104  1  0.95327000  0.23923000  0.95752000  1.0
  C  C105  1  0.26077000  0.45327000  0.20752000  1.0
  C  C106  1  0.73923000  0.54673000  0.70752000  1.0
  C  C107  1  0.45327000  0.26077000  0.79248000  1.0
  C  C108  1  0.54674000  0.73923000  0.29248000  1.0
  C  C109  1  0.04673000  0.76077000  0.45752000  1.0
  C  C110  1  0.23923000  0.95327000  0.04248000  1.0
  C  C111  1  0.76077000  0.04673000  0.54248000  1.0
  C  C112  1  0.97380000  0.25557000  0.98903000  1.0
  C  C113  1  0.24444000  0.47380000  0.23903000  1.0
  C  C114  1  0.75556000  0.52620000  0.73903000  1.0
  C  C115  1  0.47380000  0.24444000  0.76097000  1.0
  C  C116  1  0.52620000  0.75556000  0.26097000  1.0
  C  C117  1  0.02620000  0.74444000  0.48903000  1.0
  C  C118  1  0.25556000  0.97380000  0.01097000  1.0
  C  C119  1  0.74444000  0.02620000  0.51097000  1.0
  C  C120  1  0.08019000  0.36577000  0.00065000  1.0
  C  C121  1  0.13423000  0.58019000  0.25065000  1.0
  C  C122  1  0.86577000  0.41981000  0.75065000  1.0
  C  C123  1  0.58019000  0.13423000  0.74935000  1.0
  C  C124  1  0.41981000  0.86577000  0.24935000  1.0
  C  C125  1  0.91981000  0.63423000  0.50065000  1.0
  C  C126  1  0.36577000  0.08019000  0.99935000  1.0
  C  C127  1  0.63423000  0.91981000  0.49935000  1.0
  C  C128  1  0.16364000  0.45246000  0.97877000  1.0
  C  C129  1  0.04754000  0.66364000  0.22877000  1.0
  C  C130  1  0.95246000  0.33636000  0.72877000  1.0
  C  C131  1  0.66364000  0.04754000  0.77123000  1.0
  C  C132  1  0.33636000  0.95246000  0.27123000  1.0
  C  C133  1  0.83636000  0.54754000  0.47877000  1.0
  C  C134  1  0.45246000  0.16364000  0.02123000  1.0
  C  C135  1  0.54754000  0.83636000  0.52123000  1.0
  C  C136  1  0.13635000  0.43106000  0.94762000  1.0
  C  C137  1  0.06895000  0.63635000  0.19762000  1.0
  C  C138  1  0.93105000  0.36365000  0.69762000  1.0
  C  C139  1  0.63635000  0.06895000  0.80238000  1.0
  C  C140  1  0.36365000  0.93105000  0.30238000  1.0
  C  C141  1  0.86365000  0.56895000  0.44762000  1.0
  C  C142  1  0.43105000  0.13636000  0.05238000  1.0
  C  C143  1  0.56895000  0.86365000  0.55238000  1.0
  C  C144  1  0.10390000  0.38926000  0.03401000  1.0
  C  C145  1  0.11074000  0.60390000  0.28401000  1.0
  C  C146  1  0.88926000  0.39610000  0.78401000  1.0
  C  C147  1  0.60390000  0.11074000  0.71599000  1.0
  C  C148  1  0.39610000  0.88926000  0.21599000  1.0
  C  C149  1  0.89610000  0.61074000  0.53401000  1.0
  C  C150  1  0.38926000  0.10390000  0.96599000  1.0
  C  C151  1  0.61074000  0.89610000  0.46599000  1.0
  C  C152  1  0.22936000  0.51916000  0.07684000  1.0
  C  C153  1  0.98084000  0.72935000  0.32684000  1.0
  C  C154  1  0.01915000  0.27064000  0.82684000  1.0
  C  C155  1  0.72935000  0.98084000  0.67316000  1.0
  C  C156  1  0.27064000  0.01915000  0.17316000  1.0
  C  C157  1  0.77065000  0.48084000  0.57684000  1.0
  C  C158  1  0.51916000  0.22936000  0.92316000  1.0
  C  C159  1  0.48085000  0.77064000  0.42316000  1.0
  C  C160  1  0.21136000  0.49884000  0.04540000  1.0
  C  C161  1  0.00116000  0.71136000  0.29540000  1.0
  C  C162  1  0.99884000  0.28864000  0.79540000  1.0
  C  C163  1  0.71136000  0.00116000  0.70460000  1.0
  C  C164  1  0.28864000  0.99884000  0.20460000  1.0
  C  C165  1  0.78864000  0.50116000  0.54540000  1.0
  C  C166  1  0.49884000  0.21136000  0.95460000  1.0
  C  C167  1  0.50116000  0.78864000  0.45460000  1.0
  C  C168  1  0.02063000  0.30309000  0.05591000  1.0
  C  C169  1  0.19691000  0.52063000  0.30591000  1.0
  C  C170  1  0.80308000  0.47937000  0.80591000  1.0
  C  C171  1  0.52063000  0.19691000  0.69409000  1.0
  C  C172  1  0.47937000  0.80309000  0.19409000  1.0
  C  C173  1  0.97937000  0.69691000  0.55591000  1.0
  C  C174  1  0.30309000  0.02063000  0.94409000  1.0
  C  C175  1  0.69692000  0.97937000  0.44409000  1.0
  C  C176  1  0.04480000  0.32882000  0.08706000  1.0
  C  C177  1  0.17118000  0.54480000  0.33706000  1.0
  C  C178  1  0.82882000  0.45520000  0.83706000  1.0
  C  C179  1  0.54480000  0.17119000  0.66294000  1.0
  C  C180  1  0.45520000  0.82882000  0.16294000  1.0
  C  C181  1  0.95520000  0.67118000  0.58706000  1.0
  C  C182  1  0.32882000  0.04480000  0.91294000  1.0
  C  C183  1  0.67118000  0.95520000  0.41294000  1.0
  C  C184  1  0.33412000  0.87822000  0.83876000  1.0
  C  C185  1  0.62177000  0.83412000  0.08876000  1.0
  C  C186  1  0.37823000  0.16588000  0.58876000  1.0
  C  C187  1  0.83412000  0.62177000  0.91124000  1.0
  C  C188  1  0.16588000  0.37823000  0.41124000  1.0
  C  C189  1  0.66588000  0.12177000  0.33876000  1.0
  C  C190  1  0.87823000  0.33412000  0.16124000  1.0
  C  C191  1  0.12177000  0.66588000  0.66124000  1.0
  C  C192  1  0.33648000  0.69942000  0.83775000  1.0
  C  C193  1  0.80057000  0.83648000  0.08775000  1.0
  C  C194  1  0.19943000  0.16352000  0.58775000  1.0
  C  C195  1  0.83647000  0.80057000  0.91225000  1.0
  C  C196  1  0.16352000  0.19942000  0.41225000  1.0
  C  C197  1  0.66353000  0.30057000  0.33775000  1.0
  C  C198  1  0.69943000  0.33648000  0.16225000  1.0
  C  C199  1  0.30057000  0.66352000  0.66225000  1.0
  C  C200  1  0.35101000  0.63574000  0.87087000  1.0
  C  C201  1  0.86426000  0.85101000  0.12087000  1.0
  C  C202  1  0.13574000  0.14899000  0.62087000  1.0
  C  C203  1  0.85101000  0.86426000  0.87913000  1.0
  C  C204  1  0.14899000  0.13574000  0.37913000  1.0
  C  C205  1  0.64899000  0.36426000  0.37087000  1.0
  C  C206  1  0.63574000  0.35101000  0.12913000  1.0
  C  C207  1  0.36426000  0.64898000  0.62913000  1.0
  C  C208  1  0.35139000  0.45735000  0.86979000  1.0
  C  C209  1  0.04265000  0.85140000  0.11979000  1.0
  C  C210  1  0.95735000  0.14860000  0.61979000  1.0
  C  C211  1  0.85140000  0.04265000  0.88021000  1.0
  C  C212  1  0.14861000  0.95735000  0.38021000  1.0
  C  C213  1  0.64860000  0.54265000  0.36979000  1.0
  C  C214  1  0.45735000  0.35140000  0.13021000  1.0
  C  C215  1  0.54265000  0.64860000  0.63021000  1.0
  N  N216  1  0.03159000  0.32719000  0.93711000  1.0
  N  N217  1  0.17281000  0.53159000  0.18711000  1.0
  N  N218  1  0.82718000  0.46840000  0.68711000  1.0
  N  N219  1  0.53159000  0.17282000  0.81289000  1.0
  N  N220  1  0.46841000  0.82719000  0.31289000  1.0
  N  N221  1  0.96841000  0.67281000  0.43711000  1.0
  N  N222  1  0.32718000  0.03159000  0.06289000  1.0
  N  N223  1  0.67282000  0.96841000  0.56289000  1.0
  N  N224  1  0.14645000  0.43570000  0.09731000  1.0
  N  N225  1  0.06430000  0.64645000  0.34731000  1.0
  N  N226  1  0.93569000  0.35355000  0.84731000  1.0
  N  N227  1  0.64645000  0.06430000  0.65269000  1.0
  N  N228  1  0.35354000  0.93570000  0.15269000  1.0
  N  N229  1  0.85355000  0.56430000  0.59731000  1.0
  N  N230  1  0.43570000  0.14645000  0.90269000  1.0
  N  N231  1  0.56431000  0.85355000  0.40269000  1.0
  O  O232  1  0.23674000  0.38147000  0.87920000  1.0
  O  O233  1  0.11853000  0.73674000  0.12920000  1.0
  O  O234  1  0.88147000  0.26326000  0.62920000  1.0
  O  O235  1  0.73674000  0.11853000  0.87080000  1.0
  O  O236  1  0.26326000  0.88147000  0.37080000  1.0
  O  O237  1  0.76327000  0.61853000  0.37920000  1.0
  O  O238  1  0.38147000  0.23674000  0.12080000  1.0
  O  O239  1  0.61853000  0.76326000  0.62080000  1.0
  O  O240  1  0.44987000  0.93942000  0.85344000  1.0
  O  O241  1  0.56058000  0.94987000  0.10344000  1.0
  O  O242  1  0.43942000  0.05013000  0.60344000  1.0
  O  O243  1  0.94987000  0.56058000  0.89656000  1.0
  O  O244  1  0.05013000  0.43942000  0.39656000  1.0
  O  O245  1  0.55013000  0.06058000  0.35344000  1.0
  O  O246  1  0.93942000  0.44987000  0.14656000  1.0
  O  O247  1  0.06058000  0.55013000  0.64656000  1.0
  O  O248  1  0.22376000  0.94863000  0.82624000  1.0
  O  O249  1  0.55137000  0.72376000  0.07624000  1.0
  O  O250  1  0.44863000  0.27624000  0.57624000  1.0
  O  O251  1  0.72376000  0.55137000  0.92376000  1.0
  O  O252  1  0.27624000  0.44863000  0.42376000  1.0
  O  O253  1  0.77624000  0.05137000  0.32624000  1.0
  O  O254  1  0.94863000  0.22376000  0.17376000  1.0
  O  O255  1  0.05137000  0.77624000  0.67376000  1.0
  O  O256  1  0.23553000  0.69668000  0.89070000  1.0
  O  O257  1  0.80332000  0.73553000  0.14070000  1.0
  O  O258  1  0.19668000  0.26447000  0.64070000  1.0
  O  O259  1  0.73553000  0.80332000  0.85930000  1.0
  O  O260  1  0.26447000  0.19668000  0.35930000  1.0
  O  O261  1  0.76447000  0.30332000  0.39070000  1.0
  O  O262  1  0.69668000  0.23553000  0.10930000  1.0
  O  O263  1  0.30332000  0.76447000  0.60930000  1.0
  O  O264  1  0.47699000  0.39768000  0.85837000  1.0
  O  O265  1  0.10232000  0.97700000  0.10837000  1.0
  O  O266  1  0.89768000  0.02300000  0.60837000  1.0
  O  O267  1  0.97699000  0.10232000  0.89163000  1.0
  O  O268  1  0.02301000  0.89768000  0.39163000  1.0
  O  O269  1  0.52301000  0.60232000  0.35837000  1.0
  O  O270  1  0.39769000  0.47699000  0.14163000  1.0
  O  O271  1  0.60232000  0.52300000  0.64163000  1.0
  O  O272  1  0.20033000  0.64437000  0.82271000  1.0
  O  O273  1  0.85563000  0.70033000  0.07271000  1.0
  O  O274  1  0.14437000  0.29967000  0.57271000  1.0
  O  O275  1  0.70033000  0.85563000  0.92729000  1.0
  O  O276  1  0.29967000  0.14437000  0.42729000  1.0
  O  O277  1  0.79967000  0.35563000  0.32271000  1.0
  O  O278  1  0.64437000  0.20033000  0.17729000  1.0
  O  O279  1  0.35563000  0.79967000  0.67729000  1.0
