# generated using pymatgen
data_ZnH28C24(NO3)2
_symmetry_space_group_name_H-M   'P 1'
_cell_length_a   8.97242000
_cell_length_b   11.27340000
_cell_length_c   12.14920000
_cell_angle_alpha   73.05220000
_cell_angle_beta   68.36390000
_cell_angle_gamma   66.55580000
_symmetry_Int_Tables_number   1
_chemical_formula_structural   ZnH28C24(NO3)2
_chemical_formula_sum   'Zn2 H56 C48 N4 O12'
_cell_volume   1032.78742546
_cell_formula_units_Z   2
loop_
 _symmetry_equiv_pos_site_id
 _symmetry_equiv_pos_as_xyz
  1  'x, y, z'
loop_
 _atom_site_type_symbol
 _atom_site_label
 _atom_site_symmetry_multiplicity
 _atom_site_fract_x
 _atom_site_fract_y
 _atom_site_fract_z
 _atom_site_occupancy
  Zn  Zn0  1  0.94855000  0.24997000  0.75003000  1.0
  Zn  Zn1  1  0.05145000  0.75003000  0.24997000  1.0
  H  H2  1  0.91191000  0.97655000  0.59617000  1.0
  H  H3  1  0.48456000  0.52343000  0.90394000  1.0
  H  H4  1  0.08809000  0.02345000  0.40383000  1.0
  H  H5  1  0.51544000  0.47657000  0.09606000  1.0
  H  H6  1  0.03723000  0.82252000  0.46834000  1.0
  H  H7  1  0.32812000  0.67749000  0.03170000  1.0
  H  H8  1  0.96277000  0.17748000  0.53166000  1.0
  H  H9  1  0.67188000  0.32251000  0.96830000  1.0
  H  H10  1  0.04324000  0.65935000  0.52701000  1.0
  H  H11  1  0.22958000  0.84067000  0.97301000  1.0
  H  H12  1  0.95676000  0.34065000  0.47299000  1.0
  H  H13  1  0.77042000  0.15933000  0.02699000  1.0
  H  H14  1  0.81004000  0.97199000  0.40211000  1.0
  H  H15  1  0.18416000  0.52804000  0.09794000  1.0
  H  H16  1  0.18996000  0.02801000  0.59789000  1.0
  H  H17  1  0.81584000  0.47196000  0.90206000  1.0
  H  H18  1  0.63605000  0.92086000  0.50328000  1.0
  H  H19  1  0.06014000  0.57913000  0.99674000  1.0
  H  H20  1  0.36395000  0.07914000  0.49671000  1.0
  H  H21  1  0.93986000  0.42087000  0.00326000  1.0
  H  H22  1  0.57869000  0.88173000  0.33424000  1.0
  H  H23  1  0.79473000  0.61825000  0.16568000  1.0
  H  H24  1  0.42131000  0.11827000  0.66576000  1.0
  H  H25  1  0.20527000  0.38175000  0.83432000  1.0
  H  H26  1  0.59174000  0.04204000  0.30324000  1.0
  H  H27  1  0.93711000  0.45796000  0.19674000  1.0
  H  H28  1  0.40825000  0.95796000  0.69676000  1.0
  H  H29  1  0.06289000  0.54204000  0.80326000  1.0
  H  H30  1  0.65724000  0.69768000  0.54436000  1.0
  H  H31  1  0.89922000  0.80236000  0.95560000  1.0
  H  H32  1  0.34276000  0.30232000  0.45564000  1.0
  H  H33  1  0.10078000  0.19764000  0.04440000  1.0
  H  H34  1  0.86345000  0.58189000  0.52494000  1.0
  H  H35  1  0.97021000  0.91815000  0.97508000  1.0
  H  H36  1  0.13655000  0.41811000  0.47506000  1.0
  H  H37  1  0.02979000  0.08185000  0.02492000  1.0
  H  H38  1  0.67877000  0.97195000  0.07854000  1.0
  H  H39  1  0.72932000  0.52798000  0.42142000  1.0
  H  H40  1  0.32123000  0.02805000  0.92146000  1.0
  H  H41  1  0.27068000  0.47202000  0.57858000  1.0
  H  H42  1  0.68982000  0.81118000  0.15751000  1.0
  H  H43  1  0.65846000  0.68876000  0.34243000  1.0
  H  H44  1  0.31019000  0.18882000  0.84249000  1.0
  H  H45  1  0.34154000  0.31124000  0.65757000  1.0
  H  H46  1  0.77075000  0.62589000  0.71461000  1.0
  H  H47  1  0.11117000  0.87409000  0.78532000  1.0
  H  H48  1  0.22925000  0.37411000  0.28539000  1.0
  H  H49  1  0.88883000  0.12591000  0.21468000  1.0
  H  H50  1  0.59320000  0.69991000  0.90889000  1.0
  H  H51  1  0.20202000  0.80009000  0.59101000  1.0
  H  H52  1  0.40680000  0.30009000  0.09111000  1.0
  H  H53  1  0.79798000  0.19991000  0.40899000  1.0
  H  H54  1  0.57503000  0.90766000  0.94913000  1.0
  H  H55  1  0.43189000  0.59237000  0.55077000  1.0
  H  H56  1  0.42497000  0.09234000  0.05087000  1.0
  H  H57  1  0.56811000  0.40763000  0.44923000  1.0
  C  C58  1  0.75153000  0.07330000  0.80540000  1.0
  C  C59  1  0.63023000  0.42676000  0.69461000  1.0
  C  C60  1  0.24847000  0.92670000  0.19460000  1.0
  C  C61  1  0.36978000  0.57324000  0.30539000  1.0
  C  C62  1  0.74396000  0.95576000  0.77464000  1.0
  C  C63  1  0.47440000  0.54427000  0.72536000  1.0
  C  C64  1  0.25604000  0.04424000  0.22536000  1.0
  C  C65  1  0.52559000  0.45572000  0.27464000  1.0
  C  C66  1  0.83923000  0.91617000  0.66319000  1.0
  C  C67  1  0.41854000  0.58384000  0.83685000  1.0
  C  C68  1  0.16077000  0.08383000  0.33681000  1.0
  C  C69  1  0.58146000  0.41616000  0.16315000  1.0
  C  C70  1  0.84815000  0.79974000  0.63778000  1.0
  C  C71  1  0.28565000  0.70030000  0.86223000  1.0
  C  C72  1  0.15185000  0.20026000  0.36222000  1.0
  C  C73  1  0.71436000  0.29970000  0.13777000  1.0
  C  C74  1  0.95681000  0.76054000  0.51660000  1.0
  C  C75  1  0.23394000  0.73949000  0.98342000  1.0
  C  C76  1  0.04319000  0.23946000  0.48340000  1.0
  C  C77  1  0.76606000  0.26052000  0.01658000  1.0
  C  C78  1  0.74022000  0.90450000  0.41934000  1.0
  C  C79  1  0.06408000  0.59549000  0.08071000  1.0
  C  C80  1  0.25978000  0.09550000  0.58066000  1.0
  C  C81  1  0.93592000  0.40451000  0.91930000  1.0
  C  C82  1  0.66517000  0.93657000  0.31671000  1.0
  C  C83  1  0.91850000  0.56344000  0.18329000  1.0
  C  C84  1  0.33483000  0.06343000  0.68329000  1.0
  C  C85  1  0.08150000  0.43656000  0.81671000  1.0
  C  C86  1  0.78180000  0.66623000  0.47791000  1.0
  C  C87  1  0.92594000  0.83379000  0.02210000  1.0
  C  C88  1  0.21820000  0.33377000  0.52209000  1.0
  C  C89  1  0.07406000  0.16621000  0.97790000  1.0
  C  C90  1  0.76120000  0.88087000  0.11898000  1.0
  C  C91  1  0.76099000  0.61910000  0.38101000  1.0
  C  C92  1  0.23880000  0.11913000  0.88102000  1.0
  C  C93  1  0.23901000  0.38090000  0.61899000  1.0
  C  C94  1  0.76049000  0.72049000  0.72843000  1.0
  C  C95  1  0.20935000  0.77947000  0.77152000  1.0
  C  C96  1  0.23951000  0.27951000  0.27157000  1.0
  C  C97  1  0.79065000  0.22053000  0.22848000  1.0
  C  C98  1  0.66166000  0.76104000  0.83875000  1.0
  C  C99  1  0.26156000  0.73894000  0.66116000  1.0
  C  C100  1  0.33834000  0.23896000  0.16125000  1.0
  C  C101  1  0.73844000  0.26106000  0.33884000  1.0
  C  C102  1  0.65127000  0.87864000  0.86183000  1.0
  C  C103  1  0.39179000  0.62134000  0.63811000  1.0
  C  C104  1  0.34873000  0.12136000  0.13817000  1.0
  C  C105  1  0.60821000  0.37866000  0.36189000  1.0
  N  N106  1  0.86250000  0.76997000  0.43348000  1.0
  N  N107  1  0.06602000  0.73005000  0.06653000  1.0
  N  N108  1  0.13750000  0.23003000  0.56652000  1.0
  N  N109  1  0.93398000  0.26994000  0.93347000  1.0
  O  O110  1  0.89625000  0.09359000  0.75127000  1.0
  O  O111  1  0.74115000  0.40646000  0.74876000  1.0
  O  O112  1  0.10375000  0.90641000  0.24873000  1.0
  O  O113  1  0.25885000  0.59354000  0.25124000  1.0
  O  O114  1  0.62963000  0.13619000  0.88056000  1.0
  O  O115  1  0.64640000  0.36387000  0.61938000  1.0
  O  O116  1  0.37037000  0.86381000  0.11944000  1.0
  O  O117  1  0.35360000  0.63612000  0.38062000  1.0
  O  O118  1  0.80327000  0.90538000  0.21112000  1.0
  O  O119  1  0.91965000  0.59474000  0.28893000  1.0
  O  O120  1  0.19673000  0.09462000  0.78888000  1.0
  O  O121  1  0.08035000  0.40526000  0.71107000  1.0
