# generated using pymatgen
data_CuH30C34(N3O4)4
_symmetry_space_group_name_H-M   'P 1'
_cell_length_a   9.50589000
_cell_length_b   10.13650000
_cell_length_c   10.88700000
_cell_angle_alpha   116.91300000
_cell_angle_beta   93.48040000
_cell_angle_gamma   101.37500000
_symmetry_Int_Tables_number   1
_chemical_formula_structural   CuH30C34(N3O4)4
_chemical_formula_sum   'Cu1 H30 C34 N12 O16'
_cell_volume   903.44545582
_cell_formula_units_Z   1
loop_
 _symmetry_equiv_pos_site_id
 _symmetry_equiv_pos_as_xyz
  1  'x, y, z'
loop_
 _atom_site_type_symbol
 _atom_site_label
 _atom_site_symmetry_multiplicity
 _atom_site_fract_x
 _atom_site_fract_y
 _atom_site_fract_z
 _atom_site_occupancy
  Cu  Cu0  1  0.50000000  0.50000000  0.50000000  1.0
  H  H1  1  0.45398000  0.45990000  0.11584000  1.0
  H  H2  1  0.54602000  0.54010000  0.88416000  1.0
  H  H3  1  0.12061000  0.91568000  0.37331000  1.0
  H  H4  1  0.87939000  0.08432000  0.62669000  1.0
  H  H5  1  0.60992000  0.12250000  0.90764000  1.0
  H  H6  1  0.39008000  0.87750000  0.09236000  1.0
  H  H7  1  0.85839000  0.54047000  0.53748000  1.0
  H  H8  1  0.14161000  0.45953000  0.46252000  1.0
  H  H9  1  0.51574000  0.17111000  0.24723000  1.0
  H  H10  1  0.48426000  0.82889000  0.75277000  1.0
  H  H11  1  0.86894000  0.06483000  0.15951000  1.0
  H  H12  1  0.13106000  0.93517000  0.84049000  1.0
  H  H13  1  0.67580000  0.98743000  0.11765000  1.0
  H  H14  1  0.32420000  0.01257000  0.88235000  1.0
  H  H15  1  0.79265000  0.84971000  0.21265000  1.0
  H  H16  1  0.20735000  0.15029000  0.78736000  1.0
  H  H17  1  0.88604000  0.02226000  0.36271000  1.0
  H  H18  1  0.11396000  0.97775000  0.63729000  1.0
  H  H19  1  0.65006000  0.06770000  0.44082000  1.0
  H  H20  1  0.34994000  0.93230000  0.55918000  1.0
  H  H21  1  0.55210000  0.89875000  0.28572000  1.0
  H  H22  1  0.44790000  0.10125000  0.71428000  1.0
  H  H23  1  0.79826000  0.79530000  0.66343000  1.0
  H  H24  1  0.20174000  0.20470000  0.33657000  1.0
  H  H25  1  0.46897000  0.68019000  0.32778000  1.0
  H  H26  1  0.53103000  0.31981000  0.67222000  1.0
  H  H27  1  0.83446000  0.60399000  0.20222000  1.0
  H  H28  1  0.16554000  0.39601000  0.79778000  1.0
  H  H29  1  0.07031000  0.17826000  0.02011000  1.0
  H  H30  1  0.92969000  0.82174000  0.97989000  1.0
  C  C31  1  0.79809000  0.42970000  0.45399000  1.0
  C  C32  1  0.20191000  0.57030000  0.54600000  1.0
  C  C33  1  0.62208000  0.24397000  0.30777000  1.0
  C  C34  1  0.37793000  0.75603000  0.69223000  1.0
  C  C35  1  0.76957000  0.05029000  0.20312000  1.0
  C  C36  1  0.23043000  0.94971000  0.79688000  1.0
  C  C37  1  0.78447000  0.96484000  0.28628000  1.0
  C  C38  1  0.21553000  0.03516000  0.71372000  1.0
  C  C39  1  0.65482000  0.95408000  0.36040000  1.0
  C  C40  1  0.34518000  0.04592000  0.63960000  1.0
  C  C41  1  0.73694000  0.79352000  0.57500000  1.0
  C  C42  1  0.26306000  0.20648000  0.42500000  1.0
  C  C43  1  0.56735000  0.73272000  0.40520000  1.0
  C  C44  1  0.43265000  0.26728000  0.59480000  1.0
  C  C45  1  0.10536000  0.42066000  0.14854000  1.0
  C  C46  1  0.89465000  0.57934000  0.85145000  1.0
  C  C47  1  0.03912000  0.54329000  0.19813000  1.0
  C  C48  1  0.96088000  0.45671000  0.80187000  1.0
  C  C49  1  0.88835000  0.51140000  0.16203000  1.0
  C  C50  1  0.11165000  0.48860000  0.83797000  1.0
  C  C51  1  0.80055000  0.36357000  0.07500000  1.0
  C  C52  1  0.19945000  0.63643000  0.92500000  1.0
  C  C53  1  0.86962000  0.24147000  0.01734000  1.0
  C  C54  1  0.13039000  0.75853000  0.98265000  1.0
  C  C55  1  0.02010000  0.27397000  0.05941000  1.0
  C  C56  1  0.97990000  0.72603000  0.94059000  1.0
  C  C57  1  0.26487000  0.43484000  0.18325000  1.0
  C  C58  1  0.73514000  0.56515000  0.81674000  1.0
  C  C59  1  0.12802000  0.70325000  0.28729000  1.0
  C  C60  1  0.87198000  0.29675000  0.71271000  1.0
  C  C61  1  0.63931000  0.35443000  0.05795000  1.0
  C  C62  1  0.36069000  0.64557000  0.94205000  1.0
  C  C63  1  0.80385000  0.07366000  0.91234000  1.0
  C  C64  1  0.19616000  0.92634000  0.08766000  1.0
  N  N65  1  0.74806000  0.20197000  0.29069000  1.0
  N  N66  1  0.25194000  0.79803000  0.70931000  1.0
  N  N67  1  0.86130000  0.31866000  0.38334000  1.0
  N  N68  1  0.13870000  0.68134000  0.61666000  1.0
  N  N69  1  0.65045000  0.38798000  0.41127000  1.0
  N  N70  1  0.34956000  0.61202000  0.58873000  1.0
  N  N71  1  0.66199000  0.86207000  0.43051000  1.0
  N  N72  1  0.33801000  0.13793000  0.56949000  1.0
  N  N73  1  0.77090000  0.90272000  0.53820000  1.0
  N  N74  1  0.22909000  0.09728000  0.46180000  1.0
  N  N75  1  0.61152000  0.68677000  0.49519000  1.0
  N  N76  1  0.38848000  0.31323000  0.50481000  1.0
  O  O77  1  0.31166000  0.41106000  0.27825000  1.0
  O  O78  1  0.68834000  0.58893000  0.72175000  1.0
  O  O79  1  0.34068000  0.46175000  0.09702000  1.0
  O  O80  1  0.65932000  0.53825000  0.90298000  1.0
  O  O81  1  0.26023000  0.73482000  0.32861000  1.0
  O  O82  1  0.73977000  0.26518000  0.67139000  1.0
  O  O83  1  0.05238000  0.80868000  0.31739000  1.0
  O  O84  1  0.94762000  0.19132000  0.68261000  1.0
  O  O85  1  0.60110000  0.47149000  0.14164000  1.0
  O  O86  1  0.39890000  0.52851000  0.85836000  1.0
  O  O87  1  0.54723000  0.23337000  0.96500000  1.0
  O  O88  1  0.45278000  0.76663000  0.03500000  1.0
  O  O89  1  0.66306000  0.02668000  0.86325000  1.0
  O  O90  1  0.33694000  0.97332000  0.13675000  1.0
  O  O91  1  0.88375000  0.98490000  0.87418000  1.0
  O  O92  1  0.11625000  0.01510000  0.12582000  1.0
