# generated using pymatgen
data_H12RuC22SN4(ClO3)2
_symmetry_space_group_name_H-M   'P 1'
_cell_length_a   10.49530000
_cell_length_b   10.72690000
_cell_length_c   11.73200000
_cell_angle_alpha   114.87300000
_cell_angle_beta   94.21800000
_cell_angle_gamma   93.42720000
_symmetry_Int_Tables_number   1
_chemical_formula_structural   H12RuC22SN4(ClO3)2
_chemical_formula_sum   'H24 Ru2 C44 S2 N8 Cl4 O12'
_cell_volume   1189.02931747
_cell_formula_units_Z   2
loop_
 _symmetry_equiv_pos_site_id
 _symmetry_equiv_pos_as_xyz
  1  'x, y, z'
loop_
 _atom_site_type_symbol
 _atom_site_label
 _atom_site_symmetry_multiplicity
 _atom_site_fract_x
 _atom_site_fract_y
 _atom_site_fract_z
 _atom_site_occupancy
  H  H0  1  0.62561000  0.26329000  0.66010000  1.0
  H  H1  1  0.37433000  0.73673000  0.33984000  1.0
  H  H2  1  0.59935000  0.09352000  0.53044000  1.0
  H  H3  1  0.40059000  0.90649000  0.46951000  1.0
  H  H4  1  0.65556000  0.11243000  0.68415000  1.0
  H  H5  1  0.34442000  0.88760000  0.31579000  1.0
  H  H6  1  0.61911000  0.28467000  0.86220000  1.0
  H  H7  1  0.38090000  0.71529000  0.13777000  1.0
  H  H8  1  0.32121000  0.35034000  0.10967000  1.0
  H  H9  1  0.67889000  0.64953000  0.89036000  1.0
  H  H10  1  0.16112000  0.21746000  0.92306000  1.0
  H  H11  1  0.83894000  0.78249000  0.07700000  1.0
  H  H12  1  0.97395000  0.38660000  0.77666000  1.0
  H  H13  1  0.02600000  0.61335000  0.22333000  1.0
  H  H14  1  0.88503000  0.46891000  0.90762000  1.0
  H  H15  1  0.11494000  0.53113000  0.09238000  1.0
  H  H16  1  0.96717000  0.57175000  0.84246000  1.0
  H  H17  1  0.03283000  0.42822000  0.15750000  1.0
  H  H18  1  0.67767000  0.61706000  0.67532000  1.0
  H  H19  1  0.32230000  0.38295000  0.32466000  1.0
  H  H20  1  0.81044000  0.48514000  0.30661000  1.0
  H  H21  1  0.18959000  0.51491000  0.69340000  1.0
  H  H22  1  0.93254000  0.31397000  0.34606000  1.0
  H  H23  1  0.06750000  0.68608000  0.65394000  1.0
  Ru  Ru24  1  0.06717000  0.00354000  0.42726000  1.0
  Ru  Ru25  1  0.93283000  0.99651000  0.57277000  1.0
  C  C26  1  0.20492000  0.98754000  0.17456000  1.0
  C  C27  1  0.79507000  0.01249000  0.82544000  1.0
  C  C28  1  0.23730000  0.95172000  0.05154000  1.0
  C  C29  1  0.76268000  0.04828000  0.94847000  1.0
  C  C30  1  0.13355000  0.87569000  0.95840000  1.0
  C  C31  1  0.86641000  0.12434000  0.04161000  1.0
  C  C32  1  0.36301000  0.97887000  0.02600000  1.0
  C  C33  1  0.63698000  0.02110000  0.97400000  1.0
  C  C34  1  0.40224000  0.92766000  0.90131000  1.0
  C  C35  1  0.59776000  0.07231000  0.09869000  1.0
  C  C36  1  0.53430000  0.94551000  0.87653000  1.0
  C  C37  1  0.46569000  0.05447000  0.12348000  1.0
  C  C38  1  0.19364000  0.10912000  0.68170000  1.0
  C  C39  1  0.80636000  0.89091000  0.31834000  1.0
  C  C40  1  0.29660000  0.17794000  0.78634000  1.0
  C  C41  1  0.70342000  0.82206000  0.21368000  1.0
  C  C42  1  0.42817000  0.19463000  0.76859000  1.0
  C  C43  1  0.57184000  0.80537000  0.23142000  1.0
  C  C44  1  0.59432000  0.15386000  0.63143000  1.0
  C  C45  1  0.40563000  0.84616000  0.36852000  1.0
  C  C46  1  0.51863000  0.26864000  0.87395000  1.0
  C  C47  1  0.48140000  0.73132000  0.12604000  1.0
  C  C48  1  0.47874000  0.32284000  0.99452000  1.0
  C  C49  1  0.52133000  0.67709000  0.00549000  1.0
  C  C50  1  0.35065000  0.30545000  0.01483000  1.0
  C  C51  1  0.64944000  0.69445000  0.98520000  1.0
  C  C52  1  0.26164000  0.23287000  0.91019000  1.0
  C  C53  1  0.73841000  0.76708000  0.08985000  1.0
  C  C54  1  0.92988000  0.24468000  0.53425000  1.0
  C  C55  1  0.07011000  0.75536000  0.46575000  1.0
  C  C56  1  0.87393000  0.36610000  0.53167000  1.0
  C  C57  1  0.12606000  0.63394000  0.46833000  1.0
  C  C58  1  0.80393000  0.45570000  0.62677000  1.0
  C  C59  1  0.19606000  0.54433000  0.37322000  1.0
  C  C60  1  0.91441000  0.47129000  0.82071000  1.0
  C  C61  1  0.08557000  0.52870000  0.17926000  1.0
  C  C62  1  0.73229000  0.54937000  0.60263000  1.0
  C  C63  1  0.26769000  0.45066000  0.39736000  1.0
  C  C64  1  0.73266000  0.55679000  0.48685000  1.0
  C  C65  1  0.26734000  0.44323000  0.51314000  1.0
  C  C66  1  0.80863000  0.47655000  0.39564000  1.0
  C  C67  1  0.19140000  0.52349000  0.60436000  1.0
  C  C68  1  0.87797000  0.38214000  0.41876000  1.0
  C  C69  1  0.12205000  0.61791000  0.58124000  1.0
  S  S70  1  0.40934000  0.81102000  0.67847000  1.0
  S  S71  1  0.59066000  0.18893000  0.32153000  1.0
  N  N72  1  0.17140000  0.00556000  0.27296000  1.0
  N  N73  1  0.82859000  0.99448000  0.72705000  1.0
  N  N74  1  0.04157000  0.81270000  0.89091000  1.0
  N  N75  1  0.95839000  0.18735000  0.10910000  1.0
  N  N76  1  0.32295000  0.85412000  0.79500000  1.0
  N  N77  1  0.67705000  0.14583000  0.20500000  1.0
  N  N78  1  0.54910000  0.88287000  0.75258000  1.0
  N  N79  1  0.45089000  0.11710000  0.24742000  1.0
  Cl  Cl80  1  0.59131000  0.41457000  0.12326000  1.0
  Cl  Cl81  1  0.40878000  0.58533000  0.87673000  1.0
  Cl  Cl82  1  0.63969000  0.66791000  0.45577000  1.0
  Cl  Cl83  1  0.36029000  0.33207000  0.54420000  1.0
  O  O84  1  0.21403000  0.08221000  0.56725000  1.0
  O  O85  1  0.78595000  0.91781000  0.43279000  1.0
  O  O86  1  0.08238000  0.08102000  0.71011000  1.0
  O  O87  1  0.91761000  0.91905000  0.28992000  1.0
  O  O88  1  0.46148000  0.13567000  0.64985000  1.0
  O  O89  1  0.53849000  0.86432000  0.35014000  1.0
  O  O90  1  0.01731000  0.19431000  0.46131000  1.0
  O  O91  1  0.98270000  0.80574000  0.53872000  1.0
  O  O92  1  0.88423000  0.18749000  0.60174000  1.0
  O  O93  1  0.11575000  0.81255000  0.39825000  1.0
  O  O94  1  0.79604000  0.45476000  0.74252000  1.0
  O  O95  1  0.20394000  0.54526000  0.25746000  1.0
