# generated using pymatgen
data_CuH20C18(N2O3)2
_symmetry_space_group_name_H-M   'P 1'
_cell_length_a   7.70605000
_cell_length_b   7.94788000
_cell_length_c   8.88810000
_cell_angle_alpha   66.63000000
_cell_angle_beta   71.94850000
_cell_angle_gamma   81.91080000
_symmetry_Int_Tables_number   1
_chemical_formula_structural   CuH20C18(N2O3)2
_chemical_formula_sum   'Cu1 H20 C18 N4 O6'
_cell_volume   475.01348642
_cell_formula_units_Z   1
loop_
 _symmetry_equiv_pos_site_id
 _symmetry_equiv_pos_as_xyz
  1  'x, y, z'
loop_
 _atom_site_type_symbol
 _atom_site_label
 _atom_site_symmetry_multiplicity
 _atom_site_fract_x
 _atom_site_fract_y
 _atom_site_fract_z
 _atom_site_occupancy
  Cu  Cu0  1  0.50000000  0.00000000  0.00000000  1.0
  H  H1  1  0.44629000  0.72658000  0.51457000  1.0
  H  H2  1  0.55371000  0.27342000  0.48544000  1.0
  H  H3  1  0.75749000  0.00584000  0.17836000  1.0
  H  H4  1  0.24251000  0.99416000  0.82164000  1.0
  H  H5  1  0.04502000  0.16918000  0.10847000  1.0
  H  H6  1  0.95498000  0.83082000  0.89153000  1.0
  H  H7  1  0.93866000  0.52390000  0.63102000  1.0
  H  H8  1  0.06134000  0.47609000  0.36898000  1.0
  H  H9  1  0.65738000  0.34899000  0.71991000  1.0
  H  H10  1  0.34263000  0.65100000  0.28009000  1.0
  H  H11  1  0.26940000  0.40190000  0.91061000  1.0
  H  H12  1  0.73060000  0.59810000  0.08939000  1.0
  H  H13  1  0.30493000  0.20024000  0.43356000  1.0
  H  H14  1  0.69507000  0.79976000  0.56643000  1.0
  H  H15  1  0.28026000  0.96806000  0.57514000  1.0
  H  H16  1  0.71973000  0.03196000  0.42485000  1.0
  H  H17  1  0.98071000  0.13848000  0.58558000  1.0
  H  H18  1  0.01929000  0.86153000  0.41441000  1.0
  H  H19  1  0.01658000  0.19638000  0.36614000  1.0
  H  H20  1  0.98342000  0.80363000  0.63385000  1.0
  C  C21  1  0.80284000  0.12244000  0.05928000  1.0
  C  C22  1  0.19716000  0.87756000  0.94072000  1.0
  C  C23  1  0.96121000  0.21409000  0.02003000  1.0
  C  C24  1  0.03878000  0.78591000  0.97998000  1.0
  C  C25  1  0.01922000  0.35815000  0.86126000  1.0
  C  C26  1  0.98079000  0.64185000  0.13873000  1.0
  C  C27  1  0.90391000  0.40996000  0.75358000  1.0
  C  C28  1  0.09609000  0.59004000  0.24642000  1.0
  C  C29  1  0.74675000  0.31325000  0.80232000  1.0
  C  C30  1  0.25325000  0.68675000  0.19767000  1.0
  C  C31  1  0.19333000  0.44309000  0.81510000  1.0
  C  C32  1  0.80668000  0.55690000  0.18490000  1.0
  C  C33  1  0.35681000  0.01208000  0.31118000  1.0
  C  C34  1  0.64319000  0.98792000  0.68882000  1.0
  C  C35  1  0.24991000  0.06820000  0.45878000  1.0
  C  C36  1  0.75008000  0.93180000  0.54122000  1.0
  C  C37  1  0.04421000  0.08898000  0.48093000  1.0
  C  C38  1  0.95579000  0.91102000  0.51906000  1.0
  N  N39  1  0.69840000  0.16783000  0.95158000  1.0
  N  N40  1  0.30161000  0.83216000  0.04842000  1.0
  N  N41  1  0.25549000  0.56235000  0.66256000  1.0
  N  N42  1  0.74451000  0.43765000  0.33744000  1.0
  O  O43  1  0.42099000  0.62964000  0.63629000  1.0
  O  O44  1  0.57901000  0.37035000  0.36372000  1.0
  O  O45  1  0.46997000  0.87765000  0.33155000  1.0
  O  O46  1  0.53003000  0.12235000  0.66845000  1.0
  O  O47  1  0.33092000  0.10767000  0.16440000  1.0
  O  O48  1  0.66908000  0.89232000  0.83560000  1.0
