# generated using pymatgen
data_CuH6C6(N2O)4
_symmetry_space_group_name_H-M   'P 1'
_cell_length_a   4.76020000
_cell_length_b   9.42608000
_cell_length_c   11.88300000
_cell_angle_alpha   89.99990000
_cell_angle_beta   89.99990000
_cell_angle_gamma   76.74300000
_symmetry_Int_Tables_number   1
_chemical_formula_structural   CuH6C6(N2O)4
_chemical_formula_sum   'Cu2 H12 C12 N16 O8'
_cell_volume   518.98165781
_cell_formula_units_Z   2
loop_
 _symmetry_equiv_pos_site_id
 _symmetry_equiv_pos_as_xyz
  1  'x, y, z'
loop_
 _atom_site_type_symbol
 _atom_site_label
 _atom_site_symmetry_multiplicity
 _atom_site_fract_x
 _atom_site_fract_y
 _atom_site_fract_z
 _atom_site_occupancy
  Cu  Cu0  1  0.00000000  0.50000000  0.50000000  1.0
  Cu  Cu1  1  0.00000000  0.00000000  0.00000000  1.0
  H  H2  1  0.15703000  0.22781000  0.32639000  1.0
  H  H3  1  0.84297000  0.27219000  0.82639000  1.0
  H  H4  1  0.84296000  0.77220000  0.67361000  1.0
  H  H5  1  0.15703000  0.72780000  0.17361000  1.0
  H  H6  1  0.49917000  0.95298000  0.30837000  1.0
  H  H7  1  0.50084000  0.54702000  0.80837000  1.0
  H  H8  1  0.50082000  0.04702000  0.69163000  1.0
  H  H9  1  0.49917000  0.45298000  0.19163000  1.0
  H  H10  1  0.83906000  0.92435000  0.37786000  1.0
  H  H11  1  0.16094000  0.57565000  0.87785000  1.0
  H  H12  1  0.16093000  0.07565000  0.62214000  1.0
  H  H13  1  0.83906000  0.42435000  0.12215000  1.0
  C  C14  1  0.32401000  0.23086000  0.38886000  1.0
  C  C15  1  0.67599000  0.26914000  0.88886000  1.0
  C  C16  1  0.67599000  0.76914000  0.61114000  1.0
  C  C17  1  0.32402000  0.73086000  0.11114000  1.0
  C  C18  1  0.67810000  0.00312000  0.32961000  1.0
  C  C19  1  0.32190000  0.49688000  0.82961000  1.0
  C  C20  1  0.32189000  0.99688000  0.67039000  1.0
  C  C21  1  0.67811000  0.50312000  0.17039000  1.0
  C  C22  1  0.82006000  0.04443000  0.22153000  1.0
  C  C23  1  0.17994000  0.45557000  0.72153000  1.0
  C  C24  1  0.17994000  0.95557000  0.77847000  1.0
  C  C25  1  0.82006000  0.54443000  0.27847000  1.0
  N  N26  1  0.31929000  0.32846000  0.46993000  1.0
  N  N27  1  0.68071000  0.17154000  0.96993000  1.0
  N  N28  1  0.68071000  0.67154000  0.53007000  1.0
  N  N29  1  0.31929000  0.82846000  0.03007000  1.0
  N  N30  1  0.56604000  0.28555000  0.53093000  1.0
  N  N31  1  0.43396000  0.21445000  0.03093000  1.0
  N  N32  1  0.43396000  0.71445000  0.46907000  1.0
  N  N33  1  0.56605000  0.78555000  0.96907000  1.0
  N  N34  1  0.71964000  0.16546000  0.48951000  1.0
  N  N35  1  0.28036000  0.33454000  0.98951000  1.0
  N  N36  1  0.28036000  0.83455000  0.51049000  1.0
  N  N37  1  0.71965000  0.66546000  0.01049000  1.0
  N  N38  1  0.56958000  0.12914000  0.40069000  1.0
  N  N39  1  0.43042000  0.37086000  0.90069000  1.0
  N  N40  1  0.43041000  0.87086000  0.59931000  1.0
  N  N41  1  0.56959000  0.62914000  0.09931000  1.0
  O  O42  1  0.81582000  0.95460000  0.14037000  1.0
  O  O43  1  0.18418000  0.54540000  0.64036000  1.0
  O  O44  1  0.18418000  0.04540000  0.85964000  1.0
  O  O45  1  0.81582000  0.45460000  0.35964000  1.0
  O  O46  1  0.92843000  0.15250000  0.21975000  1.0
  O  O47  1  0.07156000  0.34751000  0.71975000  1.0
  O  O48  1  0.07157000  0.84751000  0.78025000  1.0
  O  O49  1  0.92843000  0.65250000  0.28025000  1.0
