# generated using pymatgen
data_ZnH15C11Br(NO)2
_symmetry_space_group_name_H-M   'P 1'
_cell_length_a   10.47030000
_cell_length_b   17.74454533
_cell_length_c   17.74550000
_cell_angle_alpha   119.99933891
_cell_angle_beta   90.00000000
_cell_angle_gamma   90.00000000
_symmetry_Int_Tables_number   1
_chemical_formula_structural   ZnH15C11Br(NO)2
_chemical_formula_sum   'Zn6 H90 C66 Br6 N12 O12'
_cell_volume   2855.26069368
_cell_formula_units_Z   6
loop_
 _symmetry_equiv_pos_site_id
 _symmetry_equiv_pos_as_xyz
  1  'x, y, z'
loop_
 _atom_site_type_symbol
 _atom_site_label
 _atom_site_symmetry_multiplicity
 _atom_site_fract_x
 _atom_site_fract_y
 _atom_site_fract_z
 _atom_site_occupancy
  Zn  Zn0  1  0.73347000  0.07515000  0.53111000  1.0
  Zn  Zn1  1  0.56685000  0.53103000  0.45589000  1.0
  Zn  Zn2  1  0.40020000  0.45594000  0.92484000  1.0
  Zn  Zn3  1  0.23347000  0.92485000  0.46889000  1.0
  Zn  Zn4  1  0.06685000  0.46897000  0.54411000  1.0
  Zn  Zn5  1  0.90020000  0.54406000  0.07516000  1.0
  H  H6  1  0.84017000  0.92633000  0.45187000  1.0
  H  H7  1  0.67357000  0.45185000  0.52554000  1.0
  H  H8  1  0.50692000  0.52555000  0.07369000  1.0
  H  H9  1  0.34017000  0.07367000  0.54813000  1.0
  H  H10  1  0.17357000  0.54815000  0.47446000  1.0
  H  H11  1  0.00692000  0.47444000  0.92631000  1.0
  H  H12  1  0.61601000  0.84394000  0.37022000  1.0
  H  H13  1  0.44935000  0.37026000  0.52630000  1.0
  H  H14  1  0.28274000  0.52630000  0.15604000  1.0
  H  H15  1  0.11601000  0.15606000  0.62978000  1.0
  H  H16  1  0.94935000  0.62974000  0.47370000  1.0
  H  H17  1  0.78273000  0.47370000  0.84396000  1.0
  H  H18  1  0.59214000  0.79941000  0.47651000  1.0
  H  H19  1  0.42551000  0.47653000  0.67708000  1.0
  H  H20  1  0.25879000  0.67710000  0.20058000  1.0
  H  H21  1  0.09214000  0.20059000  0.52349000  1.0
  H  H22  1  0.92551000  0.52347000  0.32292000  1.0
  H  H23  1  0.75879000  0.32290000  0.79942000  1.0
  H  H24  1  0.74083000  0.84213000  0.59889000  1.0
  H  H25  1  0.57417000  0.59898000  0.75683000  1.0
  H  H26  1  0.40751000  0.75681000  0.15788000  1.0
  H  H27  1  0.24083000  0.15787000  0.40111000  1.0
  H  H28  1  0.07417000  0.40102000  0.24317000  1.0
  H  H29  1  0.90751000  0.24319000  0.84212000  1.0
  H  H30  1  0.64954000  0.93270000  0.61346000  1.0
  H  H31  1  0.48285000  0.61348000  0.68076000  1.0
  H  H32  1  0.31622000  0.68077000  0.06728000  1.0
  H  H33  1  0.14954000  0.06730000  0.38654000  1.0
  H  H34  1  0.98285000  0.38652000  0.31924000  1.0
  H  H35  1  0.81622000  0.31923000  0.93272000  1.0
  H  H36  1  0.81072000  0.92361000  0.58095000  1.0
  H  H37  1  0.64405000  0.58101000  0.65737000  1.0
  H  H38  1  0.47740000  0.65737000  0.07641000  1.0
  H  H39  1  0.31072000  0.07639000  0.41905000  1.0
  H  H40  1  0.14405000  0.41899000  0.34263000  1.0
  H  H41  1  0.97740000  0.34263000  0.92359000  1.0
  H  H42  1  0.87449000  0.78758000  0.42476000  1.0
  H  H43  1  0.70782000  0.42475000  0.63721000  1.0
  H  H44  1  0.54117000  0.63720000  0.21242000  1.0
  H  H45  1  0.37449000  0.21242000  0.57524000  1.0
  H  H46  1  0.20782000  0.57525000  0.36279000  1.0
  H  H47  1  0.04117000  0.36280000  0.78758000  1.0
  H  H48  1  0.74887000  0.72270000  0.35493000  1.0
  H  H49  1  0.58216000  0.35494000  0.63225000  1.0
  H  H50  1  0.41555000  0.63225000  0.27730000  1.0
  H  H51  1  0.24887000  0.27730000  0.64507000  1.0
  H  H52  1  0.08216000  0.64506000  0.36775000  1.0
  H  H53  1  0.91555000  0.36775000  0.72270000  1.0
  H  H54  1  0.78673000  0.71672000  0.44941000  1.0
  H  H55  1  0.62004000  0.44942000  0.73273000  1.0
  H  H56  1  0.45340000  0.73271000  0.28330000  1.0
  H  H57  1  0.28673000  0.28328000  0.55059000  1.0
  H  H58  1  0.12004000  0.55058000  0.26727000  1.0
  H  H59  1  0.95340000  0.26729000  0.71670000  1.0
  H  H60  1  0.68425000  0.66788000  0.10143000  1.0
  H  H61  1  0.51757000  0.10147000  0.43353000  1.0
  H  H62  1  0.35093000  0.43347000  0.33205000  1.0
  H  H63  1  0.18425000  0.33212000  0.89857000  1.0
  H  H64  1  0.01757000  0.89853000  0.56647000  1.0
  H  H65  1  0.85093000  0.56653000  0.66795000  1.0
  H  H66  1  0.03318000  0.69220000  0.22110000  1.0
  H  H67  1  0.86651000  0.22109000  0.52888000  1.0
  H  H68  1  0.69979000  0.52887000  0.30776000  1.0
  H  H69  1  0.53318000  0.30780000  0.77890000  1.0
  H  H70  1  0.36651000  0.77891000  0.47112000  1.0
  H  H71  1  0.19979000  0.47113000  0.69224000  1.0
  H  H72  1  0.62690000  0.82283000  0.20600000  1.0
  H  H73  1  0.46023000  0.20600000  0.38314000  1.0
  H  H74  1  0.29347000  0.38313000  0.17714000  1.0
  H  H75  1  0.12690000  0.17717000  0.79400000  1.0
  H  H76  1  0.96023000  0.79400000  0.61686000  1.0
  H  H77  1  0.79347000  0.61687000  0.82286000  1.0
  H  H78  1  0.99207000  0.84756000  0.33065000  1.0
  H  H79  1  0.82540000  0.33065000  0.48308000  1.0
  H  H80  1  0.65862000  0.48307000  0.15244000  1.0
  H  H81  1  0.49207000  0.15244000  0.66935000  1.0
  H  H82  1  0.32540000  0.66935000  0.51692000  1.0
  H  H83  1  0.15862000  0.51693000  0.84756000  1.0
  H  H84  1  0.68295000  0.96157000  0.33519000  1.0
  H  H85  1  0.51634000  0.33523000  0.37362000  1.0
  H  H86  1  0.34966000  0.37365000  0.03840000  1.0
  H  H87  1  0.18295000  0.03843000  0.66481000  1.0
  H  H88  1  0.01634000  0.66477000  0.62638000  1.0
  H  H89  1  0.84967000  0.62635000  0.96160000  1.0
  H  H90  1  0.84887000  0.98375000  0.35864000  1.0
  H  H91  1  0.68227000  0.35867000  0.37487000  1.0
  H  H92  1  0.51557000  0.37490000  0.01626000  1.0
  H  H93  1  0.34887000  0.01625000  0.64136000  1.0
  H  H94  1  0.18227000  0.64133000  0.62513000  1.0
  H  H95  1  0.01557000  0.62510000  0.98374000  1.0
  C  C96  1  0.52938000  0.94596000  0.48190000  1.0
  C  C97  1  0.36276000  0.48194000  0.53593000  1.0
  C  C98  1  0.19604000  0.53595000  0.05402000  1.0
  C  C99  1  0.02938000  0.05404000  0.51810000  1.0
  C  C100  1  0.86276000  0.51806000  0.46407000  1.0
  C  C101  1  0.69604000  0.46405000  0.94598000  1.0
  C  C102  1  0.64738000  0.88904000  0.43749000  1.0
  C  C103  1  0.48078000  0.43752000  0.54847000  1.0
  C  C104  1  0.31410000  0.54848000  0.11095000  1.0
  C  C105  1  0.14738000  0.11096000  0.56251000  1.0
  C  C106  1  0.98078000  0.56248000  0.45153000  1.0
  C  C107  1  0.81410000  0.45153000  0.88906000  1.0
  C  C108  1  0.68187000  0.83228000  0.47787000  1.0
  C  C109  1  0.51527000  0.47791000  0.64562000  1.0
  C  C110  1  0.34853000  0.64562000  0.16771000  1.0
  C  C111  1  0.18187000  0.16772000  0.52213000  1.0
  C  C112  1  0.01527000  0.52209000  0.35438000  1.0
  C  C113  1  0.84853000  0.35438000  0.83229000  1.0
  C  C114  1  0.72331000  0.88591000  0.57295000  1.0
  C  C115  1  0.55667000  0.57305000  0.68712000  1.0
  C  C116  1  0.38999000  0.68709000  0.11409000  1.0
  C  C117  1  0.22331000  0.11409000  0.42705000  1.0
  C  C118  1  0.05667000  0.42695000  0.31288000  1.0
  C  C119  1  0.88999000  0.31291000  0.88591000  1.0
  C  C120  1  0.77885000  0.76117000  0.42334000  1.0
  C  C121  1  0.61218000  0.42335000  0.66221000  1.0
  C  C122  1  0.44553000  0.66219000  0.23883000  1.0
  C  C123  1  0.27885000  0.23883000  0.57666000  1.0
  C  C124  1  0.11218000  0.57665000  0.33779000  1.0
  C  C125  1  0.94553000  0.33781000  0.76117000  1.0
  C  C126  1  0.74907000  0.71051000  0.15343000  1.0
  C  C127  1  0.58242000  0.15346000  0.44289000  1.0
  C  C128  1  0.41578000  0.44281000  0.28941000  1.0
  C  C129  1  0.24907000  0.28949000  0.84657000  1.0
  C  C130  1  0.08242000  0.84654000  0.55711000  1.0
  C  C131  1  0.91578000  0.55719000  0.71059000  1.0
  C  C132  1  0.94411000  0.72385000  0.22110000  1.0
  C  C133  1  0.77745000  0.22109000  0.49722000  1.0
  C  C134  1  0.61072000  0.49723000  0.27613000  1.0
  C  C135  1  0.44411000  0.27615000  0.77890000  1.0
  C  C136  1  0.27745000  0.77891000  0.50278000  1.0
  C  C137  1  0.11072000  0.50277000  0.72387000  1.0
  C  C138  1  0.71823000  0.79677000  0.21211000  1.0
  C  C139  1  0.55161000  0.21210000  0.41527000  1.0
  C  C140  1  0.38481000  0.41529000  0.20320000  1.0
  C  C141  1  0.21823000  0.20323000  0.78789000  1.0
  C  C142  1  0.05161000  0.78791000  0.58474000  1.0
  C  C143  1  0.88481000  0.58471000  0.79680000  1.0
  C  C144  1  0.80380000  0.84783000  0.27895000  1.0
  C  C145  1  0.63720000  0.27893000  0.43103000  1.0
  C  C146  1  0.47038000  0.43111000  0.15216000  1.0
  C  C147  1  0.30380000  0.15217000  0.72105000  1.0
  C  C148  1  0.13720000  0.72107000  0.56897000  1.0
  C  C149  1  0.97037000  0.56889000  0.84785000  1.0
  C  C150  1  0.91992000  0.81024000  0.28163000  1.0
  C  C151  1  0.75327000  0.28161000  0.47134000  1.0
  C  C152  1  0.58645000  0.47140000  0.18977000  1.0
  C  C153  1  0.41992000  0.18976000  0.71837000  1.0
  C  C154  1  0.25327000  0.71839000  0.52866000  1.0
  C  C155  1  0.08645000  0.52860000  0.81023000  1.0
  C  C156  1  0.77135000  0.93846000  0.35034000  1.0
  C  C157  1  0.60476000  0.35036000  0.41185000  1.0
  C  C158  1  0.43805000  0.41191000  0.06154000  1.0
  C  C159  1  0.27135000  0.06154000  0.64966000  1.0
  C  C160  1  0.10476000  0.64964000  0.58815000  1.0
  C  C161  1  0.93805000  0.58809000  0.93846000  1.0
  Br  Br162  1  0.75258000  0.12712000  0.68231000  1.0
  Br  Br163  1  0.58549000  0.68228000  0.55477000  1.0
  Br  Br164  1  0.41908000  0.55497000  0.87264000  1.0
  Br  Br165  1  0.25258000  0.87288000  0.31769000  1.0
  Br  Br166  1  0.08549000  0.31772000  0.44523000  1.0
  Br  Br167  1  0.91908000  0.44503000  0.12736000  1.0
  N  N168  1  0.75439000  0.94276000  0.43561000  1.0
  N  N169  1  0.58780000  0.43561000  0.49285000  1.0
  N  N170  1  0.42113000  0.49288000  0.05723000  1.0
  N  N171  1  0.25439000  0.05724000  0.56439000  1.0
  N  N172  1  0.08780000  0.56439000  0.50715000  1.0
  N  N173  1  0.92113000  0.50712000  0.94277000  1.0
  N  N174  1  0.85928000  0.67401000  0.15840000  1.0
  N  N175  1  0.69259000  0.15839000  0.48436000  1.0
  N  N176  1  0.52594000  0.48429000  0.32594000  1.0
  N  N177  1  0.35928000  0.32599000  0.84160000  1.0
  N  N178  1  0.19259000  0.84160000  0.51563000  1.0
  N  N179  1  0.02594000  0.51571000  0.67406000  1.0
  O  O180  1  0.53435000  0.02765000  0.51002000  1.0
  O  O181  1  0.36768000  0.51001000  0.48232000  1.0
  O  O182  1  0.20096000  0.48238000  0.97234000  1.0
  O  O183  1  0.03435000  0.97235000  0.48998000  1.0
  O  O184  1  0.86768000  0.48999000  0.51768000  1.0
  O  O185  1  0.70096000  0.51762000  0.02766000  1.0
  O  O186  1  0.43257000  0.90552000  0.48585000  1.0
  O  O187  1  0.26596000  0.48597000  0.58037000  1.0
  O  O188  1  0.09925000  0.58036000  0.09447000  1.0
  O  O189  1  0.93257000  0.09448000  0.51415000  1.0
  O  O190  1  0.76596000  0.51403000  0.41963000  1.0
  O  O191  1  0.59925000  0.41964000  0.90553000  1.0
