# generated using pymatgen
data_ZnH20C15(NO)4
_symmetry_space_group_name_H-M   'P 1'
_cell_length_a   8.41098000
_cell_length_b   8.48785000
_cell_length_c   15.63295803
_cell_angle_alpha   104.78143661
_cell_angle_beta   94.28755202
_cell_angle_gamma   108.59300000
_symmetry_Int_Tables_number   1
_chemical_formula_structural   ZnH20C15(NO)4
_chemical_formula_sum   'Zn2 H40 C30 N8 O8'
_cell_volume   1007.84953312
_cell_formula_units_Z   2
loop_
 _symmetry_equiv_pos_site_id
 _symmetry_equiv_pos_as_xyz
  1  'x, y, z'
loop_
 _atom_site_type_symbol
 _atom_site_label
 _atom_site_symmetry_multiplicity
 _atom_site_fract_x
 _atom_site_fract_y
 _atom_site_fract_z
 _atom_site_occupancy
  Zn  Zn0  1  0.18767000  0.25063000  0.24679000  1.0
  Zn  Zn1  1  0.81232000  0.74937000  0.75321000  1.0
  H  H2  1  0.34078000  0.87170000  0.27542000  1.0
  H  H3  1  0.65921000  0.12829000  0.72457000  1.0
  H  H4  1  0.36624000  0.74613000  0.17030000  1.0
  H  H5  1  0.63377000  0.25389000  0.82970000  1.0
  H  H6  1  0.61491000  0.86357000  0.34804000  1.0
  H  H7  1  0.38507000  0.13643000  0.65196000  1.0
  H  H8  1  0.63755000  0.73678000  0.24436000  1.0
  H  H9  1  0.36246000  0.26324000  0.75565000  1.0
  H  H10  1  0.63425000  0.98368000  0.17854000  1.0
  H  H11  1  0.36574000  0.01632000  0.82146000  1.0
  H  H12  1  0.63958000  0.11166000  0.28674000  1.0
  H  H13  1  0.36041000  0.88834000  0.71326000  1.0
  H  H14  1  0.46560000  0.15144000  0.13341000  1.0
  H  H15  1  0.53439000  0.84857000  0.86658000  1.0
  H  H16  1  0.36960000  0.86245000  0.97996000  1.0
  H  H17  1  0.63040000  0.13755000  0.02004000  1.0
  H  H18  1  0.93431000  0.89911000  0.08978000  1.0
  H  H19  1  0.06568000  0.10088000  0.91022000  1.0
  H  H20  1  0.05606000  0.69816000  0.87858000  1.0
  H  H21  1  0.94395000  0.30183000  0.12143000  1.0
  H  H22  1  0.88460000  0.67692000  0.93841000  1.0
  H  H23  1  0.11540000  0.32305000  0.06158000  1.0
  H  H24  1  0.95604000  0.40837000  0.89790000  1.0
  H  H25  1  0.04397000  0.59161000  0.10210000  1.0
  H  H26  1  0.16411000  0.52124000  0.95941000  1.0
  H  H27  1  0.83590000  0.47876000  0.04059000  1.0
  H  H28  1  0.24711000  0.05198000  0.39656000  1.0
  H  H29  1  0.75289000  0.94801000  0.60344000  1.0
  H  H30  1  0.55545000  0.20794000  0.52103000  1.0
  H  H31  1  0.44456000  0.79204000  0.47896000  1.0
  H  H32  1  0.56106000  0.49227000  0.33485000  1.0
  H  H33  1  0.43894000  0.50774000  0.66516000  1.0
  H  H34  1  0.76678000  0.54008000  0.55795000  1.0
  H  H35  1  0.23322000  0.45992000  0.44205000  1.0
  H  H36  1  0.79534000  0.62123000  0.46336000  1.0
  H  H37  1  0.20466000  0.37877000  0.53664000  1.0
  H  H38  1  0.92970000  0.40263000  0.39986000  1.0
  H  H39  1  0.07031000  0.59738000  0.60014000  1.0
  H  H40  1  0.88613000  0.31217000  0.49030000  1.0
  H  H41  1  0.11388000  0.68783000  0.50970000  1.0
  C  C42  1  0.30686000  0.60708000  0.26817000  1.0
  C  C43  1  0.69314000  0.39292000  0.73183000  1.0
  C  C44  1  0.39281000  0.77224000  0.24356000  1.0
  C  C45  1  0.60719000  0.22776000  0.75644000  1.0
  C  C46  1  0.58629000  0.83813000  0.27487000  1.0
  C  C47  1  0.41370000  0.16188000  0.72513000  1.0
  C  C48  1  0.67616000  0.00283000  0.25018000  1.0
  C  C49  1  0.32384000  0.99717000  0.74982000  1.0
  C  C50  1  0.86976000  0.06283000  0.26561000  1.0
  C  C51  1  0.13024000  0.93719000  0.73440000  1.0
  C  C52  1  0.34126000  0.05695000  0.10071000  1.0
  C  C53  1  0.65873000  0.94305000  0.89929000  1.0
  C  C54  1  0.29602000  0.91571000  0.02533000  1.0
  C  C55  1  0.70396000  0.08429000  0.97466000  1.0
  C  C56  1  0.06663000  0.93098000  0.08164000  1.0
  C  C57  1  0.93338000  0.06902000  0.91835000  1.0
  C  C58  1  0.01690000  0.68183000  0.94215000  1.0
  C  C59  1  0.98312000  0.31817000  0.05786000  1.0
  C  C60  1  0.03115000  0.51626000  0.95735000  1.0
  C  C61  1  0.96886000  0.48373000  0.04265000  1.0
  C  C62  1  0.35934000  0.16388000  0.40177000  1.0
  C  C63  1  0.64067000  0.83612000  0.59823000  1.0
  C  C64  1  0.50906000  0.23750000  0.46250000  1.0
  C  C65  1  0.49094000  0.76249000  0.53749000  1.0
  C  C66  1  0.51652000  0.39053000  0.36667000  1.0
  C  C67  1  0.48347000  0.60947000  0.63333000  1.0
  C  C68  1  0.77364000  0.50517000  0.48621000  1.0
  C  C69  1  0.22636000  0.49483000  0.51379000  1.0
  C  C70  1  0.91668000  0.43342000  0.47121000  1.0
  C  C71  1  0.08332000  0.56659000  0.52879000  1.0
  N  N72  1  0.19693000  0.06479000  0.13504000  1.0
  N  N73  1  0.80305000  0.93521000  0.86495000  1.0
  N  N74  1  0.12153000  0.83805000  0.01400000  1.0
  N  N75  1  0.87846000  0.16194000  0.98600000  1.0
  N  N76  1  0.36571000  0.26120000  0.34251000  1.0
  N  N77  1  0.63429000  0.73879000  0.65749000  1.0
  N  N78  1  0.60621000  0.38076000  0.43912000  1.0
  N  N79  1  0.39379000  0.61923000  0.56088000  1.0
  O  O80  1  0.29566000  0.46273000  0.20890000  1.0
  O  O81  1  0.70432000  0.53727000  0.79109000  1.0
  O  O82  1  0.25847000  0.61476000  0.34236000  1.0
  O  O83  1  0.74154000  0.38524000  0.65764000  1.0
  O  O84  1  0.94189000  0.20244000  0.24150000  1.0
  O  O85  1  0.05810000  0.79757000  0.75850000  1.0
  O  O86  1  0.94993000  0.98319000  0.29640000  1.0
  O  O87  1  0.05007000  0.01683000  0.70361000  1.0
