# generated using pymatgen
data_NiH12C15NO4
_symmetry_space_group_name_H-M   'P 1'
_cell_length_a   9.51225000
_cell_length_b   18.24470000
_cell_length_c   18.57790000
_cell_angle_alpha   90.00000000
_cell_angle_beta   96.60420000
_cell_angle_gamma   89.99970000
_symmetry_Int_Tables_number   1
_chemical_formula_structural   NiH12C15NO4
_chemical_formula_sum   'Ni4 H48 C60 N4 O16'
_cell_volume   3202.76569263
_cell_formula_units_Z   4
loop_
 _symmetry_equiv_pos_site_id
 _symmetry_equiv_pos_as_xyz
  1  'x, y, z'
loop_
 _atom_site_type_symbol
 _atom_site_label
 _atom_site_symmetry_multiplicity
 _atom_site_fract_x
 _atom_site_fract_y
 _atom_site_fract_z
 _atom_site_occupancy
  Ni  Ni0  1  0.68714000  0.75000000  0.25507000  1.0
  Ni  Ni1  1  0.31286000  0.25000000  0.74493000  1.0
  Ni  Ni2  1  0.43317000  0.75000000  0.25514000  1.0
  Ni  Ni3  1  0.56683000  0.25000000  0.74486000  1.0
  H  H4  1  0.70962000  0.93459000  0.09688000  1.0
  H  H5  1  0.29039000  0.43459000  0.90312000  1.0
  H  H6  1  0.29038000  0.06541000  0.90312000  1.0
  H  H7  1  0.70962000  0.56541000  0.09688000  1.0
  H  H8  1  0.79553000  0.91332000  0.42839000  1.0
  H  H9  1  0.20447000  0.41333000  0.57160000  1.0
  H  H10  1  0.20445000  0.08668000  0.57161000  1.0
  H  H11  1  0.79555000  0.58668000  0.42839000  1.0
  H  H12  1  0.78865000  0.03153000  0.01539000  1.0
  H  H13  1  0.21134000  0.53153000  0.98461000  1.0
  H  H14  1  0.21134000  0.96847000  0.98461000  1.0
  H  H15  1  0.78866000  0.46847000  0.01539000  1.0
  H  H16  1  0.19303000  0.70150000  0.36456000  1.0
  H  H17  1  0.80697000  0.20149000  0.63544000  1.0
  H  H18  1  0.80697000  0.29850000  0.63544000  1.0
  H  H19  1  0.19304000  0.79850000  0.36456000  1.0
  H  H20  1  0.94259000  0.79854000  0.36256000  1.0
  H  H21  1  0.05741000  0.29854000  0.63744000  1.0
  H  H22  1  0.05741000  0.20146000  0.63744000  1.0
  H  H23  1  0.94259000  0.70146000  0.36256000  1.0
  H  H24  1  0.34121000  0.91041000  0.39976000  1.0
  H  H25  1  0.65878000  0.41041000  0.60024000  1.0
  H  H26  1  0.65877000  0.08959000  0.60023000  1.0
  H  H27  1  0.34123000  0.58960000  0.39977000  1.0
  H  H28  1  0.26916000  0.87823000  0.08400000  1.0
  H  H29  1  0.73084000  0.37823000  0.91600000  1.0
  H  H30  1  0.73083000  0.12177000  0.91599000  1.0
  H  H31  1  0.26917000  0.62177000  0.08401000  1.0
  H  H32  1  0.79419000  0.00823000  0.52532000  1.0
  H  H33  1  0.20581000  0.50823000  0.47468000  1.0
  H  H34  1  0.20578000  0.99177000  0.47468000  1.0
  H  H35  1  0.79421000  0.49178000  0.52532000  1.0
  H  H36  1  0.17162000  0.86395000  0.25276000  1.0
  H  H37  1  0.82838000  0.36395000  0.74724000  1.0
  H  H38  1  0.82838000  0.13605000  0.74724000  1.0
  H  H39  1  0.17162000  0.63605000  0.25276000  1.0
  H  H40  1  0.15429000  0.81564000  0.16974000  1.0
  H  H41  1  0.84571000  0.31564000  0.83026000  1.0
  H  H42  1  0.84571000  0.18436000  0.83027000  1.0
  H  H43  1  0.15428000  0.68436000  0.16973000  1.0
  H  H44  1  0.90558000  0.81634000  0.16762000  1.0
  H  H45  1  0.09442000  0.31634000  0.83238000  1.0
  H  H46  1  0.09443000  0.18366000  0.83238000  1.0
  H  H47  1  0.90557000  0.68366000  0.16762000  1.0
  H  H48  1  0.92118000  0.86410000  0.25103000  1.0
  H  H49  1  0.07882000  0.36410000  0.74897000  1.0
  H  H50  1  0.07883000  0.13590000  0.74897000  1.0
  H  H51  1  0.92118000  0.63590000  0.25104000  1.0
  C  C52  1  0.52544000  0.84692000  0.15574000  1.0
  C  C53  1  0.47456000  0.34692000  0.84426000  1.0
  C  C54  1  0.47455000  0.15307000  0.84426000  1.0
  C  C55  1  0.52545000  0.65307000  0.15574000  1.0
  C  C56  1  0.49348000  0.90164000  0.09624000  1.0
  C  C57  1  0.50652000  0.40164000  0.90376000  1.0
  C  C58  1  0.50652000  0.09836000  0.90376000  1.0
  C  C59  1  0.49349000  0.59836000  0.09624000  1.0
  C  C60  1  0.60110000  0.94274000  0.07209000  1.0
  C  C61  1  0.39891000  0.44274000  0.92791000  1.0
  C  C62  1  0.39890000  0.05726000  0.92791000  1.0
  C  C63  1  0.60110000  0.55727000  0.07209000  1.0
  C  C64  1  0.69660000  0.93448000  0.44440000  1.0
  C  C65  1  0.30340000  0.43449000  0.55560000  1.0
  C  C66  1  0.30338000  0.06551000  0.55560000  1.0
  C  C67  1  0.69661000  0.56552000  0.44440000  1.0
  C  C68  1  0.67977000  0.03848000  0.99060000  1.0
  C  C69  1  0.32024000  0.53848000  0.00940000  1.0
  C  C70  1  0.32023000  0.96152000  0.00941000  1.0
  C  C71  1  0.67978000  0.46152000  0.99060000  1.0
  C  C72  1  0.57176000  0.99510000  0.01614000  1.0
  C  C73  1  0.42823000  0.49511000  0.98386000  1.0
  C  C74  1  0.42823000  0.00490000  0.98387000  1.0
  C  C75  1  0.57177000  0.50490000  0.01613000  1.0
  C  C76  1  0.57011000  0.84911000  0.35187000  1.0
  C  C77  1  0.42989000  0.34912000  0.64813000  1.0
  C  C78  1  0.42989000  0.15089000  0.64813000  1.0
  C  C79  1  0.57012000  0.65089000  0.35187000  1.0
  C  C80  1  0.56746000  0.90655000  0.40890000  1.0
  C  C81  1  0.43253000  0.40656000  0.59110000  1.0
  C  C82  1  0.43252000  0.09345000  0.59109000  1.0
  C  C83  1  0.56748000  0.59345000  0.40891000  1.0
  C  C84  1  0.43948000  0.93225000  0.42758000  1.0
  C  C85  1  0.56052000  0.43225000  0.57242000  1.0
  C  C86  1  0.56049000  0.06775000  0.57241000  1.0
  C  C87  1  0.43951000  0.56775000  0.42759000  1.0
  C  C88  1  0.35164000  0.91150000  0.06427000  1.0
  C  C89  1  0.64836000  0.41150000  0.93572000  1.0
  C  C90  1  0.64836000  0.08850000  0.93572000  1.0
  C  C91  1  0.35164000  0.58850000  0.06427000  1.0
  C  C92  1  0.69522000  0.98675000  0.49770000  1.0
  C  C93  1  0.30478000  0.48675000  0.50230000  1.0
  C  C94  1  0.30475000  0.01325000  0.50231000  1.0
  C  C95  1  0.69524000  0.51325000  0.49770000  1.0
  C  C96  1  0.43462000  0.98606000  0.48196000  1.0
  C  C97  1  0.56537000  0.48606000  0.51804000  1.0
  C  C98  1  0.56535000  0.01394000  0.51804000  1.0
  C  C99  1  0.43465000  0.51394000  0.48196000  1.0
  C  C100  1  0.12249000  0.81582000  0.22462000  1.0
  C  C101  1  0.87751000  0.31582000  0.77539000  1.0
  C  C102  1  0.87752000  0.18418000  0.77539000  1.0
  C  C103  1  0.12249000  0.68418000  0.22461000  1.0
  C  C104  1  0.95917000  0.81626000  0.22309000  1.0
  C  C105  1  0.04083000  0.31626000  0.77691000  1.0
  C  C106  1  0.04083000  0.18374000  0.77691000  1.0
  C  C107  1  0.95917000  0.68374000  0.22309000  1.0
  C  C108  1  0.14472000  0.75000000  0.33683000  1.0
  C  C109  1  0.85528000  0.25000000  0.66317000  1.0
  C  C110  1  0.98078000  0.75000000  0.33589000  1.0
  C  C111  1  0.01922000  0.25000000  0.66411000  1.0
  N  N112  1  0.91185000  0.75000000  0.25992000  1.0
  N  N113  1  0.08815000  0.25000000  0.74008000  1.0
  N  N114  1  0.18341000  0.75000000  0.26217000  1.0
  N  N115  1  0.81659000  0.25000000  0.73783000  1.0
  O  O116  1  0.44819000  0.82316000  0.32678000  1.0
  O  O117  1  0.55181000  0.32315000  0.67321000  1.0
  O  O118  1  0.55181000  0.17690000  0.67316000  1.0
  O  O119  1  0.44819000  0.67690000  0.32684000  1.0
  O  O120  1  0.65216000  0.82875000  0.17572000  1.0
  O  O121  1  0.34784000  0.32874000  0.82428000  1.0
  O  O122  1  0.34783000  0.17129000  0.82432000  1.0
  O  O123  1  0.65217000  0.67129000  0.17568000  1.0
  O  O124  1  0.41554000  0.82200000  0.18251000  1.0
  O  O125  1  0.58445000  0.32200000  0.81749000  1.0
  O  O126  1  0.58443000  0.17795000  0.81744000  1.0
  O  O127  1  0.41557000  0.67795000  0.18256000  1.0
  O  O128  1  0.68782000  0.82959000  0.33238000  1.0
  O  O129  1  0.31218000  0.32960000  0.66763000  1.0
  O  O130  1  0.31220000  0.17037000  0.66766000  1.0
  O  O131  1  0.68780000  0.67037000  0.33234000  1.0
