# generated using pymatgen
data_CdH9C7NO7
_symmetry_space_group_name_H-M   'P 1'
_cell_length_a   7.30391000
_cell_length_b   8.27046000
_cell_length_c   10.02470000
_cell_angle_alpha   108.59200000
_cell_angle_beta   104.88100000
_cell_angle_gamma   104.91800000
_symmetry_Int_Tables_number   1
_chemical_formula_structural   CdH9C7NO7
_chemical_formula_sum   'Cd2 H18 C14 N2 O14'
_cell_volume   515.24716217
_cell_formula_units_Z   2
loop_
 _symmetry_equiv_pos_site_id
 _symmetry_equiv_pos_as_xyz
  1  'x, y, z'
loop_
 _atom_site_type_symbol
 _atom_site_label
 _atom_site_symmetry_multiplicity
 _atom_site_fract_x
 _atom_site_fract_y
 _atom_site_fract_z
 _atom_site_occupancy
  Cd  Cd0  1  0.06848000  0.10636000  0.62427000  1.0
  Cd  Cd1  1  0.94466000  0.48219000  0.37584000  1.0
  H  H2  1  0.22062000  0.81457000  0.95209000  1.0
  H  H3  1  0.76924000  0.86258000  0.04805000  1.0
  H  H4  1  0.44476000  0.55641000  0.23597000  1.0
  H  H5  1  0.70758000  0.31970000  0.76378000  1.0
  H  H6  1  0.33038000  0.27154000  0.00216000  1.0
  H  H7  1  0.82747000  0.26891000  0.99758000  1.0
  H  H8  1  0.38505000  0.06377000  0.49266000  1.0
  H  H9  1  0.39231000  0.57117000  0.50737000  1.0
  H  H10  1  0.43444000  0.28188000  0.58682000  1.0
  H  H11  1  0.34800000  0.69528000  0.41329000  1.0
  H  H12  1  0.64848000  0.97798000  0.54118000  1.0
  H  H13  1  0.60738000  0.43677000  0.45889000  1.0
  H  H14  1  0.72468000  0.93137000  0.68457000  1.0
  H  H15  1  0.54066000  0.24701000  0.31537000  1.0
  H  H16  1  0.37533000  0.01339000  0.75500000  1.0
  H  H17  1  0.12142000  0.25870000  0.24483000  1.0
  H  H18  1  0.18152000  0.86119000  0.74305000  1.0
  H  H19  1  0.93975000  0.11846000  0.25708000  1.0
  C  C20  1  0.08151000  0.50970000  0.68369000  1.0
  C  C21  1  0.89879000  0.82624000  0.31645000  1.0
  C  C22  1  0.18479000  0.53037000  0.84220000  1.0
  C  C23  1  0.84314000  0.68820000  0.15783000  1.0
  C  C24  1  0.24543000  0.69608000  0.96657000  1.0
  C  C25  1  0.77922000  0.72948000  0.03345000  1.0
  C  C26  1  0.33827000  0.70919000  0.11206000  1.0
  C  C27  1  0.72588000  0.59685000  0.88786000  1.0
  C  C28  1  0.37121000  0.55530000  0.12641000  1.0
  C  C29  1  0.74404000  0.42843000  0.87339000  1.0
  C  C30  1  0.30719000  0.39461000  0.99611000  1.0
  C  C31  1  0.81071000  0.39819000  0.00373000  1.0
  C  C32  1  0.39890000  0.88895000  0.24616000  1.0
  C  C33  1  0.65216000  0.64242000  0.75379000  1.0
  N  N34  1  0.21464000  0.38170000  0.85695000  1.0
  N  N35  1  0.85788000  0.52464000  0.14300000  1.0
  O  O36  1  0.03126000  0.35688000  0.57265000  1.0
  O  O37  1  0.95943000  0.78448000  0.42749000  1.0
  O  O38  1  0.04725000  0.64464000  0.66391000  1.0
  O  O39  1  0.88452000  0.98105000  0.33625000  1.0
  O  O40  1  0.42722000  0.88459000  0.37715000  1.0
  O  O41  1  0.54933000  0.50713000  0.62291000  1.0
  O  O42  1  0.41132000  0.02875000  0.21939000  1.0
  O  O43  1  0.69133000  0.80898000  0.78053000  1.0
  O  O44  1  0.36323000  0.15467000  0.57412000  1.0
  O  O45  1  0.28935000  0.58078000  0.42597000  1.0
  O  O46  1  0.75632000  0.02619000  0.64245000  1.0
  O  O47  1  0.61440000  0.38392000  0.35763000  1.0
  O  O48  1  0.25543000  0.99754000  0.78280000  1.0
  O  O49  1  0.97385000  0.21506000  0.21728000  1.0
