# generated using pymatgen
data_Ni2H25C34(NO)8
_symmetry_space_group_name_H-M   'P 1'
_cell_length_a   7.74421000
_cell_length_b   13.20080000
_cell_length_c   16.16370000
_cell_angle_alpha   88.05540000
_cell_angle_beta   84.10530000
_cell_angle_gamma   81.00820000
_symmetry_Int_Tables_number   1
_chemical_formula_structural   Ni2H25C34(NO)8
_chemical_formula_sum   'Ni4 H50 C68 N16 O16'
_cell_volume   1623.20538395
_cell_formula_units_Z   2
loop_
 _symmetry_equiv_pos_site_id
 _symmetry_equiv_pos_as_xyz
  1  'x, y, z'
loop_
 _atom_site_type_symbol
 _atom_site_label
 _atom_site_symmetry_multiplicity
 _atom_site_fract_x
 _atom_site_fract_y
 _atom_site_fract_z
 _atom_site_occupancy
  Ni  Ni0  1  0.99840000  0.79514000  0.28303000  1.0
  Ni  Ni1  1  0.00158000  0.20486000  0.71698000  1.0
  Ni  Ni2  1  0.56575000  0.85905000  0.76915000  1.0
  Ni  Ni3  1  0.43426000  0.14096000  0.23084000  1.0
  H  H4  1  0.15667000  0.84220000  0.00931000  1.0
  H  H5  1  0.84339000  0.15779000  0.99070000  1.0
  H  H6  1  0.97313000  0.95892000  0.77652000  1.0
  H  H7  1  0.02687000  0.04107000  0.22350000  1.0
  H  H8  1  0.60491000  0.93482000  0.99178000  1.0
  H  H9  1  0.39512000  0.06516000  0.00824000  1.0
  H  H10  1  0.31495000  0.80808000  0.53202000  1.0
  H  H11  1  0.68499000  0.19197000  0.46798000  1.0
  H  H12  1  0.53209000  0.89381000  0.28788000  1.0
  H  H13  1  0.46790000  0.10616000  0.71213000  1.0
  H  H14  1  0.82825000  0.89873000  0.49865000  1.0
  H  H15  1  0.17170000  0.10131000  0.50134000  1.0
  H  H16  1  0.85101000  0.67101000  0.42729000  1.0
  H  H17  1  0.14896000  0.32901000  0.57274000  1.0
  H  H18  1  0.69362000  0.72246000  0.18561000  1.0
  H  H19  1  0.30639000  0.27751000  0.81440000  1.0
  H  H20  1  0.49123000  0.58560000  0.27266000  1.0
  H  H21  1  0.50876000  0.41440000  0.72738000  1.0
  H  H22  1  0.82164000  0.45998000  0.45881000  1.0
  H  H23  1  0.17832000  0.54001000  0.54123000  1.0
  H  H24  1  0.31527000  0.63742000  0.42475000  1.0
  H  H25  1  0.68472000  0.36257000  0.57529000  1.0
  H  H26  1  0.11016000  0.55812000  0.33633000  1.0
  H  H27  1  0.88980000  0.44188000  0.66370000  1.0
  H  H28  1  0.31751000  0.42822000  0.22285000  1.0
  H  H29  1  0.68245000  0.57175000  0.77718000  1.0
  H  H30  1  0.25550000  0.73522000  0.12661000  1.0
  H  H31  1  0.74461000  0.26476000  0.87343000  1.0
  H  H32  1  0.55094000  0.39741000  0.12965000  1.0
  H  H33  1  0.44903000  0.60254000  0.87038000  1.0
  H  H34  1  0.29439000  0.66491000  0.00232000  1.0
  H  H35  1  0.70558000  0.33505000  0.99770000  1.0
  H  H36  1  0.95467000  0.74959000  0.68449000  1.0
  H  H37  1  0.04531000  0.25043000  0.31541000  1.0
  H  H38  1  0.15543000  0.60496000  0.77935000  1.0
  H  H39  1  0.84459000  0.39507000  0.22056000  1.0
  H  H40  1  0.67275000  0.71877000  0.91863000  1.0
  H  H41  1  0.32732000  0.28128000  0.08131000  1.0
  H  H42  1  0.84791000  0.67676000  0.03209000  1.0
  H  H43  1  0.15207000  0.32328000  0.96784000  1.0
  H  H44  1  0.09557000  0.44972000  0.85347000  1.0
  H  H45  1  0.90446000  0.55034000  0.14646000  1.0
  H  H46  1  0.92547000  0.95357000  0.36175000  1.0
  H  H47  1  0.07451000  0.04640000  0.63826000  1.0
  H  H48  1  0.80042000  0.96693000  0.28232000  1.0
  H  H49  1  0.19959000  0.03307000  0.71767000  1.0
  H  H50  1  0.52392000  0.02675000  0.85718000  1.0
  H  H51  1  0.47609000  0.97324000  0.14285000  1.0
  H  H52  1  0.67970000  0.02974000  0.77796000  1.0
  H  H53  1  0.32030000  0.97026000  0.22206000  1.0
  C  C54  1  0.83554000  0.86228000  0.10136000  1.0
  C  C55  1  0.16451000  0.13770000  0.89866000  1.0
  C  C56  1  0.87693000  0.88736000  0.00972000  1.0
  C  C57  1  0.12310000  0.11263000  0.99030000  1.0
  C  C58  1  0.04962000  0.87126000  0.97211000  1.0
  C  C59  1  0.95042000  0.12871000  0.02789000  1.0
  C  C60  1  0.08474000  0.89723000  0.88791000  1.0
  C  C61  1  0.91528000  0.10276000  0.11210000  1.0
  C  C62  1  0.26666000  0.88149000  0.84570000  1.0
  C  C63  1  0.73337000  0.11850000  0.15431000  1.0
  C  C64  1  0.94688000  0.93946000  0.84205000  1.0
  C  C65  1  0.05313000  0.06053000  0.15796000  1.0
  C  C66  1  0.77344000  0.95368000  0.87853000  1.0
  C  C67  1  0.22657000  0.04630000  0.12148000  1.0
  C  C68  1  0.73919000  0.92709000  0.96236000  1.0
  C  C69  1  0.26083000  0.07288000  0.03766000  1.0
  C  C70  1  0.58268000  0.84121000  0.61679000  1.0
  C  C71  1  0.41728000  0.15880000  0.38320000  1.0
  C  C72  1  0.57163000  0.85367000  0.52507000  1.0
  C  C73  1  0.42831000  0.14637000  0.47493000  1.0
  C  C74  1  0.42010000  0.83533000  0.49172000  1.0
  C  C75  1  0.57983000  0.16470000  0.50828000  1.0
  C  C76  1  0.40186000  0.85311000  0.40684000  1.0
  C  C77  1  0.59810000  0.14689000  0.59315000  1.0
  C  C78  1  0.23726000  0.83156000  0.37430000  1.0
  C  C79  1  0.76269000  0.16844000  0.62570000  1.0
  C  C80  1  0.53957000  0.88473000  0.35467000  1.0
  C  C81  1  0.46039000  0.11527000  0.64533000  1.0
  C  C82  1  0.69425000  0.89899000  0.38742000  1.0
  C  C83  1  0.30571000  0.10101000  0.61258000  1.0
  C  C84  1  0.70872000  0.88648000  0.47276000  1.0
  C  C85  1  0.29124000  0.11355000  0.52724000  1.0
  C  C86  1  0.78716000  0.66318000  0.37176000  1.0
  C  C87  1  0.21282000  0.33683000  0.62826000  1.0
  C  C88  1  0.70145000  0.68608000  0.24659000  1.0
  C  C89  1  0.29857000  0.31389000  0.75343000  1.0
  C  C90  1  0.59764000  0.62254000  0.28920000  1.0
  C  C91  1  0.40238000  0.37744000  0.71083000  1.0
  C  C92  1  0.57587000  0.55298000  0.43487000  1.0
  C  C93  1  0.42410000  0.44703000  0.56515000  1.0
  C  C94  1  0.68144000  0.47846000  0.47826000  1.0
  C  C95  1  0.31852000  0.52153000  0.52178000  1.0
  C  C96  1  0.39484000  0.57515000  0.45599000  1.0
  C  C97  1  0.60515000  0.42484000  0.54405000  1.0
  C  C98  1  0.17206000  0.57558000  0.27558000  1.0
  C  C99  1  0.82791000  0.42440000  0.72444000  1.0
  C  C100  1  0.27501000  0.51032000  0.21997000  1.0
  C  C101  1  0.72496000  0.48965000  0.78005000  1.0
  C  C102  1  0.24598000  0.67006000  0.16833000  1.0
  C  C103  1  0.75410000  0.32992000  0.83171000  1.0
  C  C104  1  0.41307000  0.53587000  0.07527000  1.0
  C  C105  1  0.58695000  0.46410000  0.92477000  1.0
  C  C106  1  0.52737000  0.44266000  0.07316000  1.0
  C  C107  1  0.47262000  0.55731000  0.92687000  1.0
  C  C108  1  0.38572000  0.59330000  0.00213000  1.0
  C  C109  1  0.61428000  0.40666000  0.99791000  1.0
  C  C110  1  0.92529000  0.71961000  0.74673000  1.0
  C  C111  1  0.07471000  0.28040000  0.25319000  1.0
  C  C112  1  0.02556000  0.64848000  0.79283000  1.0
  C  C113  1  0.97445000  0.35155000  0.20708000  1.0
  C  C114  1  0.77553000  0.70813000  0.86759000  1.0
  C  C115  1  0.22454000  0.29191000  0.13234000  1.0
  C  C116  1  0.96817000  0.57099000  0.93570000  1.0
  C  C117  1  0.03189000  0.42908000  0.06423000  1.0
  C  C118  1  0.91183000  0.59892000  0.01797000  1.0
  C  C119  1  0.08816000  0.40112000  0.98196000  1.0
  C  C120  1  0.05617000  0.47223000  0.91774000  1.0
  C  C121  1  0.94387000  0.52783000  0.08219000  1.0
  N  N122  1  0.63641000  0.98544000  0.82718000  1.0
  N  N123  1  0.36358000  0.01455000  0.17284000  1.0
  N  N124  1  0.84128000  0.91892000  0.33155000  1.0
  N  N125  1  0.15869000  0.08107000  0.66845000  1.0
  N  N126  1  0.81734000  0.71086000  0.29918000  1.0
  N  N127  1  0.18266000  0.28913000  0.70084000  1.0
  N  N128  1  0.65338000  0.60844000  0.36800000  1.0
  N  N129  1  0.34661000  0.39156000  0.63202000  1.0
  N  N130  1  0.15519000  0.67423000  0.24260000  1.0
  N  N131  1  0.84483000  0.32576000  0.75742000  1.0
  N  N132  1  0.32035000  0.57107000  0.15159000  1.0
  N  N133  1  0.67968000  0.42889000  0.84845000  1.0
  N  N134  1  0.76943000  0.75508000  0.79387000  1.0
  N  N135  1  0.23060000  0.24496000  0.20607000  1.0
  N  N136  1  0.92945000  0.64185000  0.86976000  1.0
  N  N137  1  0.07062000  0.35820000  0.13016000  1.0
  O  O138  1  0.96620000  0.83271000  0.14281000  1.0
  O  O139  1  0.03385000  0.16721000  0.85719000  1.0
  O  O140  1  0.67446000  0.87054000  0.12927000  1.0
  O  O141  1  0.32560000  0.12948000  0.87078000  1.0
  O  O142  1  0.39055000  0.82059000  0.87611000  1.0
  O  O143  1  0.60950000  0.17939000  0.12389000  1.0
  O  O144  1  0.30090000  0.92931000  0.77682000  1.0
  O  O145  1  0.69912000  0.07067000  0.22318000  1.0
  O  O146  1  0.49628000  0.78003000  0.66001000  1.0
  O  O147  1  0.50374000  0.21996000  0.33998000  1.0
  O  O148  1  0.67533000  0.89706000  0.65180000  1.0
  O  O149  1  0.32459000  0.10298000  0.34818000  1.0
  O  O150  1  0.20399000  0.86419000  0.29971000  1.0
  O  O151  1  0.79595000  0.13581000  0.70030000  1.0
  O  O152  1  0.13692000  0.78073000  0.41913000  1.0
  O  O153  1  0.86306000  0.21926000  0.58087000  1.0
