# generated using pymatgen
data_CuH8C12BrN2
_symmetry_space_group_name_H-M   'P 1'
_cell_length_a   3.84005000
_cell_length_b   10.03330000
_cell_length_c   13.73200000
_cell_angle_alpha   104.30800000
_cell_angle_beta   93.91740000
_cell_angle_gamma   96.72250000
_symmetry_Int_Tables_number   1
_chemical_formula_structural   CuH8C12BrN2
_chemical_formula_sum   'Cu2 H16 C24 Br2 N4'
_cell_volume   506.52942096
_cell_formula_units_Z   2
loop_
 _symmetry_equiv_pos_site_id
 _symmetry_equiv_pos_as_xyz
  1  'x, y, z'
loop_
 _atom_site_type_symbol
 _atom_site_label
 _atom_site_symmetry_multiplicity
 _atom_site_fract_x
 _atom_site_fract_y
 _atom_site_fract_z
 _atom_site_occupancy
  Cu  Cu0  1  0.20923000  0.12098000  0.53406000  1.0
  Cu  Cu1  1  0.79079000  0.87902000  0.46594000  1.0
  H  H2  1  0.56904000  0.87444000  0.02346000  1.0
  H  H3  1  0.43093000  0.12557000  0.97654000  1.0
  H  H4  1  0.87743000  0.98921000  0.90506000  1.0
  H  H5  1  0.12256000  0.01079000  0.09494000  1.0
  H  H6  1  0.93388000  0.84658000  0.72954000  1.0
  H  H7  1  0.06613000  0.15343000  0.27046000  1.0
  H  H8  1  0.80869000  0.61902000  0.60259000  1.0
  H  H9  1  0.19135000  0.38097000  0.39742000  1.0
  H  H10  1  0.55140000  0.36883000  0.55637000  1.0
  H  H11  1  0.44864000  0.63117000  0.44364000  1.0
  H  H12  1  0.92435000  0.07622000  0.71035000  1.0
  H  H13  1  0.07564000  0.92377000  0.28965000  1.0
  H  H14  1  0.86337000  0.21154000  0.88694000  1.0
  H  H15  1  0.13662000  0.78845000  0.11306000  1.0
  H  H16  1  0.14090000  0.46022000  0.94478000  1.0
  H  H17  1  0.85908000  0.53978000  0.05522000  1.0
  C  C18  1  0.59388000  0.81475000  0.94653000  1.0
  C  C19  1  0.40608000  0.18525000  0.05347000  1.0
  C  C20  1  0.76694000  0.87989000  0.87999000  1.0
  C  C21  1  0.23303000  0.12012000  0.12000000  1.0
  C  C22  1  0.79713000  0.80208000  0.78362000  1.0
  C  C23  1  0.20285000  0.19792000  0.21638000  1.0
  C  C24  1  0.67223000  0.57349000  0.65631000  1.0
  C  C25  1  0.32780000  0.42650000  0.34369000  1.0
  C  C26  1  0.53065000  0.43662000  0.63072000  1.0
  C  C27  1  0.46940000  0.56337000  0.36928000  1.0
  C  C28  1  0.04115000  0.18479000  0.73822000  1.0
  C  C29  1  0.95884000  0.81521000  0.26178000  1.0
  C  C30  1  0.00886000  0.26028000  0.83668000  1.0
  C  C31  1  0.99114000  0.73972000  0.16332000  1.0
  C  C32  1  0.15630000  0.39821000  0.86861000  1.0
  C  C33  1  0.84368000  0.60179000  0.13139000  1.0
  C  C34  1  0.33051000  0.45969000  0.80058000  1.0
  C  C35  1  0.66948000  0.54031000  0.19941000  1.0
  C  C36  1  0.48218000  0.60458000  0.82793000  1.0
  C  C37  1  0.51780000  0.39543000  0.17207000  1.0
  C  C38  1  0.65177000  0.66058000  0.75487000  1.0
  C  C39  1  0.34823000  0.33942000  0.24513000  1.0
  C  C40  1  0.35452000  0.37692000  0.70147000  1.0
  C  C41  1  0.64549000  0.62308000  0.29853000  1.0
  Br  Br42  1  0.68460000  0.11825000  0.42192000  1.0
  Br  Br43  1  0.31543000  0.88176000  0.57808000  1.0
  N  N44  1  0.45603000  0.68183000  0.92264000  1.0
  N  N45  1  0.54394000  0.31817000  0.07735000  1.0
  N  N46  1  0.21094000  0.23947000  0.67188000  1.0
  N  N47  1  0.78907000  0.76053000  0.32812000  1.0
