# generated using pymatgen
data_HgH12C12S2N4O13
_symmetry_space_group_name_H-M   'P 1'
_cell_length_a   7.50012000
_cell_length_b   7.50011000
_cell_length_c   18.06400000
_cell_angle_alpha   91.61560000
_cell_angle_beta   91.61520000
_cell_angle_gamma   115.35200000
_symmetry_Int_Tables_number   1
_chemical_formula_structural   HgH12C12S2N4O13
_chemical_formula_sum   'Hg2 H24 C24 S4 N8 O26'
_cell_volume   916.99489430
_cell_formula_units_Z   2
loop_
 _symmetry_equiv_pos_site_id
 _symmetry_equiv_pos_as_xyz
  1  'x, y, z'
loop_
 _atom_site_type_symbol
 _atom_site_label
 _atom_site_symmetry_multiplicity
 _atom_site_fract_x
 _atom_site_fract_y
 _atom_site_fract_z
 _atom_site_occupancy
  Hg  Hg0  1  0.95960000  0.04040000  0.25000000  1.0
  Hg  Hg1  1  0.04040000  0.95960000  0.75000000  1.0
  H  H2  1  0.81647000  0.37255000  0.26656000  1.0
  H  H3  1  0.37256000  0.81648000  0.76656000  1.0
  H  H4  1  0.18353000  0.62745000  0.73344000  1.0
  H  H5  1  0.62745000  0.18353000  0.23344000  1.0
  H  H6  1  0.32951000  0.42671000  0.20017000  1.0
  H  H7  1  0.42671000  0.32951000  0.70017000  1.0
  H  H8  1  0.67049000  0.57329000  0.79983000  1.0
  H  H9  1  0.57329000  0.67049000  0.29983000  1.0
  H  H10  1  0.15191000  0.48116000  0.19207000  1.0
  H  H11  1  0.48115000  0.15191000  0.69207000  1.0
  H  H12  1  0.84809000  0.51885000  0.80793000  1.0
  H  H13  1  0.51884000  0.84809000  0.30793000  1.0
  H  H14  1  0.87352000  0.26048000  0.10925000  1.0
  H  H15  1  0.26048000  0.87353000  0.60925000  1.0
  H  H16  1  0.12648000  0.73952000  0.89075000  1.0
  H  H17  1  0.73951000  0.12648000  0.39075000  1.0
  H  H18  1  0.76701000  0.31842000  0.98308000  1.0
  H  H19  1  0.31841000  0.76701000  0.48308000  1.0
  H  H20  1  0.23299000  0.68158000  0.01692000  1.0
  H  H21  1  0.68158000  0.23299000  0.51692000  1.0
  H  H22  1  0.64057000  0.72063000  0.90908000  1.0
  H  H23  1  0.72063000  0.64057000  0.40908000  1.0
  H  H24  1  0.35943000  0.27937000  0.09092000  1.0
  H  H25  1  0.27936000  0.35943000  0.59092000  1.0
  C  C26  1  0.80963000  0.95633000  0.08031000  1.0
  C  C27  1  0.95632000  0.80962000  0.58031000  1.0
  C  C28  1  0.19038000  0.04367000  0.91969000  1.0
  C  C29  1  0.04367000  0.19038000  0.41969000  1.0
  C  C30  1  0.82086000  0.14355000  0.06610000  1.0
  C  C31  1  0.14355000  0.82086000  0.56610000  1.0
  C  C32  1  0.17914000  0.85645000  0.93390000  1.0
  C  C33  1  0.85645000  0.17914000  0.43390000  1.0
  C  C34  1  0.76230000  0.17563000  0.99589000  1.0
  C  C35  1  0.17563000  0.76230000  0.49589000  1.0
  C  C36  1  0.23770000  0.82437000  0.00411000  1.0
  C  C37  1  0.82437000  0.23770000  0.50411000  1.0
  C  C38  1  0.69845000  0.02441000  0.94032000  1.0
  C  C39  1  0.02441000  0.69844000  0.44032000  1.0
  C  C40  1  0.30156000  0.97559000  0.05968000  1.0
  C  C41  1  0.97559000  0.30156000  0.55969000  1.0
  C  C42  1  0.68835000  0.83583000  0.95272000  1.0
  C  C43  1  0.83583000  0.68835000  0.45271000  1.0
  C  C44  1  0.31165000  0.16417000  0.04729000  1.0
  C  C45  1  0.16417000  0.31165000  0.54729000  1.0
  C  C46  1  0.74132000  0.80714000  0.02291000  1.0
  C  C47  1  0.80714000  0.74131000  0.52291000  1.0
  C  C48  1  0.25869000  0.19285000  0.97709000  1.0
  C  C49  1  0.19285000  0.25868000  0.47709000  1.0
  S  S50  1  0.79859000  0.65245000  0.13553000  1.0
  S  S51  1  0.65245000  0.79859000  0.63553000  1.0
  S  S52  1  0.20141000  0.34755000  0.86447000  1.0
  S  S53  1  0.34755000  0.20142000  0.36447000  1.0
  N  N54  1  0.85691000  0.88941000  0.14494000  1.0
  N  N55  1  0.88941000  0.85691000  0.64494000  1.0
  N  N56  1  0.14310000  0.11058000  0.85506000  1.0
  N  N57  1  0.11059000  0.14310000  0.35506000  1.0
  N  N58  1  0.63641000  0.05874000  0.86843000  1.0
  N  N59  1  0.05874000  0.63640000  0.36842000  1.0
  N  N60  1  0.36359000  0.94126000  0.13158000  1.0
  N  N61  1  0.94125000  0.36360000  0.63158000  1.0
  O  O62  1  0.76707000  0.23293000  0.25000000  1.0
  O  O63  1  0.23293000  0.76708000  0.75000000  1.0
  O  O64  1  0.18758000  0.37042000  0.18848000  1.0
  O  O65  1  0.37042000  0.18758000  0.68848000  1.0
  O  O66  1  0.81242000  0.62958000  0.81152000  1.0
  O  O67  1  0.62958000  0.81242000  0.31152000  1.0
  O  O68  1  0.62678000  0.53200000  0.17470000  1.0
  O  O69  1  0.53200000  0.62678000  0.67470000  1.0
  O  O70  1  0.37322000  0.46800000  0.82529000  1.0
  O  O71  1  0.46800000  0.37322000  0.32529000  1.0
  O  O72  1  0.96750000  0.61032000  0.14383000  1.0
  O  O73  1  0.61032000  0.96750000  0.64383000  1.0
  O  O74  1  0.03251000  0.38968000  0.85617000  1.0
  O  O75  1  0.38968000  0.03251000  0.35617000  1.0
  O  O76  1  0.73471000  0.62931000  0.04599000  1.0
  O  O77  1  0.62931000  0.73470000  0.54599000  1.0
  O  O78  1  0.26530000  0.37069000  0.95401000  1.0
  O  O79  1  0.37068000  0.26530000  0.45401000  1.0
  O  O80  1  0.60348000  0.20600000  0.85975000  1.0
  O  O81  1  0.20600000  0.60348000  0.35975000  1.0
  O  O82  1  0.39652000  0.79400000  0.14025000  1.0
  O  O83  1  0.79400000  0.39652000  0.64026000  1.0
  O  O84  1  0.61594000  0.93474000  0.81631000  1.0
  O  O85  1  0.93474000  0.61593000  0.31631000  1.0
  O  O86  1  0.38406000  0.06526000  0.18369000  1.0
  O  O87  1  0.06525000  0.38406000  0.68369000  1.0
