# generated using pymatgen
data_SmP3H54C30(NO6)3
_symmetry_space_group_name_H-M   'P 1'
_cell_length_a   10.13750000
_cell_length_b   10.50520000
_cell_length_c   23.89680000
_cell_angle_alpha   93.31310000
_cell_angle_beta   93.36370000
_cell_angle_gamma   111.77200000
_symmetry_Int_Tables_number   1
_chemical_formula_structural   SmP3H54C30(NO6)3
_chemical_formula_sum   'Sm2 P6 H108 C60 N6 O36'
_cell_volume   2350.61339137
_cell_formula_units_Z   2
loop_
 _symmetry_equiv_pos_site_id
 _symmetry_equiv_pos_as_xyz
  1  'x, y, z'
loop_
 _atom_site_type_symbol
 _atom_site_label
 _atom_site_symmetry_multiplicity
 _atom_site_fract_x
 _atom_site_fract_y
 _atom_site_fract_z
 _atom_site_occupancy
  Sm  Sm0  1  0.09272000  0.32798000  0.73395000  1.0
  Sm  Sm1  1  0.90728000  0.67201000  0.26605000  1.0
  P  P2  1  0.10282000  0.05888000  0.27524000  1.0
  P  P3  1  0.89717000  0.94112000  0.72476000  1.0
  P  P4  1  0.95624000  0.30158000  0.58415000  1.0
  P  P5  1  0.04377000  0.69843000  0.41585000  1.0
  P  P6  1  0.36962000  0.32777000  0.84130000  1.0
  P  P7  1  0.63038000  0.67223000  0.15870000  1.0
  H  H8  1  0.77483000  0.11871000  0.32275000  1.0
  H  H9  1  0.22518000  0.88129000  0.67725000  1.0
  H  H10  1  0.68216000  0.99951000  0.36944000  1.0
  H  H11  1  0.31785000  0.00049000  0.63056000  1.0
  H  H12  1  0.79273000  0.95761000  0.32350000  1.0
  H  H13  1  0.20727000  0.04239000  0.67650000  1.0
  H  H14  1  0.13829000  0.28688000  0.30412000  1.0
  H  H15  1  0.86172000  0.71312000  0.69588000  1.0
  H  H16  1  0.95763000  0.18411000  0.29050000  1.0
  H  H17  1  0.04238000  0.81590000  0.70950000  1.0
  H  H18  1  0.35987000  0.42026000  0.41969000  1.0
  H  H19  1  0.64013000  0.57974000  0.58031000  1.0
  H  H20  1  0.31137000  0.33598000  0.35137000  1.0
  H  H21  1  0.68863000  0.66402000  0.64863000  1.0
  H  H22  1  0.38258000  0.26437000  0.40391000  1.0
  H  H23  1  0.61742000  0.73563000  0.59609000  1.0
  H  H24  1  0.26486000  0.28895000  0.55587000  1.0
  H  H25  1  0.73514000  0.71106000  0.44413000  1.0
  H  H26  1  0.31145000  0.42228000  0.51080000  1.0
  H  H27  1  0.68856000  0.57772000  0.48920000  1.0
  H  H28  1  0.36970000  0.28485000  0.49976000  1.0
  H  H29  1  0.63030000  0.71516000  0.50025000  1.0
  H  H30  1  0.09335000  0.16782000  0.57764000  1.0
  H  H31  1  0.90666000  0.83218000  0.42236000  1.0
  H  H32  1  0.91243000  0.06642000  0.56411000  1.0
  H  H33  1  0.08758000  0.93359000  0.43590000  1.0
  H  H34  1  0.75113000  0.99355000  0.51406000  1.0
  H  H35  1  0.24887000  0.00646000  0.48594000  1.0
  H  H36  1  0.69362000  0.92146000  0.44430000  1.0
  H  H37  1  0.30639000  0.07854000  0.55570000  1.0
  H  H38  1  0.67822000  0.07843000  0.46727000  1.0
  H  H39  1  0.32179000  0.92158000  0.53273000  1.0
  H  H40  1  0.63107000  0.34066000  0.56015000  1.0
  H  H41  1  0.36895000  0.65935000  0.43985000  1.0
  H  H42  1  0.75747000  0.40739000  0.61983000  1.0
  H  H43  1  0.24254000  0.59261000  0.38017000  1.0
  H  H44  1  0.53332000  0.22048000  0.64385000  1.0
  H  H45  1  0.46669000  0.77954000  0.35614000  1.0
  H  H46  1  0.68479000  0.17385000  0.65465000  1.0
  H  H47  1  0.31521000  0.82616000  0.34535000  1.0
  H  H48  1  0.56169000  0.10248000  0.59379000  1.0
  H  H49  1  0.43831000  0.89754000  0.40621000  1.0
  H  H50  1  0.07337000  0.57265000  0.62576000  1.0
  H  H51  1  0.92663000  0.42736000  0.37424000  1.0
  H  H52  1  0.03608000  0.61382000  0.55624000  1.0
  H  H53  1  0.96393000  0.38618000  0.44375000  1.0
  H  H54  1  0.32306000  0.60675000  0.60383000  1.0
  H  H55  1  0.67695000  0.39326000  0.39617000  1.0
  H  H56  1  0.28679000  0.75763000  0.59574000  1.0
  H  H57  1  0.71321000  0.24237000  0.40426000  1.0
  H  H58  1  0.28612000  0.65182000  0.53498000  1.0
  H  H59  1  0.71389000  0.34819000  0.46502000  1.0
  H  H60  1  0.93040000  0.11876000  0.17746000  1.0
  H  H61  1  0.06959000  0.88123000  0.82254000  1.0
  H  H62  1  0.91346000  0.94279000  0.17978000  1.0
  H  H63  1  0.08654000  0.05721000  0.82022000  1.0
  H  H64  1  0.10908000  0.14963000  0.10533000  1.0
  H  H65  1  0.89091000  0.85037000  0.89467000  1.0
  H  H66  1  0.94223000  0.01833000  0.08114000  1.0
  H  H67  1  0.05777000  0.98166000  0.91887000  1.0
  H  H68  1  0.08610000  0.97251000  0.10671000  1.0
  H  H69  1  0.91390000  0.02749000  0.89329000  1.0
  H  H70  1  0.34684000  0.07181000  0.21980000  1.0
  H  H71  1  0.65315000  0.92819000  0.78020000  1.0
  H  H72  1  0.33586000  0.94408000  0.26743000  1.0
  H  H73  1  0.66414000  0.05592000  0.73257000  1.0
  H  H74  1  0.53529000  0.25078000  0.28726000  1.0
  H  H75  1  0.46471000  0.74922000  0.71274000  1.0
  H  H76  1  0.58956000  0.11367000  0.26648000  1.0
  H  H77  1  0.41044000  0.88633000  0.73352000  1.0
  H  H78  1  0.52465000  0.12107000  0.33366000  1.0
  H  H79  1  0.47534000  0.87893000  0.66634000  1.0
  H  H80  1  0.49868000  0.02221000  0.90300000  1.0
  H  H81  1  0.50131000  0.97779000  0.09700000  1.0
  H  H82  1  0.42499000  0.89502000  0.84499000  1.0
  H  H83  1  0.57501000  0.10498000  0.15501000  1.0
  H  H84  1  0.30962000  0.93597000  0.88909000  1.0
  H  H85  1  0.69038000  0.06403000  0.11091000  1.0
  H  H86  1  0.51136000  0.13387000  0.81360000  1.0
  H  H87  1  0.48863000  0.86613000  0.18640000  1.0
  H  H88  1  0.32223000  0.04995000  0.79809000  1.0
  H  H89  1  0.67777000  0.95004000  0.20191000  1.0
  H  H90  1  0.67167000  0.63093000  0.76633000  1.0
  H  H91  1  0.32832000  0.36907000  0.23366000  1.0
  H  H92  1  0.78917000  0.54494000  0.74921000  1.0
  H  H93  1  0.21082000  0.45506000  0.25078000  1.0
  H  H94  1  0.78531000  0.60309000  0.82010000  1.0
  H  H95  1  0.21468000  0.39690000  0.17990000  1.0
  H  H96  1  0.53495000  0.37805000  0.74917000  1.0
  H  H97  1  0.46504000  0.62194000  0.25083000  1.0
  H  H98  1  0.65399000  0.34681000  0.79997000  1.0
  H  H99  1  0.34600000  0.65318000  0.20003000  1.0
  H  H100  1  0.28597000  0.49054000  0.87893000  1.0
  H  H101  1  0.71403000  0.50946000  0.12107000  1.0
  H  H102  1  0.20236000  0.33046000  0.90425000  1.0
  H  H103  1  0.79764000  0.66954000  0.09575000  1.0
  H  H104  1  0.21689000  0.19405000  0.94947000  1.0
  H  H105  1  0.78311000  0.80595000  0.05053000  1.0
  H  H106  1  0.21912000  0.20312000  0.02375000  1.0
  H  H107  1  0.78088000  0.79688000  0.97625000  1.0
  H  H108  1  0.33821000  0.14459000  0.98951000  1.0
  H  H109  1  0.66179000  0.85542000  0.01049000  1.0
  H  H110  1  0.63191000  0.71657000  0.89547000  1.0
  H  H111  1  0.36809000  0.28342000  0.10453000  1.0
  H  H112  1  0.52311000  0.78676000  0.93077000  1.0
  H  H113  1  0.47689000  0.21324000  0.06923000  1.0
  H  H114  1  0.44708000  0.65124000  0.87694000  1.0
  H  H115  1  0.55292000  0.34875000  0.12306000  1.0
  C  C116  1  0.04452000  0.17665000  0.37501000  1.0
  C  C117  1  0.95549000  0.82335000  0.62499000  1.0
  C  C118  1  0.16426000  0.24075000  0.41396000  1.0
  C  C119  1  0.83574000  0.75925000  0.58604000  1.0
  C  C120  1  0.14804000  0.23510000  0.47218000  1.0
  C  C121  1  0.85197000  0.76491000  0.52782000  1.0
  C  C122  1  0.01255000  0.16354000  0.49081000  1.0
  C  C123  1  0.98745000  0.83646000  0.50919000  1.0
  C  C124  1  0.89282000  0.09703000  0.45159000  1.0
  C  C125  1  0.10718000  0.90298000  0.54842000  1.0
  C  C126  1  0.90910000  0.10478000  0.39352000  1.0
  C  C127  1  0.09090000  0.89522000  0.60648000  1.0
  C  C128  1  0.78315000  0.04155000  0.35041000  1.0
  C  C129  1  0.21686000  0.95845000  0.64959000  1.0
  C  C130  1  0.05739000  0.18832000  0.31270000  1.0
  C  C131  1  0.94261000  0.81168000  0.68730000  1.0
  C  C132  1  0.31021000  0.31908000  0.39598000  1.0
  C  C133  1  0.68980000  0.68092000  0.60402000  1.0
  C  C134  1  0.27888000  0.31027000  0.51197000  1.0
  C  C135  1  0.72112000  0.68973000  0.48803000  1.0
  C  C136  1  0.99567000  0.16124000  0.55322000  1.0
  C  C137  1  0.00434000  0.83876000  0.44678000  1.0
  C  C138  1  0.74706000  0.01865000  0.47037000  1.0
  C  C139  1  0.25295000  0.98135000  0.52963000  1.0
  C  C140  1  0.69952000  0.31512000  0.59121000  1.0
  C  C141  1  0.30049000  0.68488000  0.40879000  1.0
  C  C142  1  0.61493000  0.19498000  0.62284000  1.0
  C  C143  1  0.38508000  0.80503000  0.37715000  1.0
  C  C144  1  0.10164000  0.57274000  0.58209000  1.0
  C  C145  1  0.89837000  0.42726000  0.41791000  1.0
  C  C146  1  0.25918000  0.65090000  0.57878000  1.0
  C  C147  1  0.74083000  0.34911000  0.42122000  1.0
  C  C148  1  0.98411000  0.04614000  0.17087000  1.0
  C  C149  1  0.01588000  0.95385000  0.82913000  1.0
  C  C150  1  0.03405000  0.04664000  0.11258000  1.0
  C  C151  1  0.96594000  0.95336000  0.88742000  1.0
  C  C152  1  0.36308000  0.05466000  0.26414000  1.0
  C  C153  1  0.63692000  0.94534000  0.73586000  1.0
  C  C154  1  0.51157000  0.14047000  0.28945000  1.0
  C  C155  1  0.48842000  0.85952000  0.71054000  1.0
  C  C156  1  0.41076000  0.97949000  0.86979000  1.0
  C  C157  1  0.58924000  0.02051000  0.13020000  1.0
  C  C158  1  0.40899000  0.08916000  0.83199000  1.0
  C  C159  1  0.59100000  0.91084000  0.16800000  1.0
  C  C160  1  0.71923000  0.55867000  0.78046000  1.0
  C  C161  1  0.28077000  0.44133000  0.21953000  1.0
  C  C162  1  0.60627000  0.42033000  0.78778000  1.0
  C  C163  1  0.39373000  0.57966000  0.21222000  1.0
  C  C164  1  0.30755000  0.40628000  0.89739000  1.0
  C  C165  1  0.69245000  0.59372000  0.10261000  1.0
  C  C166  1  0.28673000  0.22017000  0.98839000  1.0
  C  C167  1  0.71327000  0.77983000  0.01161000  1.0
  C  C168  1  0.39619000  0.36503000  0.99332000  1.0
  C  C169  1  0.60381000  0.63497000  0.00668000  1.0
  C  C170  1  0.40717000  0.45470000  0.95059000  1.0
  C  C171  1  0.59282000  0.54530000  0.04942000  1.0
  C  C172  1  0.51095000  0.58965000  0.95706000  1.0
  C  C173  1  0.48905000  0.41035000  0.04295000  1.0
  C  C174  1  0.52757000  0.68985000  0.91273000  1.0
  C  C175  1  0.47242000  0.31015000  0.08727000  1.0
  N  N176  1  0.86950000  0.24822000  0.81348000  1.0
  N  N177  1  0.13049000  0.75177000  0.18652000  1.0
  N  N178  1  0.14139000  0.61814000  0.76852000  1.0
  N  N179  1  0.85859000  0.38185000  0.23148000  1.0
  N  N180  1  0.34341000  0.40087000  0.66806000  1.0
  N  N181  1  0.65659000  0.59913000  0.33194000  1.0
  O  O182  1  0.96346000  0.31279000  0.64729000  1.0
  O  O183  1  0.03654000  0.68722000  0.35271000  1.0
  O  O184  1  0.80095000  0.28128000  0.55790000  1.0
  O  O185  1  0.19906000  0.71872000  0.44210000  1.0
  O  O186  1  0.06799000  0.43028000  0.55934000  1.0
  O  O187  1  0.93202000  0.56973000  0.44066000  1.0
  O  O188  1  0.00563000  0.91436000  0.28296000  1.0
  O  O189  1  0.99437000  0.08564000  0.71704000  1.0
  O  O190  1  0.11072000  0.09112000  0.21110000  1.0
  O  O191  1  0.88928000  0.90888000  0.78890000  1.0
  O  O192  1  0.26468000  0.09700000  0.29592000  1.0
  O  O193  1  0.73532000  0.90300000  0.70408000  1.0
  O  O194  1  0.27307000  0.28588000  0.78746000  1.0
  O  O195  1  0.72692000  0.71411000  0.21254000  1.0
  O  O196  1  0.38716000  0.19799000  0.86679000  1.0
  O  O197  1  0.61284000  0.80202000  0.13321000  1.0
  O  O198  1  0.52189000  0.43852000  0.83310000  1.0
  O  O199  1  0.47810000  0.56147000  0.16690000  1.0
  O  O200  1  0.84770000  0.28415000  0.76397000  1.0
  O  O201  1  0.15229000  0.71585000  0.23603000  1.0
  O  O202  1  0.77289000  0.20744000  0.84507000  1.0
  O  O203  1  0.22709000  0.79255000  0.15493000  1.0
  O  O204  1  0.99683000  0.25634000  0.82735000  1.0
  O  O205  1  0.00315000  0.74363000  0.17265000  1.0
  O  O206  1  0.06152000  0.55440000  0.72399000  1.0
  O  O207  1  0.93848000  0.44560000  0.27601000  1.0
  O  O208  1  0.18582000  0.54506000  0.80026000  1.0
  O  O209  1  0.81416000  0.45492000  0.19974000  1.0
  O  O210  1  0.17422000  0.74314000  0.78010000  1.0
  O  O211  1  0.82577000  0.25685000  0.21990000  1.0
  O  O212  1  0.31766000  0.49176000  0.69906000  1.0
  O  O213  1  0.68234000  0.50824000  0.30095000  1.0
  O  O214  1  0.45600000  0.42846000  0.64535000  1.0
  O  O215  1  0.54400000  0.57154000  0.35465000  1.0
  O  O216  1  0.24556000  0.27940000  0.66213000  1.0
  O  O217  1  0.75444000  0.72060000  0.33787000  1.0
