# generated using pymatgen
data_CaH13C8NO8
_symmetry_space_group_name_H-M   'P 1'
_cell_length_a   13.65598798
_cell_length_b   13.65570000
_cell_length_c   13.65640000
_cell_angle_alpha   108.64300000
_cell_angle_beta   108.64723482
_cell_angle_gamma   108.64726262
_symmetry_Int_Tables_number   1
_chemical_formula_structural   CaH13C8NO8
_chemical_formula_sum   'Ca6 H78 C48 N6 O48'
_cell_volume   2018.11638913
_cell_formula_units_Z   6
loop_
 _symmetry_equiv_pos_site_id
 _symmetry_equiv_pos_as_xyz
  1  'x, y, z'
loop_
 _atom_site_type_symbol
 _atom_site_label
 _atom_site_symmetry_multiplicity
 _atom_site_fract_x
 _atom_site_fract_y
 _atom_site_fract_z
 _atom_site_occupancy
  Ca  Ca0  1  0.48999000  0.33687000  0.80019000  1.0
  Ca  Ca1  1  0.33683000  0.80016000  0.48996000  1.0
  Ca  Ca2  1  0.80015000  0.48993000  0.33683000  1.0
  Ca  Ca3  1  0.51001000  0.66314000  0.19981000  1.0
  Ca  Ca4  1  0.66317000  0.19984000  0.51003000  1.0
  Ca  Ca5  1  0.19985000  0.51007000  0.66317000  1.0
  H  H6  1  0.91144000  0.55519000  0.12317000  1.0
  H  H7  1  0.55516000  0.12318000  0.91143000  1.0
  H  H8  1  0.12320000  0.91144000  0.55516000  1.0
  H  H9  1  0.08856000  0.44481000  0.87683000  1.0
  H  H10  1  0.44482000  0.87681000  0.08857000  1.0
  H  H11  1  0.87680000  0.08858000  0.44484000  1.0
  H  H12  1  0.84855000  0.59672000  0.81298000  1.0
  H  H13  1  0.59670000  0.81303000  0.84853000  1.0
  H  H14  1  0.81307000  0.84855000  0.59672000  1.0
  H  H15  1  0.15145000  0.40329000  0.18702000  1.0
  H  H16  1  0.40329000  0.18696000  0.15146000  1.0
  H  H17  1  0.18695000  0.15145000  0.40329000  1.0
  H  H18  1  0.20173000  0.75920000  0.09042000  1.0
  H  H19  1  0.75925000  0.09043000  0.20179000  1.0
  H  H20  1  0.09046000  0.20184000  0.75928000  1.0
  H  H21  1  0.79826000  0.24078000  0.90956000  1.0
  H  H22  1  0.24076000  0.90957000  0.79821000  1.0
  H  H23  1  0.90955000  0.79817000  0.24072000  1.0
  H  H24  1  0.15457000  0.79741000  0.92302000  1.0
  H  H25  1  0.79737000  0.92295000  0.15453000  1.0
  H  H26  1  0.92302000  0.15454000  0.79740000  1.0
  H  H27  1  0.84543000  0.20259000  0.07698000  1.0
  H  H28  1  0.20263000  0.07705000  0.84547000  1.0
  H  H29  1  0.07698000  0.84546000  0.20261000  1.0
  H  H30  1  0.01599000  0.74177000  0.82070000  1.0
  H  H31  1  0.74177000  0.82067000  0.01598000  1.0
  H  H32  1  0.82074000  0.01604000  0.74184000  1.0
  H  H33  1  0.98402000  0.25824000  0.17931000  1.0
  H  H34  1  0.25822000  0.17932000  0.98401000  1.0
  H  H35  1  0.17928000  0.98399000  0.25818000  1.0
  H  H36  1  0.52310000  0.11359000  0.73938000  1.0
  H  H37  1  0.11358000  0.73934000  0.52306000  1.0
  H  H38  1  0.73934000  0.52309000  0.11356000  1.0
  H  H39  1  0.47691000  0.88642000  0.26065000  1.0
  H  H40  1  0.88642000  0.26065000  0.47694000  1.0
  H  H41  1  0.26065000  0.47690000  0.88643000  1.0
  H  H42  1  0.63817000  0.21753000  0.75964000  1.0
  H  H43  1  0.21750000  0.75961000  0.63813000  1.0
  H  H44  1  0.75959000  0.63817000  0.21750000  1.0
  H  H45  1  0.36183000  0.78246000  0.24036000  1.0
  H  H46  1  0.78249000  0.24038000  0.36186000  1.0
  H  H47  1  0.24040000  0.36183000  0.78249000  1.0
  H  H48  1  0.40004000  0.22416000  0.93241000  1.0
  H  H49  1  0.22418000  0.93242000  0.40004000  1.0
  H  H50  1  0.93241000  0.40003000  0.22416000  1.0
  H  H51  1  0.59996000  0.77584000  0.06759000  1.0
  H  H52  1  0.77583000  0.06758000  0.59997000  1.0
  H  H53  1  0.06759000  0.59997000  0.77583000  1.0
  H  H54  1  0.54089000  0.28391000  0.00528000  1.0
  H  H55  1  0.28393000  0.00529000  0.54087000  1.0
  H  H56  1  0.00530000  0.54090000  0.28393000  1.0
  H  H57  1  0.45911000  0.71610000  0.99472000  1.0
  H  H58  1  0.71607000  0.99471000  0.45913000  1.0
  H  H59  1  0.99469000  0.45910000  0.71606000  1.0
  H  H60  1  0.39443000  0.49317000  0.83942000  1.0
  H  H61  1  0.49319000  0.83941000  0.39444000  1.0
  H  H62  1  0.83941000  0.39443000  0.49316000  1.0
  H  H63  1  0.60557000  0.50683000  0.16058000  1.0
  H  H64  1  0.50681000  0.16059000  0.60556000  1.0
  H  H65  1  0.16058000  0.60556000  0.50683000  1.0
  H  H66  1  0.51576000  0.58601000  0.94309000  1.0
  H  H67  1  0.58605000  0.94305000  0.51574000  1.0
  H  H68  1  0.94312000  0.51577000  0.58602000  1.0
  H  H69  1  0.48424000  0.41399000  0.05692000  1.0
  H  H70  1  0.41396000  0.05695000  0.48428000  1.0
  H  H71  1  0.05688000  0.48423000  0.41398000  1.0
  H  H72  1  0.33209000  0.32487000  0.57659000  1.0
  H  H73  1  0.32486000  0.57654000  0.33212000  1.0
  H  H74  1  0.57659000  0.33210000  0.32490000  1.0
  H  H75  1  0.66792000  0.67515000  0.42342000  1.0
  H  H76  1  0.67514000  0.42346000  0.66788000  1.0
  H  H77  1  0.42340000  0.66789000  0.67510000  1.0
  H  H78  1  0.44037000  0.31423000  0.56046000  1.0
  H  H79  1  0.31432000  0.56044000  0.44045000  1.0
  H  H80  1  0.56050000  0.44048000  0.31444000  1.0
  H  H81  1  0.55964000  0.68579000  0.43955000  1.0
  H  H82  1  0.68567000  0.43955000  0.55954000  1.0
  H  H83  1  0.43950000  0.55952000  0.68556000  1.0
  C  C84  1  0.73733000  0.49136000  0.90843000  1.0
  C  C85  1  0.49136000  0.90844000  0.73734000  1.0
  C  C86  1  0.90842000  0.73740000  0.49138000  1.0
  C  C87  1  0.26266000  0.50865000  0.09157000  1.0
  C  C88  1  0.50863000  0.09155000  0.26266000  1.0
  C  C89  1  0.09159000  0.26263000  0.50862000  1.0
  C  C90  1  0.86692000  0.56868000  0.96263000  1.0
  C  C91  1  0.56870000  0.96265000  0.86692000  1.0
  C  C92  1  0.96264000  0.86690000  0.56869000  1.0
  C  C93  1  0.13307000  0.43133000  0.03736000  1.0
  C  C94  1  0.43130000  0.03734000  0.13309000  1.0
  C  C95  1  0.03736000  0.13310000  0.43131000  1.0
  C  C96  1  0.94445000  0.59121000  0.07312000  1.0
  C  C97  1  0.59120000  0.07311000  0.94442000  1.0
  C  C98  1  0.07310000  0.94441000  0.59118000  1.0
  C  C99  1  0.05555000  0.40879000  0.92688000  1.0
  C  C100  1  0.40880000  0.92689000  0.05559000  1.0
  C  C101  1  0.92690000  0.05559000  0.40884000  1.0
  C  C102  1  0.06505000  0.65960000  0.11862000  1.0
  C  C103  1  0.65957000  0.11861000  0.06504000  1.0
  C  C104  1  0.11862000  0.06502000  0.65960000  1.0
  C  C105  1  0.93495000  0.34039000  0.88138000  1.0
  C  C106  1  0.34041000  0.88138000  0.93496000  1.0
  C  C107  1  0.88138000  0.93498000  0.34039000  1.0
  C  C108  1  0.10762000  0.70663000  0.05444000  1.0
  C  C109  1  0.70663000  0.05443000  0.10765000  1.0
  C  C110  1  0.05445000  0.10767000  0.70663000  1.0
  C  C111  1  0.89238000  0.29338000  0.94557000  1.0
  C  C112  1  0.29337000  0.94557000  0.89234000  1.0
  C  C113  1  0.94555000  0.89233000  0.29337000  1.0
  C  C114  1  0.03023000  0.68653000  0.94523000  1.0
  C  C115  1  0.68653000  0.94523000  0.03021000  1.0
  C  C116  1  0.94526000  0.03021000  0.68652000  1.0
  C  C117  1  0.96977000  0.31346000  0.05477000  1.0
  C  C118  1  0.31348000  0.05477000  0.96980000  1.0
  C  C119  1  0.05474000  0.96977000  0.31347000  1.0
  C  C120  1  0.90993000  0.61637000  0.89950000  1.0
  C  C121  1  0.61638000  0.89955000  0.90993000  1.0
  C  C122  1  0.89958000  0.90993000  0.61640000  1.0
  C  C123  1  0.09007000  0.38361000  0.10050000  1.0
  C  C124  1  0.38361000  0.10044000  0.09007000  1.0
  C  C125  1  0.10042000  0.09006000  0.38359000  1.0
  C  C126  1  0.14994000  0.68905000  0.23915000  1.0
  C  C127  1  0.68902000  0.23915000  0.14994000  1.0
  C  C128  1  0.23919000  0.14996000  0.68906000  1.0
  C  C129  1  0.85006000  0.31096000  0.76085000  1.0
  C  C130  1  0.31098000  0.76085000  0.85006000  1.0
  C  C131  1  0.76082000  0.85004000  0.31093000  1.0
  N  N132  1  0.07238000  0.72841000  0.87794000  1.0
  N  N133  1  0.72838000  0.87791000  0.07233000  1.0
  N  N134  1  0.87797000  0.07235000  0.72841000  1.0
  N  N135  1  0.92762000  0.27159000  0.12206000  1.0
  N  N136  1  0.27161000  0.12208000  0.92766000  1.0
  N  N137  1  0.12204000  0.92765000  0.27159000  1.0
  O  O138  1  0.69411000  0.46234000  0.97110000  1.0
  O  O139  1  0.46235000  0.97114000  0.69412000  1.0
  O  O140  1  0.97109000  0.69418000  0.46235000  1.0
  O  O141  1  0.30590000  0.53766000  0.02890000  1.0
  O  O142  1  0.53766000  0.02887000  0.30589000  1.0
  O  O143  1  0.02890000  0.30582000  0.53765000  1.0
  O  O144  1  0.67295000  0.45545000  0.80019000  1.0
  O  O145  1  0.45542000  0.80022000  0.67289000  1.0
  O  O146  1  0.80022000  0.67292000  0.45540000  1.0
  O  O147  1  0.32704000  0.54454000  0.19979000  1.0
  O  O148  1  0.54457000  0.19977000  0.32709000  1.0
  O  O149  1  0.19980000  0.32710000  0.54461000  1.0
  O  O150  1  0.25856000  0.75700000  0.27931000  1.0
  O  O151  1  0.75698000  0.27926000  0.25854000  1.0
  O  O152  1  0.27927000  0.25856000  0.75701000  1.0
  O  O153  1  0.74143000  0.24300000  0.72070000  1.0
  O  O154  1  0.24303000  0.72076000  0.74146000  1.0
  O  O155  1  0.72072000  0.74144000  0.24298000  1.0
  O  O156  1  0.11290000  0.65205000  0.30094000  1.0
  O  O157  1  0.65202000  0.30093000  0.11289000  1.0
  O  O158  1  0.30094000  0.11290000  0.65199000  1.0
  O  O159  1  0.88709000  0.34795000  0.69906000  1.0
  O  O160  1  0.34798000  0.69906000  0.88711000  1.0
  O  O161  1  0.69907000  0.88709000  0.34800000  1.0
  O  O162  1  0.55863000  0.19676000  0.75363000  1.0
  O  O163  1  0.19676000  0.75364000  0.55862000  1.0
  O  O164  1  0.75361000  0.55864000  0.19673000  1.0
  O  O165  1  0.44137000  0.80324000  0.24638000  1.0
  O  O166  1  0.80324000  0.24636000  0.44138000  1.0
  O  O167  1  0.24638000  0.44136000  0.80326000  1.0
  O  O168  1  0.47441000  0.28724000  0.94945000  1.0
  O  O169  1  0.28729000  0.94950000  0.47440000  1.0
  O  O170  1  0.94946000  0.47440000  0.28724000  1.0
  O  O171  1  0.52558000  0.71275000  0.05054000  1.0
  O  O172  1  0.71272000  0.05050000  0.52560000  1.0
  O  O173  1  0.05053000  0.52559000  0.71275000  1.0
  O  O174  1  0.47897000  0.51514000  0.86702000  1.0
  O  O175  1  0.51517000  0.86698000  0.47897000  1.0
  O  O176  1  0.86705000  0.47898000  0.51514000  1.0
  O  O177  1  0.52103000  0.48486000  0.13298000  1.0
  O  O178  1  0.48483000  0.13302000  0.52103000  1.0
  O  O179  1  0.13294000  0.52102000  0.48485000  1.0
  O  O180  1  0.41603000  0.34543000  0.61784000  1.0
  O  O181  1  0.34536000  0.61782000  0.41603000  1.0
  O  O182  1  0.61787000  0.41604000  0.34546000  1.0
  O  O183  1  0.58397000  0.65457000  0.38216000  1.0
  O  O184  1  0.65464000  0.38218000  0.58397000  1.0
  O  O185  1  0.38213000  0.58396000  0.65454000  1.0
