# generated using pymatgen
data_GdP4H20Ru2(CO5)4
_symmetry_space_group_name_H-M   'P 1'
_cell_length_a   9.52331000
_cell_length_b   9.52621000
_cell_length_c   15.54800000
_cell_angle_alpha   92.95650000
_cell_angle_beta   92.95740000
_cell_angle_gamma   99.06840000
_symmetry_Int_Tables_number   1
_chemical_formula_structural   GdP4H20Ru2(CO5)4
_chemical_formula_sum   'Gd2 P8 H40 Ru4 C8 O40'
_cell_volume   1388.49340696
_cell_formula_units_Z   2
loop_
 _symmetry_equiv_pos_site_id
 _symmetry_equiv_pos_as_xyz
  1  'x, y, z'
loop_
 _atom_site_type_symbol
 _atom_site_label
 _atom_site_symmetry_multiplicity
 _atom_site_fract_x
 _atom_site_fract_y
 _atom_site_fract_z
 _atom_site_occupancy
  Gd  Gd0  1  0.99262000  0.00738000  0.74995000  1.0
  Gd  Gd1  1  0.00738000  0.99262000  0.25004000  1.0
  P  P2  1  0.05891000  0.34394000  0.64033000  1.0
  P  P3  1  0.65610000  0.94114000  0.85965000  1.0
  P  P4  1  0.94109000  0.65605000  0.35966000  1.0
  P  P5  1  0.34391000  0.05889000  0.14035000  1.0
  P  P6  1  0.99670000  0.64850000  0.65918000  1.0
  P  P7  1  0.35148000  0.00333000  0.84081000  1.0
  P  P8  1  0.00329000  0.35150000  0.34082000  1.0
  P  P9  1  0.64853000  0.99670000  0.15919000  1.0
  H  H10  1  0.82591000  0.44152000  0.72173000  1.0
  H  H11  1  0.55849000  0.17406000  0.77826000  1.0
  H  H12  1  0.17410000  0.55845000  0.27825000  1.0
  H  H13  1  0.44152000  0.82596000  0.22174000  1.0
  H  H14  1  0.39323000  0.51314000  0.53748000  1.0
  H  H15  1  0.48689000  0.60698000  0.96254000  1.0
  H  H16  1  0.60676000  0.48684000  0.46252000  1.0
  H  H17  1  0.51311000  0.39304000  0.03746000  1.0
  H  H18  1  0.41424000  0.67818000  0.54674000  1.0
  H  H19  1  0.32179000  0.58593000  0.95328000  1.0
  H  H20  1  0.58577000  0.32180000  0.45327000  1.0
  H  H21  1  0.67821000  0.41409000  0.04673000  1.0
  H  H22  1  0.82581000  0.14386000  0.62030000  1.0
  H  H23  1  0.85623000  0.17417000  0.87966000  1.0
  H  H24  1  0.17418000  0.85614000  0.37970000  1.0
  H  H25  1  0.14378000  0.82582000  0.12035000  1.0
  H  H26  1  0.71059000  0.07624000  0.68343000  1.0
  H  H27  1  0.92381000  0.28934000  0.81650000  1.0
  H  H28  1  0.28941000  0.92376000  0.31658000  1.0
  H  H29  1  0.07620000  0.71064000  0.18350000  1.0
  H  H30  1  0.12457000  0.90405000  0.91663000  1.0
  H  H31  1  0.09601000  0.87536000  0.58335000  1.0
  H  H32  1  0.87542000  0.09594000  0.08337000  1.0
  H  H33  1  0.90398000  0.12462000  0.41665000  1.0
  H  H34  1  0.95781000  0.88704000  0.92773000  1.0
  H  H35  1  0.11300000  0.04204000  0.57213000  1.0
  H  H36  1  0.04218000  0.11290000  0.07224000  1.0
  H  H37  1  0.88696000  0.95793000  0.42784000  1.0
  H  H38  1  0.17017000  0.43647000  0.82042000  1.0
  H  H39  1  0.56351000  0.82990000  0.67958000  1.0
  H  H40  1  0.82982000  0.56351000  0.17957000  1.0
  H  H41  1  0.43647000  0.17010000  0.32043000  1.0
  H  H42  1  0.14340000  0.62035000  0.82624000  1.0
  H  H43  1  0.37957000  0.85666000  0.67376000  1.0
  H  H44  1  0.85658000  0.37963000  0.17376000  1.0
  H  H45  1  0.62043000  0.14337000  0.32625000  1.0
  H  H46  1  0.25829000  0.55946000  0.75063000  1.0
  H  H47  1  0.44049000  0.74183000  0.74939000  1.0
  H  H48  1  0.74171000  0.44053000  0.24938000  1.0
  H  H49  1  0.55950000  0.25819000  0.25062000  1.0
  Ru  Ru50  1  0.12143000  0.54193000  0.49750000  1.0
  Ru  Ru51  1  0.45804000  0.87863000  0.00250000  1.0
  Ru  Ru52  1  0.87857000  0.45806000  0.50250000  1.0
  Ru  Ru53  1  0.54197000  0.12141000  0.99751000  1.0
  C  C54  1  0.03432000  0.49272000  0.71695000  1.0
  C  C55  1  0.50727000  0.96572000  0.78304000  1.0
  C  C56  1  0.96569000  0.50727000  0.28304000  1.0
  C  C57  1  0.49273000  0.03430000  0.21697000  1.0
  C  C58  1  0.15956000  0.52979000  0.78331000  1.0
  C  C59  1  0.47017000  0.84052000  0.71669000  1.0
  C  C60  1  0.84044000  0.47019000  0.21669000  1.0
  C  C61  1  0.52983000  0.15950000  0.28331000  1.0
  O  O62  1  0.17915000  0.39879000  0.58058000  1.0
  O  O63  1  0.60124000  0.82094000  0.91941000  1.0
  O  O64  1  0.82085000  0.60120000  0.41941000  1.0
  O  O65  1  0.39878000  0.17909000  0.08060000  1.0
  O  O66  1  0.91288000  0.30557000  0.58514000  1.0
  O  O67  1  0.69451000  0.08710000  0.91486000  1.0
  O  O68  1  0.08712000  0.69442000  0.41485000  1.0
  O  O69  1  0.30549000  0.91293000  0.08514000  1.0
  O  O70  1  0.08956000  0.22108000  0.69118000  1.0
  O  O71  1  0.77893000  0.91047000  0.80876000  1.0
  O  O72  1  0.91044000  0.77891000  0.30881000  1.0
  O  O73  1  0.22107000  0.08955000  0.19124000  1.0
  O  O74  1  0.12122000  0.68961000  0.59808000  1.0
  O  O75  1  0.31031000  0.87886000  0.90191000  1.0
  O  O76  1  0.87878000  0.31037000  0.40192000  1.0
  O  O77  1  0.68969000  0.12118000  0.09810000  1.0
  O  O78  1  0.85467000  0.59348000  0.60444000  1.0
  O  O79  1  0.40650000  0.14531000  0.89557000  1.0
  O  O80  1  0.14533000  0.40651000  0.39556000  1.0
  O  O81  1  0.59351000  0.85472000  0.10444000  1.0
  O  O82  1  0.98432000  0.76750000  0.72422000  1.0
  O  O83  1  0.23250000  0.01572000  0.77575000  1.0
  O  O84  1  0.01567000  0.23248000  0.27578000  1.0
  O  O85  1  0.76751000  0.98429000  0.22426000  1.0
  O  O86  1  0.90766000  0.44426000  0.76306000  1.0
  O  O87  1  0.55571000  0.09234000  0.73693000  1.0
  O  O88  1  0.09234000  0.55570000  0.23693000  1.0
  O  O89  1  0.44428000  0.90768000  0.26308000  1.0
  O  O90  1  0.38090000  0.59716000  0.50585000  1.0
  O  O91  1  0.40285000  0.61931000  0.99416000  1.0
  O  O92  1  0.61911000  0.40283000  0.49415000  1.0
  O  O93  1  0.59716000  0.38073000  0.00585000  1.0
  O  O94  1  0.79844000  0.06095000  0.65526000  1.0
  O  O95  1  0.93912000  0.20153000  0.84467000  1.0
  O  O96  1  0.20156000  0.93904000  0.34474000  1.0
  O  O97  1  0.06090000  0.79846000  0.15534000  1.0
  O  O98  1  0.03717000  0.94372000  0.90215000  1.0
  O  O99  1  0.05635000  0.96276000  0.59780000  1.0
  O  O100  1  0.96282000  0.05626000  0.09785000  1.0
  O  O101  1  0.94365000  0.03722000  0.40221000  1.0
