# generated using pymatgen
data_EuH13C13O9
_symmetry_space_group_name_H-M   'P 1'
_cell_length_a   11.91620000
_cell_length_b   12.36250000
_cell_length_c   12.67880000
_cell_angle_alpha   89.99960000
_cell_angle_beta   99.05480000
_cell_angle_gamma   89.99930000
_symmetry_Int_Tables_number   1
_chemical_formula_structural   EuH13C13O9
_chemical_formula_sum   'Eu4 H52 C52 O36'
_cell_volume   1844.48944218
_cell_formula_units_Z   4
loop_
 _symmetry_equiv_pos_site_id
 _symmetry_equiv_pos_as_xyz
  1  'x, y, z'
loop_
 _atom_site_type_symbol
 _atom_site_label
 _atom_site_symmetry_multiplicity
 _atom_site_fract_x
 _atom_site_fract_y
 _atom_site_fract_z
 _atom_site_occupancy
  Eu  Eu0  1  0.62525000  0.44559000  0.86784000  1.0
  Eu  Eu1  1  0.37475000  0.94559000  0.13216000  1.0
  Eu  Eu2  1  0.36162000  0.22895000  0.81670000  1.0
  Eu  Eu3  1  0.63838000  0.72895000  0.18330000  1.0
  H  H4  1  0.68182000  0.40784000  0.52678000  1.0
  H  H5  1  0.31818000  0.90784000  0.47322000  1.0
  H  H6  1  0.51832000  0.33617000  0.20510000  1.0
  H  H7  1  0.48168000  0.83617000  0.79490000  1.0
  H  H8  1  0.33927000  0.28087000  0.46854000  1.0
  H  H9  1  0.66073000  0.78087000  0.53146000  1.0
  H  H10  1  0.69643000  0.29824000  0.20463000  1.0
  H  H11  1  0.30357000  0.79824000  0.79537000  1.0
  H  H12  1  0.89699000  0.34041000  0.26282000  1.0
  H  H13  1  0.10301000  0.84041000  0.73718000  1.0
  H  H14  1  0.87385000  0.48001000  0.22768000  1.0
  H  H15  1  0.12615000  0.98001000  0.77232000  1.0
  H  H16  1  0.85717000  0.37880000  0.12625000  1.0
  H  H17  1  0.14283000  0.87880000  0.87375000  1.0
  H  H18  1  0.34775000  0.37744000  0.14167000  1.0
  H  H19  1  0.65225000  0.87744000  0.85833000  1.0
  H  H20  1  0.14435000  0.36970000  0.15000000  1.0
  H  H21  1  0.85564000  0.86970000  0.85000000  1.0
  H  H22  1  0.14056000  0.22769000  0.12785000  1.0
  H  H23  1  0.85945000  0.72769000  0.87215000  1.0
  H  H24  1  0.16955000  0.31757000  0.02505000  1.0
  H  H25  1  0.83045000  0.81757000  0.97495000  1.0
  H  H26  1  0.99281000  0.53399000  0.08164000  1.0
  H  H27  1  0.00719000  0.03399000  0.91836000  1.0
  H  H28  1  0.29818000  0.60666000  0.95300000  1.0
  H  H29  1  0.70182000  0.10666000  0.04700000  1.0
  H  H30  1  0.98046000  0.56398000  0.74029000  1.0
  H  H31  1  0.01954000  0.06398000  0.25971000  1.0
  H  H32  1  0.36657000  0.62409000  0.80500000  1.0
  H  H33  1  0.63343000  0.12409000  0.19500000  1.0
  H  H34  1  0.31837000  0.66292000  0.60765000  1.0
  H  H35  1  0.68162000  0.16292000  0.39235000  1.0
  H  H36  1  0.28376000  0.52327000  0.58496000  1.0
  H  H37  1  0.71624000  0.02327000  0.41504000  1.0
  H  H38  1  0.42602000  0.56328000  0.63822000  1.0
  H  H39  1  0.57398000  0.06328000  0.36178000  1.0
  H  H40  1  0.37270000  0.54841000  0.12036000  1.0
  H  H41  1  0.62730000  0.04841000  0.87964000  1.0
  H  H42  1  0.32608000  0.50374000  0.30466000  1.0
  H  H43  1  0.67392000  0.00374000  0.69534000  1.0
  H  H44  1  0.29758000  0.64359000  0.32281000  1.0
  H  H45  1  0.70242000  0.14359000  0.67719000  1.0
  H  H46  1  0.43748000  0.60011000  0.30859000  1.0
  H  H47  1  0.56252000  0.10012000  0.69141000  1.0
  H  H48  1  0.17787000  0.11698000  0.92358000  1.0
  H  H49  1  0.82213000  0.61698000  0.07642000  1.0
  H  H50  1  0.10659000  0.20388000  0.84591000  1.0
  H  H51  1  0.89341000  0.70388000  0.15409000  1.0
  H  H52  1  0.26380000  0.06429000  0.64969000  1.0
  H  H53  1  0.73620000  0.56429000  0.35031000  1.0
  H  H54  1  0.30673000  0.16961000  0.59798000  1.0
  H  H55  1  0.69327000  0.66961000  0.40202000  1.0
  C  C56  1  0.51122000  0.34213000  0.50944000  1.0
  C  C57  1  0.48878000  0.84213000  0.49056000  1.0
  C  C58  1  0.60842000  0.37951000  0.47139000  1.0
  C  C59  1  0.39158000  0.87951000  0.52861000  1.0
  C  C60  1  0.61024000  0.37625000  0.36161000  1.0
  C  C61  1  0.38976000  0.87625000  0.63839000  1.0
  C  C62  1  0.51634000  0.33916000  0.29027000  1.0
  C  C63  1  0.48366000  0.83916000  0.70973000  1.0
  C  C64  1  0.41844000  0.30640000  0.32976000  1.0
  C  C65  1  0.58156000  0.80640000  0.67024000  1.0
  C  C66  1  0.41648000  0.30577000  0.43949000  1.0
  C  C67  1  0.58352000  0.80577000  0.56051000  1.0
  C  C68  1  0.50764000  0.34068000  0.62681000  1.0
  C  C69  1  0.49236000  0.84068000  0.37319000  1.0
  C  C70  1  0.72100000  0.38332000  0.21905000  1.0
  C  C71  1  0.27900000  0.88332000  0.78095000  1.0
  C  C72  1  0.64266000  0.45242000  0.13705000  1.0
  C  C73  1  0.35734000  0.95242000  0.86295000  1.0
  C  C74  1  0.84558000  0.39686000  0.20855000  1.0
  C  C75  1  0.15443000  0.89686000  0.79145000  1.0
  C  C76  1  0.30930000  0.29832000  0.15437000  1.0
  C  C77  1  0.69070000  0.79832000  0.84563000  1.0
  C  C78  1  0.37120000  0.21505000  0.09418000  1.0
  C  C79  1  0.62880000  0.71505000  0.90582000  1.0
  C  C80  1  0.18272000  0.30302000  0.11136000  1.0
  C  C81  1  0.81728000  0.80302000  0.88864000  1.0
  C  C82  1  0.97333000  0.54942000  0.90934000  1.0
  C  C83  1  0.02667000  0.04942000  0.09066000  1.0
  C  C84  1  0.03404000  0.55132000  0.01281000  1.0
  C  C85  1  0.96596000  0.05132000  0.98719000  1.0
  C  C86  1  0.15060000  0.57186000  0.02856000  1.0
  C  C87  1  0.84940000  0.07186000  0.97144000  1.0
  C  C88  1  0.20727000  0.59054000  0.94136000  1.0
  C  C89  1  0.79273000  0.09054000  0.05864000  1.0
  C  C90  1  0.14413000  0.58846000  0.83784000  1.0
  C  C91  1  0.85587000  0.08846000  0.16216000  1.0
  C  C92  1  0.02763000  0.56803000  0.82102000  1.0
  C  C93  1  0.97237000  0.06803000  0.17898000  1.0
  C  C94  1  0.84960000  0.52486000  0.89354000  1.0
  C  C95  1  0.15040000  0.02486000  0.10646000  1.0
  C  C96  1  0.30784000  0.57233000  0.75103000  1.0
  C  C97  1  0.69216000  0.07233000  0.24897000  1.0
  C  C98  1  0.32401000  0.45578000  0.79070000  1.0
  C  C99  1  0.67599000  0.95578000  0.20930000  1.0
  C  C100  1  0.33564000  0.58052000  0.63803000  1.0
  C  C101  1  0.66436000  0.08052000  0.36197000  1.0
  C  C102  1  0.31709000  0.59979000  0.16132000  1.0
  C  C103  1  0.68291000  0.09979000  0.83868000  1.0
  C  C104  1  0.33643000  0.71728000  0.13287000  1.0
  C  C105  1  0.66357000  0.21728000  0.86713000  1.0
  C  C106  1  0.34659000  0.58614000  0.28217000  1.0
  C  C107  1  0.65341000  0.08614000  0.71783000  1.0
  O  O108  1  0.43132000  0.28161000  0.65859000  1.0
  O  O109  1  0.56868000  0.78161000  0.34142000  1.0
  O  O110  1  0.57965000  0.39757000  0.68736000  1.0
  O  O111  1  0.42035000  0.89756000  0.31263000  1.0
  O  O112  1  0.70904000  0.41062000  0.32759000  1.0
  O  O113  1  0.29096000  0.91062000  0.67241000  1.0
  O  O114  1  0.61033000  0.54438000  0.16477000  1.0
  O  O115  1  0.38967000  0.04438000  0.83522000  1.0
  O  O116  1  0.61439000  0.41068000  0.04573000  1.0
  O  O117  1  0.38561000  0.91068000  0.95427000  1.0
  O  O118  1  0.31992000  0.27697000  0.26643000  1.0
  O  O119  1  0.68008000  0.77697000  0.73357000  1.0
  O  O120  1  0.37566000  0.23938000  0.99809000  1.0
  O  O121  1  0.62434000  0.73938000  0.00191000  1.0
  O  O122  1  0.41346000  0.13045000  0.14122000  1.0
  O  O123  1  0.58655000  0.63045000  0.85878000  1.0
  O  O124  1  0.79659000  0.49947000  0.80221000  1.0
  O  O125  1  0.20341000  0.99947000  0.19779000  1.0
  O  O126  1  0.79621000  0.52881000  0.97509000  1.0
  O  O127  1  0.20379000  0.02881000  0.02491000  1.0
  O  O128  1  0.20098000  0.56896000  0.13335000  1.0
  O  O129  1  0.79902000  0.06896000  0.86665000  1.0
  O  O130  1  0.25554000  0.78365000  0.11683000  1.0
  O  O131  1  0.74446000  0.28364000  0.88317000  1.0
  O  O132  1  0.43991000  0.74673000  0.13175000  1.0
  O  O133  1  0.56009000  0.24673000  0.86825000  1.0
  O  O134  1  0.19213000  0.60596000  0.74731000  1.0
  O  O135  1  0.80786000  0.10596000  0.25269000  1.0
  O  O136  1  0.24531000  0.38689000  0.76886000  1.0
  O  O137  1  0.75469000  0.88689000  0.23114000  1.0
  O  O138  1  0.42146000  0.42895000  0.84298000  1.0
  O  O139  1  0.57854000  0.92895000  0.15702000  1.0
  O  O140  1  0.17823000  0.16505000  0.85945000  1.0
  O  O141  1  0.82177000  0.66505000  0.14055000  1.0
  O  O142  1  0.25936000  0.14393000  0.64920000  1.0
  O  O143  1  0.74064000  0.64392000  0.35080000  1.0
