# generated using pymatgen
data_ZnH11C24NCl2O9
_symmetry_space_group_name_H-M   'P 1'
_cell_length_a   14.04200000
_cell_length_b   15.18850000
_cell_length_c   16.98450000
_cell_angle_alpha   87.55770000
_cell_angle_beta   83.62270000
_cell_angle_gamma   89.66840000
_symmetry_Int_Tables_number   1
_chemical_formula_structural   ZnH11C24NCl2O9
_chemical_formula_sum   'Zn2 H22 C48 N2 Cl4 O18'
_cell_volume   3596.71428568
_cell_formula_units_Z   2
loop_
 _symmetry_equiv_pos_site_id
 _symmetry_equiv_pos_as_xyz
  1  'x, y, z'
loop_
 _atom_site_type_symbol
 _atom_site_label
 _atom_site_symmetry_multiplicity
 _atom_site_fract_x
 _atom_site_fract_y
 _atom_site_fract_z
 _atom_site_occupancy
  Zn  Zn0  1  0.39407000  0.50353000  0.49566000  1.0
  Zn  Zn1  1  0.60593000  0.49653000  0.50430000  1.0
  H  H2  1  0.10540000  0.66597000  0.35645000  1.0
  H  H3  1  0.89461000  0.33400000  0.64352000  1.0
  H  H4  1  0.63423000  0.56980000  0.24184000  1.0
  H  H5  1  0.36578000  0.43017000  0.75813000  1.0
  H  H6  1  0.52732000  0.40268000  0.98688000  1.0
  H  H7  1  0.47263000  0.59729000  0.01311000  1.0
  H  H8  1  0.64434000  0.21910000  0.53615000  1.0
  H  H9  1  0.35561000  0.78097000  0.46404000  1.0
  H  H10  1  0.34581000  0.22476000  0.50695000  1.0
  H  H11  1  0.65412000  0.77529000  0.49321000  1.0
  H  H12  1  0.26419000  0.92261000  0.46770000  1.0
  H  H13  1  0.73565000  0.07744000  0.53260000  1.0
  H  H14  1  0.31253000  0.35672000  0.55802000  1.0
  H  H15  1  0.68750000  0.64331000  0.44200000  1.0
  H  H16  1  0.23675000  0.63468000  0.36076000  1.0
  H  H17  1  0.76326000  0.36528000  0.63922000  1.0
  H  H18  1  0.85768000  0.69310000  0.37335000  1.0
  H  H19  1  0.14234000  0.30687000  0.62665000  1.0
  H  H20  1  0.38040000  0.41550000  0.96416000  1.0
  H  H21  1  0.61956000  0.58447000  0.03582000  1.0
  H  H22  1  0.24680000  0.15016000  0.49362000  1.0
  H  H23  1  0.75311000  0.84987000  0.50679000  1.0
  C  C24  1  0.50443000  0.67282000  0.47265000  1.0
  C  C25  1  0.49557000  0.32724000  0.52740000  1.0
  C  C26  1  0.57988000  0.18280000  0.52746000  1.0
  C  C27  1  0.42006000  0.81725000  0.47275000  1.0
  C  C28  1  0.49441000  0.22937000  0.52340000  1.0
  C  C29  1  0.50552000  0.77067000  0.47676000  1.0
  C  C30  1  0.41038000  0.18524000  0.51114000  1.0
  C  C31  1  0.58954000  0.81480000  0.48907000  1.0
  C  C32  1  0.41069000  0.09409000  0.50166000  1.0
  C  C33  1  0.58918000  0.90594000  0.49863000  1.0
  C  C34  1  0.49821000  0.04609000  0.50528000  1.0
  C  C35  1  0.50165000  0.95394000  0.49510000  1.0
  C  C36  1  0.58360000  0.09137000  0.51896000  1.0
  C  C37  1  0.41628000  0.90867000  0.48134000  1.0
  C  C38  1  0.32602000  0.04606000  0.48768000  1.0
  C  C39  1  0.67385000  0.95399000  0.51261000  1.0
  C  C40  1  0.32939000  0.95702000  0.47783000  1.0
  C  C41  1  0.67048000  0.04303000  0.52245000  1.0
  C  C42  1  0.19527000  0.42303000  0.53165000  1.0
  C  C43  1  0.80474000  0.57695000  0.46834000  1.0
  C  C44  1  0.20766000  0.54117000  0.43883000  1.0
  C  C45  1  0.79233000  0.45879000  0.56115000  1.0
  C  C46  1  0.45600000  0.53553000  0.64537000  1.0
  C  C47  1  0.54399000  0.46449000  0.35462000  1.0
  C  C48  1  0.10768000  0.55327000  0.44283000  1.0
  C  C49  1  0.89231000  0.44668000  0.55714000  1.0
  C  C50  1  0.05066000  0.49515000  0.49634000  1.0
  C  C51  1  0.94934000  0.50480000  0.50363000  1.0
  C  C52  1  0.09422000  0.42769000  0.54117000  1.0
  C  C53  1  0.90579000  0.57228000  0.45881000  1.0
  C  C54  1  0.06380000  0.62025000  0.39792000  1.0
  C  C55  1  0.93621000  0.37971000  0.60205000  1.0
  C  C56  1  0.96586000  0.63078000  0.40559000  1.0
  C  C57  1  0.03416000  0.36919000  0.59439000  1.0
  C  C58  1  0.45185000  0.54699000  0.73313000  1.0
  C  C59  1  0.54815000  0.45299000  0.26685000  1.0
  C  C60  1  0.50092000  0.61525000  0.76479000  1.0
  C  C61  1  0.49907000  0.38473000  0.23520000  1.0
  C  C62  1  0.50901000  0.61200000  0.84629000  1.0
  C  C63  1  0.49097000  0.38798000  0.15370000  1.0
  C  C64  1  0.47045000  0.54173000  0.89670000  1.0
  C  C65  1  0.52952000  0.45825000  0.10329000  1.0
  C  C66  1  0.41602000  0.47732000  0.86390000  1.0
  C  C67  1  0.58396000  0.52264000  0.13607000  1.0
  C  C68  1  0.40660000  0.48098000  0.78288000  1.0
  C  C69  1  0.59340000  0.51900000  0.21709000  1.0
  C  C70  1  0.48585000  0.53686000  0.98070000  1.0
  C  C71  1  0.51411000  0.46311000  0.01928000  1.0
  N  N72  1  0.24965000  0.48087000  0.48392000  1.0
  N  N73  1  0.75036000  0.51911000  0.51607000  1.0
  Cl  Cl74  1  0.54936000  0.70172000  0.70470000  1.0
  Cl  Cl75  1  0.45064000  0.29828000  0.29530000  1.0
  Cl  Cl76  1  0.42734000  0.30739000  0.11316000  1.0
  Cl  Cl77  1  0.57263000  0.69258000  0.88684000  1.0
  O  O78  1  0.42383000  0.63527000  0.47830000  1.0
  O  O79  1  0.57618000  0.36475000  0.52164000  1.0
  O  O80  1  0.58487000  0.63100000  0.46546000  1.0
  O  O81  1  0.41513000  0.36909000  0.53460000  1.0
  O  O82  1  0.37822000  0.52598000  0.61534000  1.0
  O  O83  1  0.62176000  0.47412000  0.38464000  1.0
  O  O84  1  0.54049000  0.53182000  0.60993000  1.0
  O  O85  1  0.45950000  0.46815000  0.39005000  1.0
  O  O86  1  0.23847000  0.35854000  0.57143000  1.0
  O  O87  1  0.76155000  0.64144000  0.42856000  1.0
  O  O88  1  0.27072000  0.58991000  0.38951000  1.0
  O  O89  1  0.72928000  0.41006000  0.61047000  1.0
  O  O90  1  0.92819000  0.69615000  0.36194000  1.0
  O  O91  1  0.07182000  0.30381000  0.63805000  1.0
  O  O92  1  0.37060000  0.40991000  0.90838000  1.0
  O  O93  1  0.62938000  0.59005000  0.09159000  1.0
  O  O94  1  0.24015000  0.08784000  0.48410000  1.0
  O  O95  1  0.75972000  0.91221000  0.51629000  1.0
