# generated using pymatgen
data_AgH19C18(NO2)2
_symmetry_space_group_name_H-M   'P 1'
_cell_length_a   8.11668000
_cell_length_b   10.05200000
_cell_length_c   11.63240000
_cell_angle_alpha   115.37000000
_cell_angle_beta   91.91390000
_cell_angle_gamma   103.11400000
_symmetry_Int_Tables_number   1
_chemical_formula_structural   AgH19C18(NO2)2
_chemical_formula_sum   'Ag2 H38 C36 N4 O8'
_cell_volume   825.93064868
_cell_formula_units_Z   2
loop_
 _symmetry_equiv_pos_site_id
 _symmetry_equiv_pos_as_xyz
  1  'x, y, z'
loop_
 _atom_site_type_symbol
 _atom_site_label
 _atom_site_symmetry_multiplicity
 _atom_site_fract_x
 _atom_site_fract_y
 _atom_site_fract_z
 _atom_site_occupancy
  Ag  Ag0  1  0.39524000  0.16128000  0.05894000  1.0
  Ag  Ag1  1  0.60475000  0.83872000  0.94106000  1.0
  H  H2  1  0.22365000  0.82945000  0.87503000  1.0
  H  H3  1  0.77635000  0.17055000  0.12497000  1.0
  H  H4  1  0.00992000  0.60572000  0.87208000  1.0
  H  H5  1  0.99007000  0.39428000  0.12792000  1.0
  H  H6  1  0.90186000  0.91056000  0.23919000  1.0
  H  H7  1  0.09813000  0.08944000  0.76081000  1.0
  H  H8  1  0.12613000  0.11859000  0.23062000  1.0
  H  H9  1  0.87387000  0.88141000  0.76938000  1.0
  H  H10  1  0.53924000  0.26017000  0.86099000  1.0
  H  H11  1  0.46075000  0.73983000  0.13901000  1.0
  H  H12  1  0.74436000  0.48174000  0.85115000  1.0
  H  H13  1  0.25564000  0.51826000  0.14884000  1.0
  H  H14  1  0.84015000  0.69608000  0.26711000  1.0
  H  H15  1  0.15985000  0.30391000  0.73289000  1.0
  H  H16  1  0.62162000  0.47175000  0.25864000  1.0
  H  H17  1  0.37838000  0.52825000  0.74135000  1.0
  H  H18  1  0.27917000  0.04930000  0.38074000  1.0
  H  H19  1  0.72083000  0.95070000  0.61926000  1.0
  H  H20  1  0.33655000  0.87549000  0.33320000  1.0
  H  H21  1  0.66345000  0.12451000  0.66680000  1.0
  H  H22  1  0.57204000  0.19654000  0.49184000  1.0
  H  H23  1  0.42796000  0.80347000  0.50816000  1.0
  H  H24  1  0.80615000  0.06595000  0.47005000  1.0
  H  H25  1  0.19385000  0.93405000  0.52995000  1.0
  H  H26  1  0.65393000  0.88658000  0.38819000  1.0
  H  H27  1  0.34607000  0.11342000  0.61182000  1.0
  H  H28  1  0.17733000  0.65223000  0.40370000  1.0
  H  H29  1  0.82267000  0.34777000  0.59630000  1.0
  H  H30  1  0.00514000  0.48705000  0.32432000  1.0
  H  H31  1  0.99486000  0.51295000  0.67568000  1.0
  H  H32  1  0.24817000  0.55904000  0.56257000  1.0
  H  H33  1  0.75183000  0.44097000  0.43743000  1.0
  H  H34  1  0.95907000  0.27257000  0.39550000  1.0
  H  H35  1  0.04093000  0.72743000  0.60450000  1.0
  H  H36  1  0.10116000  0.29615000  0.52582000  1.0
  H  H37  1  0.89884000  0.70385000  0.47418000  1.0
  H  H38  1  0.45535000  0.27811000  0.36091000  1.0
  H  H39  1  0.54465000  0.72189000  0.63909000  1.0
  C  C40  1  0.15088000  0.84102000  0.95451000  1.0
  C  C41  1  0.84912000  0.15898000  0.04548000  1.0
  C  C42  1  0.03083000  0.71768000  0.95345000  1.0
  C  C43  1  0.96917000  0.28232000  0.04655000  1.0
  C  C44  1  0.94042000  0.73733000  0.05761000  1.0
  C  C45  1  0.05958000  0.26267000  0.94239000  1.0
  C  C46  1  0.97514000  0.88504000  0.15932000  1.0
  C  C47  1  0.02485000  0.11496000  0.84068000  1.0
  C  C48  1  0.09772000  0.00257000  0.15367000  1.0
  C  C49  1  0.90228000  0.99742000  0.84633000  1.0
  C  C50  1  0.61088000  0.35955000  0.94800000  1.0
  C  C51  1  0.38912000  0.64045000  0.05200000  1.0
  C  C52  1  0.72760000  0.48121000  0.94357000  1.0
  C  C53  1  0.27239000  0.51879000  0.05643000  1.0
  C  C54  1  0.81448000  0.60677000  0.05886000  1.0
  C  C55  1  0.18551000  0.39323000  0.94114000  1.0
  C  C56  1  0.77640000  0.60273000  0.17435000  1.0
  C  C57  1  0.22360000  0.39727000  0.82565000  1.0
  C  C58  1  0.65690000  0.47724000  0.17090000  1.0
  C  C59  1  0.34310000  0.52276000  0.82910000  1.0
  C  C60  1  0.58512000  0.08075000  0.29077000  1.0
  C  C61  1  0.41488000  0.91925000  0.70923000  1.0
  C  C62  1  0.36395000  0.99426000  0.40932000  1.0
  C  C63  1  0.63605000  0.00575000  0.59068000  1.0
  C  C64  1  0.55197000  0.07739000  0.41848000  1.0
  C  C65  1  0.44803000  0.92262000  0.58152000  1.0
  C  C66  1  0.67189000  0.00500000  0.46231000  1.0
  C  C67  1  0.32811000  0.99500000  0.53769000  1.0
  C  C68  1  0.29123000  0.40534000  0.38106000  1.0
  C  C69  1  0.70878000  0.59466000  0.61894000  1.0
  C  C70  1  0.08166000  0.56689000  0.41894000  1.0
  C  C71  1  0.91835000  0.43311000  0.58106000  1.0
  C  C72  1  0.16980000  0.47833000  0.46840000  1.0
  C  C73  1  0.83021000  0.52167000  0.53160000  1.0
  C  C74  1  0.03595000  0.35781000  0.48902000  1.0
  C  C75  1  0.96405000  0.64220000  0.51097000  1.0
  N  N76  1  0.18597000  0.98202000  0.05406000  1.0
  N  N77  1  0.81403000  0.01798000  0.94594000  1.0
  N  N78  1  0.57578000  0.35661000  0.05955000  1.0
  N  N79  1  0.42422000  0.64339000  0.94045000  1.0
  O  O80  1  0.63527000  0.97526000  0.20724000  1.0
  O  O81  1  0.36473000  0.02474000  0.79276000  1.0
  O  O82  1  0.55716000  0.19485000  0.27580000  1.0
  O  O83  1  0.44284000  0.80516000  0.72420000  1.0
  O  O84  1  0.30762000  0.40964000  0.27708000  1.0
  O  O85  1  0.69238000  0.59036000  0.72292000  1.0
  O  O86  1  0.37405000  0.33438000  0.42623000  1.0
  O  O87  1  0.62596000  0.66562000  0.57377000  1.0
