# generated using pymatgen
data_Cu2H14C20N4Cl3
_symmetry_space_group_name_H-M   'P 1'
_cell_length_a   8.13003000
_cell_length_b   9.71965000
_cell_length_c   12.25930000
_cell_angle_alpha   78.77530000
_cell_angle_beta   85.89140000
_cell_angle_gamma   88.17610000
_symmetry_Int_Tables_number   1
_chemical_formula_structural   Cu2H14C20N4Cl3
_chemical_formula_sum   'Cu4 H28 C40 N8 Cl6'
_cell_volume   947.61163531
_cell_formula_units_Z   2
loop_
 _symmetry_equiv_pos_site_id
 _symmetry_equiv_pos_as_xyz
  1  'x, y, z'
loop_
 _atom_site_type_symbol
 _atom_site_label
 _atom_site_symmetry_multiplicity
 _atom_site_fract_x
 _atom_site_fract_y
 _atom_site_fract_z
 _atom_site_occupancy
  Cu  Cu0  1  0.55944000  0.36528000  0.64093000  1.0
  Cu  Cu1  1  0.44057000  0.63472000  0.35908000  1.0
  Cu  Cu2  1  0.49055000  0.14877000  0.94951000  1.0
  Cu  Cu3  1  0.50945000  0.85123000  0.05049000  1.0
  H  H4  1  0.56716000  0.58772000  0.97500000  1.0
  H  H5  1  0.43284000  0.41228000  0.02500000  1.0
  H  H6  1  0.27877000  0.74103000  0.81769000  1.0
  H  H7  1  0.72123000  0.25897000  0.18231000  1.0
  H  H8  1  0.97770000  0.38369000  0.80566000  1.0
  H  H9  1  0.02230000  0.61631000  0.19434000  1.0
  H  H10  1  0.78957000  0.47078000  0.87953000  1.0
  H  H11  1  0.21043000  0.52922000  0.12047000  1.0
  H  H12  1  0.52002000  0.08312000  0.56750000  1.0
  H  H13  1  0.47998000  0.91687000  0.43250000  1.0
  H  H14  1  0.01868000  0.96321000  0.67596000  1.0
  H  H15  1  0.98132000  0.03679000  0.32404000  1.0
  H  H16  1  0.77802000  0.93291000  0.66887000  1.0
  H  H17  1  0.22197000  0.06709000  0.33112000  1.0
  H  H18  1  0.97915000  0.18719000  0.74477000  1.0
  H  H19  1  0.02086000  0.81280000  0.25523000  1.0
  H  H20  1  0.50915000  0.83954000  0.75282000  1.0
  H  H21  1  0.49084000  0.16046000  0.24718000  1.0
  H  H22  1  0.29028000  0.90765000  0.58345000  1.0
  H  H23  1  0.70972000  0.09235000  0.41655000  1.0
  H  H24  1  0.10604000  0.81154000  0.91372000  1.0
  H  H25  1  0.89396000  0.18846000  0.08628000  1.0
  H  H26  1  0.87634000  0.53926000  0.55814000  1.0
  H  H27  1  0.12366000  0.46074000  0.44186000  1.0
  H  H28  1  0.97277000  0.77648000  0.57059000  1.0
  H  H29  1  0.02722000  0.22353000  0.42940000  1.0
  H  H30  1  0.86599000  0.91109000  0.00817000  1.0
  H  H31  1  0.13401000  0.08892000  0.99183000  1.0
  C  C32  1  0.54737000  0.64308000  0.69524000  1.0
  C  C33  1  0.45263000  0.35692000  0.30476000  1.0
  C  C34  1  0.68951000  0.63307000  0.95967000  1.0
  C  C35  1  0.31049000  0.36693000  0.04032000  1.0
  C  C36  1  0.38677000  0.58005000  0.73606000  1.0
  C  C37  1  0.61323000  0.41994000  0.26394000  1.0
  C  C38  1  0.25977000  0.64027000  0.79459000  1.0
  C  C39  1  0.74023000  0.35972000  0.20541000  1.0
  C  C40  1  0.97181000  0.63145000  0.88398000  1.0
  C  C41  1  0.02819000  0.36855000  0.11602000  1.0
  C  C42  1  0.10907000  0.57007000  0.82246000  1.0
  C  C43  1  0.89093000  0.42993000  0.17754000  1.0
  C  C44  1  0.22620000  0.38542000  0.73247000  1.0
  C  C45  1  0.77380000  0.61458000  0.26754000  1.0
  C  C46  1  0.09251000  0.44120000  0.78841000  1.0
  C  C47  1  0.90749000  0.55880000  0.21159000  1.0
  C  C48  1  0.81631000  0.56867000  0.90532000  1.0
  C  C49  1  0.18369000  0.43133000  0.09468000  1.0
  C  C50  1  0.39788000  0.10042000  0.60576000  1.0
  C  C51  1  0.60212000  0.89958000  0.39424000  1.0
  C  C52  1  0.11969000  0.03615000  0.66608000  1.0
  C  C53  1  0.88030000  0.96384000  0.33392000  1.0
  C  C54  1  0.74481000  0.82728000  0.66192000  1.0
  C  C55  1  0.25519000  0.17272000  0.33808000  1.0
  C  C56  1  0.09783000  0.16092000  0.70563000  1.0
  C  C57  1  0.90218000  0.83908000  0.29437000  1.0
  C  C58  1  0.23066000  0.25125000  0.69335000  1.0
  C  C59  1  0.76935000  0.74875000  0.30666000  1.0
  C  C60  1  0.59178000  0.77640000  0.70744000  1.0
  C  C61  1  0.40821000  0.22360000  0.29256000  1.0
  C  C62  1  0.27116000  0.00463000  0.61540000  1.0
  C  C63  1  0.72884000  0.99537000  0.38460000  1.0
  C  C64  1  0.98946000  0.75647000  0.92351000  1.0
  C  C65  1  0.01054000  0.24353000  0.07649000  1.0
  C  C66  1  0.79924000  0.61004000  0.59984000  1.0
  C  C67  1  0.20076000  0.38996000  0.40016000  1.0
  C  C68  1  0.85119000  0.74292000  0.60779000  1.0
  C  C69  1  0.14881000  0.25709000  0.39221000  1.0
  C  C70  1  0.85615000  0.81369000  0.97759000  1.0
  C  C71  1  0.14385000  0.18631000  0.02241000  1.0
  N  N72  1  0.36856000  0.45448000  0.70904000  1.0
  N  N73  1  0.63145000  0.54552000  0.29096000  1.0
  N  N74  1  0.70583000  0.75466000  0.99531000  1.0
  N  N75  1  0.29417000  0.24535000  0.00469000  1.0
  N  N76  1  0.65088000  0.56172000  0.64167000  1.0
  N  N77  1  0.34912000  0.43828000  0.35834000  1.0
  N  N78  1  0.37819000  0.22051000  0.64305000  1.0
  N  N79  1  0.62181000  0.77949000  0.35695000  1.0
  Cl  Cl80  1  0.36830000  0.95469000  0.89433000  1.0
  Cl  Cl81  1  0.63171000  0.04531000  0.10567000  1.0
  Cl  Cl82  1  0.68774000  0.24859000  0.82142000  1.0
  Cl  Cl83  1  0.31226000  0.75141000  0.17858000  1.0
  Cl  Cl84  1  0.74967000  0.29183000  0.52127000  1.0
  Cl  Cl85  1  0.25033000  0.70817000  0.47874000  1.0
