# generated using pymatgen
data_CdH10C10N5Cl3O
_symmetry_space_group_name_H-M   'P 1'
_cell_length_a   7.01788000
_cell_length_b   13.79270000
_cell_length_c   15.53970000
_cell_angle_alpha   104.05500000
_cell_angle_beta   89.99990000
_cell_angle_gamma   90.00000000
_symmetry_Int_Tables_number   1
_chemical_formula_structural   CdH10C10N5Cl3O
_chemical_formula_sum   'Cd4 H40 C40 N20 Cl12 O4'
_cell_volume   1459.14288304
_cell_formula_units_Z   4
loop_
 _symmetry_equiv_pos_site_id
 _symmetry_equiv_pos_as_xyz
  1  'x, y, z'
loop_
 _atom_site_type_symbol
 _atom_site_label
 _atom_site_symmetry_multiplicity
 _atom_site_fract_x
 _atom_site_fract_y
 _atom_site_fract_z
 _atom_site_occupancy
  Cd  Cd0  1  0.08724000  0.42202000  0.74956000  1.0
  Cd  Cd1  1  0.58724000  0.57798000  0.25044000  1.0
  Cd  Cd2  1  0.56518000  0.55018000  0.72907000  1.0
  Cd  Cd3  1  0.06518000  0.44982000  0.27093000  1.0
  H  H4  1  0.23246000  0.76172000  0.71081000  1.0
  H  H5  1  0.73246000  0.23828000  0.28919000  1.0
  H  H6  1  0.19633000  0.40799000  0.97083000  1.0
  H  H7  1  0.69633000  0.59201000  0.02917000  1.0
  H  H8  1  0.36039000  0.12596000  0.00631000  1.0
  H  H9  1  0.86039000  0.87404000  0.99369000  1.0
  H  H10  1  0.35180000  0.19831000  0.11771000  1.0
  H  H11  1  0.85180000  0.80169000  0.88229000  1.0
  H  H12  1  0.29811000  0.84300000  0.44526000  1.0
  H  H13  1  0.79811000  0.15700000  0.55474000  1.0
  H  H14  1  0.20789000  0.94412000  0.52773000  1.0
  H  H15  1  0.70789000  0.05588000  0.47227000  1.0
  H  H16  1  0.37247000  0.89707000  0.29144000  1.0
  H  H17  1  0.87247000  0.10293000  0.70856000  1.0
  H  H18  1  0.61883000  0.83220000  0.11311000  1.0
  H  H19  1  0.11883000  0.16780000  0.88689000  1.0
  H  H20  1  0.22403000  0.04571000  0.21999000  1.0
  H  H21  1  0.72402000  0.95429000  0.78000000  1.0
  H  H22  1  0.70810000  0.98632000  0.25569000  1.0
  H  H23  1  0.20809000  0.01368000  0.74432000  1.0
  H  H24  1  0.94499000  0.13332000  0.33961000  1.0
  H  H25  1  0.44499000  0.86668000  0.66039000  1.0
  H  H26  1  0.68805000  0.30379000  0.75232000  1.0
  H  H27  1  0.18805000  0.69621000  0.24768000  1.0
  H  H28  1  0.96598000  0.66313000  0.72922000  1.0
  H  H29  1  0.46598000  0.33687000  0.27078000  1.0
  H  H30  1  0.99026000  0.31998000  0.06737000  1.0
  H  H31  1  0.49026000  0.68002000  0.93263000  1.0
  H  H32  1  0.41932000  0.21086000  0.78041000  1.0
  H  H33  1  0.91931000  0.78914000  0.21959000  1.0
  H  H34  1  0.70877000  0.22756000  0.09922000  1.0
  H  H35  1  0.20877000  0.77244000  0.90078000  1.0
  H  H36  1  0.61760000  0.72125000  0.44450000  1.0
  H  H37  1  0.11760000  0.27875000  0.55550000  1.0
  H  H38  1  0.42657000  0.60894000  0.52364000  1.0
  H  H39  1  0.92657000  0.39106000  0.47636000  1.0
  H  H40  1  0.44838000  0.92362000  0.99318000  1.0
  H  H41  1  0.94838000  0.07638000  0.00683000  1.0
  H  H42  1  0.90376000  0.82390000  0.42133000  1.0
  H  H43  1  0.40376000  0.17610000  0.57867000  1.0
  C  C44  1  0.52863000  0.23056000  0.83174000  1.0
  C  C45  1  0.02863000  0.76944000  0.16826000  1.0
  C  C46  1  0.11549000  0.75523000  0.66336000  1.0
  C  C47  1  0.61549000  0.24477000  0.33664000  1.0
  C  C48  1  0.81589000  0.30972000  0.87483000  1.0
  C  C49  1  0.31589000  0.69028000  0.12517000  1.0
  C  C50  1  0.82072000  0.68639000  0.61852000  1.0
  C  C51  1  0.32072000  0.31362000  0.38148000  1.0
  C  C52  1  0.79796000  0.28591000  0.95676000  1.0
  C  C53  1  0.29796000  0.71409000  0.04324000  1.0
  C  C54  1  0.82378000  0.73284000  0.54816000  1.0
  C  C55  1  0.32378000  0.26717000  0.45184000  1.0
  C  C56  1  0.63565000  0.23221000  0.97394000  1.0
  C  C57  1  0.13565000  0.76779000  0.02606000  1.0
  C  C58  1  0.98416000  0.79128000  0.53693000  1.0
  C  C59  1  0.48417000  0.20872000  0.46307000  1.0
  C  C60  1  0.06263000  0.36973000  0.95066000  1.0
  C  C61  1  0.56262000  0.63027000  0.04934000  1.0
  C  C62  1  0.56193000  0.64403000  0.54614000  1.0
  C  C63  1  0.06193000  0.35597000  0.45386000  1.0
  C  C64  1  0.44272000  0.14895000  0.06774000  1.0
  C  C65  1  0.94272000  0.85105000  0.93226000  1.0
  C  C66  1  0.17619000  0.89422000  0.46271000  1.0
  C  C67  1  0.67619000  0.10578000  0.53728000  1.0
  C  C68  1  0.50331000  0.05914000  0.09720000  1.0
  C  C69  1  0.00331000  0.94086000  0.90281000  1.0
  C  C70  1  0.15877000  0.95135000  0.39382000  1.0
  C  C71  1  0.65876000  0.04864000  0.60617000  1.0
  C  C72  1  0.50273000  0.95873000  0.05878000  1.0
  C  C73  1  0.00274000  0.04127000  0.94123000  1.0
  C  C74  1  0.25743000  0.94837000  0.31733000  1.0
  C  C75  1  0.75743000  0.05163000  0.68267000  1.0
  C  C76  1  0.59021000  0.91097000  0.12108000  1.0
  C  C77  1  0.09020000  0.08904000  0.87893000  1.0
  C  C78  1  0.18183000  0.02648000  0.28091000  1.0
  C  C79  1  0.68182000  0.97352000  0.71909000  1.0
  C  C80  1  0.63939000  0.98506000  0.19301000  1.0
  C  C81  1  0.13938000  0.01495000  0.80699000  1.0
  C  C82  1  0.04271000  0.07218000  0.33779000  1.0
  C  C83  1  0.54270000  0.92781000  0.66221000  1.0
  N  N84  1  0.50338000  0.20684000  0.90790000  1.0
  N  N85  1  0.00338000  0.79316000  0.09210000  1.0
  N  N86  1  0.12818000  0.79968000  0.59759000  1.0
  N  N87  1  0.62818000  0.20032000  0.40241000  1.0
  N  N88  1  0.68104000  0.28042000  0.81112000  1.0
  N  N89  1  0.18104000  0.71958000  0.18889000  1.0
  N  N90  1  0.96666000  0.69930000  0.67752000  1.0
  N  N91  1  0.46666000  0.30070000  0.32248000  1.0
  N  N92  1  0.60800000  0.20602000  0.04993000  1.0
  N  N93  1  0.10800000  0.79398000  0.95007000  1.0
  N  N94  1  0.00339000  0.83760000  0.47154000  1.0
  N  N95  1  0.50339000  0.16239000  0.52846000  1.0
  N  N96  1  0.95920000  0.32474000  0.00314000  1.0
  N  N97  1  0.45920000  0.67526000  0.99686000  1.0
  N  N98  1  0.65420000  0.70530000  0.50422000  1.0
  N  N99  1  0.15420000  0.29470000  0.49578000  1.0
  N  N100  1  0.97942000  0.36167000  0.87140000  1.0
  N  N101  1  0.47942000  0.63833000  0.12860000  1.0
  N  N102  1  0.65927000  0.63121000  0.61694000  1.0
  N  N103  1  0.15927000  0.36879000  0.38306000  1.0
  Cl  Cl104  1  0.16484000  0.23002000  0.67434000  1.0
  Cl  Cl105  1  0.66484000  0.76998000  0.32566000  1.0
  Cl  Cl106  1  0.39927000  0.47092000  0.84586000  1.0
  Cl  Cl107  1  0.89927000  0.52908000  0.15413000  1.0
  Cl  Cl108  1  0.89025000  0.58794000  0.82662000  1.0
  Cl  Cl109  1  0.39025000  0.41206000  0.17338000  1.0
  Cl  Cl110  1  0.75662000  0.38177000  0.65205000  1.0
  Cl  Cl111  1  0.25662000  0.61823000  0.34795000  1.0
  Cl  Cl112  1  0.47220000  0.73721000  0.81799000  1.0
  Cl  Cl113  1  0.97220000  0.26278000  0.18201000  1.0
  Cl  Cl114  1  0.25160000  0.50365000  0.63510000  1.0
  Cl  Cl115  1  0.75160000  0.49636000  0.36490000  1.0
  O  O116  1  0.58706000  0.07621000  0.17993000  1.0
  O  O117  1  0.08706000  0.92379000  0.82007000  1.0
  O  O118  1  0.02656000  0.02765000  0.40763000  1.0
  O  O119  1  0.52656000  0.97235000  0.59237000  1.0
