# generated using pymatgen
data_CsH13(C4O3)3
_symmetry_space_group_name_H-M   'P 1'
_cell_length_a   8.18660000
_cell_length_b   9.68558000
_cell_length_c   9.92962000
_cell_angle_alpha   116.28900000
_cell_angle_beta   95.24830000
_cell_angle_gamma   97.38630000
_symmetry_Int_Tables_number   1
_chemical_formula_structural   CsH13(C4O3)3
_chemical_formula_sum   'Cs2 H26 C24 O18'
_cell_volume   690.22722738
_cell_formula_units_Z   2
loop_
 _symmetry_equiv_pos_site_id
 _symmetry_equiv_pos_as_xyz
  1  'x, y, z'
loop_
 _atom_site_type_symbol
 _atom_site_label
 _atom_site_symmetry_multiplicity
 _atom_site_fract_x
 _atom_site_fract_y
 _atom_site_fract_z
 _atom_site_occupancy
  Cs  Cs0  1  0.76202000  0.45389000  0.18530000  1.0
  Cs  Cs1  1  0.23798000  0.54611000  0.81470000  1.0
  H  H2  1  0.15399000  0.63509000  0.48848000  1.0
  H  H3  1  0.84601000  0.36491000  0.51152000  1.0
  H  H4  1  0.26142000  0.16945000  0.82516000  1.0
  H  H5  1  0.73858000  0.83055000  0.17483000  1.0
  H  H6  1  0.66457000  0.41614000  0.72827000  1.0
  H  H7  1  0.33544000  0.58386000  0.27173000  1.0
  H  H8  1  0.76980000  0.67100000  0.94809000  1.0
  H  H9  1  0.23020000  0.32900000  0.05191000  1.0
  H  H10  1  0.92698000  0.69635000  0.07400000  1.0
  H  H11  1  0.07302000  0.30365000  0.92600000  1.0
  H  H12  1  0.82368000  0.81087000  0.47727000  1.0
  H  H13  1  0.17632000  0.18913000  0.52273000  1.0
  H  H14  1  0.58450000  0.69514000  0.51176000  1.0
  H  H15  1  0.41550000  0.30485000  0.48824000  1.0
  H  H16  1  0.49024000  0.80750000  0.76598000  1.0
  H  H17  1  0.50976000  0.19250000  0.23401000  1.0
  H  H18  1  0.47834000  0.91526000  0.57733000  1.0
  H  H19  1  0.52166000  0.08475000  0.42267000  1.0
  H  H20  1  0.71777000  0.03186000  0.54363000  1.0
  H  H21  1  0.28223000  0.96815000  0.45638000  1.0
  H  H22  1  0.99223000  0.05484000  0.69428000  1.0
  H  H23  1  0.00777000  0.94516000  0.30572000  1.0
  H  H24  1  0.98305000  0.08424000  0.95702000  1.0
  H  H25  1  0.01695000  0.91576000  0.04298000  1.0
  H  H26  1  0.71217000  0.95290000  0.99517000  1.0
  H  H27  1  0.28782000  0.04710000  0.00483000  1.0
  C  C28  1  0.84095000  0.81946000  0.59192000  1.0
  C  C29  1  0.15905000  0.18054000  0.40808000  1.0
  C  C30  1  0.67583000  0.73890000  0.61686000  1.0
  C  C31  1  0.32417000  0.26110000  0.38313000  1.0
  C  C32  1  0.60475000  0.86339000  0.74681000  1.0
  C  C33  1  0.39525000  0.13661000  0.25319000  1.0
  C  C34  1  0.56141000  0.98221000  0.68749000  1.0
  C  C35  1  0.43859000  0.01779000  0.31251000  1.0
  C  C36  1  0.72803000  0.06294000  0.66549000  1.0
  C  C37  1  0.27198000  0.93706000  0.33451000  1.0
  C  C38  1  0.87555000  0.99720000  0.70834000  1.0
  C  C39  1  0.12445000  0.00281000  0.29166000  1.0
  C  C40  1  0.99167000  0.74765000  0.60687000  1.0
  C  C41  1  0.00833000  0.25235000  0.39313000  1.0
  C  C42  1  0.69571000  0.59041000  0.63053000  1.0
  C  C43  1  0.30429000  0.40960000  0.36947000  1.0
  C  C44  1  0.46928000  0.09691000  0.79775000  1.0
  C  C45  1  0.53073000  0.90309000  0.20225000  1.0
  C  C46  1  0.75802000  0.24092000  0.74506000  1.0
  C  C47  1  0.24198000  0.75908000  0.25494000  1.0
  C  C48  1  0.87662000  0.01699000  0.86694000  1.0
  C  C49  1  0.12338000  0.98301000  0.13306000  1.0
  C  C50  1  0.73502000  0.94813000  0.88725000  1.0
  C  C51  1  0.26498000  0.05187000  0.11275000  1.0
  O  O52  1  0.06057000  0.69487000  0.48060000  1.0
  O  O53  1  0.93943000  0.30513000  0.51940000  1.0
  O  O54  1  0.04513000  0.74029000  0.72299000  1.0
  O  O55  1  0.95488000  0.25971000  0.27701000  1.0
  O  O56  1  0.73105000  0.48137000  0.51258000  1.0
  O  O57  1  0.26895000  0.51864000  0.48743000  1.0
  O  O58  1  0.67130000  0.57900000  0.75121000  1.0
  O  O59  1  0.32870000  0.42100000  0.24880000  1.0
  O  O60  1  0.53267000  0.19133000  0.93002000  1.0
  O  O61  1  0.46733000  0.80867000  0.06998000  1.0
  O  O62  1  0.31106000  0.08506000  0.74055000  1.0
  O  O63  1  0.68894000  0.91494000  0.25945000  1.0
  O  O64  1  0.88160000  0.32726000  0.84199000  1.0
  O  O65  1  0.11841000  0.67274000  0.15800000  1.0
  O  O66  1  0.63860000  0.29419000  0.69406000  1.0
  O  O67  1  0.36140000  0.70581000  0.30594000  1.0
  O  O68  1  0.80590000  0.69537000  0.05538000  1.0
  O  O69  1  0.19409000  0.30463000  0.94462000  1.0
