# generated using pymatgen
data_Cu3H8C12(N7O2)2
_symmetry_space_group_name_H-M   'P 1'
_cell_length_a   6.08781000
_cell_length_b   9.04836000
_cell_length_c   17.29700000
_cell_angle_alpha   79.83400000
_cell_angle_beta   90.01370000
_cell_angle_gamma   90.00190000
_symmetry_Int_Tables_number   1
_chemical_formula_structural   Cu3H8C12(N7O2)2
_chemical_formula_sum   'Cu6 H16 C24 N28 O8'
_cell_volume   937.84150283
_cell_formula_units_Z   2
loop_
 _symmetry_equiv_pos_site_id
 _symmetry_equiv_pos_as_xyz
  1  'x, y, z'
loop_
 _atom_site_type_symbol
 _atom_site_label
 _atom_site_symmetry_multiplicity
 _atom_site_fract_x
 _atom_site_fract_y
 _atom_site_fract_z
 _atom_site_occupancy
  Cu  Cu0  1  0.84076000  0.97016000  0.83219000  1.0
  Cu  Cu1  1  0.34059000  0.02986000  0.66784000  1.0
  Cu  Cu2  1  0.15799000  0.02989000  0.16786000  1.0
  Cu  Cu3  1  0.65843000  0.97005000  0.33191000  1.0
  Cu  Cu4  1  0.00050000  0.00010000  0.99975000  1.0
  Cu  Cu5  1  0.50075000  0.99989000  0.50045000  1.0
  H  H6  1  0.58412000  0.73219000  0.77084000  1.0
  H  H7  1  0.08414000  0.26773000  0.72923000  1.0
  H  H8  1  0.41521000  0.26818000  0.22923000  1.0
  H  H9  1  0.91544000  0.73165000  0.27058000  1.0
  H  H10  1  0.58646000  0.45031000  0.79230000  1.0
  H  H11  1  0.08646000  0.54959000  0.70785000  1.0
  H  H12  1  0.41333000  0.54998000  0.20767000  1.0
  H  H13  1  0.91362000  0.44984000  0.29226000  1.0
  H  H14  1  0.16813000  0.46017000  0.93444000  1.0
  H  H15  1  0.66785000  0.53984000  0.56565000  1.0
  H  H16  1  0.83181000  0.54031000  0.06541000  1.0
  H  H17  1  0.33268000  0.45964000  0.43467000  1.0
  H  H18  1  0.14849000  0.73987000  0.90513000  1.0
  H  H19  1  0.64825000  0.26017000  0.59489000  1.0
  H  H20  1  0.85128000  0.26070000  0.09472000  1.0
  H  H21  1  0.35202000  0.73930000  0.40523000  1.0
  C  C22  1  0.71219000  0.66714000  0.80558000  1.0
  C  C23  1  0.21214000  0.33281000  0.69449000  1.0
  C  C24  1  0.28727000  0.33322000  0.19441000  1.0
  C  C25  1  0.78761000  0.66663000  0.30544000  1.0
  C  C26  1  0.71359000  0.51089000  0.81810000  1.0
  C  C27  1  0.21355000  0.48905000  0.68202000  1.0
  C  C28  1  0.28610000  0.48947000  0.18188000  1.0
  C  C29  1  0.78649000  0.51039000  0.31805000  1.0
  C  C30  1  0.87661000  0.43348000  0.86581000  1.0
  C  C31  1  0.37650000  0.56649000  0.63432000  1.0
  C  C32  1  0.12311000  0.56692000  0.13415000  1.0
  C  C33  1  0.62368000  0.43297000  0.36585000  1.0
  C  C34  1  0.03760000  0.51604000  0.89715000  1.0
  C  C35  1  0.53740000  0.48395000  0.60296000  1.0
  C  C36  1  0.96227000  0.48443000  0.10274000  1.0
  C  C37  1  0.46292000  0.51553000  0.39728000  1.0
  C  C38  1  0.02830000  0.67176000  0.88075000  1.0
  C  C39  1  0.52810000  0.32825000  0.61931000  1.0
  C  C40  1  0.97143000  0.32875000  0.11914000  1.0
  C  C41  1  0.47202000  0.67120000  0.38080000  1.0
  C  C42  1  0.88198000  0.26463000  0.88422000  1.0
  C  C43  1  0.38193000  0.73534000  0.61593000  1.0
  C  C44  1  0.11742000  0.73572000  0.11581000  1.0
  C  C45  1  0.61807000  0.26419000  0.38425000  1.0
  N  N46  1  0.86672000  0.74595000  0.83679000  1.0
  N  N47  1  0.36660000  0.25402000  0.66325000  1.0
  N  N48  1  0.13271000  0.25443000  0.16321000  1.0
  N  N49  1  0.63313000  0.74547000  0.33663000  1.0
  N  N50  1  0.73249000  0.93793000  0.94480000  1.0
  N  N51  1  0.23216000  0.06207000  0.55512000  1.0
  N  N52  1  0.26818000  0.06213000  0.05491000  1.0
  N  N53  1  0.76654000  0.93717000  0.44490000  1.0
  N  N54  1  0.64010000  0.82187000  0.97351000  1.0
  N  N55  1  0.14008000  0.17828000  0.52644000  1.0
  N  N56  1  0.36022000  0.17838000  0.02634000  1.0
  N  N57  1  0.85989000  0.82157000  0.47364000  1.0
  N  N58  1  0.54728000  0.71318000  0.00065000  1.0
  N  N59  1  0.04753000  0.28716000  0.49935000  1.0
  N  N60  1  0.45270000  0.28741000  0.99949000  1.0
  N  N61  1  0.95319000  0.71298000  0.50072000  1.0
  N  N62  1  0.47865000  0.98734000  0.77675000  1.0
  N  N63  1  0.97849000  0.01265000  0.72331000  1.0
  N  N64  1  0.51946000  0.01212000  0.22244000  1.0
  N  N65  1  0.01951000  0.98797000  0.27740000  1.0
  N  N66  1  0.34945000  0.99438000  0.82833000  1.0
  N  N67  1  0.84939000  0.00586000  0.67165000  1.0
  N  N68  1  0.65107000  0.00718000  0.17135000  1.0
  N  N69  1  0.15121000  0.99306000  0.32847000  1.0
  N  N70  1  0.22378000  0.99944000  0.87898000  1.0
  N  N71  1  0.72405000  0.00113000  0.62085000  1.0
  N  N72  1  0.78004000  0.00416000  0.12145000  1.0
  N  N73  1  0.28035000  0.99630000  0.37832000  1.0
  O  O74  1  0.82304000  0.19563000  0.82980000  1.0
  O  O75  1  0.32277000  0.80438000  0.67029000  1.0
  O  O76  1  0.17518000  0.80464000  0.17040000  1.0
  O  O77  1  0.67610000  0.19525000  0.32969000  1.0
  O  O78  1  0.95107000  0.21081000  0.95281000  1.0
  O  O79  1  0.45128000  0.78915000  0.54738000  1.0
  O  O80  1  0.04921000  0.78957000  0.04711000  1.0
  O  O81  1  0.54982000  0.21034000  0.45292000  1.0
