# generated using pymatgen
data_AgH9C6IN2
_symmetry_space_group_name_H-M   'P 1'
_cell_length_a   4.64112000
_cell_length_b   9.77641000
_cell_length_c   18.23400000
_cell_angle_alpha   96.41820000
_cell_angle_beta   90.00000000
_cell_angle_gamma   89.99990000
_symmetry_Int_Tables_number   1
_chemical_formula_structural   AgH9C6IN2
_chemical_formula_sum   'Ag4 H36 C24 I4 N8'
_cell_volume   822.15486539
_cell_formula_units_Z   4
loop_
 _symmetry_equiv_pos_site_id
 _symmetry_equiv_pos_as_xyz
  1  'x, y, z'
loop_
 _atom_site_type_symbol
 _atom_site_label
 _atom_site_symmetry_multiplicity
 _atom_site_fract_x
 _atom_site_fract_y
 _atom_site_fract_z
 _atom_site_occupancy
  Ag  Ag0  1  0.43183000  0.19502000  0.19892000  1.0
  Ag  Ag1  1  0.93183000  0.30498000  0.30108000  1.0
  Ag  Ag2  1  0.56817000  0.80498000  0.80109000  1.0
  Ag  Ag3  1  0.06817000  0.69502000  0.69892000  1.0
  H  H4  1  0.87702000  0.94931000  0.24545000  1.0
  H  H5  1  0.37702000  0.55069000  0.25455000  1.0
  H  H6  1  0.12298000  0.05069000  0.75455000  1.0
  H  H7  1  0.62298000  0.44931000  0.74545000  1.0
  H  H8  1  0.81688000  0.66877000  0.19850000  1.0
  H  H9  1  0.31688000  0.83123000  0.30150000  1.0
  H  H10  1  0.18311000  0.33123000  0.80150000  1.0
  H  H11  1  0.68311000  0.16877000  0.69850000  1.0
  H  H12  1  0.29560000  0.89071000  0.00278000  1.0
  H  H13  1  0.79560000  0.60929000  0.49722000  1.0
  H  H14  1  0.70440000  0.10929000  0.99722000  1.0
  H  H15  1  0.20440000  0.39071000  0.50278000  1.0
  H  H16  1  0.14533000  0.01894000  0.06948000  1.0
  H  H17  1  0.64533000  0.48107000  0.43052000  1.0
  H  H18  1  0.85467000  0.98107000  0.93052000  1.0
  H  H19  1  0.35467000  0.51894000  0.56948000  1.0
  H  H20  1  0.00817000  0.84830000  0.05994000  1.0
  H  H21  1  0.50817000  0.65170000  0.44006000  1.0
  H  H22  1  0.99183000  0.15170000  0.94006000  1.0
  H  H23  1  0.49183000  0.34830000  0.55994000  1.0
  H  H24  1  0.78929000  0.55308000  0.03221000  1.0
  H  H25  1  0.28928000  0.94692000  0.46779000  1.0
  H  H26  1  0.21071000  0.44692000  0.96779000  1.0
  H  H27  1  0.71071000  0.05309000  0.53221000  1.0
  H  H28  1  0.55629000  0.64558000  0.97857000  1.0
  H  H29  1  0.05628000  0.85442000  0.52143000  1.0
  H  H30  1  0.44372000  0.35442000  0.02143000  1.0
  H  H31  1  0.94371000  0.14558000  0.47857000  1.0
  H  H32  1  0.16903000  0.63583000  0.07467000  1.0
  H  H33  1  0.66903000  0.86417000  0.42533000  1.0
  H  H34  1  0.83097000  0.36417000  0.92533000  1.0
  H  H35  1  0.33097000  0.13583000  0.57467000  1.0
  H  H36  1  0.40168000  0.54173000  0.12675000  1.0
  H  H37  1  0.90168000  0.95827000  0.37325000  1.0
  H  H38  1  0.59832000  0.45827000  0.87325000  1.0
  H  H39  1  0.09832000  0.04173000  0.62675000  1.0
  C  C40  1  0.41529000  0.87777000  0.11567000  1.0
  C  C41  1  0.91529000  0.62223000  0.38433000  1.0
  C  C42  1  0.58471000  0.12223000  0.88433000  1.0
  C  C43  1  0.08471000  0.37777000  0.61567000  1.0
  C  C44  1  0.73795000  0.89689000  0.20360000  1.0
  C  C45  1  0.23794000  0.60311000  0.29640000  1.0
  C  C46  1  0.26205000  0.10311000  0.79640000  1.0
  C  C47  1  0.76205000  0.39689000  0.70360000  1.0
  C  C48  1  0.71248000  0.75873000  0.18080000  1.0
  C  C49  1  0.21248000  0.74126000  0.31920000  1.0
  C  C50  1  0.28752000  0.24126000  0.81920000  1.0
  C  C51  1  0.78751000  0.25874000  0.68080000  1.0
  C  C52  1  0.20531000  0.91011000  0.05881000  1.0
  C  C53  1  0.70530000  0.58989000  0.44119000  1.0
  C  C54  1  0.79470000  0.08989000  0.94119000  1.0
  C  C55  1  0.29470000  0.41011000  0.55881000  1.0
  C  C56  1  0.56197000  0.56797000  0.01791000  1.0
  C  C57  1  0.06196000  0.93203000  0.48209000  1.0
  C  C58  1  0.43804000  0.43203000  0.98209000  1.0
  C  C59  1  0.93803000  0.06797000  0.51791000  1.0
  C  C60  1  0.39646000  0.61935000  0.08767000  1.0
  C  C61  1  0.89646000  0.88065000  0.41233000  1.0
  C  C62  1  0.60354000  0.38065000  0.91233000  1.0
  C  C63  1  0.10354000  0.11935000  0.58767000  1.0
  I  I64  1  0.44425000  0.18155000  0.35847000  1.0
  I  I65  1  0.94424000  0.31845000  0.14154000  1.0
  I  I66  1  0.55576000  0.81845000  0.64154000  1.0
  I  I67  1  0.05575000  0.68155000  0.85847000  1.0
  N  N68  1  0.55190000  0.96953000  0.16328000  1.0
  N  N69  1  0.05190000  0.53047000  0.33672000  1.0
  N  N70  1  0.44810000  0.03047000  0.83672000  1.0
  N  N71  1  0.94810000  0.46953000  0.66328000  1.0
  N  N72  1  0.50677000  0.74789000  0.12542000  1.0
  N  N73  1  0.00677000  0.75211000  0.37458000  1.0
  N  N74  1  0.49323000  0.25211000  0.87458000  1.0
  N  N75  1  0.99323000  0.24789000  0.62542000  1.0
