# generated using pymatgen
data_CuH14C20(N3O2)2
_symmetry_space_group_name_H-M   'P 1'
_cell_length_a   9.17170000
_cell_length_b   10.14140000
_cell_length_c   10.77460000
_cell_angle_alpha   72.00740000
_cell_angle_beta   85.70920000
_cell_angle_gamma   76.28690000
_symmetry_Int_Tables_number   1
_chemical_formula_structural   CuH14C20(N3O2)2
_chemical_formula_sum   'Cu2 H28 C40 N12 O8'
_cell_volume   926.00505290
_cell_formula_units_Z   2
loop_
 _symmetry_equiv_pos_site_id
 _symmetry_equiv_pos_as_xyz
  1  'x, y, z'
loop_
 _atom_site_type_symbol
 _atom_site_label
 _atom_site_symmetry_multiplicity
 _atom_site_fract_x
 _atom_site_fract_y
 _atom_site_fract_z
 _atom_site_occupancy
  Cu  Cu0  1  0.67806000  0.58751000  0.56439000  1.0
  Cu  Cu1  1  0.32193000  0.41249000  0.43561000  1.0
  H  H2  1  0.58506000  0.84484000  0.36415000  1.0
  H  H3  1  0.41495000  0.15516000  0.63585000  1.0
  H  H4  1  0.05837000  0.75745000  0.72145000  1.0
  H  H5  1  0.94162000  0.24255000  0.27856000  1.0
  H  H6  1  0.16684000  0.96391000  0.72159000  1.0
  H  H7  1  0.83315000  0.03609000  0.27842000  1.0
  H  H8  1  0.64312000  0.04514000  0.57364000  1.0
  H  H9  1  0.35688000  0.95486000  0.42635000  1.0
  H  H10  1  0.86286000  0.05872000  0.01145000  1.0
  H  H11  1  0.13714000  0.94129000  0.98856000  1.0
  H  H12  1  0.77462000  0.06711000  0.87781000  1.0
  H  H13  1  0.22539000  0.93289000  0.12219000  1.0
  H  H14  1  0.85247000  0.82370000  0.01971000  1.0
  H  H15  1  0.14753000  0.17629000  0.98029000  1.0
  H  H16  1  0.92223000  0.48511000  0.38310000  1.0
  H  H17  1  0.07778000  0.51489000  0.61690000  1.0
  H  H18  1  0.99886000  0.58519000  0.15543000  1.0
  H  H19  1  0.00115000  0.41481000  0.84457000  1.0
  H  H20  1  0.00424000  0.21028000  0.65285000  1.0
  H  H21  1  0.99576000  0.78971000  0.34716000  1.0
  H  H22  1  0.68625000  0.33091000  0.79130000  1.0
  H  H23  1  0.31374000  0.66909000  0.20870000  1.0
  H  H24  1  0.23914000  0.67816000  0.86019000  1.0
  H  H25  1  0.76086000  0.32185000  0.13981000  1.0
  H  H26  1  0.42243000  0.73853000  0.67588000  1.0
  H  H27  1  0.57756000  0.26147000  0.32411000  1.0
  H  H28  1  0.28574000  0.42856000  0.01330000  1.0
  H  H29  1  0.71426000  0.57145000  0.98671000  1.0
  C  C30  1  0.79146000  0.76116000  0.64560000  1.0
  C  C31  1  0.20854000  0.23884000  0.35439000  1.0
  C  C32  1  0.84472000  0.88856000  0.65050000  1.0
  C  C33  1  0.15528000  0.11144000  0.34949000  1.0
  C  C34  1  0.67497000  0.79128000  0.31337000  1.0
  C  C35  1  0.32503000  0.20872000  0.68663000  1.0
  C  C36  1  0.51528000  0.21599000  0.00619000  1.0
  C  C37  1  0.48472000  0.78401000  0.99381000  1.0
  C  C38  1  0.70784000  0.85604000  0.18263000  1.0
  C  C39  1  0.29217000  0.14396000  0.81737000  1.0
  C  C40  1  0.60919000  0.99413000  0.12154000  1.0
  C  C41  1  0.39081000  0.00587000  0.87846000  1.0
  C  C42  1  0.99160000  0.86633000  0.69327000  1.0
  C  C43  1  0.00840000  0.13366000  0.30673000  1.0
  C  C44  1  0.05022000  0.98094000  0.69407000  1.0
  C  C45  1  0.94978000  0.01906000  0.30594000  1.0
  C  C46  1  0.75654000  0.02696000  0.60858000  1.0
  C  C47  1  0.24346000  0.97304000  0.39141000  1.0
  C  C48  1  0.82639000  0.78149000  0.12266000  1.0
  C  C49  1  0.17361000  0.21851000  0.87734000  1.0
  C  C50  1  0.86373000  0.59003000  0.32460000  1.0
  C  C51  1  0.13627000  0.40997000  0.67540000  1.0
  C  C52  1  0.90543000  0.64804000  0.19568000  1.0
  C  C53  1  0.09458000  0.35196000  0.80432000  1.0
  C  C54  1  0.96124000  0.11888000  0.65369000  1.0
  C  C55  1  0.03876000  0.88112000  0.34631000  1.0
  C  C56  1  0.81364000  0.14251000  0.61133000  1.0
  C  C57  1  0.18636000  0.85749000  0.38866000  1.0
  C  C58  1  0.71513000  0.29081000  0.57106000  1.0
  C  C59  1  0.28487000  0.70919000  0.42894000  1.0
  C  C60  1  0.48952000  0.35901000  0.91446000  1.0
  C  C61  1  0.51048000  0.64100000  0.08555000  1.0
  C  C62  1  0.58473000  0.40267000  0.80964000  1.0
  C  C63  1  0.41527000  0.59734000  0.19036000  1.0
  C  C64  1  0.33569000  0.59721000  0.84701000  1.0
  C  C65  1  0.66430000  0.40279000  0.15298000  1.0
  C  C66  1  0.43594000  0.63238000  0.74517000  1.0
  C  C67  1  0.56406000  0.36762000  0.25483000  1.0
  C  C68  1  0.36103000  0.45963000  0.93183000  1.0
  C  C69  1  0.63897000  0.54038000  0.06817000  1.0
  N  N70  1  0.74968000  0.66123000  0.38147000  1.0
  N  N71  1  0.25032000  0.33877000  0.61853000  1.0
  N  N72  1  0.46957000  0.03315000  0.16249000  1.0
  N  N73  1  0.53043000  0.96685000  0.83751000  1.0
  N  N74  1  0.64210000  0.10701000  0.02214000  1.0
  N  N75  1  0.35790000  0.89299000  0.97787000  1.0
  N  N76  1  0.41122000  0.17009000  0.09064000  1.0
  N  N77  1  0.58878000  0.82991000  0.90936000  1.0
  N  N78  1  0.77486000  0.11405000  0.94971000  1.0
  N  N79  1  0.22514000  0.88595000  0.05029000  1.0
  N  N80  1  0.55666000  0.53509000  0.72663000  1.0
  N  N81  1  0.44334000  0.46491000  0.27337000  1.0
  O  O82  1  0.66798000  0.78427000  0.58316000  1.0
  O  O83  1  0.33201000  0.21573000  0.41685000  1.0
  O  O84  1  0.87054000  0.63866000  0.69635000  1.0
  O  O85  1  0.12946000  0.36134000  0.30365000  1.0
  O  O86  1  0.58133000  0.30874000  0.54097000  1.0
  O  O87  1  0.41868000  0.69126000  0.45903000  1.0
  O  O88  1  0.78017000  0.38988000  0.57524000  1.0
  O  O89  1  0.21984000  0.61012000  0.42476000  1.0
