# generated using pymatgen
data_CuH18C17IN6
_symmetry_space_group_name_H-M   'P 1'
_cell_length_a   9.30427000
_cell_length_b   10.26820000
_cell_length_c   10.36810000
_cell_angle_alpha   82.87620000
_cell_angle_beta   81.95860000
_cell_angle_gamma   63.91020000
_symmetry_Int_Tables_number   1
_chemical_formula_structural   CuH18C17IN6
_chemical_formula_sum   'Cu2 H36 C34 I2 N12'
_cell_volume   878.69236339
_cell_formula_units_Z   2
loop_
 _symmetry_equiv_pos_site_id
 _symmetry_equiv_pos_as_xyz
  1  'x, y, z'
loop_
 _atom_site_type_symbol
 _atom_site_label
 _atom_site_symmetry_multiplicity
 _atom_site_fract_x
 _atom_site_fract_y
 _atom_site_fract_z
 _atom_site_occupancy
  Cu  Cu0  1  0.90972000  0.11137000  0.08826000  1.0
  Cu  Cu1  1  0.09028000  0.88863000  0.91174000  1.0
  H  H2  1  0.65132000  0.31202000  0.85978000  1.0
  H  H3  1  0.34868000  0.68798000  0.14022000  1.0
  H  H4  1  0.48648000  0.54083000  0.72823000  1.0
  H  H5  1  0.51351000  0.45917000  0.27177000  1.0
  H  H6  1  0.48015000  0.77516000  0.76281000  1.0
  H  H7  1  0.51985000  0.22484000  0.23719000  1.0
  H  H8  1  0.63788000  0.79746000  0.92777000  1.0
  H  H9  1  0.36212000  0.20255000  0.07223000  1.0
  H  H10  1  0.88029000  0.71364000  0.06818000  1.0
  H  H11  1  0.11970000  0.28636000  0.93182000  1.0
  H  H12  1  0.95765000  0.58216000  0.20029000  1.0
  H  H13  1  0.04236000  0.41784000  0.79971000  1.0
  H  H14  1  0.72439000  0.82891000  0.25612000  1.0
  H  H15  1  0.27561000  0.17109000  0.74388000  1.0
  H  H16  1  0.59824000  0.78071000  0.18130000  1.0
  H  H17  1  0.40176000  0.21929000  0.81870000  1.0
  H  H18  1  0.79691000  0.60507000  0.40868000  1.0
  H  H19  1  0.20309000  0.39493000  0.59132000  1.0
  H  H20  1  0.66140000  0.55921000  0.34399000  1.0
  H  H21  1  0.33860000  0.44079000  0.65601000  1.0
  H  H22  1  0.56240000  0.68895000  0.55727000  1.0
  H  H23  1  0.43760000  0.31105000  0.44272000  1.0
  H  H24  1  0.56639000  0.84580000  0.46931000  1.0
  H  H25  1  0.43361000  0.15420000  0.53069000  1.0
  H  H26  1  0.35665000  0.85351000  0.33005000  1.0
  H  H27  1  0.64334000  0.14649000  0.66994000  1.0
  H  H28  1  0.35911000  0.69441000  0.42025000  1.0
  H  H29  1  0.64089000  0.30559000  0.57975000  1.0
  H  H30  1  0.18699000  0.11465000  0.31326000  1.0
  H  H31  1  0.81301000  0.88535000  0.68674000  1.0
  H  H32  1  0.99434000  0.36284000  0.36917000  1.0
  H  H33  1  0.00567000  0.63716000  0.63084000  1.0
  H  H34  1  0.86775000  0.41669000  0.59603000  1.0
  H  H35  1  0.13225000  0.58331000  0.40397000  1.0
  H  H36  1  0.92844000  0.21704000  0.77527000  1.0
  H  H37  1  0.07156000  0.78296000  0.22473000  1.0
  C  C38  1  0.73799000  0.42862000  0.96580000  1.0
  C  C39  1  0.26201000  0.57138000  0.03420000  1.0
  C  C40  1  0.65050000  0.41633000  0.87165000  1.0
  C  C41  1  0.34950000  0.58367000  0.12835000  1.0
  C  C42  1  0.56067000  0.54308000  0.79978000  1.0
  C  C43  1  0.43933000  0.45692000  0.20022000  1.0
  C  C44  1  0.55651000  0.67877000  0.81934000  1.0
  C  C45  1  0.44349000  0.32123000  0.18066000  1.0
  C  C46  1  0.64189000  0.69303000  0.91155000  1.0
  C  C47  1  0.35811000  0.30697000  0.08845000  1.0
  C  C48  1  0.73160000  0.56503000  0.98439000  1.0
  C  C49  1  0.26840000  0.43496000  0.01561000  1.0
  C  C50  1  0.85184000  0.64328000  0.14599000  1.0
  C  C51  1  0.14816000  0.35672000  0.85401000  1.0
  C  C52  1  0.70589000  0.73523000  0.23519000  1.0
  C  C53  1  0.29411000  0.26476000  0.76481000  1.0
  C  C54  1  0.68323000  0.65212000  0.36285000  1.0
  C  C55  1  0.31677000  0.34788000  0.63715000  1.0
  C  C56  1  0.55074000  0.74704000  0.46020000  1.0
  C  C57  1  0.44926000  0.25296000  0.53980000  1.0
  C  C58  1  0.38054000  0.79074000  0.42486000  1.0
  C  C59  1  0.61945000  0.20926000  0.57514000  1.0
  C  C60  1  0.16714000  0.02740000  0.51540000  1.0
  C  C61  1  0.83286000  0.97260000  0.48460000  1.0
  C  C62  1  0.13511000  0.13702000  0.41360000  1.0
  C  C63  1  0.86489000  0.86298000  0.58641000  1.0
  C  C64  1  0.02643000  0.27582000  0.44655000  1.0
  C  C65  1  0.97358000  0.72419000  0.55345000  1.0
  C  C66  1  0.95293000  0.30572000  0.57545000  1.0
  C  C67  1  0.04707000  0.69428000  0.42455000  1.0
  C  C68  1  0.98441000  0.19690000  0.67585000  1.0
  C  C69  1  0.01559000  0.80310000  0.32415000  1.0
  C  C70  1  0.09286000  0.05598000  0.64383000  1.0
  C  C71  1  0.90714000  0.94402000  0.35617000  1.0
  I  I72  1  0.76886000  0.01043000  0.95054000  1.0
  I  I73  1  0.23114000  0.98957000  0.04946000  1.0
  N  N74  1  0.83627000  0.32799000  0.05435000  1.0
  N  N75  1  0.16373000  0.67201000  0.94565000  1.0
  N  N76  1  0.88682000  0.39507000  0.12517000  1.0
  N  N77  1  0.11318000  0.60493000  0.87483000  1.0
  N  N78  1  0.82517000  0.53744000  0.08383000  1.0
  N  N79  1  0.17483000  0.46256000  0.91617000  1.0
  N  N80  1  0.26149000  0.88061000  0.52255000  1.0
  N  N81  1  0.73851000  0.11939000  0.47745000  1.0
  N  N82  1  0.24839000  0.82195000  0.64547000  1.0
  N  N83  1  0.75161000  0.17805000  0.35453000  1.0
  N  N84  1  0.14739000  0.92600000  0.71924000  1.0
  N  N85  1  0.85261000  0.07400000  0.28076000  1.0
