# generated using pymatgen
data_Cd2H11C16N5O7
_symmetry_space_group_name_H-M   'P 1'
_cell_length_a   13.60290000
_cell_length_b   14.28540000
_cell_length_c   14.28530000
_cell_angle_alpha   75.24540000
_cell_angle_beta   69.10820000
_cell_angle_gamma   69.10810000
_symmetry_Int_Tables_number   1
_chemical_formula_structural   Cd2H11C16N5O7
_chemical_formula_sum   'Cd8 H44 C64 N20 O28'
_cell_volume   2396.95414295
_cell_formula_units_Z   4
loop_
 _symmetry_equiv_pos_site_id
 _symmetry_equiv_pos_as_xyz
  1  'x, y, z'
loop_
 _atom_site_type_symbol
 _atom_site_label
 _atom_site_symmetry_multiplicity
 _atom_site_fract_x
 _atom_site_fract_y
 _atom_site_fract_z
 _atom_site_occupancy
  Cd  Cd0  1  0.61843000  0.33994000  0.32604000  1.0
  Cd  Cd1  1  0.88157000  0.67396000  0.66006000  1.0
  Cd  Cd2  1  0.38157000  0.66006000  0.67396000  1.0
  Cd  Cd3  1  0.11843000  0.32604000  0.33994000  1.0
  Cd  Cd4  1  0.58059000  0.43232000  0.57969000  1.0
  Cd  Cd5  1  0.91941000  0.42031000  0.56768000  1.0
  Cd  Cd6  1  0.41941000  0.56768000  0.42031000  1.0
  Cd  Cd7  1  0.08059000  0.57969000  0.43232000  1.0
  H  H8  1  0.70499000  0.22787000  0.63245000  1.0
  H  H9  1  0.79501000  0.36755000  0.77213000  1.0
  H  H10  1  0.29501000  0.77213000  0.36755000  1.0
  H  H11  1  0.20499000  0.63245000  0.22788000  1.0
  H  H12  1  0.58439000  0.22246000  0.68297000  1.0
  H  H13  1  0.91561000  0.31703000  0.77755000  1.0
  H  H14  1  0.41561000  0.77755000  0.31703000  1.0
  H  H15  1  0.08439000  0.68297000  0.22246000  1.0
  H  H16  1  0.36564000  0.04858000  0.90401000  1.0
  H  H17  1  0.13437000  0.09599000  0.95142000  1.0
  H  H18  1  0.63436000  0.95142000  0.09599000  1.0
  H  H19  1  0.86564000  0.90401000  0.04858000  1.0
  H  H20  1  0.28628000  0.13837000  0.04775000  1.0
  H  H21  1  0.21372000  0.95225000  0.86163000  1.0
  H  H22  1  0.71372000  0.86163000  0.95225000  1.0
  H  H23  1  0.78628000  0.04775000  0.13837000  1.0
  H  H24  1  0.40179000  0.28736000  0.74282000  1.0
  H  H25  1  0.09821000  0.25718000  0.71264000  1.0
  H  H26  1  0.59820000  0.71264000  0.25718000  1.0
  H  H27  1  0.90179000  0.74282000  0.28736000  1.0
  H  H28  1  0.24784000  0.45740000  0.99212000  1.0
  H  H29  1  0.25216000  0.00788000  0.54260000  1.0
  H  H30  1  0.75216000  0.54260000  0.00788000  1.0
  H  H31  1  0.74784000  0.99212000  0.45740000  1.0
  H  H32  1  0.46972000  0.90518000  0.90923000  1.0
  H  H33  1  0.03028000  0.09077000  0.09482000  1.0
  H  H34  1  0.53028000  0.09482000  0.09077000  1.0
  H  H35  1  0.96973000  0.90923000  0.90518000  1.0
  H  H36  1  0.53470000  0.73020000  0.87332000  1.0
  H  H37  1  0.96530000  0.12668000  0.26980000  1.0
  H  H38  1  0.46530000  0.26980000  0.12668000  1.0
  H  H39  1  0.03470000  0.87332000  0.73020000  1.0
  H  H40  1  0.60838000  0.83861000  0.55293000  1.0
  H  H41  1  0.89162000  0.44707000  0.16139000  1.0
  H  H42  1  0.39162000  0.16139000  0.44707000  1.0
  H  H43  1  0.10838000  0.55293000  0.83861000  1.0
  H  H44  1  0.54366000  0.01610000  0.58868000  1.0
  H  H45  1  0.95634000  0.41132000  0.98390000  1.0
  H  H46  1  0.45634000  0.98390000  0.41132000  1.0
  H  H47  1  0.04366000  0.58868000  0.01610000  1.0
  H  H48  1  0.45828000  0.35769000  0.52177000  1.0
  H  H49  1  0.04172000  0.47823000  0.64231000  1.0
  H  H50  1  0.54172000  0.64231000  0.47823000  1.0
  H  H51  1  0.95828000  0.52177000  0.35769000  1.0
  C  C52  1  0.62291000  0.66919000  0.68719000  1.0
  C  C53  1  0.87709000  0.31281000  0.33081000  1.0
  C  C54  1  0.37709000  0.33081000  0.31281000  1.0
  C  C55  1  0.12291000  0.68719000  0.66919000  1.0
  C  C56  1  0.25807000  0.29860000  0.02933000  1.0
  C  C57  1  0.24193000  0.97067000  0.70140000  1.0
  C  C58  1  0.74193000  0.70140000  0.97067000  1.0
  C  C59  1  0.75807000  0.02933000  0.29860000  1.0
  C  C60  1  0.29748000  0.20566000  0.99313000  1.0
  C  C61  1  0.20252000  0.00687000  0.79434000  1.0
  C  C62  1  0.70252000  0.79434000  0.00687000  1.0
  C  C63  1  0.79748000  0.99313000  0.20566000  1.0
  C  C64  1  0.36363000  0.28891000  0.82320000  1.0
  C  C65  1  0.13638000  0.17679000  0.71109000  1.0
  C  C66  1  0.63638000  0.71109000  0.17680000  1.0
  C  C67  1  0.86362000  0.82320000  0.28891000  1.0
  C  C68  1  0.35641000  0.46980000  0.78735000  1.0
  C  C69  1  0.14359000  0.21265000  0.53020000  1.0
  C  C70  1  0.64359000  0.53020000  0.21265000  1.0
  C  C71  1  0.85641000  0.78735000  0.46980000  1.0
  C  C72  1  0.27525000  0.38603000  0.96307000  1.0
  C  C73  1  0.22475000  0.03693000  0.61397000  1.0
  C  C74  1  0.72475000  0.61397000  0.03693000  1.0
  C  C75  1  0.77525000  0.96307000  0.38603000  1.0
  C  C76  1  0.20212000  0.30392000  0.14029000  1.0
  C  C77  1  0.29788000  0.85970000  0.69608000  1.0
  C  C78  1  0.79788000  0.69608000  0.85970000  1.0
  C  C79  1  0.70212000  0.14030000  0.30392000  1.0
  C  C80  1  0.32914000  0.38034000  0.86029000  1.0
  C  C81  1  0.17086000  0.13971000  0.61966000  1.0
  C  C82  1  0.67086000  0.61966000  0.13971000  1.0
  C  C83  1  0.82914000  0.86029000  0.38034000  1.0
  C  C84  1  0.35099000  0.20056000  0.88971000  1.0
  C  C85  1  0.14901000  0.11029000  0.79944000  1.0
  C  C86  1  0.64901000  0.79944000  0.11029000  1.0
  C  C87  1  0.85099000  0.88971000  0.20056000  1.0
  C  C88  1  0.57611000  0.77346000  0.71097000  1.0
  C  C89  1  0.92389000  0.28903000  0.22655000  1.0
  C  C90  1  0.42389000  0.22655000  0.28903000  1.0
  C  C91  1  0.07611000  0.71097000  0.77345000  1.0
  C  C92  1  0.50013000  0.97283000  0.75047000  1.0
  C  C93  1  0.99987000  0.24952000  0.02717000  1.0
  C  C94  1  0.49987000  0.02717000  0.24952000  1.0
  C  C95  1  0.00013000  0.75048000  0.97283000  1.0
  C  C96  1  0.49698000  0.89222000  0.83064000  1.0
  C  C97  1  0.00302000  0.16936000  0.10778000  1.0
  C  C98  1  0.50302000  0.10778000  0.16936000  1.0
  C  C99  1  0.99698000  0.83064000  0.89222000  1.0
  C  C100  1  0.53493000  0.79285000  0.81110000  1.0
  C  C101  1  0.96507000  0.18890000  0.20715000  1.0
  C  C102  1  0.46507000  0.20715000  0.18890000  1.0
  C  C103  1  0.03493000  0.81110000  0.79285000  1.0
  C  C104  1  0.57726000  0.85396000  0.63075000  1.0
  C  C105  1  0.92273000  0.36924000  0.14605000  1.0
  C  C106  1  0.42273000  0.14604000  0.36925000  1.0
  C  C107  1  0.07727000  0.63075000  0.85396000  1.0
  C  C108  1  0.46776000  0.08058000  0.76480000  1.0
  C  C109  1  0.03223000  0.23520000  0.91941000  1.0
  C  C110  1  0.53223000  0.91941000  0.23520000  1.0
  C  C111  1  0.96777000  0.76480000  0.08058000  1.0
  C  C112  1  0.54032000  0.95296000  0.65033000  1.0
  C  C113  1  0.95968000  0.34967000  0.04704000  1.0
  C  C114  1  0.45967000  0.04704000  0.34967000  1.0
  C  C115  1  0.04033000  0.65033000  0.95296000  1.0
  N  N116  1  0.73157000  0.62229000  0.65497000  1.0
  N  N117  1  0.76843000  0.34503000  0.37771000  1.0
  N  N118  1  0.26843000  0.37771000  0.34503000  1.0
  N  N119  1  0.23157000  0.65497000  0.62229000  1.0
  N  N120  1  0.56562000  0.60948000  0.68762000  1.0
  N  N121  1  0.93438000  0.31238000  0.39052000  1.0
  N  N122  1  0.43438000  0.39052000  0.31238000  1.0
  N  N123  1  0.06562000  0.68762000  0.60948000  1.0
  N  N124  1  0.74027000  0.53298000  0.63464000  1.0
  N  N125  1  0.75973000  0.36536000  0.46702000  1.0
  N  N126  1  0.25973000  0.46702000  0.36536000  1.0
  N  N127  1  0.24027000  0.63464000  0.53298000  1.0
  N  N128  1  0.64087000  0.52496000  0.65431000  1.0
  N  N129  1  0.85913000  0.34569000  0.47505000  1.0
  N  N130  1  0.35913000  0.47504000  0.34569000  1.0
  N  N131  1  0.14087000  0.65431000  0.52496000  1.0
  N  N132  1  0.39204000  0.10597000  0.85495000  1.0
  N  N133  1  0.10796000  0.14505000  0.89404000  1.0
  N  N134  1  0.60796000  0.89404000  0.14505000  1.0
  N  N135  1  0.89204000  0.85495000  0.10597000  1.0
  O  O136  1  0.50603000  0.39906000  0.47970000  1.0
  O  O137  1  0.99397000  0.52030000  0.60094000  1.0
  O  O138  1  0.49397000  0.60094000  0.52030000  1.0
  O  O139  1  0.00603000  0.47970000  0.39906000  1.0
  O  O140  1  0.19832000  0.22257000  0.20144000  1.0
  O  O141  1  0.30167000  0.79856000  0.77743000  1.0
  O  O142  1  0.80168000  0.77743000  0.79856000  1.0
  O  O143  1  0.69833000  0.20144000  0.22257000  1.0
  O  O144  1  0.16231000  0.39171000  0.16864000  1.0
  O  O145  1  0.33769000  0.83135000  0.60829000  1.0
  O  O146  1  0.83769000  0.60829000  0.83135000  1.0
  O  O147  1  0.66231000  0.16865000  0.39171000  1.0
  O  O148  1  0.40736000  0.45781000  0.69449000  1.0
  O  O149  1  0.09264000  0.30551000  0.54219000  1.0
  O  O150  1  0.59263000  0.54219000  0.30551000  1.0
  O  O151  1  0.90736000  0.69449000  0.45781000  1.0
  O  O152  1  0.32760000  0.55321000  0.81986000  1.0
  O  O153  1  0.17240000  0.18014000  0.44678000  1.0
  O  O154  1  0.67240000  0.44679000  0.18014000  1.0
  O  O155  1  0.82760000  0.81986000  0.55321000  1.0
  O  O156  1  0.63285000  0.26507000  0.67173000  1.0
  O  O157  1  0.86715000  0.32827000  0.73493000  1.0
  O  O158  1  0.36715000  0.73493000  0.32827000  1.0
  O  O159  1  0.13285000  0.67173000  0.26507000  1.0
  O  O160  1  0.50841000  0.14221000  0.69662000  1.0
  O  O161  1  0.99160000  0.30338000  0.85779000  1.0
  O  O162  1  0.49160000  0.85779000  0.30338000  1.0
  O  O163  1  0.00841000  0.69662000  0.14222000  1.0
