# generated using pymatgen
data_Zn4H43C65N17
_symmetry_space_group_name_H-M   'P 1'
_cell_length_a   11.71470000
_cell_length_b   13.41300000
_cell_length_c   15.30460000
_cell_angle_alpha   115.83500000
_cell_angle_beta   108.10000000
_cell_angle_gamma   91.68550000
_symmetry_Int_Tables_number   1
_chemical_formula_structural   Zn4H43C65N17
_chemical_formula_sum   'Zn4 H43 C65 N17'
_cell_volume   2018.80915240
_cell_formula_units_Z   1
loop_
 _symmetry_equiv_pos_site_id
 _symmetry_equiv_pos_as_xyz
  1  'x, y, z'
loop_
 _atom_site_type_symbol
 _atom_site_label
 _atom_site_symmetry_multiplicity
 _atom_site_fract_x
 _atom_site_fract_y
 _atom_site_fract_z
 _atom_site_occupancy
  Zn  Zn0  1  0.31466000  0.86853000  0.98941000  1.0
  Zn  Zn1  1  0.66242000  0.09285000  0.02425000  1.0
  Zn  Zn2  1  0.44122000  0.14510000  0.12496000  1.0
  Zn  Zn3  1  0.53178000  0.82027000  0.88024000  1.0
  H  H4  1  0.03040000  0.89286000  0.91624000  1.0
  H  H5  1  0.19044000  0.45108000  0.63567000  1.0
  H  H6  1  0.75040000  0.16353000  0.83273000  1.0
  H  H7  1  0.88128000  0.56913000  0.71592000  1.0
  H  H8  1  0.92087000  0.48991000  0.83901000  1.0
  H  H9  1  0.84613000  0.40941000  0.49150000  1.0
  H  H10  1  0.09548000  0.70788000  0.48607000  1.0
  H  H11  1  0.10252000  0.59436000  0.30819000  1.0
  H  H12  1  0.06362000  0.64357000  0.16389000  1.0
  H  H13  1  0.85676000  0.66975000  0.07930000  1.0
  H  H14  1  0.68488000  0.63641000  0.13484000  1.0
  H  H15  1  0.88014000  0.29901000  0.20983000  1.0
  H  H16  1  0.72310000  0.58592000  0.27602000  1.0
  H  H17  1  0.69859000  0.53518000  0.58859000  1.0
  H  H18  1  0.25901000  0.22561000  0.97975000  1.0
  H  H19  1  0.86619000  0.70360000  0.67415000  1.0
  H  H20  1  0.83374000  0.86306000  0.63430000  1.0
  H  H21  1  0.46843000  0.68675000  0.42120000  1.0
  H  H22  1  0.50079000  0.52696000  0.46172000  1.0
  H  H23  1  0.61129000  0.16203000  0.65877000  1.0
  H  H24  1  0.64929000  0.31218000  0.61785000  1.0
  H  H25  1  0.53201000  0.46301000  0.61723000  1.0
  H  H26  1  0.79269000  0.72364000  0.89094000  1.0
  H  H27  1  0.32287000  0.41524000  0.48474000  1.0
  H  H28  1  0.23113000  0.21360000  0.35342000  1.0
  H  H29  1  0.34914000  0.68307000  0.63389000  1.0
  H  H30  1  0.34546000  0.06356000  0.35681000  1.0
  H  H31  1  0.56392000  0.43993000  0.94564000  1.0
  H  H32  1  0.29928000  0.39824000  0.93521000  1.0
  H  H33  1  0.94789000  0.20322000  0.97614000  1.0
  H  H34  1  0.85974000  0.95086000  0.81519000  1.0
  H  H35  1  0.59242000  0.24331000  0.91723000  1.0
  H  H36  1  0.09246000  0.79989000  0.78990000  1.0
  H  H37  1  0.90408000  0.05439000  0.15855000  1.0
  H  H38  1  0.49690000  0.86043000  0.65292000  1.0
  H  H39  1  0.18898000  0.24754000  0.11407000  1.0
  H  H40  1  0.26828000  0.59169000  0.96410000  1.0
  H  H41  1  0.61510000  0.15715000  0.34066000  1.0
  H  H42  1  0.41587000  0.81129000  0.17781000  1.0
  H  H43  1  0.62180000  0.63581000  0.93729000  1.0
  H  H44  1  0.59317000  0.40470000  0.33191000  1.0
  H  H45  1  0.09007000  0.38323000  0.85536000  1.0
  H  H46  1  0.22755000  0.36773000  0.75589000  1.0
  C  C47  1  0.08993000  0.97491000  0.96762000  1.0
  C  C48  1  0.45842000  0.89675000  0.20270000  1.0
  C  C49  1  0.53141000  0.64078000  0.94236000  1.0
  C  C50  1  0.73827000  0.07344000  0.81284000  1.0
  C  C51  1  0.64926000  0.36200000  0.28766000  1.0
  C  C52  1  0.45159000  0.56434000  0.94674000  1.0
  C  C53  1  0.77306000  0.39537000  0.30722000  1.0
  C  C54  1  0.53090000  0.98251000  0.30300000  1.0
  C  C55  1  0.90491000  0.87809000  0.04145000  1.0
  C  C56  1  0.15159000  0.41204000  0.74733000  1.0
  C  C57  1  0.13144000  0.45973000  0.68046000  1.0
  C  C58  1  0.65414000  0.99365000  0.70293000  1.0
  C  C59  1  0.03269000  0.51513000  0.66638000  1.0
  C  C60  1  0.95784000  0.52560000  0.72472000  1.0
  C  C61  1  0.97936000  0.47999000  0.79357000  1.0
  C  C62  1  0.34570000  0.21527000  0.96859000  1.0
  C  C63  1  0.07496000  0.42127000  0.80354000  1.0
  C  C64  1  0.89949000  0.47751000  0.49154000  1.0
  C  C65  1  0.86883000  0.48598000  0.39936000  1.0
  C  C66  1  0.94168000  0.56917000  0.39587000  1.0
  C  C67  1  0.04172000  0.64018000  0.48629000  1.0
  C  C68  1  0.07319000  0.63048000  0.57798000  1.0
  C  C69  1  0.41367000  0.27675000  0.94109000  1.0
  C  C70  1  0.00097000  0.54607000  0.58042000  1.0
  C  C71  1  0.01063000  0.60289000  0.26945000  1.0
  C  C72  1  0.98873000  0.62997000  0.18806000  1.0
  C  C73  1  0.87175000  0.64263000  0.13902000  1.0
  C  C74  1  0.30239000  0.72390000  0.68768000  1.0
  C  C75  1  0.77636000  0.62498000  0.17046000  1.0
  C  C76  1  0.79793000  0.59646000  0.25089000  1.0
  C  C77  1  0.91574000  0.58690000  0.30293000  1.0
  C  C78  1  0.77842000  0.70000000  0.61956000  1.0
  C  C79  1  0.76063000  0.78938000  0.59690000  1.0
  C  C80  1  0.17720000  0.70891000  0.67124000  1.0
  C  C81  1  0.64848000  0.78644000  0.52633000  1.0
  C  C82  1  0.55578000  0.69038000  0.47649000  1.0
  C  C83  1  0.57377000  0.60085000  0.49959000  1.0
  C  C84  1  0.68471000  0.60578000  0.57159000  1.0
  C  C85  1  0.58949000  0.88709000  0.41634000  1.0
  C  C86  1  0.51541000  0.22406000  0.93618000  1.0
  C  C87  1  0.56295000  0.98393000  0.40393000  1.0
  C  C88  1  0.56706000  0.08323000  0.49383000  1.0
  C  C89  1  0.61257000  0.08655000  0.59128000  1.0
  C  C90  1  0.64179000  0.99151000  0.60360000  1.0
  C  C91  1  0.35116000  0.61850000  0.95625000  1.0
  C  C92  1  0.62706000  0.88881000  0.51425000  1.0
  C  C93  1  0.55734000  0.29032000  0.56001000  1.0
  C  C94  1  0.49163000  0.37545000  0.55920000  1.0
  C  C95  1  0.37445000  0.34885000  0.48499000  1.0
  C  C96  1  0.32284000  0.23616000  0.41159000  1.0
  C  C97  1  0.38766000  0.15121000  0.41312000  1.0
  C  C98  1  0.17224000  0.78299000  0.76816000  1.0
  C  C99  1  0.50613000  0.17685000  0.48719000  1.0
  C  C100  1  0.47207000  0.45673000  0.94165000  1.0
  C  C101  1  0.38951000  0.37929000  0.93575000  1.0
  C  C102  1  0.79532000  0.30846000  0.22483000  1.0
  C  C103  1  0.95290000  0.11350000  0.93994000  1.0
  C  C104  1  0.86029000  0.04133000  0.85167000  1.0
  C  C105  1  0.57170000  0.92930000  0.71315000  1.0
  C  C106  1  0.16973000  0.15586000  0.07109000  1.0
  C  C107  1  0.06168000  0.08300000  0.99061000  1.0
  C  C108  1  0.57202000  0.78185000  0.32677000  1.0
  C  C109  1  0.55996000  0.07358000  0.28586000  1.0
  C  C110  1  0.80374000  0.80924000  0.95207000  1.0
  C  C111  1  0.85896000  0.97572000  0.08729000  1.0
  N  N112  1  0.20617000  0.98372000  0.02520000  1.0
  N  N113  1  0.40499000  0.13510000  0.98327000  1.0
  N  N114  1  0.36584000  0.79987000  0.78793000  1.0
  N  N115  1  0.50862000  0.14072000  0.96194000  1.0
  N  N116  1  0.28570000  0.83696000  0.83811000  1.0
  N  N117  1  0.58691000  0.96677000  0.81666000  1.0
  N  N118  1  0.25659000  0.09706000  0.09111000  1.0
  N  N119  1  0.36935000  0.71672000  0.95445000  1.0
  N  N120  1  0.55030000  0.69395000  0.25348000  1.0
  N  N121  1  0.69313000  0.22948000  0.16148000  1.0
  N  N122  1  0.50716000  0.04402000  0.18426000  1.0
  N  N123  1  0.70587000  0.86225000  0.94399000  1.0
  N  N124  1  0.73961000  0.96677000  0.02992000  1.0
  N  N125  1  0.44420000  0.93584000  0.13358000  1.0
  N  N126  1  0.48125000  0.73116000  0.94641000  1.0
  N  N127  1  0.60127000  0.26299000  0.19923000  1.0
  N  N128  1  0.67573000  0.05233000  0.87553000  1.0
