# generated using pymatgen
data_H16RhC17NO4
_symmetry_space_group_name_H-M   'P 1'
_cell_length_a   9.53806000
_cell_length_b   10.22280000
_cell_length_c   10.66460000
_cell_angle_alpha   72.25340000
_cell_angle_beta   64.75740000
_cell_angle_gamma   63.06130000
_symmetry_Int_Tables_number   1
_chemical_formula_structural   H16RhC17NO4
_chemical_formula_sum   'H32 Rh2 C34 N2 O8'
_cell_volume   830.43362085
_cell_formula_units_Z   2
loop_
 _symmetry_equiv_pos_site_id
 _symmetry_equiv_pos_as_xyz
  1  'x, y, z'
loop_
 _atom_site_type_symbol
 _atom_site_label
 _atom_site_symmetry_multiplicity
 _atom_site_fract_x
 _atom_site_fract_y
 _atom_site_fract_z
 _atom_site_occupancy
  H  H0  1  0.10811000  0.34399000  0.93106000  1.0
  H  H1  1  0.89190000  0.65601000  0.06894000  1.0
  H  H2  1  0.07383000  0.20804000  0.17287000  1.0
  H  H3  1  0.92617000  0.79196000  0.82713000  1.0
  H  H4  1  0.87699000  0.07478000  0.28191000  1.0
  H  H5  1  0.12301000  0.92522000  0.71809000  1.0
  H  H6  1  0.71485000  0.07904000  0.14789000  1.0
  H  H7  1  0.28516000  0.92096000  0.85211000  1.0
  H  H8  1  0.74668000  0.21851000  0.90842000  1.0
  H  H9  1  0.25332000  0.78149000  0.09157000  1.0
  H  H10  1  0.50622000  0.08617000  0.36738000  1.0
  H  H11  1  0.49378000  0.91384000  0.63261000  1.0
  H  H12  1  0.67842000  0.83480000  0.28893000  1.0
  H  H13  1  0.32158000  0.16520000  0.71107000  1.0
  H  H14  1  0.54218000  0.69896000  0.25452000  1.0
  H  H15  1  0.45782000  0.30104000  0.74548000  1.0
  H  H16  1  0.23364000  0.80227000  0.31105000  1.0
  H  H17  1  0.76636000  0.19774000  0.68894000  1.0
  H  H18  1  0.06405000  0.05235000  0.38894000  1.0
  H  H19  1  0.93596000  0.94765000  0.61106000  1.0
  H  H20  1  0.50533000  0.38068000  0.33150000  1.0
  H  H21  1  0.49466000  0.61932000  0.66851000  1.0
  H  H22  1  0.77231000  0.36572000  0.34211000  1.0
  H  H23  1  0.22767000  0.63428000  0.65790000  1.0
  H  H24  1  0.41706000  0.37362000  0.10482000  1.0
  H  H25  1  0.58295000  0.62638000  0.89518000  1.0
  H  H26  1  0.36192000  0.43347000  0.95056000  1.0
  H  H27  1  0.63808000  0.56653000  0.04943000  1.0
  H  H28  1  0.24103000  0.35128000  0.10672000  1.0
  H  H29  1  0.75897000  0.64872000  0.89328000  1.0
  H  H30  1  0.44773000  0.23916000  0.01038000  1.0
  H  H31  1  0.55227000  0.76083000  0.98962000  1.0
  Rh  Rh32  1  0.12493000  0.50712000  0.49629000  1.0
  Rh  Rh33  1  0.87506000  0.49288000  0.50371000  1.0
  C  C34  1  0.95085000  0.36978000  0.76051000  1.0
  C  C35  1  0.04915000  0.63022000  0.23949000  1.0
  C  C36  1  0.92948000  0.28931000  0.90509000  1.0
  C  C37  1  0.07052000  0.71069000  0.09491000  1.0
  C  C38  1  0.02201000  0.28592000  0.97977000  1.0
  C  C39  1  0.97799000  0.71408000  0.02023000  1.0
  C  C40  1  0.00217000  0.20991000  0.11512000  1.0
  C  C41  1  0.99783000  0.79009000  0.88488000  1.0
  C  C42  1  0.89158000  0.13533000  0.17622000  1.0
  C  C43  1  0.10842000  0.86467000  0.82378000  1.0
  C  C44  1  0.79988000  0.13806000  0.10177000  1.0
  C  C45  1  0.20012000  0.86194000  0.89823000  1.0
  C  C46  1  0.81790000  0.21544000  0.96703000  1.0
  C  C47  1  0.18210000  0.78456000  0.03298000  1.0
  C  C48  1  0.17574000  0.23565000  0.42108000  1.0
  C  C49  1  0.82427000  0.76435000  0.57891000  1.0
  C  C50  1  0.27607000  0.08506000  0.37929000  1.0
  C  C51  1  0.72393000  0.91494000  0.62071000  1.0
  C  C52  1  0.44910000  0.02346000  0.35252000  1.0
  C  C53  1  0.55090000  0.97655000  0.64748000  1.0
  C  C54  1  0.54432000  0.88453000  0.30825000  1.0
  C  C55  1  0.45568000  0.11547000  0.69175000  1.0
  C  C56  1  0.46704000  0.80688000  0.29040000  1.0
  C  C57  1  0.53297000  0.19312000  0.70960000  1.0
  C  C58  1  0.29413000  0.86559000  0.32039000  1.0
  C  C59  1  0.70587000  0.13441000  0.67961000  1.0
  C  C60  1  0.19888000  0.00448000  0.36484000  1.0
  C  C61  1  0.80112000  0.99553000  0.63515000  1.0
  C  C62  1  0.50366000  0.43456000  0.40625000  1.0
  C  C63  1  0.49633000  0.56544000  0.59375000  1.0
  C  C64  1  0.65001000  0.42582000  0.41252000  1.0
  C  C65  1  0.34998000  0.57418000  0.58749000  1.0
  C  C66  1  0.36737000  0.34906000  0.04290000  1.0
  C  C67  1  0.63263000  0.65094000  0.95710000  1.0
  N  N68  1  0.35255000  0.50891000  0.49370000  1.0
  N  N69  1  0.64744000  0.49109000  0.50630000  1.0
  O  O70  1  0.07708000  0.40935000  0.69985000  1.0
  O  O71  1  0.92292000  0.59065000  0.30015000  1.0
  O  O72  1  0.84321000  0.39273000  0.70642000  1.0
  O  O73  1  0.15679000  0.60727000  0.29358000  1.0
  O  O74  1  0.25395000  0.30233000  0.43403000  1.0
  O  O75  1  0.74605000  0.69767000  0.56597000  1.0
  O  O76  1  0.01867000  0.28841000  0.44015000  1.0
  O  O77  1  0.98132000  0.71159000  0.55985000  1.0
