# generated using pymatgen
data_CdH8C2(NCl)2
_symmetry_space_group_name_H-M   'P 1'
_cell_length_a   4.15279000
_cell_length_b   7.81542000
_cell_length_c   9.59082000
_cell_angle_alpha   89.99990000
_cell_angle_beta   89.99920000
_cell_angle_gamma   90.00000000
_symmetry_Int_Tables_number   1
_chemical_formula_structural   CdH8C2(NCl)2
_chemical_formula_sum   'Cd2 H16 C4 N4 Cl4'
_cell_volume   311.27771675
_cell_formula_units_Z   2
loop_
 _symmetry_equiv_pos_site_id
 _symmetry_equiv_pos_as_xyz
  1  'x, y, z'
loop_
 _atom_site_type_symbol
 _atom_site_label
 _atom_site_symmetry_multiplicity
 _atom_site_fract_x
 _atom_site_fract_y
 _atom_site_fract_z
 _atom_site_occupancy
  Cd  Cd0  1  0.00000000  0.00000000  0.50000000  1.0
  Cd  Cd1  1  0.00000000  0.50000000  0.00000000  1.0
  H  H2  1  0.78765000  0.39020000  0.40302000  1.0
  H  H3  1  0.78765000  0.60980000  0.59698000  1.0
  H  H4  1  0.21235000  0.89020000  0.09698000  1.0
  H  H5  1  0.21235000  0.10980000  0.90302000  1.0
  H  H6  1  0.21235000  0.60980000  0.59698000  1.0
  H  H7  1  0.21235000  0.39020000  0.40302000  1.0
  H  H8  1  0.78765000  0.10980000  0.90302000  1.0
  H  H9  1  0.78765000  0.89020000  0.09698000  1.0
  H  H10  1  0.80435000  0.29140000  0.64296000  1.0
  H  H11  1  0.80435000  0.70860000  0.35704000  1.0
  H  H12  1  0.19565000  0.79140000  0.85704000  1.0
  H  H13  1  0.19564000  0.20860000  0.14296000  1.0
  H  H14  1  0.19565000  0.70860000  0.35704000  1.0
  H  H15  1  0.19565000  0.29140000  0.64296000  1.0
  H  H16  1  0.80435000  0.20860000  0.14296000  1.0
  H  H17  1  0.80435000  0.79140000  0.85704000  1.0
  C  C18  1  0.00001000  0.40956000  0.46957000  1.0
  C  C19  1  0.99999000  0.59043000  0.53043000  1.0
  C  C20  1  0.99999000  0.90957000  0.03043000  1.0
  C  C21  1  0.00001000  0.09043000  0.96957000  1.0
  N  N22  1  0.99999000  0.27561000  0.57834000  1.0
  N  N23  1  0.00001000  0.72439000  0.42166000  1.0
  N  N24  1  0.00001000  0.77561000  0.92166000  1.0
  N  N25  1  0.99999000  0.22439000  0.07834000  1.0
  Cl  Cl26  1  0.50000000  0.07444000  0.32256000  1.0
  Cl  Cl27  1  0.50000000  0.92556000  0.67744000  1.0
  Cl  Cl28  1  0.50000000  0.57444000  0.17744000  1.0
  Cl  Cl29  1  0.50000000  0.42556000  0.82256000  1.0
