# generated using pymatgen
data_SmH28C24N3O11
_symmetry_space_group_name_H-M   'P 1'
_cell_length_a   9.76349000
_cell_length_b   10.83130000
_cell_length_c   13.07390000
_cell_angle_alpha   101.39200000
_cell_angle_beta   93.09030000
_cell_angle_gamma   104.58300000
_symmetry_Int_Tables_number   1
_chemical_formula_structural   SmH28C24N3O11
_chemical_formula_sum   'Sm2 H56 C48 N6 O22'
_cell_volume   1303.82887956
_cell_formula_units_Z   2
loop_
 _symmetry_equiv_pos_site_id
 _symmetry_equiv_pos_as_xyz
  1  'x, y, z'
loop_
 _atom_site_type_symbol
 _atom_site_label
 _atom_site_symmetry_multiplicity
 _atom_site_fract_x
 _atom_site_fract_y
 _atom_site_fract_z
 _atom_site_occupancy
  Sm  Sm0  1  0.23851000  0.01473000  0.99796000  1.0
  Sm  Sm1  1  0.76149000  0.98527000  0.00204000  1.0
  H  H2  1  0.72421000  0.00750000  0.73310000  1.0
  H  H3  1  0.27580000  0.99250000  0.26690000  1.0
  H  H4  1  0.79319000  0.07257000  0.56300000  1.0
  H  H5  1  0.20682000  0.92744000  0.43700000  1.0
  H  H6  1  0.64097000  0.18717000  0.47741000  1.0
  H  H7  1  0.35903000  0.81284000  0.52259000  1.0
  H  H8  1  0.86491000  0.26822000  0.78721000  1.0
  H  H9  1  0.13509000  0.73178000  0.21279000  1.0
  H  H10  1  0.10147000  0.66656000  0.79896000  1.0
  H  H11  1  0.89853000  0.33345000  0.20104000  1.0
  H  H12  1  0.30002000  0.66021000  0.08871000  1.0
  H  H13  1  0.69999000  0.33980000  0.91129000  1.0
  H  H14  1  0.42878000  0.61985000  0.00699000  1.0
  H  H15  1  0.57122000  0.38014000  0.99301000  1.0
  H  H16  1  0.89405000  0.47382000  0.71671000  1.0
  H  H17  1  0.10595000  0.52618000  0.28329000  1.0
  H  H18  1  0.37636000  0.54166000  0.21928000  1.0
  H  H19  1  0.62364000  0.45834000  0.78072000  1.0
  H  H20  1  0.52453000  0.66118000  0.19218000  1.0
  H  H21  1  0.47548000  0.33882000  0.80782000  1.0
  H  H22  1  0.49998000  0.49312000  0.13551000  1.0
  H  H23  1  0.50002000  0.50688000  0.86449000  1.0
  H  H24  1  0.87043000  0.31840000  0.49749000  1.0
  H  H25  1  0.12957000  0.68160000  0.50251000  1.0
  H  H26  1  0.84829000  0.17181000  0.31604000  1.0
  H  H27  1  0.15170000  0.82819000  0.68396000  1.0
  H  H28  1  0.45781000  0.33393000  0.45639000  1.0
  H  H29  1  0.54219000  0.66608000  0.54361000  1.0
  H  H30  1  0.46926000  0.47215000  0.39958000  1.0
  H  H31  1  0.53075000  0.52785000  0.60043000  1.0
  H  H32  1  0.11440000  0.44766000  0.58015000  1.0
  H  H33  1  0.88559000  0.55234000  0.41985000  1.0
  H  H34  1  0.56848000  0.22956000  0.30212000  1.0
  H  H35  1  0.43151000  0.77043000  0.69788000  1.0
  H  H36  1  0.68143000  0.38299000  0.37240000  1.0
  H  H37  1  0.31857000  0.61700000  0.62760000  1.0
  H  H38  1  0.58644000  0.37129000  0.24960000  1.0
  H  H39  1  0.41356000  0.62870000  0.75040000  1.0
  H  H40  1  0.25804000  0.29682000  0.68074000  1.0
  H  H41  1  0.74196000  0.70318000  0.31926000  1.0
  H  H42  1  0.26528000  0.18881000  0.56097000  1.0
  H  H43  1  0.73472000  0.81119000  0.43903000  1.0
  H  H44  1  0.05603000  0.02110000  0.59518000  1.0
  H  H45  1  0.94397000  0.97889000  0.40482000  1.0
  H  H46  1  0.01225000  0.17331000  0.61142000  1.0
  H  H47  1  0.98775000  0.82669000  0.38858000  1.0
  H  H48  1  0.05826000  0.11549000  0.72339000  1.0
  H  H49  1  0.94175000  0.88451000  0.27661000  1.0
  H  H50  1  0.42718000  0.83972000  0.91947000  1.0
  H  H51  1  0.57282000  0.16029000  0.08053000  1.0
  H  H52  1  0.28485000  0.73152000  0.93060000  1.0
  H  H53  1  0.71515000  0.26848000  0.06940000  1.0
  H  H54  1  0.34994000  0.25333000  0.15474000  1.0
  H  H55  1  0.65006000  0.74666000  0.84526000  1.0
  H  H56  1  0.32265000  0.29491000  0.04931000  1.0
  H  H57  1  0.67734000  0.70509000  0.95069000  1.0
  C  C58  1  0.50308000  0.04300000  0.83455000  1.0
  C  C59  1  0.49693000  0.95700000  0.16545000  1.0
  C  C60  1  0.53612000  0.07464000  0.73027000  1.0
  C  C61  1  0.46389000  0.92536000  0.26973000  1.0
  C  C62  1  0.45106000  0.12870000  0.66908000  1.0
  C  C63  1  0.54894000  0.87130000  0.33091000  1.0
  C  C64  1  0.65989000  0.05327000  0.68971000  1.0
  C  C65  1  0.34012000  0.94674000  0.31029000  1.0
  C  C66  1  0.69876000  0.09041000  0.59678000  1.0
  C  C67  1  0.30125000  0.90960000  0.40322000  1.0
  C  C68  1  0.61336000  0.15239000  0.54862000  1.0
  C  C69  1  0.38665000  0.84761000  0.45138000  1.0
  C  C70  1  0.16441000  0.46199000  0.93716000  1.0
  C  C71  1  0.83559000  0.53801000  0.06284000  1.0
  C  C72  1  0.02946000  0.22346000  0.93565000  1.0
  C  C73  1  0.97053000  0.77654000  0.06435000  1.0
  C  C74  1  0.05153000  0.34804000  0.89701000  1.0
  C  C75  1  0.94847000  0.65197000  0.10299000  1.0
  C  C76  1  0.95375000  0.35419000  0.81768000  1.0
  C  C77  1  0.04625000  0.64581000  0.18232000  1.0
  C  C78  1  0.08355000  0.57367000  0.82332000  1.0
  C  C79  1  0.91645000  0.42633000  0.17669000  1.0
  C  C80  1  0.35983000  0.58752000  0.06558000  1.0
  C  C81  1  0.64018000  0.41248000  0.93442000  1.0
  C  C82  1  0.96946000  0.46749000  0.77871000  1.0
  C  C83  1  0.03054000  0.53252000  0.22129000  1.0
  C  C84  1  0.44441000  0.56880000  0.15865000  1.0
  C  C85  1  0.55559000  0.43120000  0.84135000  1.0
  C  C86  1  0.05180000  0.13510000  0.19865000  1.0
  C  C87  1  0.94819000  0.86490000  0.80135000  1.0
  C  C88  1  0.07209000  0.22259000  0.30635000  1.0
  C  C89  1  0.92791000  0.77741000  0.69365000  1.0
  C  C90  1  0.20549000  0.30043000  0.36116000  1.0
  C  C91  1  0.79451000  0.69957000  0.63884000  1.0
  C  C92  1  0.96323000  0.31106000  0.45655000  1.0
  C  C93  1  0.03677000  0.68894000  0.54344000  1.0
  C  C94  1  0.95126000  0.23067000  0.35726000  1.0
  C  C95  1  0.04874000  0.76933000  0.64274000  1.0
  C  C96  1  0.46090000  0.36692000  0.38205000  1.0
  C  C97  1  0.53909000  0.63308000  0.61795000  1.0
  C  C98  1  0.09906000  0.38322000  0.50234000  1.0
  C  C99  1  0.90093000  0.61678000  0.49766000  1.0
  C  C100  1  0.58055000  0.33530000  0.32242000  1.0
  C  C101  1  0.41945000  0.66470000  0.67759000  1.0
  C  C102  1  0.23503000  0.19307000  0.64081000  1.0
  C  C103  1  0.76497000  0.80693000  0.35919000  1.0
  C  C104  1  0.08140000  0.12105000  0.64303000  1.0
  C  C105  1  0.91860000  0.87895000  0.35697000  1.0
  N  N106  1  0.49218000  0.17148000  0.58359000  1.0
  N  N107  1  0.50782000  0.82852000  0.41641000  1.0
  N  N108  1  0.17843000  0.57107000  0.90091000  1.0
  N  N109  1  0.82157000  0.42893000  0.09909000  1.0
  N  N110  1  0.21735000  0.37895000  0.45594000  1.0
  N  N111  1  0.78265000  0.62105000  0.54406000  1.0
  O  O112  1  0.92624000  0.09799000  0.15171000  1.0
  O  O113  1  0.07376000  0.90201000  0.84830000  1.0
  O  O114  1  0.57878000  0.97846000  0.87219000  1.0
  O  O115  1  0.42122000  0.02154000  0.12780000  1.0
  O  O116  1  0.90120000  0.16483000  0.94136000  1.0
  O  O117  1  0.09880000  0.83518000  0.05863000  1.0
  O  O118  1  0.40533000  0.08123000  0.88042000  1.0
  O  O119  1  0.59468000  0.91878000  0.11958000  1.0
  O  O120  1  0.32606000  0.82558000  0.92891000  1.0
  O  O121  1  0.67394000  0.17442000  0.07109000  1.0
  O  O122  1  0.38205000  0.25108000  0.08448000  1.0
  O  O123  1  0.61794000  0.74891000  0.91551000  1.0
  O  O124  1  0.13794000  0.18486000  0.95677000  1.0
  O  O125  1  0.86207000  0.81514000  0.04323000  1.0
  O  O126  1  0.15917000  0.10439000  0.16222000  1.0
  O  O127  1  0.84083000  0.89561000  0.83778000  1.0
  O  O128  1  0.32217000  0.13384000  0.69844000  1.0
  O  O129  1  0.67783000  0.86616000  0.30156000  1.0
  O  O130  1  0.25803000  0.46237000  0.01745000  1.0
  O  O131  1  0.74196000  0.53763000  0.98255000  1.0
  O  O132  1  0.32693000  0.29765000  0.31651000  1.0
  O  O133  1  0.67307000  0.70235000  0.68350000  1.0
