# generated using pymatgen
data_CdH12C18NO4
_symmetry_space_group_name_H-M   'P 1'
_cell_length_a   11.29590000
_cell_length_b   11.29610000
_cell_length_c   13.47600000
_cell_angle_alpha   108.03500000
_cell_angle_beta   108.03500000
_cell_angle_gamma   91.48180000
_symmetry_Int_Tables_number   1
_chemical_formula_structural   CdH12C18NO4
_chemical_formula_sum   'Cd4 H48 C72 N4 O16'
_cell_volume   1540.56313294
_cell_formula_units_Z   4
loop_
 _symmetry_equiv_pos_site_id
 _symmetry_equiv_pos_as_xyz
  1  'x, y, z'
loop_
 _atom_site_type_symbol
 _atom_site_label
 _atom_site_symmetry_multiplicity
 _atom_site_fract_x
 _atom_site_fract_y
 _atom_site_fract_z
 _atom_site_occupancy
  Cd  Cd0  1  0.47786000  0.42964000  0.10506000  1.0
  Cd  Cd1  1  0.57035000  0.52214000  0.39494000  1.0
  Cd  Cd2  1  0.52214000  0.57036000  0.89494000  1.0
  Cd  Cd3  1  0.42965000  0.47786000  0.60506000  1.0
  H  H4  1  0.35943000  0.80235000  0.04361000  1.0
  H  H5  1  0.19765000  0.64058000  0.45640000  1.0
  H  H6  1  0.64057000  0.19765000  0.95639000  1.0
  H  H7  1  0.80235000  0.35942000  0.54360000  1.0
  H  H8  1  0.36455000  0.03173000  0.06740000  1.0
  H  H9  1  0.96827000  0.63546000  0.43261000  1.0
  H  H10  1  0.63545000  0.96827000  0.93260000  1.0
  H  H11  1  0.03173000  0.36454000  0.56739000  1.0
  H  H12  1  0.71908000  0.77820000  0.33688000  1.0
  H  H13  1  0.22180000  0.28092000  0.16311000  1.0
  H  H14  1  0.28092000  0.22180000  0.66312000  1.0
  H  H15  1  0.77820000  0.71908000  0.83689000  1.0
  H  H16  1  0.90193000  0.92937000  0.47331000  1.0
  H  H17  1  0.07063000  0.09806000  0.02668000  1.0
  H  H18  1  0.09807000  0.07063000  0.52669000  1.0
  H  H19  1  0.92937000  0.90194000  0.97332000  1.0
  H  H20  1  0.91609000  0.15537000  0.48599000  1.0
  H  H21  1  0.84463000  0.08390000  0.01400000  1.0
  H  H22  1  0.08391000  0.84463000  0.51401000  1.0
  H  H23  1  0.15537000  0.91610000  0.98600000  1.0
  H  H24  1  0.74270000  0.22977000  0.36607000  1.0
  H  H25  1  0.77024000  0.25730000  0.13393000  1.0
  H  H26  1  0.25730000  0.77023000  0.63393000  1.0
  H  H27  1  0.22977000  0.74270000  0.86607000  1.0
  H  H28  1  0.20172000  0.51538000  0.99704000  1.0
  H  H29  1  0.48462000  0.79829000  0.50296000  1.0
  H  H30  1  0.79829000  0.48462000  0.00296000  1.0
  H  H31  1  0.51538000  0.20172000  0.49704000  1.0
  H  H32  1  0.98975000  0.41997000  0.85798000  1.0
  H  H33  1  0.58004000  0.01025000  0.64203000  1.0
  H  H34  1  0.01024000  0.58003000  0.14203000  1.0
  H  H35  1  0.41996000  0.98975000  0.35797000  1.0
  H  H36  1  0.12354000  0.05826000  0.81135000  1.0
  H  H37  1  0.94173000  0.87645000  0.68864000  1.0
  H  H38  1  0.87646000  0.94174000  0.18865000  1.0
  H  H39  1  0.05826000  0.12355000  0.31135000  1.0
  H  H40  1  0.32722000  0.16844000  0.95580000  1.0
  H  H41  1  0.83155000  0.67277000  0.54420000  1.0
  H  H42  1  0.67278000  0.83156000  0.04420000  1.0
  H  H43  1  0.16845000  0.32723000  0.45580000  1.0
  H  H44  1  0.93910000  0.10377000  0.66160000  1.0
  H  H45  1  0.89623000  0.06090000  0.83840000  1.0
  H  H46  1  0.06090000  0.89623000  0.33840000  1.0
  H  H47  1  0.10377000  0.93910000  0.16160000  1.0
  H  H48  1  0.86151000  0.23426000  0.70288000  1.0
  H  H49  1  0.76575000  0.13851000  0.79713000  1.0
  H  H50  1  0.13849000  0.76574000  0.29712000  1.0
  H  H51  1  0.23425000  0.86149000  0.20287000  1.0
  C  C52  1  0.52258000  0.82930000  0.18479000  1.0
  C  C53  1  0.17070000  0.47743000  0.31521000  1.0
  C  C54  1  0.47742000  0.17070000  0.81521000  1.0
  C  C55  1  0.82930000  0.52257000  0.68479000  1.0
  C  C56  1  0.43319000  0.87109000  0.11126000  1.0
  C  C57  1  0.12891000  0.56682000  0.38875000  1.0
  C  C58  1  0.56681000  0.12891000  0.88874000  1.0
  C  C59  1  0.87109000  0.43318000  0.61125000  1.0
  C  C60  1  0.43670000  0.99933000  0.12421000  1.0
  C  C61  1  0.00067000  0.56331000  0.37580000  1.0
  C  C62  1  0.56330000  0.00067000  0.87579000  1.0
  C  C63  1  0.99933000  0.43669000  0.62420000  1.0
  C  C64  1  0.53115000  0.08713000  0.20897000  1.0
  C  C65  1  0.91288000  0.46886000  0.29103000  1.0
  C  C66  1  0.46885000  0.91287000  0.79103000  1.0
  C  C67  1  0.08712000  0.53114000  0.70897000  1.0
  C  C68  1  0.63044000  0.04689000  0.28144000  1.0
  C  C69  1  0.95311000  0.36956000  0.21856000  1.0
  C  C70  1  0.36956000  0.95311000  0.71856000  1.0
  C  C71  1  0.04689000  0.63044000  0.78144000  1.0
  C  C72  1  0.62466000  0.91594000  0.27129000  1.0
  C  C73  1  0.08407000  0.37533000  0.22872000  1.0
  C  C74  1  0.37534000  0.08406000  0.72871000  1.0
  C  C75  1  0.91593000  0.62467000  0.77128000  1.0
  C  C76  1  0.72456000  0.87671000  0.34316000  1.0
  C  C77  1  0.12329000  0.27544000  0.15684000  1.0
  C  C78  1  0.27544000  0.12329000  0.65685000  1.0
  C  C79  1  0.87671000  0.72456000  0.84316000  1.0
  C  C80  1  0.82659000  0.96154000  0.41899000  1.0
  C  C81  1  0.03846000  0.17341000  0.08101000  1.0
  C  C82  1  0.17341000  0.03846000  0.58101000  1.0
  C  C83  1  0.96154000  0.82659000  0.91899000  1.0
  C  C84  1  0.83414000  0.08926000  0.42663000  1.0
  C  C85  1  0.91074000  0.16585000  0.07337000  1.0
  C  C86  1  0.16586000  0.91074000  0.57337000  1.0
  C  C87  1  0.08926000  0.83414000  0.92663000  1.0
  C  C88  1  0.73801000  0.13127000  0.35992000  1.0
  C  C89  1  0.86874000  0.26199000  0.14008000  1.0
  C  C90  1  0.26200000  0.86873000  0.64008000  1.0
  C  C91  1  0.13127000  0.73801000  0.85992000  1.0
  C  C92  1  0.50807000  0.69205000  0.16836000  1.0
  C  C93  1  0.30795000  0.49193000  0.33164000  1.0
  C  C94  1  0.49193000  0.30796000  0.83165000  1.0
  C  C95  1  0.69205000  0.50807000  0.66836000  1.0
  C  C96  1  0.52359000  0.22350000  0.22087000  1.0
  C  C97  1  0.77651000  0.47641000  0.27913000  1.0
  C  C98  1  0.47641000  0.77650000  0.77912000  1.0
  C  C99  1  0.22349000  0.52359000  0.72087000  1.0
  C  C100  1  0.17943000  0.41401000  0.95535000  1.0
  C  C101  1  0.58599000  0.82057000  0.54465000  1.0
  C  C102  1  0.82057000  0.58599000  0.04464000  1.0
  C  C103  1  0.41401000  0.17943000  0.45535000  1.0
  C  C104  1  0.06151000  0.35999000  0.87720000  1.0
  C  C105  1  0.64001000  0.93849000  0.62280000  1.0
  C  C106  1  0.93848000  0.64001000  0.12279000  1.0
  C  C107  1  0.35999000  0.06151000  0.37720000  1.0
  C  C108  1  0.03794000  0.23013000  0.82206000  1.0
  C  C109  1  0.76987000  0.96206000  0.67794000  1.0
  C  C110  1  0.96206000  0.76987000  0.17794000  1.0
  C  C111  1  0.23013000  0.03794000  0.32206000  1.0
  C  C112  1  0.13527000  0.15991000  0.85168000  1.0
  C  C113  1  0.84009000  0.86473000  0.64832000  1.0
  C  C114  1  0.86473000  0.84009000  0.14832000  1.0
  C  C115  1  0.15991000  0.13527000  0.35168000  1.0
  C  C116  1  0.24954000  0.22021000  0.93123000  1.0
  C  C117  1  0.77979000  0.75045000  0.56877000  1.0
  C  C118  1  0.75046000  0.77979000  0.06877000  1.0
  C  C119  1  0.22021000  0.24955000  0.43123000  1.0
  C  C120  1  0.91596000  0.16532000  0.73222000  1.0
  C  C121  1  0.83469000  0.08405000  0.76778000  1.0
  C  C122  1  0.08404000  0.83468000  0.26778000  1.0
  C  C123  1  0.16532000  0.91595000  0.23222000  1.0
  N  N124  1  0.27235000  0.34573000  0.98194000  1.0
  N  N125  1  0.65427000  0.72765000  0.51806000  1.0
  N  N126  1  0.72765000  0.65427000  0.01806000  1.0
  N  N127  1  0.34573000  0.27234000  0.48194000  1.0
  O  O128  1  0.46730000  0.61562000  0.06730000  1.0
  O  O129  1  0.38438000  0.53271000  0.43270000  1.0
  O  O130  1  0.53270000  0.38438000  0.93270000  1.0
  O  O131  1  0.61562000  0.46729000  0.56730000  1.0
  O  O132  1  0.53135000  0.65417000  0.25023000  1.0
  O  O133  1  0.34582000  0.46865000  0.24977000  1.0
  O  O134  1  0.46865000  0.34583000  0.74977000  1.0
  O  O135  1  0.65418000  0.53135000  0.75023000  1.0
  O  O136  1  0.55270000  0.30259000  0.31740000  1.0
  O  O137  1  0.69742000  0.44730000  0.18259000  1.0
  O  O138  1  0.44730000  0.69741000  0.68260000  1.0
  O  O139  1  0.30258000  0.55270000  0.81741000  1.0
  O  O140  1  0.48410000  0.24411000  0.12895000  1.0
  O  O141  1  0.75589000  0.51590000  0.37106000  1.0
  O  O142  1  0.51590000  0.75589000  0.87105000  1.0
  O  O143  1  0.24411000  0.48410000  0.62894000  1.0
