# generated using pymatgen
data_KHC14(O2F5)2
_symmetry_space_group_name_H-M   'P 1'
_cell_length_a   6.59482000
_cell_length_b   7.39389000
_cell_length_c   16.00740000
_cell_angle_alpha   97.27310000
_cell_angle_beta   92.32380000
_cell_angle_gamma   103.58100000
_symmetry_Int_Tables_number   1
_chemical_formula_structural   KHC14(O2F5)2
_chemical_formula_sum   'K2 H2 C28 O8 F20'
_cell_volume   750.61178333
_cell_formula_units_Z   2
loop_
 _symmetry_equiv_pos_site_id
 _symmetry_equiv_pos_as_xyz
  1  'x, y, z'
loop_
 _atom_site_type_symbol
 _atom_site_label
 _atom_site_symmetry_multiplicity
 _atom_site_fract_x
 _atom_site_fract_y
 _atom_site_fract_z
 _atom_site_occupancy
  K  K0  1  0.71218000  0.31232000  0.50147000  1.0
  K  K1  1  0.28782000  0.68767000  0.49853000  1.0
  H  H2  1  0.74666000  0.84620000  0.44765000  1.0
  H  H3  1  0.25334000  0.15378000  0.55235000  1.0
  C  C4  1  0.81944000  0.82138000  0.57985000  1.0
  C  C5  1  0.18057000  0.17862000  0.42016000  1.0
  C  C6  1  0.80936000  0.87747000  0.67340000  1.0
  C  C7  1  0.19065000  0.12253000  0.32660000  1.0
  C  C8  1  0.78176000  0.05353000  0.70723000  1.0
  C  C9  1  0.21825000  0.94648000  0.29277000  1.0
  C  C10  1  0.77662000  0.10691000  0.79358000  1.0
  C  C11  1  0.22338000  0.89310000  0.20642000  1.0
  C  C12  1  0.79420000  0.98105000  0.84970000  1.0
  C  C13  1  0.20579000  0.01897000  0.15030000  1.0
  C  C14  1  0.81860000  0.80345000  0.81828000  1.0
  C  C15  1  0.18140000  0.19656000  0.18172000  1.0
  C  C16  1  0.82869000  0.75490000  0.73174000  1.0
  C  C17  1  0.17131000  0.24511000  0.26826000  1.0
  C  C18  1  0.66997000  0.64114000  0.35100000  1.0
  C  C19  1  0.33002000  0.35884000  0.64900000  1.0
  C  C20  1  0.69123000  0.58455000  0.25904000  1.0
  C  C21  1  0.30876000  0.41544000  0.74096000  1.0
  C  C22  1  0.70398000  0.71090000  0.19998000  1.0
  C  C23  1  0.29603000  0.28909000  0.80002000  1.0
  C  C24  1  0.71683000  0.65626000  0.11417000  1.0
  C  C25  1  0.28317000  0.34373000  0.88583000  1.0
  C  C26  1  0.71889000  0.47093000  0.08533000  1.0
  C  C27  1  0.28111000  0.52907000  0.91467000  1.0
  C  C28  1  0.70569000  0.34140000  0.14229000  1.0
  C  C29  1  0.29431000  0.65859000  0.85771000  1.0
  C  C30  1  0.69205000  0.39876000  0.22776000  1.0
  C  C31  1  0.30795000  0.60123000  0.77223000  1.0
  O  O32  1  0.92341000  0.70569000  0.55565000  1.0
  O  O33  1  0.07661000  0.29432000  0.44435000  1.0
  O  O34  1  0.71544000  0.89888000  0.53075000  1.0
  O  O35  1  0.28456000  0.10111000  0.46926000  1.0
  O  O36  1  0.56597000  0.52862000  0.39372000  1.0
  O  O37  1  0.43404000  0.47137000  0.60627000  1.0
  O  O38  1  0.76756000  0.81482000  0.37983000  1.0
  O  O39  1  0.23243000  0.18517000  0.62017000  1.0
  F  F40  1  0.76226000  0.18458000  0.65743000  1.0
  F  F41  1  0.23774000  0.81542000  0.34257000  1.0
  F  F42  1  0.75444000  0.27959000  0.82341000  1.0
  F  F43  1  0.24556000  0.72042000  0.17659000  1.0
  F  F44  1  0.78761000  0.03039000  0.93286000  1.0
  F  F45  1  0.21236000  0.96961000  0.06714000  1.0
  F  F46  1  0.83108000  0.67936000  0.87206000  1.0
  F  F47  1  0.16891000  0.32065000  0.12795000  1.0
  F  F48  1  0.85318000  0.58076000  0.70644000  1.0
  F  F49  1  0.14682000  0.41925000  0.29356000  1.0
  F  F50  1  0.69696000  0.89050000  0.22396000  1.0
  F  F51  1  0.30306000  0.10950000  0.77604000  1.0
  F  F52  1  0.72533000  0.78036000  0.05902000  1.0
  F  F53  1  0.27466000  0.21964000  0.94098000  1.0
  F  F54  1  0.73264000  0.41719000  0.00295000  1.0
  F  F55  1  0.26737000  0.58282000  0.99704000  1.0
  F  F56  1  0.70764000  0.16254000  0.11414000  1.0
  F  F57  1  0.29237000  0.83746000  0.88586000  1.0
  F  F58  1  0.68554000  0.26888000  0.28038000  1.0
  F  F59  1  0.31444000  0.73110000  0.71962000  1.0
