# generated using pymatgen
data_AlH9C21(ClO2)3
_symmetry_space_group_name_H-M   'P 1'
_cell_length_a   4.02664000
_cell_length_b   24.65260000
_cell_length_c   24.65265000
_cell_angle_alpha   60.00020127
_cell_angle_beta   89.99970000
_cell_angle_gamma   89.99920000
_symmetry_Int_Tables_number   1
_chemical_formula_structural   AlH9C21(ClO2)3
_chemical_formula_sum   'Al2 H18 C42 Cl6 O12'
_cell_volume   2119.34009769
_cell_formula_units_Z   2
loop_
 _symmetry_equiv_pos_site_id
 _symmetry_equiv_pos_as_xyz
  1  'x, y, z'
loop_
 _atom_site_type_symbol
 _atom_site_label
 _atom_site_symmetry_multiplicity
 _atom_site_fract_x
 _atom_site_fract_y
 _atom_site_fract_z
 _atom_site_occupancy
  Al  Al0  1  0.99785000  0.00000000  0.50000000  1.0
  Al  Al1  1  0.99866000  0.66667000  0.16667000  1.0
  H  H2  1  0.24363000  0.17252000  0.33762000  1.0
  H  H3  1  0.24357000  0.49425000  0.32922000  1.0
  H  H4  1  0.77536000  0.49263000  0.17876000  1.0
  H  H5  1  0.75142000  0.37660000  0.23623000  1.0
  H  H6  1  0.77451000  0.17394000  0.48827000  1.0
  H  H7  1  0.75083000  0.28998000  0.43089000  1.0
  H  H8  1  0.24364000  0.83763000  0.48986000  1.0
  H  H9  1  0.24356000  0.82923000  0.17653000  1.0
  H  H10  1  0.77538000  0.67876000  0.32861000  1.0
  H  H11  1  0.75144000  0.73624000  0.38717000  1.0
  H  H12  1  0.77448000  0.98828000  0.33779000  1.0
  H  H13  1  0.75080000  0.93090000  0.27913000  1.0
  H  H14  1  0.24365000  0.98986000  0.67252000  1.0
  H  H15  1  0.24356000  0.67653000  0.99425000  1.0
  H  H16  1  0.77540000  0.82860000  0.99263000  1.0
  H  H17  1  0.75146000  0.88717000  0.87659000  1.0
  H  H18  1  0.77446000  0.83779000  0.67393000  1.0
  H  H19  1  0.75077000  0.77913000  0.78997000  1.0
  C  C20  1  0.49912000  0.95145000  0.59605000  1.0
  C  C21  1  0.49911000  0.09605000  0.45250000  1.0
  C  C22  1  0.49911000  0.95250000  0.45145000  1.0
  C  C23  1  0.49984000  0.57062000  0.21439000  1.0
  C  C24  1  0.49984000  0.71440000  0.21500000  1.0
  C  C25  1  0.49985000  0.71500000  0.07061000  1.0
  C  C26  1  0.50440000  0.16575000  0.41718000  1.0
  C  C27  1  0.50474000  0.50092000  0.24974000  1.0
  C  C28  1  0.36016000  0.19825000  0.35778000  1.0
  C  C29  1  0.36955000  0.26348000  0.32396000  1.0
  C  C30  1  0.36013000  0.46847000  0.30912000  1.0
  C  C31  1  0.36942000  0.40325000  0.34299000  1.0
  C  C32  1  0.65360000  0.46738000  0.22423000  1.0
  C  C33  1  0.64098000  0.40239000  0.25677000  1.0
  C  C34  1  0.65307000  0.19925000  0.44276000  1.0
  C  C35  1  0.64049000  0.26423000  0.41030000  1.0
  C  C36  1  0.49961000  0.29855000  0.35012000  1.0
  C  C37  1  0.49973000  0.36811000  0.31692000  1.0
  C  C38  1  0.50440000  0.91719000  0.41707000  1.0
  C  C39  1  0.50473000  0.74975000  0.24934000  1.0
  C  C40  1  0.36018000  0.85778000  0.44397000  1.0
  C  C41  1  0.36957000  0.82397000  0.41256000  1.0
  C  C42  1  0.36012000  0.80913000  0.22241000  1.0
  C  C43  1  0.36939000  0.84300000  0.25376000  1.0
  C  C44  1  0.65360000  0.72424000  0.30840000  1.0
  C  C45  1  0.64097000  0.75677000  0.34084000  1.0
  C  C46  1  0.65305000  0.94277000  0.35798000  1.0
  C  C47  1  0.64046000  0.91031000  0.32547000  1.0
  C  C48  1  0.49961000  0.85012000  0.35133000  1.0
  C  C49  1  0.49974000  0.81692000  0.31497000  1.0
  C  C50  1  0.50438000  0.91706000  0.66575000  1.0
  C  C51  1  0.50474000  0.74934000  0.00091000  1.0
  C  C52  1  0.36018000  0.94396000  0.69825000  1.0
  C  C53  1  0.36956000  0.91255000  0.76348000  1.0
  C  C54  1  0.36013000  0.72241000  0.96847000  1.0
  C  C55  1  0.36940000  0.75375000  0.90325000  1.0
  C  C56  1  0.65362000  0.80839000  0.96737000  1.0
  C  C57  1  0.64100000  0.84084000  0.90238000  1.0
  C  C58  1  0.65305000  0.85799000  0.69924000  1.0
  C  C59  1  0.64044000  0.82546000  0.76423000  1.0
  C  C60  1  0.49960000  0.85132000  0.79855000  1.0
  C  C61  1  0.49974000  0.81496000  0.86811000  1.0
  Cl  Cl62  1  0.20880000  0.29876000  0.24846000  1.0
  Cl  Cl63  1  0.20832000  0.36801000  0.41847000  1.0
  Cl  Cl64  1  0.20882000  0.74847000  0.45278000  1.0
  Cl  Cl65  1  0.20831000  0.91847000  0.21352000  1.0
  Cl  Cl66  1  0.20884000  0.95278000  0.79876000  1.0
  Cl  Cl67  1  0.20829000  0.71351000  0.86802000  1.0
  O  O68  1  0.73171000  0.99211000  0.43974000  1.0
  O  O69  1  0.73170000  0.93975000  0.56815000  1.0
  O  O70  1  0.73169000  0.06815000  0.49211000  1.0
  O  O71  1  0.26241000  0.94078000  0.49025000  1.0
  O  O72  1  0.26240000  0.06898000  0.44077000  1.0
  O  O73  1  0.26240000  0.99026000  0.56898000  1.0
  O  O74  1  0.73260000  0.72679000  0.09842000  1.0
  O  O75  1  0.73262000  0.59842000  0.17480000  1.0
  O  O76  1  0.73259000  0.67480000  0.22678000  1.0
  O  O77  1  0.26333000  0.67617000  0.09778000  1.0
  O  O78  1  0.26332000  0.72606000  0.17617000  1.0
  O  O79  1  0.26334000  0.59778000  0.22605000  1.0
