# generated using pymatgen
data_NdH6C7SO8
_symmetry_space_group_name_H-M   'P 1'
_cell_length_a   8.17544000
_cell_length_b   8.30849000
_cell_length_c   18.28750000
_cell_angle_alpha   90.00000000
_cell_angle_beta   89.99980000
_cell_angle_gamma   110.32100000
_symmetry_Int_Tables_number   1
_chemical_formula_structural   NdH6C7SO8
_chemical_formula_sum   'Nd4 H24 C28 S4 O32'
_cell_volume   1164.87700856
_cell_formula_units_Z   4
loop_
 _symmetry_equiv_pos_site_id
 _symmetry_equiv_pos_as_xyz
  1  'x, y, z'
loop_
 _atom_site_type_symbol
 _atom_site_label
 _atom_site_symmetry_multiplicity
 _atom_site_fract_x
 _atom_site_fract_y
 _atom_site_fract_z
 _atom_site_occupancy
  Nd  Nd0  1  0.74129000  0.21845000  0.52008000  1.0
  Nd  Nd1  1  0.75872000  0.78156000  0.02007000  1.0
  Nd  Nd2  1  0.25871000  0.78155000  0.47993000  1.0
  Nd  Nd3  1  0.24128000  0.21845000  0.97993000  1.0
  H  H4  1  0.50075000  0.24383000  0.65120000  1.0
  H  H5  1  0.99925000  0.75615000  0.15120000  1.0
  H  H6  1  0.49925000  0.75616000  0.34880000  1.0
  H  H7  1  0.00075000  0.24383000  0.84880000  1.0
  H  H8  1  0.37495000  0.16727000  0.58262000  1.0
  H  H9  1  0.12505000  0.83273000  0.08262000  1.0
  H  H10  1  0.62505000  0.83273000  0.41738000  1.0
  H  H11  1  0.87495000  0.16727000  0.91738000  1.0
  H  H12  1  0.77721000  0.60563000  0.48745000  1.0
  H  H13  1  0.72279000  0.39438000  0.98745000  1.0
  H  H14  1  0.22279000  0.39437000  0.51255000  1.0
  H  H15  1  0.27720000  0.60562000  0.01255000  1.0
  H  H16  1  0.61287000  0.51546000  0.53924000  1.0
  H  H17  1  0.88712000  0.48454000  0.03924000  1.0
  H  H18  1  0.38712000  0.48454000  0.46076000  1.0
  H  H19  1  0.11287000  0.51546000  0.96076000  1.0
  H  H20  1  0.36594000  0.55058000  0.61701000  1.0
  H  H21  1  0.13405000  0.44941000  0.11701000  1.0
  H  H22  1  0.63405000  0.44941000  0.38299000  1.0
  H  H23  1  0.86596000  0.55059000  0.88299000  1.0
  H  H24  1  0.31207000  0.38157000  0.74366000  1.0
  H  H25  1  0.18793000  0.61842000  0.24366000  1.0
  H  H26  1  0.68793000  0.61842000  0.25634000  1.0
  H  H27  1  0.81207000  0.38158000  0.75634000  1.0
  C  C28  1  0.55229000  0.76561000  0.67425000  1.0
  C  C29  1  0.94772000  0.23439000  0.17425000  1.0
  C  C30  1  0.44771000  0.23438000  0.32575000  1.0
  C  C31  1  0.05230000  0.76562000  0.82575000  1.0
  C  C32  1  0.43093000  0.60095000  0.66812000  1.0
  C  C33  1  0.06907000  0.39905000  0.16812000  1.0
  C  C34  1  0.56907000  0.39904000  0.33188000  1.0
  C  C35  1  0.93094000  0.60096000  0.83188000  1.0
  C  C36  1  0.40298000  0.51147000  0.73487000  1.0
  C  C37  1  0.09701000  0.48853000  0.23487000  1.0
  C  C38  1  0.59701000  0.48853000  0.26513000  1.0
  C  C39  1  0.90300000  0.51147000  0.76513000  1.0
  C  C40  1  0.50286000  0.60879000  0.79128000  1.0
  C  C41  1  0.99716000  0.39121000  0.29129000  1.0
  C  C42  1  0.49715000  0.39121000  0.20871000  1.0
  C  C43  1  0.00285000  0.60879000  0.70871000  1.0
  C  C44  1  0.60560000  0.90022000  0.61779000  1.0
  C  C45  1  0.89440000  0.09978000  0.11779000  1.0
  C  C46  1  0.39439000  0.09978000  0.38221000  1.0
  C  C47  1  0.10561000  0.90022000  0.88221000  1.0
  C  C48  1  0.49845000  0.55555000  0.86862000  1.0
  C  C49  1  0.00157000  0.44446000  0.36862000  1.0
  C  C50  1  0.50156000  0.44446000  0.13138000  1.0
  C  C51  1  0.99844000  0.55555000  0.63138000  1.0
  C  C52  1  0.07315000  0.07090000  0.52057000  1.0
  C  C53  1  0.42684000  0.92910000  0.02058000  1.0
  C  C54  1  0.92684000  0.92910000  0.47942000  1.0
  C  C55  1  0.57315000  0.07091000  0.97943000  1.0
  S  S56  1  0.63390000  0.80848000  0.76187000  1.0
  S  S57  1  0.86611000  0.19152000  0.26187000  1.0
  S  S58  1  0.36611000  0.19152000  0.23813000  1.0
  S  S59  1  0.13390000  0.80848000  0.73813000  1.0
  O  O60  1  0.51163000  0.88449000  0.55979000  1.0
  O  O61  1  0.98837000  0.11551000  0.05979000  1.0
  O  O62  1  0.48837000  0.11551000  0.44021000  1.0
  O  O63  1  0.01163000  0.88449000  0.94021000  1.0
  O  O64  1  0.74157000  0.03134000  0.62780000  1.0
  O  O65  1  0.75842000  0.96866000  0.12780000  1.0
  O  O66  1  0.25842000  0.96866000  0.37220000  1.0
  O  O67  1  0.24158000  0.03134000  0.87219000  1.0
  O  O68  1  0.38409000  0.41261000  0.88554000  1.0
  O  O69  1  0.11593000  0.58740000  0.38553000  1.0
  O  O70  1  0.61592000  0.58740000  0.11447000  1.0
  O  O71  1  0.88407000  0.41261000  0.61447000  1.0
  O  O72  1  0.60747000  0.65486000  0.91287000  1.0
  O  O73  1  0.89256000  0.34516000  0.41287000  1.0
  O  O74  1  0.39255000  0.34516000  0.08713000  1.0
  O  O75  1  0.10745000  0.65485000  0.58713000  1.0
  O  O76  1  0.05136000  0.21249000  0.53098000  1.0
  O  O77  1  0.44863000  0.78750000  0.03098000  1.0
  O  O78  1  0.94863000  0.78751000  0.46902000  1.0
  O  O79  1  0.55136000  0.21249000  0.96902000  1.0
  O  O80  1  0.20431000  0.03328000  0.54000000  1.0
  O  O81  1  0.29567000  0.96673000  0.04001000  1.0
  O  O82  1  0.79568000  0.96673000  0.45999000  1.0
  O  O83  1  0.70432000  0.03328000  0.96000000  1.0
  O  O84  1  0.49480000  0.24346000  0.59816000  1.0
  O  O85  1  0.00520000  0.75654000  0.09816000  1.0
  O  O86  1  0.50520000  0.75654000  0.40184000  1.0
  O  O87  1  0.99480000  0.24346000  0.90184000  1.0
  O  O88  1  0.68138000  0.49561000  0.49883000  1.0
  O  O89  1  0.81862000  0.50439000  0.99883000  1.0
  O  O90  1  0.31862000  0.50438000  0.50117000  1.0
  O  O91  1  0.18138000  0.49561000  0.00116000  1.0
