# generated using pymatgen
data_Li2H14C13O5
_symmetry_space_group_name_H-M   'P 1'
_cell_length_a   10.09360000
_cell_length_b   11.34180000
_cell_length_c   11.34067126
_cell_angle_alpha   60.01612644
_cell_angle_beta   89.95698961
_cell_angle_gamma   89.98850000
_symmetry_Int_Tables_number   1
_chemical_formula_structural   Li2H14C13O5
_chemical_formula_sum   'Li6 H42 C39 O15'
_cell_volume   1124.52182077
_cell_formula_units_Z   3
loop_
 _symmetry_equiv_pos_site_id
 _symmetry_equiv_pos_as_xyz
  1  'x, y, z'
loop_
 _atom_site_type_symbol
 _atom_site_label
 _atom_site_symmetry_multiplicity
 _atom_site_fract_x
 _atom_site_fract_y
 _atom_site_fract_z
 _atom_site_occupancy
  Li  Li0  1  0.97461000  0.97675000  0.91650000  1.0
  Li  Li1  1  0.64102000  0.10693000  0.97653000  1.0
  Li  Li2  1  0.30765000  0.91632000  0.10718000  1.0
  Li  Li3  1  0.10228000  0.07546000  0.09620000  1.0
  Li  Li4  1  0.76894000  0.82858000  0.07517000  1.0
  Li  Li5  1  0.43567000  0.09601000  0.82862000  1.0
  H  H6  1  0.93157000  0.19597000  0.67873000  1.0
  H  H7  1  0.59780000  0.12555000  0.19586000  1.0
  H  H8  1  0.26405000  0.67858000  0.12575000  1.0
  H  H9  1  0.17533000  0.57348000  0.68973000  1.0
  H  H10  1  0.84144000  0.73673000  0.57290000  1.0
  H  H11  1  0.50798000  0.68963000  0.73709000  1.0
  H  H12  1  0.13768000  0.72190000  0.43866000  1.0
  H  H13  1  0.80442000  0.83938000  0.72143000  1.0
  H  H14  1  0.47096000  0.43869000  0.83980000  1.0
  H  H15  1  0.14075000  0.35412000  0.90185000  1.0
  H  H16  1  0.80667000  0.74414000  0.35344000  1.0
  H  H17  1  0.47338000  0.90178000  0.74439000  1.0
  H  H18  1  0.90442000  0.33836000  0.42989000  1.0
  H  H19  1  0.57149000  0.23219000  0.33829000  1.0
  H  H20  1  0.23711000  0.42959000  0.23230000  1.0
  H  H21  1  0.93433000  0.56161000  0.21695000  1.0
  H  H22  1  0.60191000  0.22174000  0.56160000  1.0
  H  H23  1  0.26755000  0.21665000  0.22191000  1.0
  H  H24  1  0.89457000  0.15117000  0.16319000  1.0
  H  H25  1  0.56159000  0.68562000  0.15132000  1.0
  H  H26  1  0.22844000  0.16316000  0.68544000  1.0
  H  H27  1  0.90693000  0.14847000  0.35736000  1.0
  H  H28  1  0.57400000  0.49463000  0.14770000  1.0
  H  H29  1  0.24134000  0.35747000  0.49430000  1.0
  H  H30  1  0.07504000  0.20255000  0.31712000  1.0
  H  H31  1  0.74201000  0.48043000  0.20200000  1.0
  H  H32  1  0.40939000  0.31709000  0.48038000  1.0
  H  H33  1  0.03394000  0.02502000  0.39674000  1.0
  H  H34  1  0.70122000  0.57884000  0.02443000  1.0
  H  H35  1  0.36836000  0.39645000  0.57864000  1.0
  H  H36  1  0.20346000  0.95965000  0.85155000  1.0
  H  H37  1  0.87018000  0.18890000  0.95949000  1.0
  H  H38  1  0.53661000  0.85150000  0.18879000  1.0
  H  H39  1  0.20051000  0.93523000  0.65731000  1.0
  H  H40  1  0.86671000  0.40735000  0.93523000  1.0
  H  H41  1  0.53360000  0.65724000  0.40736000  1.0
  H  H42  1  0.02376000  0.95094000  0.65691000  1.0
  H  H43  1  0.68997000  0.39181000  0.95117000  1.0
  H  H44  1  0.35683000  0.65671000  0.39223000  1.0
  H  H45  1  0.10380000  0.80384000  0.79065000  1.0
  H  H46  1  0.77008000  0.40543000  0.80387000  1.0
  H  H47  1  0.43690000  0.79047000  0.40559000  1.0
  C  C48  1  0.04342000  0.79097000  0.19130000  1.0
  C  C49  1  0.71049000  0.01786000  0.79076000  1.0
  C  C50  1  0.37681000  0.19120000  0.01804000  1.0
  C  C51  1  0.03328000  0.25893000  0.80526000  1.0
  C  C52  1  0.69933000  0.93597000  0.25858000  1.0
  C  C53  1  0.36586000  0.80516000  0.93621000  1.0
  C  C54  1  0.00351000  0.40209000  0.55858000  1.0
  C  C55  1  0.66999000  0.03951000  0.40184000  1.0
  C  C56  1  0.33610000  0.55843000  0.03974000  1.0
  C  C57  1  0.98605000  0.27795000  0.68093000  1.0
  C  C58  1  0.65223000  0.04129000  0.27773000  1.0
  C  C59  1  0.31848000  0.68084000  0.04147000  1.0
  C  C60  1  0.12198000  0.49088000  0.68723000  1.0
  C  C61  1  0.78810000  0.82187000  0.49041000  1.0
  C  C62  1  0.45463000  0.68713000  0.82222000  1.0
  C  C63  1  0.07229000  0.51236000  0.56062000  1.0
  C  C64  1  0.73868000  0.92705000  0.51199000  1.0
  C  C65  1  0.40496000  0.56053000  0.92740000  1.0
  C  C66  1  0.08791000  0.63678000  0.43808000  1.0
  C  C67  1  0.75470000  0.92518000  0.63639000  1.0
  C  C68  1  0.42103000  0.43804000  0.92551000  1.0
  C  C69  1  0.03721000  0.65504000  0.31633000  1.0
  C  C70  1  0.70428000  0.02872000  0.65478000  1.0
  C  C71  1  0.37041000  0.31623000  0.02902000  1.0
  C  C72  1  0.10383000  0.36875000  0.80509000  1.0
  C  C73  1  0.76983000  0.82623000  0.36823000  1.0
  C  C74  1  0.43648000  0.80499000  0.82652000  1.0
  C  C75  1  0.95556000  0.42240000  0.43156000  1.0
  C  C76  1  0.62249000  0.14633000  0.42223000  1.0
  C  C77  1  0.28827000  0.43137000  0.14650000  1.0
  C  C78  1  0.97150000  0.54548000  0.31404000  1.0
  C  C79  1  0.63870000  0.14072000  0.54531000  1.0
  C  C80  1  0.30453000  0.31387000  0.14091000  1.0
  C  C81  1  0.00128000  0.12873000  0.32247000  1.0
  C  C82  1  0.66838000  0.54911000  0.12822000  1.0
  C  C83  1  0.33561000  0.32238000  0.54894000  1.0
  C  C84  1  0.11216000  0.91465000  0.72171000  1.0
  C  C85  1  0.77847000  0.36348000  0.91472000  1.0
  C  C86  1  0.44527000  0.72153000  0.36368000  1.0
  O  O87  1  0.00955000  0.14438000  0.92225000  1.0
  O  O88  1  0.67556000  0.93365000  0.14396000  1.0
  O  O89  1  0.34237000  0.92218000  0.93379000  1.0
  O  O90  1  0.13052000  0.87639000  0.18324000  1.0
  O  O91  1  0.79770000  0.94062000  0.87608000  1.0
  O  O92  1  0.46400000  0.18332000  0.94055000  1.0
  O  O93  1  0.95930000  0.81778000  0.09722000  1.0
  O  O94  1  0.62622000  0.08496000  0.81772000  1.0
  O  O95  1  0.29275000  0.09699000  0.08532000  1.0
  O  O96  1  0.98811000  0.14267000  0.19001000  1.0
  O  O97  1  0.65513000  0.66732000  0.14268000  1.0
  O  O98  1  0.32205000  0.18982000  0.66721000  1.0
  O  O99  1  0.11889000  0.98609000  0.79627000  1.0
  O  O100  1  0.78542000  0.21754000  0.98594000  1.0
  O  O101  1  0.45202000  0.79614000  0.21768000  1.0
