# generated using pymatgen
data_CuH4C6S(NCl)2
_symmetry_space_group_name_H-M   'P 1'
_cell_length_a   3.72539000
_cell_length_b   8.75605000
_cell_length_c   12.38770000
_cell_angle_alpha   89.99670000
_cell_angle_beta   89.99930000
_cell_angle_gamma   99.90410000
_symmetry_Int_Tables_number   1
_chemical_formula_structural   CuH4C6S(NCl)2
_chemical_formula_sum   'Cu2 H8 C12 S2 N4 Cl4'
_cell_volume   398.06102900
_cell_formula_units_Z   2
loop_
 _symmetry_equiv_pos_site_id
 _symmetry_equiv_pos_as_xyz
  1  'x, y, z'
loop_
 _atom_site_type_symbol
 _atom_site_label
 _atom_site_symmetry_multiplicity
 _atom_site_fract_x
 _atom_site_fract_y
 _atom_site_fract_z
 _atom_site_occupancy
  Cu  Cu0  1  0.49998000  0.50000000  0.00000000  1.0
  Cu  Cu1  1  0.50000000  0.50000000  0.50000000  1.0
  H  H2  1  0.60839000  0.90647000  0.84939000  1.0
  H  H3  1  0.39163000  0.09353000  0.34941000  1.0
  H  H4  1  0.39162000  0.09352000  0.15061000  1.0
  H  H5  1  0.60838000  0.90647000  0.65059000  1.0
  H  H6  1  0.50404000  0.13931000  0.95390000  1.0
  H  H7  1  0.49599000  0.86070000  0.45391000  1.0
  H  H8  1  0.49594000  0.86068000  0.04610000  1.0
  H  H9  1  0.50400000  0.13931000  0.54609000  1.0
  C  C10  1  0.56151000  0.01076000  0.80744000  1.0
  C  C11  1  0.43852000  0.98928000  0.30743000  1.0
  C  C12  1  0.43850000  0.98925000  0.19256000  1.0
  C  C13  1  0.56151000  0.01073000  0.69257000  1.0
  C  C14  1  0.50631000  0.13816000  0.86629000  1.0
  C  C15  1  0.49367000  0.86187000  0.36630000  1.0
  C  C16  1  0.49371000  0.86184000  0.13371000  1.0
  C  C17  1  0.50634000  0.13814000  0.63370000  1.0
  C  C18  1  0.45877000  0.27206000  0.80821000  1.0
  C  C19  1  0.54127000  0.72796000  0.30821000  1.0
  C  C20  1  0.54121000  0.72794000  0.19179000  1.0
  C  C21  1  0.45872000  0.27203000  0.69178000  1.0
  S  S22  1  0.36976000  0.53083000  0.75001000  1.0
  S  S23  1  0.63023000  0.46917000  0.25000000  1.0
  N  N24  1  0.41375000  0.41198000  0.84858000  1.0
  N  N25  1  0.58625000  0.58802000  0.34856000  1.0
  N  N26  1  0.58623000  0.58802000  0.15142000  1.0
  N  N27  1  0.41375000  0.41198000  0.65145000  1.0
  Cl  Cl28  1  0.95371000  0.68498000  0.93428000  1.0
  Cl  Cl29  1  0.04629000  0.31501000  0.43427000  1.0
  Cl  Cl30  1  0.04629000  0.31500000  0.06573000  1.0
  Cl  Cl31  1  0.95371000  0.68500000  0.56573000  1.0
