# generated using pymatgen
data_ZnH9C13(NO2)2
_symmetry_space_group_name_H-M   'P 1'
_cell_length_a   10.99880000
_cell_length_b   17.55510000
_cell_length_c   20.54360000
_cell_angle_alpha   69.81300000
_cell_angle_beta   86.20110000
_cell_angle_gamma   89.89980000
_symmetry_Int_Tables_number   1
_chemical_formula_structural   ZnH9C13(NO2)2
_chemical_formula_sum   'Zn8 H72 C104 N16 O32'
_cell_volume   3713.87032214
_cell_formula_units_Z   8
loop_
 _symmetry_equiv_pos_site_id
 _symmetry_equiv_pos_as_xyz
  1  'x, y, z'
loop_
 _atom_site_type_symbol
 _atom_site_label
 _atom_site_symmetry_multiplicity
 _atom_site_fract_x
 _atom_site_fract_y
 _atom_site_fract_z
 _atom_site_occupancy
  Zn  Zn0  1  0.18862000  0.43832000  0.77441000  1.0
  Zn  Zn1  1  0.81138000  0.56169000  0.22559000  1.0
  Zn  Zn2  1  0.18159000  0.55398000  0.84473000  1.0
  Zn  Zn3  1  0.81842000  0.44602000  0.15527000  1.0
  Zn  Zn4  1  0.13899000  0.93729000  0.27946000  1.0
  Zn  Zn5  1  0.86101000  0.06271000  0.72054000  1.0
  Zn  Zn6  1  0.12632000  0.05343000  0.35048000  1.0
  Zn  Zn7  1  0.87368000  0.94657000  0.64952000  1.0
  H  H8  1  0.22113000  0.21764000  0.95473000  1.0
  H  H9  1  0.77886000  0.78236000  0.04527000  1.0
  H  H10  1  0.21309000  0.10490000  0.07106000  1.0
  H  H11  1  0.78690000  0.89510000  0.92894000  1.0
  H  H12  1  0.13037000  0.27682000  0.17264000  1.0
  H  H13  1  0.86963000  0.72318000  0.82736000  1.0
  H  H14  1  0.14246000  0.38993000  0.05718000  1.0
  H  H15  1  0.85754000  0.61007000  0.94282000  1.0
  H  H16  1  0.57315000  0.39544000  0.76733000  1.0
  H  H17  1  0.42686000  0.60456000  0.23267000  1.0
  H  H18  1  0.80153000  0.39348000  0.76758000  1.0
  H  H19  1  0.19848000  0.60653000  0.23242000  1.0
  H  H20  1  0.79459000  0.59008000  0.84683000  1.0
  H  H21  1  0.20541000  0.40992000  0.15317000  1.0
  H  H22  1  0.56696000  0.59488000  0.84296000  1.0
  H  H23  1  0.43304000  0.40511000  0.15704000  1.0
  H  H24  1  0.17267000  0.60223000  0.56553000  1.0
  H  H25  1  0.82733000  0.39776000  0.43447000  1.0
  H  H26  1  0.14029000  0.71501000  0.45216000  1.0
  H  H27  1  0.85971000  0.28498000  0.54784000  1.0
  H  H28  1  0.12758000  0.88675000  0.55892000  1.0
  H  H29  1  0.87242000  0.11325000  0.44108000  1.0
  H  H30  1  0.15187000  0.77459000  0.67151000  1.0
  H  H31  1  0.84813000  0.22541000  0.32849000  1.0
  H  H32  1  0.18172000  0.53875000  0.99312000  1.0
  H  H33  1  0.81828000  0.46125000  0.00688000  1.0
  H  H34  1  0.14472000  0.62776000  0.06378000  1.0
  H  H35  1  0.85528000  0.37225000  0.93622000  1.0
  H  H36  1  0.12908000  0.83030000  0.87007000  1.0
  H  H37  1  0.87092000  0.16970000  0.12993000  1.0
  H  H38  1  0.16729000  0.73207000  0.80820000  1.0
  H  H39  1  0.83270000  0.26793000  0.19180000  1.0
  H  H40  1  0.23190000  0.87204000  0.05896000  1.0
  H  H41  1  0.76809000  0.12796000  0.94103000  1.0
  H  H42  1  0.26381000  0.93666000  0.14790000  1.0
  H  H43  1  0.73618000  0.06334000  0.85210000  1.0
  H  H44  1  0.99762000  0.79007000  0.28578000  1.0
  H  H45  1  0.00238000  0.20993000  0.71422000  1.0
  H  H46  1  0.95359000  0.71857000  0.20347000  1.0
  H  H47  1  0.04641000  0.28143000  0.79653000  1.0
  H  H48  1  0.52833000  0.90029000  0.26724000  1.0
  H  H49  1  0.47167000  0.09971000  0.73276000  1.0
  H  H50  1  0.75817000  0.90716000  0.26359000  1.0
  H  H51  1  0.24183000  0.09284000  0.73641000  1.0
  H  H52  1  0.73567000  0.08789000  0.36090000  1.0
  H  H53  1  0.26433000  0.91212000  0.63910000  1.0
  H  H54  1  0.50736000  0.08407000  0.36073000  1.0
  H  H55  1  0.49264000  0.91593000  0.63927000  1.0
  H  H56  1  0.14704000  0.04167000  0.49868000  1.0
  H  H57  1  0.85296000  0.95833000  0.50132000  1.0
  H  H58  1  0.20483000  0.13405000  0.56076000  1.0
  H  H59  1  0.79517000  0.86594000  0.43924000  1.0
  H  H60  1  0.20491000  0.33258000  0.36320000  1.0
  H  H61  1  0.79509000  0.66742000  0.63681000  1.0
  H  H62  1  0.14633000  0.23106000  0.31021000  1.0
  H  H63  1  0.85367000  0.76894000  0.68980000  1.0
  H  H64  1  0.41530000  0.24539000  0.67456000  1.0
  H  H65  1  0.58470000  0.75460000  0.32544000  1.0
  H  H66  1  0.35742000  0.31011000  0.76263000  1.0
  H  H67  1  0.64258000  0.68989000  0.23737000  1.0
  H  H68  1  0.05916000  0.41899000  0.65825000  1.0
  H  H69  1  0.94084000  0.58101000  0.34175000  1.0
  H  H70  1  0.10348000  0.35979000  0.56433000  1.0
  H  H71  1  0.89651000  0.64021000  0.43567000  1.0
  H  H72  1  0.05503000  0.83875000  0.98039000  1.0
  H  H73  1  0.94496000  0.16125000  0.01961000  1.0
  H  H74  1  0.98028000  0.71791000  0.08919000  1.0
  H  H75  1  0.01971000  0.28210000  0.91081000  1.0
  H  H76  1  0.28517000  0.34964000  0.46305000  1.0
  H  H77  1  0.71483000  0.65035000  0.53695000  1.0
  H  H78  1  0.37939000  0.23855000  0.56266000  1.0
  H  H79  1  0.62061000  0.76145000  0.43734000  1.0
  C  C80  1  0.18033000  0.37670000  0.93012000  1.0
  C  C81  1  0.81966000  0.62331000  0.06989000  1.0
  C  C82  1  0.18140000  0.31019000  0.99924000  1.0
  C  C83  1  0.81860000  0.68981000  0.00076000  1.0
  C  C84  1  0.20168000  0.22996000  0.00286000  1.0
  C  C85  1  0.79831000  0.77005000  0.99714000  1.0
  C  C86  1  0.19700000  0.16757000  0.06706000  1.0
  C  C87  1  0.80299000  0.83243000  0.93294000  1.0
  C  C88  1  0.17043000  0.18451000  0.12832000  1.0
  C  C89  1  0.82957000  0.81549000  0.87167000  1.0
  C  C90  1  0.15228000  0.26488000  0.12459000  1.0
  C  C91  1  0.84772000  0.73512000  0.87541000  1.0
  C  C92  1  0.15874000  0.32748000  0.06057000  1.0
  C  C93  1  0.84126000  0.67252000  0.93943000  1.0
  C  C94  1  0.15787000  0.11655000  0.19729000  1.0
  C  C95  1  0.84213000  0.88345000  0.80271000  1.0
  C  C96  1  0.42038000  0.49578000  0.80597000  1.0
  C  C97  1  0.57962000  0.50422000  0.19403000  1.0
  C  C98  1  0.55687000  0.49516000  0.80522000  1.0
  C  C99  1  0.44314000  0.50484000  0.19478000  1.0
  C  C100  1  0.62285000  0.43839000  0.78391000  1.0
  C  C101  1  0.37715000  0.56161000  0.21608000  1.0
  C  C102  1  0.74934000  0.43709000  0.78432000  1.0
  C  C103  1  0.25066000  0.56291000  0.21568000  1.0
  C  C104  1  0.81141000  0.49153000  0.80760000  1.0
  C  C105  1  0.18859000  0.50847000  0.19240000  1.0
  C  C106  1  0.74537000  0.54819000  0.82893000  1.0
  C  C107  1  0.25463000  0.45181000  0.17107000  1.0
  C  C108  1  0.61918000  0.55072000  0.82704000  1.0
  C  C109  1  0.38083000  0.44928000  0.17296000  1.0
  C  C110  1  0.94739000  0.48902000  0.81007000  1.0
  C  C111  1  0.05262000  0.51098000  0.18993000  1.0
  C  C112  1  0.17885000  0.61539000  0.69258000  1.0
  C  C113  1  0.82116000  0.38461000  0.30742000  1.0
  C  C114  1  0.16452000  0.68209000  0.62479000  1.0
  C  C115  1  0.83548000  0.31791000  0.37521000  1.0
  C  C116  1  0.16142000  0.66485000  0.56314000  1.0
  C  C117  1  0.83858000  0.33515000  0.43687000  1.0
  C  C118  1  0.14403000  0.72695000  0.50069000  1.0
  C  C119  1  0.85597000  0.27305000  0.49931000  1.0
  C  C120  1  0.13274000  0.80716000  0.49904000  1.0
  C  C121  1  0.86726000  0.19284000  0.50096000  1.0
  C  C122  1  0.13721000  0.82440000  0.56055000  1.0
  C  C123  1  0.86279000  0.17560000  0.43945000  1.0
  C  C124  1  0.15133000  0.76212000  0.62313000  1.0
  C  C125  1  0.84867000  0.23788000  0.37687000  1.0
  C  C126  1  0.11955000  0.87494000  0.43170000  1.0
  C  C127  1  0.88046000  0.12506000  0.56830000  1.0
  C  C128  1  0.16995000  0.60381000  0.96828000  1.0
  C  C129  1  0.83005000  0.39619000  0.03172000  1.0
  C  C130  1  0.14947000  0.65345000  0.00735000  1.0
  C  C131  1  0.85052000  0.34655000  0.99265000  1.0
  C  C132  1  0.13058000  0.73643000  0.97272000  1.0
  C  C133  1  0.86941000  0.26357000  0.02727000  1.0
  C  C134  1  0.14143000  0.76626000  0.89951000  1.0
  C  C135  1  0.85857000  0.23374000  0.10049000  1.0
  C  C136  1  0.16234000  0.71219000  0.86481000  1.0
  C  C137  1  0.83766000  0.28781000  0.13519000  1.0
  C  C138  1  0.08713000  0.79097000  0.12341000  1.0
  C  C139  1  0.91286000  0.20904000  0.87659000  1.0
  C  C140  1  0.17802000  0.85238000  0.10850000  1.0
  C  C141  1  0.82198000  0.14762000  0.89150000  1.0
  C  C142  1  0.19644000  0.88777000  0.15784000  1.0
  C  C143  1  0.80356000  0.11223000  0.84216000  1.0
  C  C144  1  0.04747000  0.80590000  0.23502000  1.0
  C  C145  1  0.95253000  0.19410000  0.76499000  1.0
  C  C146  1  0.02290000  0.76669000  0.18946000  1.0
  C  C147  1  0.97710000  0.23331000  0.81054000  1.0
  C  C148  1  0.36876000  0.98914000  0.31523000  1.0
  C  C149  1  0.63124000  0.01086000  0.68477000  1.0
  C  C150  1  0.50523000  0.99125000  0.31474000  1.0
  C  C151  1  0.49477000  0.00875000  0.68525000  1.0
  C  C152  1  0.57544000  0.94097000  0.28760000  1.0
  C  C153  1  0.42456000  0.05903000  0.71240000  1.0
  C  C154  1  0.70214000  0.94469000  0.28571000  1.0
  C  C155  1  0.29787000  0.05531000  0.71429000  1.0
  C  C156  1  0.76002000  0.99752000  0.31253000  1.0
  C  C157  1  0.23998000  0.00248000  0.68747000  1.0
  C  C158  1  0.68966000  0.04723000  0.34019000  1.0
  C  C159  1  0.31034000  0.95277000  0.65980000  1.0
  C  C160  1  0.56324000  0.04479000  0.34059000  1.0
  C  C161  1  0.43676000  0.95521000  0.65941000  1.0
  C  C162  1  0.89631000  0.00051000  0.31233000  1.0
  C  C163  1  0.10369000  0.99949000  0.68766000  1.0
  C  C164  1  0.16085000  0.10657000  0.47077000  1.0
  C  C165  1  0.83915000  0.89343000  0.52923000  1.0
  C  C166  1  0.19336000  0.15810000  0.50519000  1.0
  C  C167  1  0.80664000  0.84190000  0.49481000  1.0
  C  C168  1  0.21207000  0.24098000  0.46667000  1.0
  C  C169  1  0.78793000  0.75902000  0.53333000  1.0
  C  C170  1  0.19295000  0.26862000  0.39528000  1.0
  C  C171  1  0.80704000  0.73138000  0.60472000  1.0
  C  C172  1  0.16025000  0.21279000  0.36551000  1.0
  C  C173  1  0.83975000  0.78721000  0.63450000  1.0
  C  C174  1  0.26499000  0.29900000  0.61098000  1.0
  C  C175  1  0.73500000  0.70100000  0.38903000  1.0
  C  C176  1  0.33534000  0.28332000  0.66902000  1.0
  C  C177  1  0.66466000  0.71668000  0.33098000  1.0
  C  C178  1  0.30328000  0.31844000  0.71820000  1.0
  C  C179  1  0.69672000  0.68156000  0.28180000  1.0
  C  C180  1  0.13707000  0.38013000  0.65933000  1.0
  C  C181  1  0.86293000  0.61987000  0.34067000  1.0
  C  C182  1  0.16187000  0.34772000  0.60740000  1.0
  C  C183  1  0.83813000  0.65228000  0.39260000  1.0
  N  N184  1  0.17404000  0.63166000  0.89818000  1.0
  N  N185  1  0.82596000  0.36834000  0.10182000  1.0
  N  N186  1  0.10059000  0.78850000  0.00828000  1.0
  N  N187  1  0.89940000  0.21150000  0.99172000  1.0
  N  N188  1  0.05790000  0.75479000  0.07736000  1.0
  N  N189  1  0.94209000  0.24521000  0.92264000  1.0
  N  N190  1  0.13200000  0.86643000  0.21987000  1.0
  N  N191  1  0.86800000  0.13357000  0.78013000  1.0
  N  N192  1  0.14566000  0.13268000  0.40204000  1.0
  N  N193  1  0.85435000  0.86731000  0.59796000  1.0
  N  N194  1  0.24844000  0.29605000  0.49666000  1.0
  N  N195  1  0.75155000  0.70395000  0.50334000  1.0
  N  N196  1  0.29858000  0.26762000  0.56017000  1.0
  N  N197  1  0.70142000  0.73237000  0.43983000  1.0
  N  N198  1  0.20642000  0.36689000  0.71381000  1.0
  N  N199  1  0.79359000  0.63311000  0.28619000  1.0
  O  O200  1  0.15432000  0.35603000  0.87837000  1.0
  O  O201  1  0.84567000  0.64397000  0.12163000  1.0
  O  O202  1  0.20309000  0.44826000  0.92781000  1.0
  O  O203  1  0.79690000  0.55174000  0.07219000  1.0
  O  O204  1  0.18116000  0.04562000  0.19723000  1.0
  O  O205  1  0.81885000  0.95438000  0.80277000  1.0
  O  O206  1  0.12305000  0.13539000  0.25005000  1.0
  O  O207  1  0.87695000  0.86461000  0.74995000  1.0
  O  O208  1  0.36820000  0.43764000  0.79356000  1.0
  O  O209  1  0.63180000  0.56236000  0.20644000  1.0
  O  O210  1  0.36680000  0.55328000  0.81933000  1.0
  O  O211  1  0.63320000  0.44672000  0.18067000  1.0
  O  O212  1  0.99521000  0.52124000  0.84925000  1.0
  O  O213  1  0.00479000  0.47877000  0.15075000  1.0
  O  O214  1  0.00449000  0.45376000  0.77255000  1.0
  O  O215  1  0.99551000  0.54624000  0.22745000  1.0
  O  O216  1  0.21019000  0.54631000  0.69068000  1.0
  O  O217  1  0.78981000  0.45369000  0.30932000  1.0
  O  O218  1  0.15676000  0.63301000  0.74739000  1.0
  O  O219  1  0.84324000  0.36699000  0.25261000  1.0
  O  O220  1  0.09764000  0.85628000  0.37884000  1.0
  O  O221  1  0.90237000  0.14373000  0.62116000  1.0
  O  O222  1  0.13316000  0.94653000  0.43270000  1.0
  O  O223  1  0.86685000  0.05347000  0.56730000  1.0
  O  O224  1  0.31993000  0.93220000  0.29987000  1.0
  O  O225  1  0.68008000  0.06781000  0.70013000  1.0
  O  O226  1  0.31285000  0.04460000  0.33069000  1.0
  O  O227  1  0.68716000  0.95540000  0.66931000  1.0
  O  O228  1  0.95628000  0.96799000  0.27405000  1.0
  O  O229  1  0.04372000  0.03201000  0.72594000  1.0
  O  O230  1  0.94106000  0.03504000  0.35103000  1.0
  O  O231  1  0.05895000  0.96497000  0.64896000  1.0
