# generated using pymatgen
data_CuH8C6(NCl)2
_symmetry_space_group_name_H-M   'P 1'
_cell_length_a   6.86887000
_cell_length_b   7.30633000
_cell_length_c   9.28395000
_cell_angle_alpha   76.80000000
_cell_angle_beta   89.99370000
_cell_angle_gamma   62.00700000
_symmetry_Int_Tables_number   1
_chemical_formula_structural   CuH8C6(NCl)2
_chemical_formula_sum   'Cu2 H16 C12 N4 Cl4'
_cell_volume   397.42657547
_cell_formula_units_Z   2
loop_
 _symmetry_equiv_pos_site_id
 _symmetry_equiv_pos_as_xyz
  1  'x, y, z'
loop_
 _atom_site_type_symbol
 _atom_site_label
 _atom_site_symmetry_multiplicity
 _atom_site_fract_x
 _atom_site_fract_y
 _atom_site_fract_z
 _atom_site_occupancy
  Cu  Cu0  1  0.45947000  0.08171000  0.66988000  1.0
  Cu  Cu1  1  0.54054000  0.91829000  0.33012000  1.0
  H  H2  1  0.65511000  0.32640000  0.48985000  1.0
  H  H3  1  0.98025000  0.67355000  0.50991000  1.0
  H  H4  1  0.34490000  0.67360000  0.51015000  1.0
  H  H5  1  0.01976000  0.32644000  0.49011000  1.0
  H  H6  1  0.71378000  0.85078000  0.92478000  1.0
  H  H7  1  0.56477000  0.14887000  0.07474000  1.0
  H  H8  1  0.28621000  0.14923000  0.07522000  1.0
  H  H9  1  0.43523000  0.85112000  0.92526000  1.0
  H  H10  1  0.97974000  0.75208000  0.02156000  1.0
  H  H11  1  0.73234000  0.24757000  0.97820000  1.0
  H  H12  1  0.02025000  0.24794000  0.97843000  1.0
  H  H13  1  0.26765000  0.75243000  0.02180000  1.0
  H  H14  1  0.94951000  0.63506000  0.88132000  1.0
  H  H15  1  0.58480000  0.36476000  0.11821000  1.0
  H  H16  1  0.05048000  0.36494000  0.11868000  1.0
  H  H17  1  0.41519000  0.63524000  0.88179000  1.0
  C  C18  1  0.92690000  0.93997000  0.79484000  1.0
  C  C19  1  0.86663000  0.05994000  0.20502000  1.0
  C  C20  1  0.07308000  0.06004000  0.20515000  1.0
  C  C21  1  0.13337000  0.94006000  0.79498000  1.0
  C  C22  1  0.79138000  0.21648000  0.57784000  1.0
  C  C23  1  0.00702000  0.78344000  0.42203000  1.0
  C  C24  1  0.20860000  0.78351000  0.42216000  1.0
  C  C25  1  0.99301000  0.21656000  0.57797000  1.0
  C  C26  1  0.89041000  0.78718000  0.91272000  1.0
  C  C27  1  0.67779000  0.21254000  0.08696000  1.0
  C  C28  1  0.10958000  0.21283000  0.08728000  1.0
  C  C29  1  0.32220000  0.78746000  0.91304000  1.0
  N  N30  1  0.76067000  0.07677000  0.68414000  1.0
  N  N31  1  0.83688000  0.92308000  0.31563000  1.0
  N  N32  1  0.23933000  0.92322000  0.31586000  1.0
  N  N33  1  0.16312000  0.07691000  0.68438000  1.0
  Cl  Cl34  1  0.37255000  0.25553000  0.37398000  1.0
  Cl  Cl35  1  0.62746000  0.74447000  0.62602000  1.0
  Cl  Cl36  1  0.31128000  0.37857000  0.75745000  1.0
  Cl  Cl37  1  0.68872000  0.62143000  0.24255000  1.0
