# generated using pymatgen
data_Zn2H27C41S3(NO4)2
_symmetry_space_group_name_H-M   'P 1'
_cell_length_a   12.76160000
_cell_length_b   13.83750000
_cell_length_c   28.02820000
_cell_angle_alpha   89.98470000
_cell_angle_beta   89.77410000
_cell_angle_gamma   89.88480000
_symmetry_Int_Tables_number   1
_chemical_formula_structural   Zn2H27C41S3(NO4)2
_chemical_formula_sum   'Zn4 H54 C82 S6 N4 O16'
_cell_volume   4949.41307993
_cell_formula_units_Z   2
loop_
 _symmetry_equiv_pos_site_id
 _symmetry_equiv_pos_as_xyz
  1  'x, y, z'
loop_
 _atom_site_type_symbol
 _atom_site_label
 _atom_site_symmetry_multiplicity
 _atom_site_fract_x
 _atom_site_fract_y
 _atom_site_fract_z
 _atom_site_occupancy
  Zn  Zn0  1  0.50002000  0.39877000  0.49911000  1.0
  Zn  Zn1  1  0.49928000  0.60128000  0.49916000  1.0
  Zn  Zn2  1  0.50030000  0.60151000  0.04406000  1.0
  Zn  Zn3  1  0.50046000  0.39904000  0.04402000  1.0
  H  H4  1  0.38609000  0.24973000  0.55134000  1.0
  H  H5  1  0.61402000  0.24889000  0.44777000  1.0
  H  H6  1  0.61347000  0.75051000  0.44787000  1.0
  H  H7  1  0.38495000  0.75099000  0.55116000  1.0
  H  H8  1  0.50141000  0.65286000  0.33657000  1.0
  H  H9  1  0.50141000  0.34678000  0.20665000  1.0
  H  H10  1  0.49959000  0.65312000  0.64939000  1.0
  H  H11  1  0.49869000  0.34716000  0.64931000  1.0
  H  H12  1  0.49941000  0.34665000  0.89370000  1.0
  H  H13  1  0.50038000  0.65267000  0.89382000  1.0
  H  H14  1  0.14293000  0.34706000  0.49929000  1.0
  H  H15  1  0.85650000  0.65293000  0.50028000  1.0
  H  H16  1  0.38680000  0.75110000  0.99214000  1.0
  H  H17  1  0.61460000  0.75074000  0.09495000  1.0
  H  H18  1  0.61468000  0.24915000  0.09491000  1.0
  H  H19  1  0.38674000  0.24976000  0.99216000  1.0
  H  H20  1  0.14289000  0.65432000  0.04482000  1.0
  H  H21  1  0.85808000  0.34821000  0.04397000  1.0
  H  H22  1  0.20690000  0.91779000  0.58921000  1.0
  H  H23  1  0.29433000  0.81905000  0.59369000  1.0
  H  H24  1  0.30455000  0.91762000  0.63355000  1.0
  H  H25  1  0.30503000  0.08373000  0.63361000  1.0
  H  H26  1  0.29463000  0.18211000  0.59365000  1.0
  H  H27  1  0.20716000  0.08355000  0.58941000  1.0
  H  H28  1  0.79401000  0.91631000  0.41088000  1.0
  H  H29  1  0.70627000  0.81803000  0.40625000  1.0
  H  H30  1  0.69670000  0.91682000  0.36644000  1.0
  H  H31  1  0.69656000  0.08256000  0.36644000  1.0
  H  H32  1  0.70682000  0.18106000  0.40630000  1.0
  H  H33  1  0.79410000  0.08216000  0.41081000  1.0
  H  H34  1  0.43105000  0.81915000  0.81273000  1.0
  H  H35  1  0.50084000  0.76790000  0.86100000  1.0
  H  H36  1  0.56928000  0.81874000  0.81216000  1.0
  H  H37  1  0.56927000  0.81875000  0.73071000  1.0
  H  H38  1  0.49987000  0.76819000  0.68234000  1.0
  H  H39  1  0.43101000  0.81952000  0.73108000  1.0
  H  H40  1  0.56748000  0.18052000  0.81207000  1.0
  H  H41  1  0.49851000  0.23156000  0.86077000  1.0
  H  H42  1  0.42923000  0.18088000  0.81228000  1.0
  H  H43  1  0.42882000  0.18123000  0.73066000  1.0
  H  H44  1  0.49866000  0.23202000  0.68212000  1.0
  H  H45  1  0.56706000  0.18053000  0.73060000  1.0
  H  H46  1  0.20848000  0.08378000  0.95465000  1.0
  H  H47  1  0.29597000  0.18216000  0.94988000  1.0
  H  H48  1  0.30623000  0.08350000  0.91002000  1.0
  H  H49  1  0.30642000  0.91742000  0.91002000  1.0
  H  H50  1  0.29582000  0.81911000  0.95004000  1.0
  H  H51  1  0.20846000  0.91808000  0.95453000  1.0
  H  H52  1  0.79508000  0.08237000  0.13121000  1.0
  H  H53  1  0.70752000  0.18113000  0.13614000  1.0
  H  H54  1  0.69772000  0.08239000  0.17596000  1.0
  H  H55  1  0.69733000  0.91657000  0.17600000  1.0
  H  H56  1  0.70754000  0.81811000  0.13605000  1.0
  H  H57  1  0.79492000  0.91662000  0.13129000  1.0
  C  C58  1  0.49814000  0.50016000  0.59251000  1.0
  C  C59  1  0.29420000  0.49967000  0.49972000  1.0
  C  C60  1  0.50206000  0.50031000  0.40573000  1.0
  C  C61  1  0.70523000  0.50039000  0.49859000  1.0
  C  C62  1  0.49919000  0.49960000  0.95065000  1.0
  C  C63  1  0.29494000  0.50171000  0.04414000  1.0
  C  C64  1  0.50201000  0.49931000  0.13747000  1.0
  C  C65  1  0.70596000  0.50055000  0.04469000  1.0
  C  C66  1  0.43531000  0.20365000  0.52915000  1.0
  C  C67  1  0.43139000  0.10242000  0.53123000  1.0
  C  C68  1  0.36201000  0.05043000  0.56294000  1.0
  C  C69  1  0.56502000  0.20324000  0.47020000  1.0
  C  C70  1  0.56938000  0.10199000  0.46851000  1.0
  C  C71  1  0.63903000  0.04971000  0.43698000  1.0
  C  C72  1  0.56451000  0.79651000  0.47022000  1.0
  C  C73  1  0.56917000  0.89773000  0.46851000  1.0
  C  C74  1  0.63893000  0.94969000  0.43698000  1.0
  C  C75  1  0.43457000  0.79676000  0.52908000  1.0
  C  C76  1  0.43108000  0.89803000  0.53120000  1.0
  C  C77  1  0.36186000  0.95040000  0.56292000  1.0
  C  C78  1  0.50042000  0.05107000  0.49992000  1.0
  C  C79  1  0.50029000  0.94900000  0.49991000  1.0
  C  C80  1  0.50243000  0.57926000  0.32302000  1.0
  C  C81  1  0.50234000  0.42039000  0.22019000  1.0
  C  C82  1  0.50257000  0.50008000  0.35309000  1.0
  C  C83  1  0.50238000  0.49958000  0.19012000  1.0
  C  C84  1  0.50270000  0.44913000  0.26854000  1.0
  C  C85  1  0.50269000  0.55053000  0.27466000  1.0
  C  C86  1  0.49881000  0.58752000  0.67071000  1.0
  C  C87  1  0.49899000  0.59012000  0.72078000  1.0
  C  C88  1  0.49956000  0.68011000  0.74701000  1.0
  C  C89  1  0.49829000  0.41270000  0.67066000  1.0
  C  C90  1  0.49839000  0.40995000  0.72071000  1.0
  C  C91  1  0.49833000  0.31983000  0.74685000  1.0
  C  C92  1  0.49897000  0.41230000  0.87242000  1.0
  C  C93  1  0.49874000  0.40973000  0.82236000  1.0
  C  C94  1  0.49846000  0.31972000  0.79613000  1.0
  C  C95  1  0.49952000  0.58711000  0.87249000  1.0
  C  C96  1  0.49937000  0.58990000  0.82243000  1.0
  C  C97  1  0.49974000  0.68000000  0.79629000  1.0
  C  C98  1  0.49830000  0.50014000  0.64597000  1.0
  C  C99  1  0.49867000  0.49998000  0.74625000  1.0
  C  C100  1  0.49915000  0.49965000  0.89718000  1.0
  C  C101  1  0.49887000  0.49988000  0.79688000  1.0
  C  C102  1  0.11285000  0.42063000  0.49984000  1.0
  C  C103  1  0.88656000  0.57935000  0.49992000  1.0
  C  C104  1  0.17858000  0.49988000  0.50018000  1.0
  C  C105  1  0.82082000  0.50012000  0.49917000  1.0
  C  C106  1  0.99282000  0.55067000  0.50030000  1.0
  C  C107  1  0.00659000  0.44929000  0.49988000  1.0
  C  C108  1  0.43616000  0.79692000  0.01414000  1.0
  C  C109  1  0.43251000  0.89816000  0.01202000  1.0
  C  C110  1  0.36332000  0.95051000  0.98051000  1.0
  C  C111  1  0.56571000  0.79665000  0.07269000  1.0
  C  C112  1  0.57027000  0.89787000  0.07434000  1.0
  C  C113  1  0.63991000  0.94979000  0.10565000  1.0
  C  C114  1  0.56582000  0.20340000  0.07266000  1.0
  C  C115  1  0.57036000  0.10214000  0.07432000  1.0
  C  C116  1  0.63996000  0.04982000  0.10563000  1.0
  C  C117  1  0.43618000  0.20378000  0.01414000  1.0
  C  C118  1  0.43255000  0.10254000  0.01202000  1.0
  C  C119  1  0.36334000  0.05054000  0.98050000  1.0
  C  C120  1  0.50153000  0.94916000  0.04312000  1.0
  C  C121  1  0.50154000  0.05121000  0.04311000  1.0
  C  C122  1  0.11320000  0.58072000  0.04450000  1.0
  C  C123  1  0.88777000  0.42180000  0.04438000  1.0
  C  C124  1  0.17934000  0.50149000  0.04419000  1.0
  C  C125  1  0.82157000  0.50095000  0.04474000  1.0
  C  C126  1  0.99386000  0.45058000  0.04427000  1.0
  C  C127  1  0.00707000  0.55197000  0.04455000  1.0
  C  C128  1  0.28890000  0.89772000  0.59622000  1.0
  C  C129  1  0.28918000  0.10346000  0.59628000  1.0
  C  C130  1  0.71201000  0.89668000  0.40377000  1.0
  C  C131  1  0.71216000  0.10239000  0.40377000  1.0
  C  C132  1  0.50024000  0.77553000  0.82219000  1.0
  C  C133  1  0.49992000  0.77574000  0.72115000  1.0
  C  C134  1  0.49840000  0.22408000  0.82195000  1.0
  C  C135  1  0.49819000  0.22433000  0.72092000  1.0
  C  C136  1  0.29052000  0.10351000  0.94739000  1.0
  C  C137  1  0.29049000  0.89779000  0.94741000  1.0
  C  C138  1  0.71311000  0.10245000  0.13859000  1.0
  C  C139  1  0.71296000  0.89674000  0.13860000  1.0
  S  S140  1  0.50243000  0.39029000  0.32281000  1.0
  S  S141  1  0.50226000  0.60936000  0.22038000  1.0
  S  S142  1  0.11182000  0.60962000  0.50058000  1.0
  S  S143  1  0.88757000  0.39037000  0.49914000  1.0
  S  S144  1  0.11316000  0.39171000  0.04401000  1.0
  S  S145  1  0.88771000  0.61079000  0.04481000  1.0
  N  N146  1  0.50003000  0.25101000  0.49955000  1.0
  N  N147  1  0.49925000  0.74908000  0.49951000  1.0
  N  N148  1  0.50065000  0.74924000  0.04357000  1.0
  N  N149  1  0.50074000  0.25117000  0.04355000  1.0
  O  O150  1  0.49811000  0.41819000  0.57174000  1.0
  O  O151  1  0.49808000  0.58214000  0.57176000  1.0
  O  O152  1  0.33878000  0.58222000  0.49951000  1.0
  O  O153  1  0.33928000  0.41746000  0.49947000  1.0
  O  O154  1  0.50174000  0.58250000  0.42619000  1.0
  O  O155  1  0.50184000  0.41777000  0.42614000  1.0
  O  O156  1  0.66063000  0.41783000  0.49837000  1.0
  O  O157  1  0.66017000  0.58259000  0.49841000  1.0
  O  O158  1  0.49907000  0.58152000  0.97144000  1.0
  O  O159  1  0.49936000  0.41758000  0.97139000  1.0
  O  O160  1  0.33990000  0.41916000  0.04417000  1.0
  O  O161  1  0.33965000  0.58391000  0.04409000  1.0
  O  O162  1  0.50214000  0.41707000  0.11704000  1.0
  O  O163  1  0.50153000  0.58181000  0.11704000  1.0
  O  O164  1  0.66097000  0.58307000  0.04466000  1.0
  O  O165  1  0.66126000  0.41832000  0.04463000  1.0
