# generated using pymatgen
data_GdCuH22C18IN5O9
_symmetry_space_group_name_H-M   'P 1'
_cell_length_a   10.87890000
_cell_length_b   11.80306875
_cell_length_c   14.54800000
_cell_angle_alpha   82.44886886
_cell_angle_beta   84.54420000
_cell_angle_gamma   68.44076412
_symmetry_Int_Tables_number   1
_chemical_formula_structural   GdCuH22C18IN5O9
_chemical_formula_sum   'Gd2 Cu2 H44 C36 I2 N10 O18'
_cell_volume   1720.05119123
_cell_formula_units_Z   2
loop_
 _symmetry_equiv_pos_site_id
 _symmetry_equiv_pos_as_xyz
  1  'x, y, z'
loop_
 _atom_site_type_symbol
 _atom_site_label
 _atom_site_symmetry_multiplicity
 _atom_site_fract_x
 _atom_site_fract_y
 _atom_site_fract_z
 _atom_site_occupancy
  Gd  Gd0  1  0.59743000  0.62378000  0.96407000  1.0
  Gd  Gd1  1  0.40256000  0.37623000  0.03593000  1.0
  Cu  Cu2  1  0.98556000  0.00331000  0.58759000  1.0
  Cu  Cu3  1  0.01445000  0.99670000  0.41240000  1.0
  H  H4  1  0.56211000  0.20273000  0.77639000  1.0
  H  H5  1  0.43790000  0.79726000  0.22363000  1.0
  H  H6  1  0.05011000  0.64898000  0.83985000  1.0
  H  H7  1  0.94988000  0.35106000  0.16015000  1.0
  H  H8  1  0.84098000  0.38651000  0.75273000  1.0
  H  H9  1  0.15903000  0.61349000  0.24727000  1.0
  H  H10  1  0.36891000  0.78895000  0.79851000  1.0
  H  H11  1  0.63110000  0.21105000  0.20148000  1.0
  H  H12  1  0.94321000  0.79610000  0.70515000  1.0
  H  H13  1  0.05680000  0.20392000  0.29484000  1.0
  H  H14  1  0.70710000  0.06521000  0.65906000  1.0
  H  H15  1  0.29290000  0.93479000  0.34096000  1.0
  H  H16  1  0.24510000  0.93527000  0.66823000  1.0
  H  H17  1  0.75491000  0.06473000  0.33176000  1.0
  H  H18  1  0.67575000  0.65022000  0.18831000  1.0
  H  H19  1  0.32425000  0.34979000  0.81169000  1.0
  H  H20  1  0.97801000  0.23848000  0.63804000  1.0
  H  H21  1  0.02199000  0.76151000  0.36197000  1.0
  H  H22  1  0.49257000  0.90265000  0.07174000  1.0
  H  H23  1  0.50744000  0.09739000  0.92825000  1.0
  H  H24  1  0.81943000  0.56874000  0.29213000  1.0
  H  H25  1  0.18059000  0.43126000  0.70785000  1.0
  H  H26  1  0.92633000  0.65283000  0.29087000  1.0
  H  H27  1  0.07368000  0.34716000  0.70912000  1.0
  H  H28  1  0.98942000  0.50213000  0.25415000  1.0
  H  H29  1  0.01059000  0.49787000  0.74584000  1.0
  H  H30  1  0.35855000  0.05103000  0.14530000  1.0
  H  H31  1  0.64143000  0.94899000  0.85469000  1.0
  H  H32  1  0.19425000  0.04866000  0.16006000  1.0
  H  H33  1  0.80576000  0.95135000  0.83995000  1.0
  H  H34  1  0.23030000  0.16257000  0.07954000  1.0
  H  H35  1  0.76969000  0.83742000  0.92046000  1.0
  H  H36  1  0.93620000  0.67033000  0.02307000  1.0
  H  H37  1  0.06380000  0.32968000  0.97692000  1.0
  H  H38  1  0.05758000  0.56091000  0.09657000  1.0
  H  H39  1  0.94241000  0.43910000  0.90340000  1.0
  H  H40  1  0.00884000  0.71992000  0.10836000  1.0
  H  H41  1  0.99117000  0.28008000  0.89162000  1.0
  H  H42  1  0.22438000  0.92470000  0.93368000  1.0
  H  H43  1  0.77562000  0.07522000  0.06638000  1.0
  H  H44  1  0.15780000  0.08719000  0.93899000  1.0
  H  H45  1  0.84213000  0.91273000  0.06105000  1.0
  H  H46  1  0.10771000  0.98911000  0.02608000  1.0
  H  H47  1  0.89229000  0.01079000  0.97397000  1.0
  C  C48  1  0.69384000  0.30233000  0.77614000  1.0
  C  C49  1  0.30615000  0.69767000  0.22385000  1.0
  C  C50  1  0.65411000  0.21287000  0.74761000  1.0
  C  C51  1  0.34589000  0.78713000  0.25241000  1.0
  C  C52  1  0.29020000  0.61622000  0.90651000  1.0
  C  C53  1  0.70979000  0.38380000  0.09349000  1.0
  C  C54  1  0.61721000  0.38017000  0.85110000  1.0
  C  C55  1  0.38278000  0.61985000  0.14889000  1.0
  C  C56  1  0.21830000  0.70788000  0.83046000  1.0
  C  C57  1  0.78170000  0.29213000  0.16953000  1.0
  C  C58  1  0.09656000  0.71101000  0.80376000  1.0
  C  C59  1  0.90345000  0.28900000  0.19623000  1.0
  C  C60  1  0.81041000  0.31454000  0.73469000  1.0
  C  C61  1  0.18960000  0.68545000  0.26532000  1.0
  C  C62  1  0.27338000  0.78966000  0.78134000  1.0
  C  C63  1  0.72663000  0.21034000  0.21865000  1.0
  C  C64  1  0.03567000  0.79399000  0.72999000  1.0
  C  C65  1  0.96433000  0.20603000  0.27000000  1.0
  C  C66  1  0.73394000  0.13632000  0.68352000  1.0
  C  C67  1  0.26606000  0.86369000  0.31649000  1.0
  C  C68  1  0.20543000  0.87077000  0.70913000  1.0
  C  C69  1  0.79458000  0.12923000  0.29085000  1.0
  C  C70  1  0.74526000  0.66961000  0.13366000  1.0
  C  C71  1  0.25477000  0.33039000  0.86632000  1.0
  C  C72  1  0.88547000  0.23392000  0.67176000  1.0
  C  C73  1  0.11452000  0.76609000  0.32824000  1.0
  C  C74  1  0.42093000  0.90508000  0.02192000  1.0
  C  C75  1  0.57907000  0.09493000  0.97807000  1.0
  C  C76  1  0.90310000  0.58779000  0.25456000  1.0
  C  C77  1  0.09691000  0.41221000  0.74543000  1.0
  C  C78  1  0.26847000  0.06671000  0.10971000  1.0
  C  C79  1  0.73151000  0.93331000  0.89031000  1.0
  C  C80  1  0.97390000  0.64843000  0.09279000  1.0
  C  C81  1  0.02610000  0.35158000  0.90720000  1.0
  C  C82  1  0.19103000  0.99721000  0.98010000  1.0
  C  C83  1  0.80893000  0.00272000  0.01994000  1.0
  I  I84  1  0.84634000  0.90289000  0.50737000  1.0
  I  I85  1  0.15369000  0.09713000  0.49260000  1.0
  N  N86  1  0.85054000  0.14345000  0.64788000  1.0
  N  N87  1  0.14946000  0.85655000  0.35213000  1.0
  N  N88  1  0.08786000  0.87418000  0.68333000  1.0
  N  N89  1  0.91215000  0.12583000  0.31665000  1.0
  N  N90  1  0.86837000  0.63886000  0.15959000  1.0
  N  N91  1  0.13164000  0.36115000  0.84040000  1.0
  N  N92  1  0.73658000  0.67427000  0.79328000  1.0
  N  N93  1  0.26343000  0.32573000  0.20672000  1.0
  N  N94  1  0.29912000  0.98596000  0.03654000  1.0
  N  N95  1  0.70084000  0.01404000  0.96348000  1.0
  O  O96  1  0.66018000  0.45919000  0.87227000  1.0
  O  O97  1  0.33980000  0.54084000  0.12772000  1.0
  O  O98  1  0.40003000  0.61770000  0.92891000  1.0
  O  O99  1  0.59997000  0.38231000  0.07108000  1.0
  O  O100  1  0.51661000  0.35832000  0.88916000  1.0
  O  O101  1  0.48339000  0.64168000  0.11084000  1.0
  O  O102  1  0.24139000  0.53782000  0.94481000  1.0
  O  O103  1  0.75859000  0.46220000  0.05518000  1.0
  O  O104  1  0.45490000  0.83689000  0.95760000  1.0
  O  O105  1  0.54509000  0.16310000  0.04240000  1.0
  O  O106  1  0.70689000  0.71635000  0.05368000  1.0
  O  O107  1  0.29311000  0.28366000  0.94632000  1.0
  O  O108  1  0.60977000  0.71205000  0.80053000  1.0
  O  O109  1  0.39025000  0.28794000  0.19947000  1.0
  O  O110  1  0.79598000  0.63408000  0.87089000  1.0
  O  O111  1  0.20402000  0.36593000  0.12911000  1.0
  O  O112  1  0.79912000  0.67552000  0.71826000  1.0
  O  O113  1  0.20086000  0.32451000  0.28173000  1.0
