# generated using pymatgen
data_Zn4H34C76N16(ClF)5
_symmetry_space_group_name_H-M   'P 1'
_cell_length_a   14.62970000
_cell_length_b   16.86250000
_cell_length_c   18.41713081
_cell_angle_alpha   67.11288318
_cell_angle_beta   69.25738557
_cell_angle_gamma   82.14980000
_symmetry_Int_Tables_number   1
_chemical_formula_structural   Zn4H34C76N16(ClF)5
_chemical_formula_sum   'Zn4 H34 C76 N16 Cl5 F5'
_cell_volume   3914.37891592
_cell_formula_units_Z   1
loop_
 _symmetry_equiv_pos_site_id
 _symmetry_equiv_pos_as_xyz
  1  'x, y, z'
loop_
 _atom_site_type_symbol
 _atom_site_label
 _atom_site_symmetry_multiplicity
 _atom_site_fract_x
 _atom_site_fract_y
 _atom_site_fract_z
 _atom_site_occupancy
  Zn  Zn0  1  0.38500000  0.10811000  0.99409000  1.0
  Zn  Zn1  1  0.64709000  0.90999000  0.99619000  1.0
  Zn  Zn2  1  0.48585000  0.98213000  0.88783000  1.0
  Zn  Zn3  1  0.52417000  0.02111000  0.10950000  1.0
  H  H4  1  0.20718000  0.99515000  0.13204000  1.0
  H  H5  1  0.82080000  0.03743000  0.87011000  1.0
  H  H6  1  0.45603000  0.10618000  0.70627000  1.0
  H  H7  1  0.67659000  0.00910000  0.21036000  1.0
  H  H8  1  0.83942000  0.85144000  0.06972000  1.0
  H  H9  1  0.34685000  0.27567000  0.84416000  1.0
  H  H10  1  0.68874000  0.16585000  0.02457000  1.0
  H  H11  1  0.61345000  0.12983000  0.73557000  1.0
  H  H12  1  0.94877000  0.08914000  0.74233000  1.0
  H  H13  1  0.73615000  0.18232000  0.61471000  1.0
  H  H14  1  0.78697000  0.22616000  0.46226000  1.0
  H  H15  1  0.91304000  0.22756000  0.33018000  1.0
  H  H16  1  0.29473000  0.10316000  0.38017000  1.0
  H  H17  1  0.12469000  0.08413000  0.66120000  1.0
  H  H18  1  0.49460000  0.37110000  0.70136000  1.0
  H  H19  1  0.35292000  0.24175000  0.60894000  1.0
  H  H20  1  0.32960000  0.31711000  0.47117000  1.0
  H  H21  1  0.34180000  0.44959000  0.34691000  1.0
  H  H22  1  0.39117000  0.60355000  0.26664000  1.0
  H  H23  1  0.57189000  0.65236000  0.49017000  1.0
  H  H24  1  0.55604000  0.52071000  0.61603000  1.0
  H  H25  1  0.68688000  0.60717000  0.96186000  1.0
  H  H26  1  0.71515000  0.45218000  0.02163000  1.0
  H  H27  1  0.63389000  0.57453000  0.72241000  1.0
  H  H28  1  0.69055000  0.30606000  0.03116000  1.0
  H  H29  1  0.62582000  0.41199000  0.80053000  1.0
  H  H30  1  0.82439000  0.67122000  0.22064000  1.0
  H  H31  1  0.39228000  0.06158000  0.27815000  1.0
  H  H32  1  0.77946000  0.83631000  0.35997000  1.0
  H  H33  1  0.03211000  0.64988000  0.17513000  1.0
  H  H34  1  0.86499000  0.94589000  0.22710000  1.0
  H  H35  1  0.18814000  0.73103000  0.10603000  1.0
  H  H36  1  0.20153000  0.17922000  0.13093000  1.0
  H  H37  1  0.50099000  0.29119000  0.87535000  1.0
  C  C38  1  0.24729000  0.96291000  0.08941000  1.0
  C  C39  1  0.47465000  0.75592000  0.22995000  1.0
  C  C40  1  0.64083000  0.75534000  0.85869000  1.0
  C  C41  1  0.26629000  0.13022000  0.23520000  1.0
  C  C42  1  0.53978000  0.24749000  0.91582000  1.0
  C  C43  1  0.75812000  0.05374000  0.84850000  1.0
  C  C44  1  0.42759000  0.13593000  0.75273000  1.0
  C  C45  1  0.70579000  0.97469000  0.16783000  1.0
  C  C46  1  0.78829000  0.89364000  0.09675000  1.0
  C  C47  1  0.37366000  0.22228000  0.82312000  1.0
  C  C48  1  0.63458000  0.18431000  0.99306000  1.0
  C  C49  1  0.52386000  0.76760000  0.14577000  1.0
  C  C50  1  0.65251000  0.10052000  0.77992000  1.0
  C  C51  1  0.61691000  0.26454000  0.93649000  1.0
  C  C52  1  0.75259000  0.10267000  0.76844000  1.0
  C  C53  1  0.40702000  0.22287000  0.74148000  1.0
  C  C54  1  0.78787000  0.92120000  0.15945000  1.0
  C  C55  1  0.93041000  0.11497000  0.68491000  1.0
  C  C56  1  0.83233000  0.13181000  0.68872000  1.0
  C  C57  1  0.81141000  0.16695000  0.61355000  1.0
  C  C58  1  0.88392000  0.17764000  0.53644000  1.0
  C  C59  1  0.98225000  0.15417000  0.53384000  1.0
  C  C60  1  0.56907000  0.81981000  0.84638000  1.0
  C  C61  1  0.00568000  0.12543000  0.60904000  1.0
  C  C62  1  0.86178000  0.20652000  0.46032000  1.0
  C  C63  1  0.93127000  0.20741000  0.38722000  1.0
  C  C64  1  0.02924000  0.18016000  0.38443000  1.0
  C  C65  1  0.05510000  0.15542000  0.45816000  1.0
  C  C66  1  0.15329000  0.12924000  0.45513000  1.0
  C  C67  1  0.17519000  0.10638000  0.53121000  1.0
  C  C68  1  0.10522000  0.10399000  0.60469000  1.0
  C  C69  1  0.10102000  0.17384000  0.31268000  1.0
  C  C70  1  0.19636000  0.14449000  0.30843000  1.0
  C  C71  1  0.35712000  0.08856000  0.23079000  1.0
  C  C72  1  0.22089000  0.12466000  0.38097000  1.0
  C  C73  1  0.46674000  0.37215000  0.65323000  1.0
  C  C74  1  0.42096000  0.29844000  0.66402000  1.0
  C  C75  1  0.38899000  0.29878000  0.60055000  1.0
  C  C76  1  0.39888000  0.37222000  0.52775000  1.0
  C  C77  1  0.44354000  0.44770000  0.51797000  1.0
  C  C78  1  0.47927000  0.44677000  0.58121000  1.0
  C  C79  1  0.36331000  0.37504000  0.46350000  1.0
  C  C80  1  0.37019000  0.44836000  0.39474000  1.0
  C  C81  1  0.41393000  0.52528000  0.38351000  1.0
  C  C82  1  0.68396000  0.78270000  0.90206000  1.0
  C  C83  1  0.45146000  0.52366000  0.44598000  1.0
  C  C84  1  0.49663000  0.59851000  0.43675000  1.0
  C  C85  1  0.53555000  0.59539000  0.49913000  1.0
  C  C86  1  0.52674000  0.52241000  0.56851000  1.0
  C  C87  1  0.42055000  0.60177000  0.31405000  1.0
  C  C88  1  0.46346000  0.67657000  0.30386000  1.0
  C  C89  1  0.50103000  0.67228000  0.36560000  1.0
  C  C90  1  0.65649000  0.67301000  0.84712000  1.0
  C  C91  1  0.65281000  0.34939000  0.91760000  1.0
  C  C92  1  0.69619000  0.44318000  0.97308000  1.0
  C  C93  1  0.25947000  0.14781000  0.15587000  1.0
  C  C94  1  0.68315000  0.36197000  0.97796000  1.0
  C  C95  1  0.64588000  0.42062000  0.84876000  1.0
  C  C96  1  0.65849000  0.50525000  0.84207000  1.0
  C  C97  1  0.67994000  0.51696000  0.90753000  1.0
  C  C98  1  0.67712000  0.60034000  0.90856000  1.0
  C  C99  1  0.64632000  0.65983000  0.77868000  1.0
  C  C100  1  0.64568000  0.57984000  0.77560000  1.0
  C  C101  1  0.79221000  0.74841000  0.29724000  1.0
  C  C102  1  0.12286000  0.85139000  0.11265000  1.0
  C  C103  1  0.03225000  0.71791000  0.16549000  1.0
  C  C104  1  0.44871000  0.84086000  0.22510000  1.0
  C  C105  1  0.11973000  0.76383000  0.12577000  1.0
  C  C106  1  0.03190000  0.89236000  0.13755000  1.0
  C  C107  1  0.94413000  0.84670000  0.18254000  1.0
  C  C108  1  0.94517000  0.75724000  0.19715000  1.0
  C  C109  1  0.84799000  0.71440000  0.24195000  1.0
  C  C110  1  0.79347000  0.82385000  0.30318000  1.0
  C  C111  1  0.84724000  0.89041000  0.21717000  1.0
  C  C112  1  0.30186000  0.88143000  0.01541000  1.0
  C  C113  1  0.21698000  0.89582000  0.07544000  1.0
  N  N114  1  0.34031000  0.98563000  0.04068000  1.0
  N  N115  1  0.66874000  0.02362000  0.90187000  1.0
  N  N116  1  0.40978000  0.08769000  0.83453000  1.0
  N  N117  1  0.66005000  0.97812000  0.11493000  1.0
  N  N118  1  0.71143000  0.92801000  0.07015000  1.0
  N  N119  1  0.37498000  0.14169000  0.87841000  1.0
  N  N120  1  0.57162000  0.12544000  0.00523000  1.0
  N  N121  1  0.60368000  0.05218000  0.85965000  1.0
  N  N122  1  0.52820000  0.85156000  0.09571000  1.0
  N  N123  1  0.57077000  0.87742000  0.87983000  1.0
  N  N124  1  0.39998000  0.08163000  0.15595000  1.0
  N  N125  1  0.64377000  0.85344000  0.91549000  1.0
  N  N126  1  0.33956000  0.11892000  0.10902000  1.0
  N  N127  1  0.48046000  0.89743000  0.14574000  1.0
  N  N128  1  0.37454000  0.93479000  0.99397000  1.0
  N  N129  1  0.51326000  0.16435000  0.95818000  1.0
  Cl  Cl130  1  0.57705000  0.68907000  0.10741000  1.0
  Cl  Cl131  1  0.29471000  0.07929000  0.52988000  1.0
  Cl  Cl132  1  0.48337000  0.83129000  0.80002000  1.0
  Cl  Cl133  1  0.02804000  0.00389000  0.10989000  1.0
  Cl  Cl134  1  0.38313000  0.87307000  0.30584000  1.0
  F  F135  1  0.07411000  0.19553000  0.24322000  1.0
  F  F136  1  0.54650000  0.74310000  0.35538000  1.0
  F  F137  1  0.63664000  0.73044000  0.71267000  1.0
  F  F138  1  0.75850000  0.74562000  0.93032000  1.0
  F  F139  1  0.31513000  0.82382000  0.97859000  1.0
