# generated using pymatgen
data_ZnH8C12(NO3)2
_symmetry_space_group_name_H-M   'P 1'
_cell_length_a   7.25160000
_cell_length_b   7.25157000
_cell_length_c   12.50210000
_cell_angle_alpha   100.36300000
_cell_angle_beta   100.36300000
_cell_angle_gamma   90.32750000
_symmetry_Int_Tables_number   1
_chemical_formula_structural   ZnH8C12(NO3)2
_chemical_formula_sum   'Zn2 H16 C24 N4 O12'
_cell_volume   635.66310745
_cell_formula_units_Z   2
loop_
 _symmetry_equiv_pos_site_id
 _symmetry_equiv_pos_as_xyz
  1  'x, y, z'
loop_
 _atom_site_type_symbol
 _atom_site_label
 _atom_site_symmetry_multiplicity
 _atom_site_fract_x
 _atom_site_fract_y
 _atom_site_fract_z
 _atom_site_occupancy
  Zn  Zn0  1  0.83772000  0.16228000  0.25001000  1.0
  Zn  Zn1  1  0.16228000  0.83773000  0.75000000  1.0
  H  H2  1  0.64804000  0.81208000  0.56113000  1.0
  H  H3  1  0.18791000  0.35194000  0.93888000  1.0
  H  H4  1  0.35195000  0.18792000  0.43887000  1.0
  H  H5  1  0.81210000  0.64805000  0.06113000  1.0
  H  H6  1  0.79224000  0.23041000  0.48914000  1.0
  H  H7  1  0.76957000  0.20775000  0.01085000  1.0
  H  H8  1  0.20777000  0.76960000  0.51085000  1.0
  H  H9  1  0.23042000  0.79225000  0.98915000  1.0
  H  H10  1  0.83862000  0.56889000  0.25948000  1.0
  H  H11  1  0.43113000  0.16139000  0.24053000  1.0
  H  H12  1  0.16137000  0.43113000  0.74052000  1.0
  H  H13  1  0.56889000  0.83861000  0.75947000  1.0
  H  H14  1  0.70012000  0.36889000  0.64954000  1.0
  H  H15  1  0.63107000  0.29984000  0.85044000  1.0
  H  H16  1  0.29989000  0.63111000  0.35046000  1.0
  H  H17  1  0.36893000  0.70014000  0.14955000  1.0
  C  C18  1  0.71528000  0.89336000  0.36306000  1.0
  C  C19  1  0.10665000  0.28469000  0.13695000  1.0
  C  C20  1  0.28468000  0.10666000  0.63694000  1.0
  C  C21  1  0.89336000  0.71531000  0.86305000  1.0
  C  C22  1  0.74359000  0.71377000  0.40684000  1.0
  C  C23  1  0.28622000  0.25641000  0.09317000  1.0
  C  C24  1  0.25640000  0.28624000  0.59316000  1.0
  C  C25  1  0.71380000  0.74357000  0.90683000  1.0
  C  C26  1  0.70169000  0.69502000  0.50897000  1.0
  C  C27  1  0.30496000  0.29830000  0.99103000  1.0
  C  C28  1  0.29830000  0.30497000  0.49103000  1.0
  C  C29  1  0.69504000  0.70170000  0.00897000  1.0
  C  C30  1  0.72578000  0.52039000  0.54121000  1.0
  C  C31  1  0.47958000  0.27420000  0.95879000  1.0
  C  C32  1  0.27421000  0.47961000  0.45880000  1.0
  C  C33  1  0.52041000  0.72579000  0.04121000  1.0
  C  C34  1  0.78076000  0.37010000  0.46841000  1.0
  C  C35  1  0.62990000  0.21924000  0.03160000  1.0
  C  C36  1  0.21924000  0.62992000  0.53160000  1.0
  C  C37  1  0.37011000  0.78076000  0.96840000  1.0
  C  C38  1  0.80358000  0.55952000  0.33946000  1.0
  C  C39  1  0.44048000  0.19643000  0.16054000  1.0
  C  C40  1  0.19642000  0.44049000  0.66054000  1.0
  C  C41  1  0.55955000  0.80357000  0.83946000  1.0
  N  N42  1  0.81617000  0.39017000  0.36907000  1.0
  N  N43  1  0.60983000  0.18383000  0.13093000  1.0
  N  N44  1  0.18383000  0.60984000  0.63093000  1.0
  N  N45  1  0.39018000  0.81617000  0.86907000  1.0
  O  O46  1  0.85467000  0.94202000  0.32069000  1.0
  O  O47  1  0.05800000  0.14530000  0.17932000  1.0
  O  O48  1  0.14530000  0.05799000  0.67931000  1.0
  O  O49  1  0.94202000  0.85469000  0.82069000  1.0
  O  O50  1  0.56683000  0.97763000  0.36869000  1.0
  O  O51  1  0.02236000  0.43313000  0.13132000  1.0
  O  O52  1  0.43315000  0.02238000  0.63131000  1.0
  O  O53  1  0.97765000  0.56684000  0.86868000  1.0
  O  O54  1  0.68904000  0.50006000  0.64149000  1.0
  O  O55  1  0.49991000  0.31097000  0.85850000  1.0
  O  O56  1  0.31097000  0.49994000  0.35850000  1.0
  O  O57  1  0.50008000  0.68903000  0.14150000  1.0
