# generated using pymatgen
data_Hg3H14C20(N2Cl3)2
_symmetry_space_group_name_H-M   'P 1'
_cell_length_a   7.59366000
_cell_length_b   8.29387000
_cell_length_c   10.51470000
_cell_angle_alpha   97.19950000
_cell_angle_beta   97.16570000
_cell_angle_gamma   99.99990000
_symmetry_Int_Tables_number   1
_chemical_formula_structural   Hg3H14C20(N2Cl3)2
_chemical_formula_sum   'Hg3 H14 C20 N4 Cl6'
_cell_volume   639.70737060
_cell_formula_units_Z   1
loop_
 _symmetry_equiv_pos_site_id
 _symmetry_equiv_pos_as_xyz
  1  'x, y, z'
loop_
 _atom_site_type_symbol
 _atom_site_label
 _atom_site_symmetry_multiplicity
 _atom_site_fract_x
 _atom_site_fract_y
 _atom_site_fract_z
 _atom_site_occupancy
  Hg  Hg0  1  0.50000000  0.00000000  0.00000000  1.0
  Hg  Hg1  1  0.86461000  0.77561000  0.87520000  1.0
  Hg  Hg2  1  0.13539000  0.22439000  0.12480000  1.0
  H  H3  1  0.72329000  0.81853000  0.62292000  1.0
  H  H4  1  0.27671000  0.18147000  0.37708000  1.0
  H  H5  1  0.61290000  0.85641000  0.39739000  1.0
  H  H6  1  0.38709000  0.14359000  0.60261000  1.0
  H  H7  1  0.58895000  0.63020000  0.21412000  1.0
  H  H8  1  0.41105000  0.36980000  0.78588000  1.0
  H  H9  1  0.67290000  0.36285000  0.25264000  1.0
  H  H10  1  0.32710000  0.63715000  0.74736000  1.0
  H  H11  1  0.79395000  0.18767000  0.40845000  1.0
  H  H12  1  0.20605000  0.81232000  0.59156000  1.0
  H  H13  1  0.90946000  0.16217000  0.63893000  1.0
  H  H14  1  0.09054000  0.83783000  0.36107000  1.0
  H  H15  1  0.97883000  0.27389000  0.86364000  1.0
  H  H16  1  0.02117000  0.72611000  0.13637000  1.0
  C  C17  1  0.76693000  0.56968000  0.56587000  1.0
  C  C18  1  0.23307000  0.43032000  0.43413000  1.0
  C  C19  1  0.71503000  0.72058000  0.54145000  1.0
  C  C20  1  0.28497000  0.27942000  0.45855000  1.0
  C  C21  1  0.65364000  0.74104000  0.41674000  1.0
  C  C22  1  0.34636000  0.25896000  0.58326000  1.0
  C  C23  1  0.63903000  0.61186000  0.31189000  1.0
  C  C24  1  0.36097000  0.38814000  0.68811000  1.0
  C  C25  1  0.68669000  0.46322000  0.33294000  1.0
  C  C26  1  0.31331000  0.53678000  0.66706000  1.0
  C  C27  1  0.75193000  0.43810000  0.45963000  1.0
  C  C28  1  0.24808000  0.56190000  0.54037000  1.0
  C  C29  1  0.80370000  0.28891000  0.48767000  1.0
  C  C30  1  0.19630000  0.71109000  0.51233000  1.0
  C  C31  1  0.86682000  0.27431000  0.61350000  1.0
  C  C32  1  0.13318000  0.72569000  0.38651000  1.0
  C  C33  1  0.87970000  0.41038000  0.71283000  1.0
  C  C34  1  0.12030000  0.58963000  0.28717000  1.0
  C  C35  1  0.94799000  0.39424000  0.84591000  1.0
  C  C36  1  0.05201000  0.60576000  0.15409000  1.0
  N  N37  1  0.83074000  0.55192000  0.68876000  1.0
  N  N38  1  0.16927000  0.44808000  0.31124000  1.0
  N  N39  1  0.97099000  0.51669000  0.93958000  1.0
  N  N40  1  0.02901000  0.48331000  0.06042000  1.0
  Cl  Cl41  1  0.10944000  0.97147000  0.82671000  1.0
  Cl  Cl42  1  0.89056000  0.02853000  0.17329000  1.0
  Cl  Cl43  1  0.59425000  0.67718000  0.96364000  1.0
  Cl  Cl44  1  0.40575000  0.32282000  0.03636000  1.0
  Cl  Cl45  1  0.61370000  0.05127000  0.80472000  1.0
  Cl  Cl46  1  0.38630000  0.94873000  0.19528000  1.0
