# generated using pymatgen
data_NiH15C16(NO)5
_symmetry_space_group_name_H-M   'P 1'
_cell_length_a   8.39729000
_cell_length_b   10.54035336
_cell_length_c   10.60180000
_cell_angle_alpha   81.68052095
_cell_angle_beta   85.47590000
_cell_angle_gamma   67.45875678
_symmetry_Int_Tables_number   1
_chemical_formula_structural   NiH15C16(NO)5
_chemical_formula_sum   'Ni2 H30 C32 N10 O10'
_cell_volume   857.27994134
_cell_formula_units_Z   2
loop_
 _symmetry_equiv_pos_site_id
 _symmetry_equiv_pos_as_xyz
  1  'x, y, z'
loop_
 _atom_site_type_symbol
 _atom_site_label
 _atom_site_symmetry_multiplicity
 _atom_site_fract_x
 _atom_site_fract_y
 _atom_site_fract_z
 _atom_site_occupancy
  Ni  Ni0  1  0.00000000  0.50001000  0.49999000  1.0
  Ni  Ni1  1  0.50000000  0.00000000  0.50000000  1.0
  H  H2  1  0.68896000  0.57366000  0.81954000  1.0
  H  H3  1  0.31103000  0.42633000  0.18047000  1.0
  H  H4  1  0.64743000  0.42182000  0.84609000  1.0
  H  H5  1  0.35258000  0.57817000  0.15390000  1.0
  H  H6  1  0.67631000  0.43237000  0.58944000  1.0
  H  H7  1  0.32369000  0.56763000  0.41056000  1.0
  H  H8  1  0.47949000  0.53199000  0.66552000  1.0
  H  H9  1  0.52050000  0.46802000  0.33449000  1.0
  H  H10  1  0.53976000  0.83002000  0.74900000  1.0
  H  H11  1  0.46023000  0.16998000  0.25101000  1.0
  H  H12  1  0.65853000  0.82612000  0.95953000  1.0
  H  H13  1  0.34146000  0.17390000  0.04047000  1.0
  H  H14  1  0.75773000  0.19017000  0.79900000  1.0
  H  H15  1  0.24230000  0.80980000  0.20100000  1.0
  H  H16  1  0.63926000  0.17525000  0.59248000  1.0
  H  H17  1  0.36077000  0.82471000  0.40753000  1.0
  H  H18  1  0.81949000  0.37149000  0.08940000  1.0
  H  H19  1  0.18050000  0.62852000  0.91060000  1.0
  H  H20  1  0.86302000  0.52864000  0.22729000  1.0
  H  H21  1  0.13698000  0.47136000  0.77272000  1.0
  H  H22  1  0.94367000  0.23538000  0.54470000  1.0
  H  H23  1  0.05633000  0.76462000  0.45529000  1.0
  H  H24  1  0.89451000  0.06895000  0.42340000  1.0
  H  H25  1  0.10547000  0.93105000  0.57660000  1.0
  H  H26  1  0.88844000  0.81096000  0.11888000  1.0
  H  H27  1  0.11156000  0.18904000  0.88112000  1.0
  H  H28  1  0.21889000  0.07948000  0.63911000  1.0
  H  H29  1  0.78110000  0.92052000  0.36089000  1.0
  H  H30  1  0.24638000  0.20300000  0.53478000  1.0
  H  H31  1  0.75361000  0.79700000  0.46521000  1.0
  C  C32  1  0.89964000  0.39238000  0.77310000  1.0
  C  C33  1  0.10036000  0.60762000  0.22690000  1.0
  C  C34  1  0.70667000  0.47983000  0.77651000  1.0
  C  C35  1  0.29332000  0.52017000  0.22348000  1.0
  C  C36  1  0.61564000  0.51698000  0.64821000  1.0
  C  C37  1  0.38436000  0.48302000  0.35179000  1.0
  C  C38  1  0.62037000  0.65091000  0.57652000  1.0
  C  C39  1  0.37963000  0.34909000  0.42348000  1.0
  C  C40  1  0.59177000  0.90631000  0.76480000  1.0
  C  C41  1  0.40823000  0.09369000  0.23521000  1.0
  C  C42  1  0.65783000  0.90559000  0.88110000  1.0
  C  C43  1  0.34218000  0.09442000  0.11890000  1.0
  C  C44  1  0.71660000  0.01016000  0.89617000  1.0
  C  C45  1  0.28340000  0.98985000  0.10384000  1.0
  C  C46  1  0.71085000  0.10893000  0.79085000  1.0
  C  C47  1  0.28916000  0.89106000  0.20915000  1.0
  C  C48  1  0.64619000  0.10150000  0.67719000  1.0
  C  C49  1  0.35384000  0.89847000  0.32281000  1.0
  C  C50  1  0.77437000  0.02438000  0.01741000  1.0
  C  C51  1  0.22563000  0.97563000  0.98259000  1.0
  C  C52  1  0.82770000  0.11059000  0.17020000  1.0
  C  C53  1  0.17229000  0.88942000  0.82980000  1.0
  C  C54  1  0.85280000  0.20660000  0.24564000  1.0
  C  C55  1  0.14721000  0.79340000  0.75436000  1.0
  C  C56  1  0.84293000  0.33868000  0.19089000  1.0
  C  C57  1  0.15705000  0.66133000  0.80911000  1.0
  C  C58  1  0.87037000  0.42535000  0.26691000  1.0
  C  C59  1  0.12963000  0.57466000  0.73309000  1.0
  C  C60  1  0.91575000  0.26123000  0.44373000  1.0
  C  C61  1  0.08423000  0.73878000  0.55627000  1.0
  C  C62  1  0.88940000  0.16881000  0.37532000  1.0
  C  C63  1  0.11061000  0.83118000  0.62467000  1.0
  N  N64  1  0.58527000  0.00270000  0.66452000  1.0
  N  N65  1  0.41474000  0.99729000  0.33549000  1.0
  N  N66  1  0.77063000  0.14439000  0.04874000  1.0
  N  N67  1  0.22936000  0.85562000  0.95127000  1.0
  N  N68  1  0.83035000  0.92256000  0.11665000  1.0
  N  N69  1  0.16966000  0.07744000  0.88335000  1.0
  N  N70  1  0.86531000  0.97584000  0.21454000  1.0
  N  N71  1  0.13468000  0.02416000  0.78546000  1.0
  N  N72  1  0.90911000  0.38756000  0.39145000  1.0
  N  N73  1  0.09090000  0.61244000  0.60855000  1.0
  O  O74  1  0.98268000  0.37286000  0.66699000  1.0
  O  O75  1  0.01731000  0.62715000  0.33301000  1.0
  O  O76  1  0.96959000  0.33864000  0.88023000  1.0
  O  O77  1  0.03041000  0.66136000  0.11978000  1.0
  O  O78  1  0.76010000  0.64990000  0.51508000  1.0
  O  O79  1  0.23990000  0.35009000  0.48492000  1.0
  O  O80  1  0.48976000  0.76077000  0.58223000  1.0
  O  O81  1  0.51024000  0.23924000  0.41777000  1.0
  O  O82  1  0.26148000  0.10043000  0.55092000  1.0
  O  O83  1  0.73852000  0.89957000  0.44908000  1.0
