# generated using pymatgen
data_ZnH5C8O5
_symmetry_space_group_name_H-M   'P 1'
_cell_length_a   4.77219000
_cell_length_b   6.74772000
_cell_length_c   11.98110000
_cell_angle_alpha   85.04880000
_cell_angle_beta   87.38220000
_cell_angle_gamma   83.48330000
_symmetry_Int_Tables_number   1
_chemical_formula_structural   ZnH5C8O5
_chemical_formula_sum   'Zn2 H10 C16 O10'
_cell_volume   381.63417759
_cell_formula_units_Z   2
loop_
 _symmetry_equiv_pos_site_id
 _symmetry_equiv_pos_as_xyz
  1  'x, y, z'
loop_
 _atom_site_type_symbol
 _atom_site_label
 _atom_site_symmetry_multiplicity
 _atom_site_fract_x
 _atom_site_fract_y
 _atom_site_fract_z
 _atom_site_occupancy
  Zn  Zn0  1  0.44026000  0.73783000  0.86347000  1.0
  Zn  Zn1  1  0.55974000  0.26217000  0.13654000  1.0
  H  H2  1  0.92234000  0.97289000  0.60903000  1.0
  H  H3  1  0.07766000  0.02711000  0.39097000  1.0
  H  H4  1  0.61124000  0.15667000  0.46892000  1.0
  H  H5  1  0.38877000  0.84333000  0.53108000  1.0
  H  H6  1  0.64979000  0.69722000  0.63349000  1.0
  H  H7  1  0.35022000  0.30278000  0.36651000  1.0
  H  H8  1  0.56669000  0.79317000  0.06221000  1.0
  H  H9  1  0.43332000  0.20683000  0.93780000  1.0
  H  H10  1  0.21766000  0.79501000  0.06162000  1.0
  H  H11  1  0.78234000  0.20500000  0.93838000  1.0
  C  C12  1  0.13913000  0.10452000  0.78674000  1.0
  C  C13  1  0.86087000  0.89548000  0.21326000  1.0
  C  C14  1  0.96451000  0.22724000  0.69998000  1.0
  C  C15  1  0.03549000  0.77276000  0.30002000  1.0
  C  C16  1  0.86274000  0.13279000  0.61315000  1.0
  C  C17  1  0.13726000  0.86721000  0.38685000  1.0
  C  C18  1  0.68388000  0.23776000  0.53480000  1.0
  C  C19  1  0.31612000  0.76224000  0.46520000  1.0
  C  C20  1  0.59821000  0.44330000  0.54033000  1.0
  C  C21  1  0.40178000  0.55669000  0.45967000  1.0
  C  C22  1  0.70596000  0.53771000  0.62652000  1.0
  C  C23  1  0.29404000  0.46229000  0.37348000  1.0
  C  C24  1  0.88453000  0.43362000  0.70571000  1.0
  C  C25  1  0.11546000  0.56638000  0.29429000  1.0
  C  C26  1  0.00527000  0.55227000  0.78801000  1.0
  C  C27  1  0.99472000  0.44774000  0.21199000  1.0
  O  O28  1  0.31470000  0.96236000  0.75219000  1.0
  O  O29  1  0.68529000  0.03764000  0.24781000  1.0
  O  O30  1  0.10465000  0.14100000  0.88909000  1.0
  O  O31  1  0.89536000  0.85900000  0.11092000  1.0
  O  O32  1  0.27093000  0.52157000  0.79866000  1.0
  O  O33  1  0.72907000  0.47844000  0.20134000  1.0
  O  O34  1  0.85342000  0.68745000  0.83855000  1.0
  O  O35  1  0.14658000  0.31255000  0.16145000  1.0
  O  O36  1  0.40609000  0.74427000  0.02685000  1.0
  O  O37  1  0.59391000  0.25573000  0.97315000  1.0
