# generated using pymatgen
data_UH3C7NO6
_symmetry_space_group_name_H-M   'P 1'
_cell_length_a   5.58222000
_cell_length_b   8.43340000
_cell_length_c   19.74600000
_cell_angle_alpha   89.99980000
_cell_angle_beta   89.99940000
_cell_angle_gamma   89.99990000
_symmetry_Int_Tables_number   1
_chemical_formula_structural   UH3C7NO6
_chemical_formula_sum   'U4 H12 C28 N4 O24'
_cell_volume   929.58430099
_cell_formula_units_Z   4
loop_
 _symmetry_equiv_pos_site_id
 _symmetry_equiv_pos_as_xyz
  1  'x, y, z'
loop_
 _atom_site_type_symbol
 _atom_site_label
 _atom_site_symmetry_multiplicity
 _atom_site_fract_x
 _atom_site_fract_y
 _atom_site_fract_z
 _atom_site_occupancy
  U  U0  1  0.54679000  0.24427000  0.87387000  1.0
  U  U1  1  0.95321000  0.75573000  0.37387000  1.0
  U  U2  1  0.45321000  0.74427000  0.62613000  1.0
  U  U3  1  0.04679000  0.25573000  0.12613000  1.0
  H  H4  1  0.91728000  0.80721000  0.76935000  1.0
  H  H5  1  0.58270000  0.19280000  0.26936000  1.0
  H  H6  1  0.08271000  0.30721000  0.73065000  1.0
  H  H7  1  0.41729000  0.69279000  0.23064000  1.0
  H  H8  1  0.12082000  0.90523000  0.87558000  1.0
  H  H9  1  0.37916000  0.09477000  0.37558000  1.0
  H  H10  1  0.87917000  0.40523000  0.62442000  1.0
  H  H11  1  0.62083000  0.59477000  0.12442000  1.0
  H  H12  1  0.09523000  0.73632000  0.98117000  1.0
  H  H13  1  0.40476000  0.26367000  0.48117000  1.0
  H  H14  1  0.90476000  0.23633000  0.51883000  1.0
  H  H15  1  0.59524000  0.76367000  0.01883000  1.0
  C  C16  1  0.66767000  0.52138000  0.75866000  1.0
  C  C17  1  0.83233000  0.47862000  0.25866000  1.0
  C  C18  1  0.33234000  0.02138000  0.74134000  1.0
  C  C19  1  0.16767000  0.97862000  0.24134000  1.0
  C  C20  1  0.78813000  0.59670000  0.81837000  1.0
  C  C21  1  0.71187000  0.40329000  0.31838000  1.0
  C  C22  1  0.21187000  0.09670000  0.68163000  1.0
  C  C23  1  0.28813000  0.90330000  0.18162000  1.0
  C  C24  1  0.91108000  0.74065000  0.81648000  1.0
  C  C25  1  0.58891000  0.25935000  0.31649000  1.0
  C  C26  1  0.08892000  0.24065000  0.68352000  1.0
  C  C27  1  0.41108000  0.75935000  0.18352000  1.0
  C  C28  1  0.02297000  0.79371000  0.87555000  1.0
  C  C29  1  0.47702000  0.20630000  0.37555000  1.0
  C  C30  1  0.97702000  0.29371000  0.62445000  1.0
  C  C31  1  0.52297000  0.70629000  0.12445000  1.0
  C  C32  1  0.00828000  0.70153000  0.93410000  1.0
  C  C33  1  0.49170000  0.29846000  0.43410000  1.0
  C  C34  1  0.99171000  0.20153000  0.56590000  1.0
  C  C35  1  0.50829000  0.79847000  0.06590000  1.0
  C  C36  1  0.88061000  0.55937000  0.93177000  1.0
  C  C37  1  0.61938000  0.44063000  0.43177000  1.0
  C  C38  1  0.11938000  0.05937000  0.56823000  1.0
  C  C39  1  0.38063000  0.94063000  0.06823000  1.0
  C  C40  1  0.85427000  0.44443000  0.98934000  1.0
  C  C41  1  0.64573000  0.55557000  0.48934000  1.0
  C  C42  1  0.14573000  0.94443000  0.51066000  1.0
  C  C43  1  0.35428000  0.05558000  0.01066000  1.0
  N  N44  1  0.77279000  0.50913000  0.87496000  1.0
  N  N45  1  0.72721000  0.49087000  0.37496000  1.0
  N  N46  1  0.22721000  0.00913000  0.62504000  1.0
  N  N47  1  0.27280000  0.99087000  0.12504000  1.0
  O  O48  1  0.81490000  0.13967000  0.84939000  1.0
  O  O49  1  0.68510000  0.86033000  0.34939000  1.0
  O  O50  1  0.18511000  0.63967000  0.65061000  1.0
  O  O51  1  0.31490000  0.36034000  0.15061000  1.0
  O  O52  1  0.28597000  0.36107000  0.89434000  1.0
  O  O53  1  0.21403000  0.63893000  0.39434000  1.0
  O  O54  1  0.71403000  0.86107000  0.60566000  1.0
  O  O55  1  0.78597000  0.13893000  0.10566000  1.0
  O  O56  1  0.57300000  0.38645000  0.76833000  1.0
  O  O57  1  0.92701000  0.61354000  0.26833000  1.0
  O  O58  1  0.42701000  0.88645000  0.73167000  1.0
  O  O59  1  0.07299000  0.11355000  0.23167000  1.0
  O  O60  1  0.67252000  0.59239000  0.70202000  1.0
  O  O61  1  0.82748000  0.40761000  0.20202000  1.0
  O  O62  1  0.32749000  0.09239000  0.79798000  1.0
  O  O63  1  0.17251000  0.90761000  0.29798000  1.0
  O  O64  1  0.72826000  0.32261000  0.97596000  1.0
  O  O65  1  0.77174000  0.67739000  0.47596000  1.0
  O  O66  1  0.27174000  0.82261000  0.52404000  1.0
  O  O67  1  0.22827000  0.17739000  0.02404000  1.0
  O  O68  1  0.95492000  0.47083000  0.04586000  1.0
  O  O69  1  0.54507000  0.52917000  0.54586000  1.0
  O  O70  1  0.04508000  0.97083000  0.45414000  1.0
  O  O71  1  0.45493000  0.02917000  0.95414000  1.0
