# generated using pymatgen
data_Sm2Cu3P6H24C30(NO3)6
_symmetry_space_group_name_H-M   'P 1'
_cell_length_a   10.30410000
_cell_length_b   11.39340000
_cell_length_c   11.39310000
_cell_angle_alpha   111.32600000
_cell_angle_beta   107.54200000
_cell_angle_gamma   107.54100000
_symmetry_Int_Tables_number   1
_chemical_formula_structural   Sm2Cu3P6H24C30(NO3)6
_chemical_formula_sum   'Sm2 Cu3 P6 H24 C30 N6 O18'
_cell_volume   1053.16745566
_cell_formula_units_Z   1
loop_
 _symmetry_equiv_pos_site_id
 _symmetry_equiv_pos_as_xyz
  1  'x, y, z'
loop_
 _atom_site_type_symbol
 _atom_site_label
 _atom_site_symmetry_multiplicity
 _atom_site_fract_x
 _atom_site_fract_y
 _atom_site_fract_z
 _atom_site_occupancy
  Sm  Sm0  1  0.50000000  0.00000000  0.00000000  1.0
  Sm  Sm1  1  0.00000000  0.00000000  0.00000000  1.0
  Cu  Cu2  1  0.00000000  0.00000000  0.50000000  1.0
  Cu  Cu3  1  0.00000000  0.50000000  0.00000000  1.0
  Cu  Cu4  1  0.49999000  0.50000000  0.50000000  1.0
  P  P5  1  0.17303000  0.01539000  0.76523000  1.0
  P  P6  1  0.15767000  0.74984000  0.98459000  1.0
  P  P7  1  0.40774000  0.23472000  0.25021000  1.0
  P  P8  1  0.82697000  0.98461000  0.23477000  1.0
  P  P9  1  0.84233000  0.25017000  0.01541000  1.0
  P  P10  1  0.59226000  0.76527000  0.74979000  1.0
  H  H11  1  0.33679000  0.31393000  0.02138000  1.0
  H  H12  1  0.02288000  0.70740000  0.68607000  1.0
  H  H13  1  0.31527000  0.97868000  0.29274000  1.0
  H  H14  1  0.66321000  0.68607000  0.97862000  1.0
  H  H15  1  0.97712000  0.29260000  0.31392000  1.0
  H  H16  1  0.68473000  0.02132000  0.70726000  1.0
  H  H17  1  0.37363000  0.54648000  0.02750000  1.0
  H  H18  1  0.82724000  0.48102000  0.45352000  1.0
  H  H19  1  0.34621000  0.97258000  0.51919000  1.0
  H  H20  1  0.62637000  0.45352000  0.97250000  1.0
  H  H21  1  0.17276000  0.51898000  0.54648000  1.0
  H  H22  1  0.65380000  0.02742000  0.48081000  1.0
  H  H23  1  0.25772000  0.54376000  0.80026000  1.0
  H  H24  1  0.71398000  0.25653000  0.45631000  1.0
  H  H25  1  0.45768000  0.19988000  0.74373000  1.0
  H  H26  1  0.74227000  0.45624000  0.19974000  1.0
  H  H27  1  0.28602000  0.74347000  0.54370000  1.0
  H  H28  1  0.54232000  0.80012000  0.25627000  1.0
  H  H29  1  0.08566000  0.30433000  0.57267000  1.0
  H  H30  1  0.78131000  0.26837000  0.69574000  1.0
  H  H31  1  0.51300000  0.42744000  0.73175000  1.0
  H  H32  1  0.91434000  0.69567000  0.42734000  1.0
  H  H33  1  0.21870000  0.73163000  0.30426000  1.0
  H  H34  1  0.48700000  0.57256000  0.26824000  1.0
  C  C35  1  0.19698000  0.19136000  0.79443000  1.0
  C  C36  1  0.00564000  0.60307000  0.80867000  1.0
  C  C37  1  0.40248000  0.20560000  0.39704000  1.0
  C  C38  1  0.80302000  0.80864000  0.20557000  1.0
  C  C39  1  0.99436000  0.39694000  0.19133000  1.0
  C  C40  1  0.59751000  0.79440000  0.60296000  1.0
  C  C41  1  0.28550000  0.31781000  0.92494000  1.0
  C  C42  1  0.96773000  0.60709000  0.68220000  1.0
  C  C43  1  0.36047000  0.07512000  0.39305000  1.0
  C  C44  1  0.71450000  0.68219000  0.07506000  1.0
  C  C45  1  0.03228000  0.39291000  0.31780000  1.0
  C  C46  1  0.63953000  0.92487000  0.60695000  1.0
  C  C47  1  0.30592000  0.44570000  0.92779000  1.0
  C  C48  1  0.86031000  0.48207000  0.55431000  1.0
  C  C49  1  0.37819000  0.07231000  0.51813000  1.0
  C  C50  1  0.69408000  0.55430000  0.07221000  1.0
  C  C51  1  0.13969000  0.51793000  0.44569000  1.0
  C  C52  1  0.62181000  0.92769000  0.48187000  1.0
  C  C53  1  0.23886000  0.44465000  0.80078000  1.0
  C  C54  1  0.79426000  0.35614000  0.55540000  1.0
  C  C55  1  0.43823000  0.19935000  0.64408000  1.0
  C  C56  1  0.76114000  0.55535000  0.19923000  1.0
  C  C57  1  0.20574000  0.64387000  0.44460000  1.0
  C  C58  1  0.56177000  0.80065000  0.35592000  1.0
  C  C59  1  0.14652000  0.31463000  0.67519000  1.0
  C  C60  1  0.83191000  0.36060000  0.68545000  1.0
  C  C61  1  0.47136000  0.32491000  0.63957000  1.0
  C  C62  1  0.85348000  0.68537000  0.32481000  1.0
  C  C63  1  0.16810000  0.63941000  0.31455000  1.0
  C  C64  1  0.52864000  0.67508000  0.36042000  1.0
  N  N65  1  0.12639000  0.19153000  0.67343000  1.0
  N  N66  1  0.93487000  0.48192000  0.80854000  1.0
  N  N67  1  0.45293000  0.32662000  0.51818000  1.0
  N  N68  1  0.87361000  0.80847000  0.32657000  1.0
  N  N69  1  0.06512000  0.51808000  0.19146000  1.0
  N  N70  1  0.54706000  0.67337000  0.48181000  1.0
  O  O71  1  0.11032000  0.92873000  0.60207000  1.0
  O  O72  1  0.18165000  0.67331000  0.07123000  1.0
  O  O73  1  0.50822000  0.39787000  0.32668000  1.0
  O  O74  1  0.88968000  0.07127000  0.39793000  1.0
  O  O75  1  0.81835000  0.32670000  0.92876000  1.0
  O  O76  1  0.49177000  0.60213000  0.67332000  1.0
  O  O77  1  0.05664000  0.95863000  0.81252000  1.0
  O  O78  1  0.09804000  0.85388000  0.04140000  1.0
  O  O79  1  0.24410000  0.18750000  0.14616000  1.0
  O  O80  1  0.94336000  0.04137000  0.18748000  1.0
  O  O81  1  0.90196000  0.14613000  0.95860000  1.0
  O  O82  1  0.75589000  0.81250000  0.85384000  1.0
  O  O83  1  0.33230000  0.03454000  0.84550000  1.0
  O  O84  1  0.29773000  0.81093000  0.96535000  1.0
  O  O85  1  0.48669000  0.15435000  0.18910000  1.0
  O  O86  1  0.66770000  0.96546000  0.15451000  1.0
  O  O87  1  0.70227000  0.18908000  0.03465000  1.0
  O  O88  1  0.51330000  0.84564000  0.81090000  1.0
