# generated using pymatgen
data_AlH9C21(BrO2)3
_symmetry_space_group_name_H-M   'P 1'
_cell_length_a   3.99100000
_cell_length_b   24.61080000
_cell_length_c   24.61282582
_cell_angle_alpha   59.99216974
_cell_angle_beta   90.00029962
_cell_angle_gamma   89.99570000
_symmetry_Int_Tables_number   1
_chemical_formula_structural   AlH9C21(BrO2)3
_chemical_formula_sum   'Al2 H18 C42 Br6 O12'
_cell_volume   2093.46302444
_cell_formula_units_Z   2
loop_
 _symmetry_equiv_pos_site_id
 _symmetry_equiv_pos_as_xyz
  1  'x, y, z'
loop_
 _atom_site_type_symbol
 _atom_site_label
 _atom_site_symmetry_multiplicity
 _atom_site_fract_x
 _atom_site_fract_y
 _atom_site_fract_z
 _atom_site_occupancy
  Al  Al0  1  0.99016000  0.00000000  0.50001000  1.0
  Al  Al1  1  0.99034000  0.33333000  0.83333000  1.0
  H  H2  1  0.32651000  0.70517000  0.73085000  1.0
  H  H3  1  0.32656000  0.62817000  0.60245000  1.0
  H  H4  1  0.70476000  0.50254000  0.82312000  1.0
  H  H5  1  0.70798000  0.61918000  0.77072000  1.0
  H  H6  1  0.70468000  0.83083000  0.51019000  1.0
  H  H7  1  0.70791000  0.71416000  0.56260000  1.0
  H  H8  1  0.32639000  0.23086000  0.56398000  1.0
  H  H9  1  0.32659000  0.10247000  0.76939000  1.0
  H  H10  1  0.70480000  0.32314000  0.67433000  1.0
  H  H11  1  0.70794000  0.27074000  0.61010000  1.0
  H  H12  1  0.70475000  0.01020000  0.65898000  1.0
  H  H13  1  0.70805000  0.06259000  0.72324000  1.0
  H  H14  1  0.32648000  0.06397000  0.20518000  1.0
  H  H15  1  0.32652000  0.26936000  0.12816000  1.0
  H  H16  1  0.70483000  0.17433000  0.00254000  1.0
  H  H17  1  0.70798000  0.11008000  0.11917000  1.0
  H  H18  1  0.70475000  0.15896000  0.33082000  1.0
  H  H19  1  0.70807000  0.22323000  0.21416000  1.0
  C  C20  1  0.49246000  0.04423000  0.40374000  1.0
  C  C21  1  0.49251000  0.90373000  0.55203000  1.0
  C  C22  1  0.49244000  0.05202000  0.54425000  1.0
  C  C23  1  0.49255000  0.42958000  0.78132000  1.0
  C  C24  1  0.49263000  0.28133000  0.78909000  1.0
  C  C25  1  0.49262000  0.28909000  0.92958000  1.0
  C  C26  1  0.49940000  0.83387000  0.58902000  1.0
  C  C27  1  0.49948000  0.49946000  0.74432000  1.0
  C  C28  1  0.39416000  0.79747000  0.65167000  1.0
  C  C29  1  0.40765000  0.73219000  0.68216000  1.0
  C  C30  1  0.39414000  0.53586000  0.68166000  1.0
  C  C31  1  0.40766000  0.60115000  0.65116000  1.0
  C  C32  1  0.61627000  0.53101000  0.77502000  1.0
  C  C33  1  0.61757000  0.59598000  0.74566000  1.0
  C  C34  1  0.61617000  0.80234000  0.55830000  1.0
  C  C35  1  0.61755000  0.73736000  0.58765000  1.0
  C  C36  1  0.51438000  0.70124000  0.65043000  1.0
  C  C37  1  0.51443000  0.63208000  0.68288000  1.0
  C  C38  1  0.49935000  0.08902000  0.57712000  1.0
  C  C39  1  0.49947000  0.24432000  0.75622000  1.0
  C  C40  1  0.39402000  0.15168000  0.55086000  1.0
  C  C41  1  0.40754000  0.18216000  0.58566000  1.0
  C  C42  1  0.39418000  0.18167000  0.78248000  1.0
  C  C43  1  0.40769000  0.15117000  0.74770000  1.0
  C  C44  1  0.61626000  0.27503000  0.69397000  1.0
  C  C45  1  0.61755000  0.24567000  0.65835000  1.0
  C  C46  1  0.61624000  0.05831000  0.63936000  1.0
  C  C47  1  0.61759000  0.08766000  0.67498000  1.0
  C  C48  1  0.51435000  0.15044000  0.64833000  1.0
  C  C49  1  0.51439000  0.18290000  0.68503000  1.0
  C  C50  1  0.49938000  0.07711000  0.33387000  1.0
  C  C51  1  0.49946000  0.25621000  0.99946000  1.0
  C  C52  1  0.39407000  0.05084000  0.29748000  1.0
  C  C53  1  0.40762000  0.08564000  0.23220000  1.0
  C  C54  1  0.39413000  0.28247000  0.03586000  1.0
  C  C55  1  0.40766000  0.24767000  0.10114000  1.0
  C  C56  1  0.61627000  0.19397000  0.03101000  1.0
  C  C57  1  0.61758000  0.15833000  0.09599000  1.0
  C  C58  1  0.61628000  0.13935000  0.30234000  1.0
  C  C59  1  0.61763000  0.17497000  0.23736000  1.0
  C  C60  1  0.51442000  0.14831000  0.20124000  1.0
  C  C61  1  0.51441000  0.18501000  0.13208000  1.0
  Br  Br62  1  0.24263000  0.83300000  0.70039000  1.0
  Br  Br63  1  0.24264000  0.50032000  0.63296000  1.0
  Br  Br64  1  0.24237000  0.20038000  0.46662000  1.0
  Br  Br65  1  0.24265000  0.13297000  0.86673000  1.0
  Br  Br66  1  0.24252000  0.96659000  0.33302000  1.0
  Br  Br67  1  0.24258000  0.36672000  0.00031000  1.0
  O  O68  1  0.72508000  0.01152000  0.55822000  1.0
  O  O69  1  0.72507000  0.05820000  0.43027000  1.0
  O  O70  1  0.72513000  0.93027000  0.51153000  1.0
  O  O71  1  0.25428000  0.06154000  0.50618000  1.0
  O  O72  1  0.25436000  0.93230000  0.56153000  1.0
  O  O73  1  0.25430000  0.00616000  0.43230000  1.0
  O  O74  1  0.72532000  0.27511000  0.90307000  1.0
  O  O75  1  0.72526000  0.40306000  0.82182000  1.0
  O  O76  1  0.72528000  0.32183000  0.77511000  1.0
  O  O77  1  0.25441000  0.32716000  0.90103000  1.0
  O  O78  1  0.25442000  0.27181000  0.82716000  1.0
  O  O79  1  0.25435000  0.40104000  0.77180000  1.0
