# generated using pymatgen
data_Mn3H10(C5O6)2
_symmetry_space_group_name_H-M   'P 1'
_cell_length_a   10.11660000
_cell_length_b   11.48390000
_cell_length_c   15.07210000
_cell_angle_alpha   91.68580000
_cell_angle_beta   90.00000000
_cell_angle_gamma   89.99970000
_symmetry_Int_Tables_number   1
_chemical_formula_structural   Mn3H10(C5O6)2
_chemical_formula_sum   'Mn12 H40 C40 O48'
_cell_volume   1750.28889161
_cell_formula_units_Z   4
loop_
 _symmetry_equiv_pos_site_id
 _symmetry_equiv_pos_as_xyz
  1  'x, y, z'
loop_
 _atom_site_type_symbol
 _atom_site_label
 _atom_site_symmetry_multiplicity
 _atom_site_fract_x
 _atom_site_fract_y
 _atom_site_fract_z
 _atom_site_occupancy
  Mn  Mn0  1  0.91365000  0.74228000  0.86830000  1.0
  Mn  Mn1  1  0.41366000  0.75772000  0.63170000  1.0
  Mn  Mn2  1  0.08634000  0.25773000  0.13170000  1.0
  Mn  Mn3  1  0.58635000  0.24227000  0.36830000  1.0
  Mn  Mn4  1  0.99999000  0.00000000  0.00000000  1.0
  Mn  Mn5  1  0.50000000  0.50000000  0.50000000  1.0
  Mn  Mn6  1  0.09458000  0.76292000  0.68371000  1.0
  Mn  Mn7  1  0.59458000  0.73708000  0.81629000  1.0
  Mn  Mn8  1  0.90543000  0.23707000  0.31629000  1.0
  Mn  Mn9  1  0.40542000  0.26292000  0.18371000  1.0
  Mn  Mn10  1  0.00001000  0.50000000  0.00001000  1.0
  Mn  Mn11  1  0.50000000  0.00000000  0.50000000  1.0
  H  H12  1  0.00047000  0.03673000  0.72759000  1.0
  H  H13  1  0.50046000  0.46327000  0.77240000  1.0
  H  H14  1  0.99953000  0.96327000  0.27240000  1.0
  H  H15  1  0.49954000  0.53672000  0.22759000  1.0
  H  H16  1  0.60244000  0.95255000  0.95848000  1.0
  H  H17  1  0.10244000  0.54745000  0.54151000  1.0
  H  H18  1  0.39756000  0.04746000  0.04151000  1.0
  H  H19  1  0.89757000  0.45254000  0.45849000  1.0
  H  H20  1  0.73468000  0.61288000  0.63672000  1.0
  H  H21  1  0.23468000  0.88713000  0.86328000  1.0
  H  H22  1  0.26532000  0.38712000  0.36329000  1.0
  H  H23  1  0.76533000  0.11288000  0.13671000  1.0
  H  H24  1  0.69146000  0.50719000  0.00763000  1.0
  H  H25  1  0.19146000  0.99281000  0.49237000  1.0
  H  H26  1  0.30854000  0.49281000  0.99237000  1.0
  H  H27  1  0.80854000  0.00719000  0.50764000  1.0
  H  H28  1  0.18361000  0.51038000  0.75518000  1.0
  H  H29  1  0.68362000  0.98961000  0.74482000  1.0
  H  H30  1  0.81638000  0.48963000  0.24482000  1.0
  H  H31  1  0.31638000  0.01037000  0.25518000  1.0
  H  H32  1  0.17357000  0.80934000  0.07183000  1.0
  H  H33  1  0.67356000  0.69066000  0.42817000  1.0
  H  H34  1  0.82643000  0.19068000  0.92817000  1.0
  H  H35  1  0.32644000  0.30933000  0.57183000  1.0
  H  H36  1  0.42260000  0.81035000  0.99759000  1.0
  H  H37  1  0.92260000  0.68966000  0.50243000  1.0
  H  H38  1  0.57740000  0.18966000  0.00241000  1.0
  H  H39  1  0.07742000  0.31034000  0.49758000  1.0
  H  H40  1  0.45493000  0.80971000  0.21923000  1.0
  H  H41  1  0.95492000  0.69028000  0.28078000  1.0
  H  H42  1  0.54507000  0.19030000  0.78077000  1.0
  H  H43  1  0.04507000  0.30971000  0.71922000  1.0
  H  H44  1  0.28105000  0.68419000  0.37276000  1.0
  H  H45  1  0.78103000  0.81581000  0.12724000  1.0
  H  H46  1  0.71896000  0.31579000  0.62724000  1.0
  H  H47  1  0.21895000  0.18422000  0.87276000  1.0
  H  H48  1  0.19889000  0.61581000  0.16215000  1.0
  H  H49  1  0.69890000  0.88419000  0.33786000  1.0
  H  H50  1  0.80111000  0.38418000  0.83786000  1.0
  H  H51  1  0.30111000  0.11582000  0.66214000  1.0
  C  C52  1  0.98915000  0.98641000  0.78858000  1.0
  C  C53  1  0.48915000  0.51358000  0.71142000  1.0
  C  C54  1  0.01084000  0.01359000  0.21142000  1.0
  C  C55  1  0.51085000  0.48641000  0.28858000  1.0
  C  C56  1  0.70720000  0.92630000  0.95321000  1.0
  C  C57  1  0.20721000  0.57371000  0.54679000  1.0
  C  C58  1  0.29279000  0.07371000  0.04678000  1.0
  C  C59  1  0.79280000  0.42629000  0.45321000  1.0
  C  C60  1  0.81290000  0.65736000  0.67588000  1.0
  C  C61  1  0.31290000  0.84265000  0.82413000  1.0
  C  C62  1  0.18710000  0.34264000  0.32413000  1.0
  C  C63  1  0.68710000  0.15736000  0.17587000  1.0
  C  C64  1  0.70964000  0.57401000  0.95776000  1.0
  C  C65  1  0.20964000  0.92600000  0.54224000  1.0
  C  C66  1  0.29037000  0.42599000  0.04225000  1.0
  C  C67  1  0.79036000  0.07400000  0.45776000  1.0
  C  C68  1  0.11662000  0.54263000  0.80865000  1.0
  C  C69  1  0.61662000  0.95737000  0.69135000  1.0
  C  C70  1  0.88338000  0.45738000  0.19135000  1.0
  C  C71  1  0.38338000  0.04262000  0.30865000  1.0
  C  C72  1  0.11073000  0.75608000  0.02679000  1.0
  C  C73  1  0.61073000  0.74392000  0.47321000  1.0
  C  C74  1  0.88927000  0.24393000  0.97321000  1.0
  C  C75  1  0.38928000  0.25607000  0.52679000  1.0
  C  C76  1  0.43337000  0.81011000  0.06871000  1.0
  C  C77  1  0.93337000  0.68989000  0.43130000  1.0
  C  C78  1  0.56662000  0.18989000  0.93129000  1.0
  C  C79  1  0.06664000  0.31011000  0.56870000  1.0
  C  C80  1  0.44456000  0.81083000  0.14863000  1.0
  C  C81  1  0.94456000  0.68917000  0.35138000  1.0
  C  C82  1  0.55544000  0.18918000  0.85136000  1.0
  C  C83  1  0.05545000  0.31083000  0.64863000  1.0
  C  C84  1  0.25429000  0.66220000  0.30569000  1.0
  C  C85  1  0.75428000  0.83780000  0.19432000  1.0
  C  C86  1  0.74571000  0.33779000  0.69432000  1.0
  C  C87  1  0.24570000  0.16223000  0.80567000  1.0
  C  C88  1  0.22595000  0.63552000  0.22987000  1.0
  C  C89  1  0.72595000  0.86447000  0.27013000  1.0
  C  C90  1  0.77405000  0.36446000  0.77014000  1.0
  C  C91  1  0.27404000  0.13554000  0.72987000  1.0
  O  O92  1  0.99148000  0.87455000  0.77874000  1.0
  O  O93  1  0.49148000  0.62544000  0.72126000  1.0
  O  O94  1  0.00852000  0.12545000  0.22126000  1.0
  O  O95  1  0.50852000  0.37454000  0.27874000  1.0
  O  O96  1  0.73458000  0.84891000  0.89225000  1.0
  O  O97  1  0.23458000  0.65110000  0.60775000  1.0
  O  O98  1  0.26541000  0.15110000  0.10775000  1.0
  O  O99  1  0.76542000  0.34890000  0.39225000  1.0
  O  O100  1  0.78706000  0.68425000  0.75712000  1.0
  O  O101  1  0.28706000  0.81575000  0.74288000  1.0
  O  O102  1  0.21294000  0.31574000  0.24288000  1.0
  O  O103  1  0.71294000  0.18425000  0.25712000  1.0
  O  O104  1  0.83111000  0.60482000  0.94710000  1.0
  O  O105  1  0.33111000  0.89518000  0.55289000  1.0
  O  O106  1  0.16889000  0.39519000  0.05290000  1.0
  O  O107  1  0.66889000  0.10481000  0.44710000  1.0
  O  O108  1  0.07531000  0.64789000  0.80192000  1.0
  O  O109  1  0.57531000  0.85211000  0.69809000  1.0
  O  O110  1  0.92469000  0.35211000  0.19809000  1.0
  O  O111  1  0.42469000  0.14788000  0.30191000  1.0
  O  O112  1  0.03168000  0.81159000  0.97598000  1.0
  O  O113  1  0.53168000  0.68841000  0.52402000  1.0
  O  O114  1  0.96832000  0.18842000  0.02402000  1.0
  O  O115  1  0.46832000  0.31158000  0.47598000  1.0
  O  O116  1  0.97534000  0.04060000  0.86127000  1.0
  O  O117  1  0.47534000  0.45940000  0.63873000  1.0
  O  O118  1  0.02465000  0.95941000  0.13873000  1.0
  O  O119  1  0.52466000  0.54059000  0.36127000  1.0
  O  O120  1  0.78901000  0.97292000  0.00566000  1.0
  O  O121  1  0.28901000  0.52708000  0.49434000  1.0
  O  O122  1  0.21098000  0.02708000  0.99434000  1.0
  O  O123  1  0.71099000  0.47292000  0.50566000  1.0
  O  O124  1  0.61191000  0.61248000  0.91649000  1.0
  O  O125  1  0.11192000  0.88752000  0.58351000  1.0
  O  O126  1  0.38809000  0.38752000  0.08351000  1.0
  O  O127  1  0.88808000  0.11248000  0.41649000  1.0
  O  O128  1  0.08777000  0.47465000  0.86928000  1.0
  O  O129  1  0.58777000  0.02535000  0.63073000  1.0
  O  O130  1  0.91223000  0.52536000  0.13073000  1.0
  O  O131  1  0.41223000  0.97464000  0.36927000  1.0
  O  O132  1  0.12168000  0.64734000  0.02813000  1.0
  O  O133  1  0.62167000  0.85266000  0.47188000  1.0
  O  O134  1  0.87833000  0.35267000  0.97188000  1.0
  O  O135  1  0.37833000  0.14733000  0.52812000  1.0
  O  O136  1  0.92060000  0.67743000  0.63691000  1.0
  O  O137  1  0.42060000  0.82257000  0.86310000  1.0
  O  O138  1  0.07940000  0.32257000  0.36310000  1.0
  O  O139  1  0.57940000  0.17743000  0.13690000  1.0
