# generated using pymatgen
data_LaAgH6C14(NO4)2
_symmetry_space_group_name_H-M   'P 1'
_cell_length_a   7.44277000
_cell_length_b   10.32840000
_cell_length_c   11.60950000
_cell_angle_alpha   98.34880000
_cell_angle_beta   101.07900000
_cell_angle_gamma   95.83930000
_symmetry_Int_Tables_number   1
_chemical_formula_structural   LaAgH6C14(NO4)2
_chemical_formula_sum   'La2 Ag2 H12 C28 N4 O16'
_cell_volume   858.77210566
_cell_formula_units_Z   2
loop_
 _symmetry_equiv_pos_site_id
 _symmetry_equiv_pos_as_xyz
  1  'x, y, z'
loop_
 _atom_site_type_symbol
 _atom_site_label
 _atom_site_symmetry_multiplicity
 _atom_site_fract_x
 _atom_site_fract_y
 _atom_site_fract_z
 _atom_site_occupancy
  La  La0  1  0.26083000  0.47147000  0.07330000  1.0
  La  La1  1  0.73918000  0.52853000  0.92670000  1.0
  Ag  Ag2  1  0.28884000  0.76288000  0.69946000  1.0
  Ag  Ag3  1  0.71115000  0.23712000  0.30054000  1.0
  H  H4  1  0.58282000  0.62553000  0.53475000  1.0
  H  H5  1  0.41719000  0.37447000  0.46525000  1.0
  H  H6  1  0.87420000  0.69969000  0.68690000  1.0
  H  H7  1  0.12581000  0.30030000  0.31310000  1.0
  H  H8  1  0.19252000  0.65359000  0.43037000  1.0
  H  H9  1  0.80748000  0.34641000  0.56963000  1.0
  H  H10  1  0.27657000  0.02708000  0.84113000  1.0
  H  H11  1  0.72342000  0.97292000  0.15887000  1.0
  H  H12  1  0.72334000  0.84287000  0.76964000  1.0
  H  H13  1  0.27665000  0.15712000  0.23036000  1.0
  H  H14  1  0.94662000  0.02840000  0.89339000  1.0
  H  H15  1  0.05338000  0.97159000  0.10661000  1.0
  C  C16  1  0.55232000  0.54746000  0.29387000  1.0
  C  C17  1  0.44768000  0.45255000  0.70613000  1.0
  C  C18  1  0.72564000  0.59372000  0.38803000  1.0
  C  C19  1  0.27436000  0.40628000  0.61196000  1.0
  C  C20  1  0.71492000  0.63088000  0.50703000  1.0
  C  C21  1  0.28508000  0.36912000  0.49297000  1.0
  C  C22  1  0.87588000  0.67404000  0.59284000  1.0
  C  C23  1  0.12412000  0.32596000  0.40716000  1.0
  C  C24  1  0.05574000  0.64696000  0.45140000  1.0
  C  C25  1  0.94427000  0.35305000  0.54861000  1.0
  C  C26  1  0.90143000  0.60071000  0.36014000  1.0
  C  C27  1  0.09858000  0.39929000  0.63986000  1.0
  C  C28  1  0.93148000  0.55938000  0.23626000  1.0
  C  C29  1  0.06853000  0.44062000  0.76374000  1.0
  C  C30  1  0.45198000  0.25007000  0.97742000  1.0
  C  C31  1  0.54802000  0.74992000  0.02258000  1.0
  C  C32  1  0.54063000  0.14070000  0.92242000  1.0
  C  C33  1  0.45936000  0.85929000  0.07758000  1.0
  C  C34  1  0.42582000  0.03112000  0.85224000  1.0
  C  C35  1  0.57418000  0.96888000  0.14776000  1.0
  C  C36  1  0.67458000  0.92946000  0.81230000  1.0
  C  C37  1  0.32541000  0.07053000  0.18770000  1.0
  C  C38  1  0.79897000  0.03390000  0.88158000  1.0
  C  C39  1  0.20103000  0.96610000  0.11841000  1.0
  C  C40  1  0.73324000  0.14189000  0.93961000  1.0
  C  C41  1  0.26676000  0.85811000  0.06039000  1.0
  C  C42  1  0.87343000  0.24511000  0.02584000  1.0
  C  C43  1  0.12657000  0.75489000  0.97416000  1.0
  N  N44  1  0.04474000  0.68372000  0.56560000  1.0
  N  N45  1  0.95527000  0.31628000  0.43440000  1.0
  N  N46  1  0.48986000  0.92672000  0.79797000  1.0
  N  N47  1  0.51013000  0.07328000  0.20203000  1.0
  O  O48  1  0.49979000  0.42292000  0.26136000  1.0
  O  O49  1  0.50022000  0.57709000  0.73863000  1.0
  O  O50  1  0.46458000  0.63493000  0.25293000  1.0
  O  O51  1  0.53542000  0.36507000  0.74707000  1.0
  O  O52  1  0.80148000  0.56494000  0.15019000  1.0
  O  O53  1  0.19852000  0.43506000  0.84981000  1.0
  O  O54  1  0.08751000  0.52241000  0.22944000  1.0
  O  O55  1  0.91248000  0.47758000  0.77056000  1.0
  O  O56  1  0.54396000  0.36657000  0.00543000  1.0
  O  O57  1  0.45604000  0.63343000  0.99457000  1.0
  O  O58  1  0.29087000  0.22734000  0.99613000  1.0
  O  O59  1  0.70913000  0.77266000  0.00388000  1.0
  O  O60  1  0.93406000  0.21782000  0.12607000  1.0
  O  O61  1  0.06593000  0.78218000  0.87393000  1.0
  O  O62  1  0.92880000  0.34988000  0.98667000  1.0
  O  O63  1  0.07120000  0.65012000  0.01332000  1.0
