# generated using pymatgen
data_Cu3H4C4BrN6
_symmetry_space_group_name_H-M   'P 1'
_cell_length_a   7.25647000
_cell_length_b   8.63773000
_cell_length_c   14.19820000
_cell_angle_alpha   85.45030000
_cell_angle_beta   83.68830000
_cell_angle_gamma   81.34760000
_symmetry_Int_Tables_number   1
_chemical_formula_structural   Cu3H4C4BrN6
_chemical_formula_sum   'Cu12 H16 C16 Br4 N24'
_cell_volume   872.68709777
_cell_formula_units_Z   4
loop_
 _symmetry_equiv_pos_site_id
 _symmetry_equiv_pos_as_xyz
  1  'x, y, z'
loop_
 _atom_site_type_symbol
 _atom_site_label
 _atom_site_symmetry_multiplicity
 _atom_site_fract_x
 _atom_site_fract_y
 _atom_site_fract_z
 _atom_site_occupancy
  Cu  Cu0  1  0.35688000  0.90633000  0.81655000  1.0
  Cu  Cu1  1  0.64313000  0.09367000  0.18344000  1.0
  Cu  Cu2  1  0.20339000  0.48885000  0.02297000  1.0
  Cu  Cu3  1  0.79661000  0.51115000  0.97703000  1.0
  Cu  Cu4  1  0.52531000  0.15296000  0.69036000  1.0
  Cu  Cu5  1  0.47469000  0.84703000  0.30964000  1.0
  Cu  Cu6  1  0.70964000  0.40952000  0.56914000  1.0
  Cu  Cu7  1  0.29035000  0.59048000  0.43086000  1.0
  Cu  Cu8  1  0.81951000  0.92944000  0.78801000  1.0
  Cu  Cu9  1  0.18049000  0.07056000  0.21199000  1.0
  Cu  Cu10  1  0.88763000  0.85870000  0.34259000  1.0
  Cu  Cu11  1  0.11237000  0.14130000  0.65741000  1.0
  H  H12  1  0.19186000  0.11962000  0.01042000  1.0
  H  H13  1  0.80814000  0.88038000  0.98958000  1.0
  H  H14  1  0.42582000  0.45813000  0.82443000  1.0
  H  H15  1  0.57418000  0.54188000  0.17557000  1.0
  H  H16  1  0.65472000  0.85113000  0.54739000  1.0
  H  H17  1  0.34528000  0.14887000  0.45261000  1.0
  H  H18  1  0.89298000  0.21157000  0.38455000  1.0
  H  H19  1  0.10701000  0.78843000  0.61544000  1.0
  H  H20  1  0.37164000  0.61404000  0.68228000  1.0
  H  H21  1  0.62836000  0.38596000  0.31771000  1.0
  H  H22  1  0.95207000  0.61668000  0.66632000  1.0
  H  H23  1  0.04793000  0.38331000  0.33368000  1.0
  H  H24  1  0.95925000  0.55763000  0.21891000  1.0
  H  H25  1  0.04075000  0.44237000  0.78109000  1.0
  H  H26  1  0.30429000  0.82920000  0.03936000  1.0
  H  H27  1  0.69571000  0.17079000  0.96065000  1.0
  C  C28  1  0.26791000  0.17400000  0.94967000  1.0
  C  C29  1  0.73209000  0.82600000  0.05033000  1.0
  C  C30  1  0.38494000  0.34782000  0.85456000  1.0
  C  C31  1  0.61507000  0.65218000  0.14544000  1.0
  C  C32  1  0.69933000  0.96382000  0.52542000  1.0
  C  C33  1  0.30067000  0.03618000  0.47458000  1.0
  C  C34  1  0.81988000  0.14758000  0.44172000  1.0
  C  C35  1  0.18012000  0.85242000  0.55828000  1.0
  C  C36  1  0.50655000  0.64783000  0.69111000  1.0
  C  C37  1  0.49345000  0.35217000  0.30889000  1.0
  C  C38  1  0.80236000  0.64988000  0.68315000  1.0
  C  C39  1  0.19764000  0.35012000  0.31685000  1.0
  C  C40  1  0.03689000  0.65116000  0.19013000  1.0
  C  C41  1  0.96312000  0.34884000  0.80987000  1.0
  C  C42  1  0.21069000  0.79077000  0.09853000  1.0
  C  C43  1  0.78931000  0.20923000  0.90147000  1.0
  Br  Br44  1  0.10704000  0.73729000  0.85879000  1.0
  Br  Br45  1  0.89296000  0.26270000  0.14122000  1.0
  Br  Br46  1  0.76349000  0.59345000  0.40942000  1.0
  Br  Br47  1  0.23651000  0.40655000  0.59058000  1.0
  N  N48  1  0.34031000  0.10268000  0.87124000  1.0
  N  N49  1  0.65969000  0.89732000  0.12876000  1.0
  N  N50  1  0.29320000  0.32749000  0.94225000  1.0
  N  N51  1  0.70681000  0.67251000  0.05775000  1.0
  N  N52  1  0.41557000  0.21508000  0.81011000  1.0
  N  N53  1  0.58443000  0.78492000  0.18989000  1.0
  N  N54  1  0.66099000  0.09107000  0.57551000  1.0
  N  N55  1  0.33901000  0.90893000  0.42449000  1.0
  N  N56  1  0.79851000  0.99438000  0.44099000  1.0
  N  N57  1  0.20149000  0.00562000  0.55901000  1.0
  N  N58  1  0.73889000  0.20965000  0.52146000  1.0
  N  N59  1  0.26111000  0.79035000  0.47854000  1.0
  N  N60  1  0.67261000  0.57105000  0.65455000  1.0
  N  N61  1  0.32739000  0.42895000  0.34545000  1.0
  N  N62  1  0.53089000  0.76820000  0.73947000  1.0
  N  N63  1  0.46911000  0.23180000  0.26053000  1.0
  N  N64  1  0.72175000  0.76996000  0.73415000  1.0
  N  N65  1  0.27825000  0.23004000  0.26585000  1.0
  N  N66  1  0.02754000  0.78648000  0.23049000  1.0
  N  N67  1  0.97246000  0.21352000  0.76951000  1.0
  N  N68  1  0.14973000  0.64861000  0.10752000  1.0
  N  N69  1  0.85027000  0.35140000  0.89249000  1.0
  N  N70  1  0.14059000  0.87621000  0.17168000  1.0
  N  N71  1  0.85941000  0.12380000  0.82833000  1.0
