# generated using pymatgen
data_SrH4C6N2O5
_symmetry_space_group_name_H-M   'P 1'
_cell_length_a   6.56823000
_cell_length_b   7.02136000
_cell_length_c   15.96030000
_cell_angle_alpha   90.00000000
_cell_angle_beta   89.99940000
_cell_angle_gamma   93.96720000
_symmetry_Int_Tables_number   1
_chemical_formula_structural   SrH4C6N2O5
_chemical_formula_sum   'Sr4 H16 C24 N8 O20'
_cell_volume   734.29191563
_cell_formula_units_Z   4
loop_
 _symmetry_equiv_pos_site_id
 _symmetry_equiv_pos_as_xyz
  1  'x, y, z'
loop_
 _atom_site_type_symbol
 _atom_site_label
 _atom_site_symmetry_multiplicity
 _atom_site_fract_x
 _atom_site_fract_y
 _atom_site_fract_z
 _atom_site_occupancy
  Sr  Sr0  1  0.74067000  0.54205000  0.41843000  1.0
  Sr  Sr1  1  0.25934000  0.95796000  0.91843000  1.0
  Sr  Sr2  1  0.25934000  0.45795000  0.58157000  1.0
  Sr  Sr3  1  0.74066000  0.04204000  0.08157000  1.0
  H  H4  1  0.60427000  0.98034000  0.39546000  1.0
  H  H5  1  0.39573000  0.51968000  0.89546000  1.0
  H  H6  1  0.39573000  0.01967000  0.60454000  1.0
  H  H7  1  0.60427000  0.48032000  0.10454000  1.0
  H  H8  1  0.29350000  0.02833000  0.43000000  1.0
  H  H9  1  0.70650000  0.47167000  0.93001000  1.0
  H  H10  1  0.70651000  0.97167000  0.57000000  1.0
  H  H11  1  0.29350000  0.52832000  0.06999000  1.0
  H  H12  1  0.24277000  0.79176000  0.46281000  1.0
  H  H13  1  0.75723000  0.70825000  0.96281000  1.0
  H  H14  1  0.75723000  0.20824000  0.53719000  1.0
  H  H15  1  0.24277000  0.29175000  0.03719000  1.0
  H  H16  1  0.44170000  0.94516000  0.24669000  1.0
  H  H17  1  0.55829000  0.55484000  0.74669000  1.0
  H  H18  1  0.55830000  0.05484000  0.75331000  1.0
  H  H19  1  0.44171000  0.44516000  0.25331000  1.0
  C  C20  1  0.31878000  0.87941000  0.41358000  1.0
  C  C21  1  0.68121000  0.62059000  0.91358000  1.0
  C  C22  1  0.68122000  0.12059000  0.58642000  1.0
  C  C23  1  0.31880000  0.37941000  0.08642000  1.0
  C  C24  1  0.19782000  0.86700000  0.10556000  1.0
  C  C25  1  0.80218000  0.63300000  0.60556000  1.0
  C  C26  1  0.80218000  0.13301000  0.89444000  1.0
  C  C27  1  0.19783000  0.36700000  0.39443000  1.0
  C  C28  1  0.15418000  0.82514000  0.19500000  1.0
  C  C29  1  0.84581000  0.67485000  0.69500000  1.0
  C  C30  1  0.84582000  0.17486000  0.80500000  1.0
  C  C31  1  0.15418000  0.32515000  0.30500000  1.0
  C  C32  1  0.98455000  0.74352000  0.23870000  1.0
  C  C33  1  0.01545000  0.75647000  0.73870000  1.0
  C  C34  1  0.01545000  0.25648000  0.76130000  1.0
  C  C35  1  0.98455000  0.24353000  0.26130000  1.0
  C  C36  1  0.78334000  0.65453000  0.21005000  1.0
  C  C37  1  0.21666000  0.84545000  0.71005000  1.0
  C  C38  1  0.21666000  0.34547000  0.78995000  1.0
  C  C39  1  0.78334000  0.15455000  0.28995000  1.0
  C  C40  1  0.21477000  0.83065000  0.33180000  1.0
  C  C41  1  0.78523000  0.66935000  0.83180000  1.0
  C  C42  1  0.78523000  0.16935000  0.66820000  1.0
  C  C43  1  0.21477000  0.33065000  0.16820000  1.0
  N  N44  1  0.29618000  0.87700000  0.25594000  1.0
  N  N45  1  0.70382000  0.62299000  0.75595000  1.0
  N  N46  1  0.70382000  0.12300000  0.74406000  1.0
  N  N47  1  0.29618000  0.37700000  0.24405000  1.0
  N  N48  1  0.02652000  0.74711000  0.32354000  1.0
  N  N49  1  0.97348000  0.75289000  0.82354000  1.0
  N  N50  1  0.97348000  0.25289000  0.67646000  1.0
  N  N51  1  0.02651000  0.24710000  0.17646000  1.0
  O  O52  1  0.37803000  0.92928000  0.08496000  1.0
  O  O53  1  0.62196000  0.57071000  0.58497000  1.0
  O  O54  1  0.62197000  0.07073000  0.91504000  1.0
  O  O55  1  0.37804000  0.42928000  0.41503000  1.0
  O  O56  1  0.53246000  0.85458000  0.41329000  1.0
  O  O57  1  0.46755000  0.64543000  0.91329000  1.0
  O  O58  1  0.46755000  0.14542000  0.58671000  1.0
  O  O59  1  0.53245000  0.35457000  0.08671000  1.0
  O  O60  1  0.68024000  0.55640000  0.26468000  1.0
  O  O61  1  0.31977000  0.94359000  0.76468000  1.0
  O  O62  1  0.31976000  0.44360000  0.73532000  1.0
  O  O63  1  0.68023000  0.05641000  0.23532000  1.0
  O  O64  1  0.05511000  0.84454000  0.05165000  1.0
  O  O65  1  0.94489000  0.65545000  0.55165000  1.0
  O  O66  1  0.94489000  0.15546000  0.94835000  1.0
  O  O67  1  0.05511000  0.34455000  0.44835000  1.0
  O  O68  1  0.72298000  0.67756000  0.13528000  1.0
  O  O69  1  0.27703000  0.82243000  0.63528000  1.0
  O  O70  1  0.27702000  0.32244000  0.86472000  1.0
  O  O71  1  0.72297000  0.17757000  0.36472000  1.0
