# generated using pymatgen
data_CuH14C11N5ClO
_symmetry_space_group_name_H-M   'P 1'
_cell_length_a   6.68538000
_cell_length_b   10.68600000
_cell_length_c   10.68590000
_cell_angle_alpha   102.27900000
_cell_angle_beta   107.95200000
_cell_angle_gamma   107.95100000
_symmetry_Int_Tables_number   1
_chemical_formula_structural   CuH14C11N5ClO
_chemical_formula_sum   'Cu2 H28 C22 N10 Cl2 O2'
_cell_volume   649.73223165
_cell_formula_units_Z   2
loop_
 _symmetry_equiv_pos_site_id
 _symmetry_equiv_pos_as_xyz
  1  'x, y, z'
loop_
 _atom_site_type_symbol
 _atom_site_label
 _atom_site_symmetry_multiplicity
 _atom_site_fract_x
 _atom_site_fract_y
 _atom_site_fract_z
 _atom_site_occupancy
  Cu  Cu0  1  0.37971000  0.86852000  0.78608000  1.0
  Cu  Cu1  1  0.87971000  0.78607000  0.86851000  1.0
  H  H2  1  0.03922000  0.85817000  0.59998000  1.0
  H  H3  1  0.53922000  0.59997000  0.85816000  1.0
  H  H4  1  0.64105000  0.83270000  0.21138000  1.0
  H  H5  1  0.14105000  0.21137000  0.83269000  1.0
  H  H6  1  0.79887000  0.02196000  0.43705000  1.0
  H  H7  1  0.29887000  0.43704000  0.02195000  1.0
  H  H8  1  0.83338000  0.32583000  0.22729000  1.0
  H  H9  1  0.33337000  0.22728000  0.32582000  1.0
  H  H10  1  0.76519000  0.26338000  0.99310000  1.0
  H  H11  1  0.26519000  0.99309000  0.26338000  1.0
  H  H12  1  0.71017000  0.09214000  0.69346000  1.0
  H  H13  1  0.21017000  0.69346000  0.09214000  1.0
  H  H14  1  0.69558000  0.24543000  0.78492000  1.0
  H  H15  1  0.19556000  0.78491000  0.24542000  1.0
  H  H16  1  0.25438000  0.12105000  0.65764000  1.0
  H  H17  1  0.75437000  0.65762000  0.12104000  1.0
  H  H18  1  0.40820000  0.16204000  0.55358000  1.0
  H  H19  1  0.90820000  0.55357000  0.16203000  1.0
  H  H20  1  0.11716000  0.93029000  0.42535000  1.0
  H  H21  1  0.61716000  0.42535000  0.93028000  1.0
  H  H22  1  0.38772000  0.91744000  0.48490000  1.0
  H  H23  1  0.88773000  0.48489000  0.91743000  1.0
  H  H24  1  0.94787000  0.68542000  0.38781000  1.0
  H  H25  1  0.44788000  0.38780000  0.68541000  1.0
  H  H26  1  0.00654000  0.62460000  0.53226000  1.0
  H  H27  1  0.50655000  0.53226000  0.62459000  1.0
  H  H28  1  0.22013000  0.67614000  0.46492000  1.0
  H  H29  1  0.72014000  0.46492000  0.67613000  1.0
  C  C30  1  0.63713000  0.96695000  0.08562000  1.0
  C  C31  1  0.13712000  0.08560000  0.96694000  1.0
  C  C32  1  0.68272000  0.94059000  0.21437000  1.0
  C  C33  1  0.18272000  0.21436000  0.94059000  1.0
  C  C34  1  0.77235000  0.04717000  0.34118000  1.0
  C  C35  1  0.27234000  0.34117000  0.04716000  1.0
  C  C36  1  0.82438000  0.18627000  0.34556000  1.0
  C  C37  1  0.32438000  0.34555000  0.18627000  1.0
  C  C38  1  0.78910000  0.21756000  0.22352000  1.0
  C  C39  1  0.28909000  0.22351000  0.21755000  1.0
  C  C40  1  0.69506000  0.11017000  0.09290000  1.0
  C  C41  1  0.19505000  0.09289000  0.11017000  1.0
  C  C42  1  0.67681000  0.15079000  0.97153000  1.0
  C  C43  1  0.17681000  0.97153000  0.15079000  1.0
  C  C44  1  0.60148000  0.13117000  0.73585000  1.0
  C  C45  1  0.10147000  0.73585000  0.13117000  1.0
  C  C46  1  0.37376000  0.09501000  0.61622000  1.0
  C  C47  1  0.87377000  0.61622000  0.09500000  1.0
  C  C48  1  0.26233000  0.94392000  0.51932000  1.0
  C  C49  1  0.76234000  0.51931000  0.94391000  1.0
  C  C50  1  0.08217000  0.69842000  0.48621000  1.0
  C  C51  1  0.58218000  0.48621000  0.69841000  1.0
  N  N52  1  0.57441000  0.06917000  0.84188000  1.0
  N  N53  1  0.07440000  0.84188000  0.06916000  1.0
  N  N54  1  0.17590000  0.84263000  0.58479000  1.0
  N  N55  1  0.67590000  0.58478000  0.84263000  1.0
  N  N56  1  0.11371000  0.70125000  0.77258000  1.0
  N  N57  1  0.61370000  0.77257000  0.70125000  1.0
  N  N58  1  0.16177000  0.61031000  0.80525000  1.0
  N  N59  1  0.66175000  0.80525000  0.61030000  1.0
  N  N60  1  0.20508000  0.51988000  0.83676000  1.0
  N  N61  1  0.70506000  0.83676000  0.51987000  1.0
  Cl  Cl62  1  0.93498000  0.31712000  0.50714000  1.0
  Cl  Cl63  1  0.43497000  0.50714000  0.31711000  1.0
  O  O64  1  0.55157000  0.86252000  0.96894000  1.0
  O  O65  1  0.05155000  0.96893000  0.86251000  1.0
