# generated using pymatgen
data_Zn4H16C40Br4O21
_symmetry_space_group_name_H-M   'P 1'
_cell_length_a   23.86120517
_cell_length_b   23.86150000
_cell_length_c   23.85990000
_cell_angle_alpha   66.85630000
_cell_angle_beta   72.33086854
_cell_angle_gamma   107.66644865
_symmetry_Int_Tables_number   1
_chemical_formula_structural   Zn4H16C40Br4O21
_chemical_formula_sum   'Zn8 H32 C80 Br8 O42'
_cell_volume   10425.02226383
_cell_formula_units_Z   2
loop_
 _symmetry_equiv_pos_site_id
 _symmetry_equiv_pos_as_xyz
  1  'x, y, z'
loop_
 _atom_site_type_symbol
 _atom_site_label
 _atom_site_symmetry_multiplicity
 _atom_site_fract_x
 _atom_site_fract_y
 _atom_site_fract_z
 _atom_site_occupancy
  Zn  Zn0  1  0.05778000  0.09959000  0.45818000  1.0
  Zn  Zn1  1  0.05778000  0.95819000  0.48403000  1.0
  Zn  Zn2  1  0.94221000  0.95818000  0.59960000  1.0
  Zn  Zn3  1  0.94223000  0.98404000  0.45818000  1.0
  Zn  Zn4  1  0.94222000  0.40041000  0.04182000  1.0
  Zn  Zn5  1  0.05779000  0.54182000  0.90040000  1.0
  Zn  Zn6  1  0.94222000  0.54181000  0.01597000  1.0
  Zn  Zn7  1  0.05777000  0.51596000  0.04182000  1.0
  H  H8  1  0.92337000  0.27105000  0.96420000  1.0
  H  H9  1  0.07663000  0.46421000  0.77101000  1.0
  H  H10  1  0.92337000  0.03580000  0.72898000  1.0
  H  H11  1  0.07659000  0.22898000  0.53578000  1.0
  H  H12  1  0.07665000  0.61247000  0.15230000  1.0
  H  H13  1  0.92337000  0.65236000  0.11241000  1.0
  H  H14  1  0.07659000  0.84761000  0.38762000  1.0
  H  H15  1  0.92337000  0.88757000  0.34766000  1.0
  H  H16  1  0.73523000  0.27103000  0.15237000  1.0
  H  H17  1  0.73523000  0.46421000  0.11241000  1.0
  H  H18  1  0.26477000  0.03579000  0.38760000  1.0
  H  H19  1  0.26477000  0.22895000  0.34770000  1.0
  H  H20  1  0.26478000  0.65239000  0.77102000  1.0
  H  H21  1  0.26476000  0.61241000  0.96423000  1.0
  H  H22  1  0.73524000  0.88760000  0.53577000  1.0
  H  H23  1  0.73522000  0.84768000  0.72897000  1.0
  H  H24  1  0.07989000  0.37932000  0.67798000  1.0
  H  H25  1  0.92009000  0.17801000  0.87933000  1.0
  H  H26  1  0.07983000  0.32201000  0.62066000  1.0
  H  H27  1  0.92013000  0.12068000  0.82202000  1.0
  H  H28  1  0.92010000  0.74211000  0.20057000  1.0
  H  H29  1  0.07990000  0.70061000  0.24208000  1.0
  H  H30  1  0.92013000  0.79945000  0.25786000  1.0
  H  H31  1  0.07983000  0.75782000  0.29949000  1.0
  H  H32  1  0.55731000  0.37932000  0.20054000  1.0
  H  H33  1  0.55732000  0.17800000  0.24216000  1.0
  H  H34  1  0.44268000  0.32198000  0.25794000  1.0
  H  H35  1  0.44269000  0.12068000  0.29944000  1.0
  H  H36  1  0.44268000  0.70054000  0.87934000  1.0
  H  H37  1  0.44269000  0.74218000  0.67799000  1.0
  H  H38  1  0.55731000  0.75791000  0.82199000  1.0
  H  H39  1  0.55733000  0.79945000  0.62065000  1.0
  C  C40  1  0.18268000  0.09133000  0.40867000  1.0
  C  C41  1  0.00000000  0.86348000  0.63651000  1.0
  C  C42  1  0.99999000  0.09134000  0.59134000  1.0
  C  C43  1  0.81732000  0.90867000  0.59133000  1.0
  C  C44  1  0.00001000  0.13652000  0.36347000  1.0
  C  C45  1  0.99999000  0.90865000  0.40867000  1.0
  C  C46  1  0.00000000  0.40867000  0.90865000  1.0
  C  C47  1  1.00000000  0.63652000  0.86349000  1.0
  C  C48  1  0.81732000  0.40867000  0.09134000  1.0
  C  C49  1  0.00000000  0.59136000  0.09133000  1.0
  C  C50  1  0.00000000  0.36349000  0.13652000  1.0
  C  C51  1  0.18268000  0.59135000  0.90867000  1.0
  C  C52  1  0.00000000  0.19478000  0.30522000  1.0
  C  C53  1  0.00000000  0.30522000  0.19478000  1.0
  C  C54  1  0.95692000  0.17997000  0.27696000  1.0
  C  C55  1  0.04308000  0.32003000  0.22305000  1.0
  C  C56  1  0.95692000  0.23387000  0.22305000  1.0
  C  C57  1  0.04308000  0.26613000  0.27695000  1.0
  C  C58  1  0.00000000  0.80522000  0.69478000  1.0
  C  C59  1  0.00000000  0.69478000  0.80522000  1.0
  C  C60  1  0.95692000  0.77695000  0.76613000  1.0
  C  C61  1  0.04308000  0.72305000  0.73387000  1.0
  C  C62  1  0.95692000  0.72304000  0.82004000  1.0
  C  C63  1  0.04308000  0.77696000  0.67996000  1.0
  C  C64  1  1.00000000  0.37112000  0.87109000  1.0
  C  C65  1  0.95669000  0.29937000  0.90846000  1.0
  C  C66  1  0.95667000  0.26446000  0.87360000  1.0
  C  C67  1  0.99999000  0.30084000  0.80083000  1.0
  C  C68  1  0.04332000  0.37361000  0.76443000  1.0
  C  C69  1  0.04330000  0.40847000  0.79934000  1.0
  C  C70  1  1.00000000  0.26547000  0.76544000  1.0
  C  C71  1  0.99999000  0.23455000  0.73454000  1.0
  C  C72  1  0.99998000  0.19917000  0.69916000  1.0
  C  C73  1  0.95667000  0.12640000  0.73555000  1.0
  C  C74  1  0.95668000  0.09153000  0.70066000  1.0
  C  C75  1  0.99998000  0.12889000  0.62890000  1.0
  C  C76  1  0.04327000  0.20065000  0.59153000  1.0
  C  C77  1  0.04328000  0.23555000  0.62639000  1.0
  C  C78  1  0.00001000  0.62893000  0.12887000  1.0
  C  C79  1  0.04332000  0.63488000  0.15731000  1.0
  C  C80  1  0.04334000  0.66976000  0.19219000  1.0
  C  C81  1  0.00001000  0.69920000  0.19914000  1.0
  C  C82  1  0.95669000  0.69226000  0.16969000  1.0
  C  C83  1  0.95670000  0.65737000  0.13482000  1.0
  C  C84  1  0.00000000  0.73456000  0.23453000  1.0
  C  C85  1  0.99999000  0.76545000  0.26546000  1.0
  C  C86  1  0.99998000  0.80081000  0.30086000  1.0
  C  C87  1  0.04328000  0.80773000  0.33032000  1.0
  C  C88  1  0.04327000  0.84262000  0.36520000  1.0
  C  C89  1  0.99998000  0.87108000  0.37113000  1.0
  C  C90  1  0.95668000  0.86514000  0.34267000  1.0
  C  C91  1  0.95666000  0.83026000  0.30779000  1.0
  C  C92  1  0.74221000  0.37111000  0.12890000  1.0
  C  C93  1  0.70782000  0.29936000  0.15736000  1.0
  C  C94  1  0.63805000  0.26445000  0.19225000  1.0
  C  C95  1  0.60167000  0.30084000  0.19917000  1.0
  C  C96  1  0.63805000  0.37361000  0.16971000  1.0
  C  C97  1  0.70781000  0.40847000  0.13483000  1.0
  C  C98  1  0.53091000  0.26545000  0.23455000  1.0
  C  C99  1  0.46909000  0.23453000  0.26548000  1.0
  C  C100  1  0.39833000  0.19915000  0.30087000  1.0
  C  C101  1  0.36195000  0.12639000  0.33031000  1.0
  C  C102  1  0.29218000  0.09152000  0.36519000  1.0
  C  C103  1  0.25779000  0.12888000  0.37113000  1.0
  C  C104  1  0.29218000  0.20063000  0.34270000  1.0
  C  C105  1  0.36195000  0.23553000  0.30781000  1.0
  C  C106  1  0.25779000  0.62890000  0.87112000  1.0
  C  C107  1  0.29219000  0.65738000  0.79935000  1.0
  C  C108  1  0.36195000  0.69227000  0.76445000  1.0
  C  C109  1  0.39833000  0.69918000  0.80084000  1.0
  C  C110  1  0.36194000  0.66971000  0.87362000  1.0
  C  C111  1  0.29218000  0.63484000  0.90848000  1.0
  C  C112  1  0.46909000  0.73456000  0.76546000  1.0
  C  C113  1  0.53091000  0.76547000  0.73453000  1.0
  C  C114  1  0.60167000  0.80086000  0.69915000  1.0
  C  C115  1  0.63806000  0.83031000  0.62637000  1.0
  C  C116  1  0.70782000  0.86518000  0.59152000  1.0
  C  C117  1  0.74221000  0.87112000  0.62888000  1.0
  C  C118  1  0.70781000  0.84268000  0.70064000  1.0
  C  C119  1  0.63805000  0.80780000  0.73553000  1.0
  Br  Br120  1  0.89622000  0.08734000  0.30888000  1.0
  Br  Br121  1  0.10379000  0.41267000  0.19111000  1.0
  Br  Br122  1  0.89622000  0.20510000  0.19112000  1.0
  Br  Br123  1  0.10378000  0.29490000  0.30888000  1.0
  Br  Br124  1  0.89622000  0.80888000  0.79492000  1.0
  Br  Br125  1  0.10378000  0.69112000  0.70508000  1.0
  Br  Br126  1  0.89623000  0.69112000  0.91268000  1.0
  Br  Br127  1  0.10378000  0.80889000  0.58732000  1.0
  O  O128  1  0.00000000  0.00000000  0.50000000  1.0
  O  O129  1  0.15367000  0.12741000  0.41397000  1.0
  O  O130  1  0.03980000  0.88599000  0.57422000  1.0
  O  O131  1  0.95859000  0.02624000  0.62744000  1.0
  O  O132  1  0.15367000  0.02624000  0.43235000  1.0
  O  O133  1  0.04138000  0.12740000  0.52626000  1.0
  O  O134  1  0.96018000  0.88596000  0.65383000  1.0
  O  O135  1  0.84633000  0.91398000  0.62741000  1.0
  O  O136  1  0.96021000  0.07422000  0.38598000  1.0
  O  O137  1  0.84634000  0.93237000  0.52623000  1.0
  O  O138  1  0.03981000  0.15382000  0.38597000  1.0
  O  O139  1  0.04138000  0.91396000  0.43237000  1.0
  O  O140  1  0.95861000  0.93236000  0.41397000  1.0
  O  O141  1  0.00000000  0.50000000  0.00000000  1.0
  O  O142  1  0.95860000  0.37259000  0.97375000  1.0
  O  O143  1  0.03982000  0.61403000  0.84617000  1.0
  O  O144  1  0.84633000  0.47376000  0.06765000  1.0
  O  O145  1  0.04140000  0.47376000  0.87257000  1.0
  O  O146  1  0.84633000  0.37259000  0.08604000  1.0
  O  O147  1  0.96019000  0.61400000  0.92578000  1.0
  O  O148  1  0.95860000  0.58603000  0.06764000  1.0
  O  O149  1  0.03978000  0.42577000  0.11404000  1.0
  O  O150  1  0.04138000  0.56764000  0.08603000  1.0
  O  O151  1  0.96020000  0.34618000  0.11402000  1.0
  O  O152  1  0.15367000  0.58603000  0.87259000  1.0
  O  O153  1  0.15366000  0.56764000  0.97377000  1.0
  O  O154  1  0.08591000  0.41102000  0.69456000  1.0
  O  O155  1  0.91408000  0.19460000  0.91101000  1.0
  O  O156  1  0.08586000  0.30543000  0.58896000  1.0
  O  O157  1  0.91409000  0.08899000  0.80543000  1.0
  O  O158  1  0.91409000  0.71952000  0.17488000  1.0
  O  O159  1  0.08593000  0.67494000  0.21946000  1.0
  O  O160  1  0.91409000  0.82511000  0.28049000  1.0
  O  O161  1  0.08586000  0.78043000  0.32516000  1.0
  O  O162  1  0.60559000  0.41102000  0.17488000  1.0
  O  O163  1  0.60560000  0.19459000  0.21954000  1.0
  O  O164  1  0.39440000  0.30539000  0.28055000  1.0
  O  O165  1  0.39441000  0.08898000  0.32512000  1.0
  O  O166  1  0.39440000  0.67488000  0.91104000  1.0
  O  O167  1  0.39441000  0.71957000  0.69458000  1.0
  O  O168  1  0.60558000  0.78051000  0.80541000  1.0
  O  O169  1  0.60561000  0.82513000  0.58895000  1.0
