# generated using pymatgen
data_CuH14C8N2O3
_symmetry_space_group_name_H-M   'P 1'
_cell_length_a   8.62026000
_cell_length_b   10.05170000
_cell_length_c   11.06450000
_cell_angle_alpha   90.00330000
_cell_angle_beta   89.99590000
_cell_angle_gamma   89.99960000
_symmetry_Int_Tables_number   1
_chemical_formula_structural   CuH14C8N2O3
_chemical_formula_sum   'Cu4 H56 C32 N8 O12'
_cell_volume   958.71975104
_cell_formula_units_Z   4
loop_
 _symmetry_equiv_pos_site_id
 _symmetry_equiv_pos_as_xyz
  1  'x, y, z'
loop_
 _atom_site_type_symbol
 _atom_site_label
 _atom_site_symmetry_multiplicity
 _atom_site_fract_x
 _atom_site_fract_y
 _atom_site_fract_z
 _atom_site_occupancy
  Cu  Cu0  1  0.07810000  0.30266000  0.11029000  1.0
  Cu  Cu1  1  0.57797000  0.19738000  0.88971000  1.0
  Cu  Cu2  1  0.42223000  0.69732000  0.61034000  1.0
  Cu  Cu3  1  0.92207000  0.80271000  0.38967000  1.0
  H  H4  1  0.30550000  0.32122000  0.26036000  1.0
  H  H5  1  0.80543000  0.17881000  0.73965000  1.0
  H  H6  1  0.19452000  0.67883000  0.76012000  1.0
  H  H7  1  0.69442000  0.82119000  0.23990000  1.0
  H  H8  1  0.33890000  0.40452000  0.13505000  1.0
  H  H9  1  0.83876000  0.09548000  0.86494000  1.0
  H  H10  1  0.16124000  0.59537000  0.63493000  1.0
  H  H11  1  0.66108000  0.90462000  0.36512000  1.0
  H  H12  1  0.74748000  0.62476000  0.92062000  1.0
  H  H13  1  0.24728000  0.87524000  0.07945000  1.0
  H  H14  1  0.75272000  0.37492000  0.42061000  1.0
  H  H15  1  0.25248000  0.12506000  0.57932000  1.0
  H  H16  1  0.95027000  0.59241000  0.90719000  1.0
  H  H17  1  0.45008000  0.90750000  0.09291000  1.0
  H  H18  1  0.54995000  0.40739000  0.40704000  1.0
  H  H19  1  0.04973000  0.09248000  0.59283000  1.0
  H  H20  1  0.88316000  0.70662000  0.01835000  1.0
  H  H21  1  0.38297000  0.79330000  0.98175000  1.0
  H  H22  1  0.61688000  0.29331000  0.51835000  1.0
  H  H23  1  0.11667000  0.20659000  0.48154000  1.0
  H  H24  1  0.73925000  0.61485000  0.21034000  1.0
  H  H25  1  0.23924000  0.88513000  0.78971000  1.0
  H  H26  1  0.76077000  0.38532000  0.71035000  1.0
  H  H27  1  0.26077000  0.11467000  0.28961000  1.0
  H  H28  1  0.60187000  0.55006000  0.10294000  1.0
  H  H29  1  0.10181000  0.94998000  0.89704000  1.0
  H  H30  1  0.89815000  0.44990000  0.60287000  1.0
  H  H31  1  0.39808000  0.05012000  0.39715000  1.0
  H  H32  1  0.68894000  0.44415000  0.21316000  1.0
  H  H33  1  0.18905000  0.05585000  0.78685000  1.0
  H  H34  1  0.81110000  0.55602000  0.71292000  1.0
  H  H35  1  0.31121000  0.94399000  0.28704000  1.0
  H  H36  1  0.43196000  0.58272000  0.31653000  1.0
  H  H37  1  0.93189000  0.91734000  0.68354000  1.0
  H  H38  1  0.06813000  0.41737000  0.81643000  1.0
  H  H39  1  0.56804000  0.08265000  0.18350000  1.0
  H  H40  1  0.36765000  0.64100000  0.17230000  1.0
  H  H41  1  0.86747000  0.85910000  0.82777000  1.0
  H  H42  1  0.13251000  0.35909000  0.67223000  1.0
  H  H43  1  0.63228000  0.14099000  0.32771000  1.0
  H  H44  1  0.28493000  0.70671000  0.30642000  1.0
  H  H45  1  0.78487000  0.79333000  0.69363000  1.0
  H  H46  1  0.21521000  0.29339000  0.80635000  1.0
  H  H47  1  0.71510000  0.20663000  0.19360000  1.0
  H  H48  1  0.07034000  0.38934000  0.38777000  1.0
  H  H49  1  0.57026000  0.11067000  0.61214000  1.0
  H  H50  1  0.42977000  0.61077000  0.88773000  1.0
  H  H51  1  0.92967000  0.88922000  0.11238000  1.0
  H  H52  1  0.25851000  0.43601000  0.44287000  1.0
  H  H53  1  0.75848000  0.06403000  0.55713000  1.0
  H  H54  1  0.24155000  0.56422000  0.94275000  1.0
  H  H55  1  0.74150000  0.93578000  0.05726000  1.0
  H  H56  1  0.10511000  0.55522000  0.43803000  1.0
  H  H57  1  0.60513000  0.94479000  0.56193000  1.0
  H  H58  1  0.39484000  0.44494000  0.93801000  1.0
  H  H59  1  0.89482000  0.05505000  0.06204000  1.0
  C  C60  1  0.80129000  0.37112000  0.99725000  1.0
  C  C61  1  0.30121000  0.12885000  0.00279000  1.0
  C  C62  1  0.69875000  0.62878000  0.49713000  1.0
  C  C63  1  0.19866000  0.87118000  0.50281000  1.0
  C  C64  1  0.84169000  0.50093000  0.06478000  1.0
  C  C65  1  0.34162000  0.99903000  0.93532000  1.0
  C  C66  1  0.65844000  0.49903000  0.56458000  1.0
  C  C67  1  0.15837000  0.00090000  0.43530000  1.0
  C  C68  1  0.85617000  0.61366000  0.97133000  1.0
  C  C69  1  0.35600000  0.88628000  0.02875000  1.0
  C  C70  1  0.64399000  0.38618000  0.47123000  1.0
  C  C71  1  0.14380000  0.11374000  0.52866000  1.0
  C  C72  1  0.70857000  0.52965000  0.15348000  1.0
  C  C73  1  0.20856000  0.97035000  0.84655000  1.0
  C  C74  1  0.79147000  0.47041000  0.65338000  1.0
  C  C75  1  0.29147000  0.02958000  0.34658000  1.0
  C  C76  1  0.05794000  0.56464000  0.19777000  1.0
  C  C77  1  0.55782000  0.93539000  0.80225000  1.0
  C  C78  1  0.44222000  0.43537000  0.69770000  1.0
  C  C79  1  0.94210000  0.06463000  0.30227000  1.0
  C  C80  1  0.20429000  0.50985000  0.26333000  1.0
  C  C81  1  0.70416000  0.99020000  0.73666000  1.0
  C  C82  1  0.29588000  0.49023000  0.76326000  1.0
  C  C83  1  0.79572000  0.00980000  0.23676000  1.0
  C  C84  1  0.33071000  0.61607000  0.26461000  1.0
  C  C85  1  0.83061000  0.88400000  0.73542000  1.0
  C  C86  1  0.16941000  0.38401000  0.76455000  1.0
  C  C87  1  0.66926000  0.11603000  0.23542000  1.0
  C  C88  1  0.15631000  0.46980000  0.39163000  1.0
  C  C89  1  0.65625000  0.03023000  0.60834000  1.0
  C  C90  1  0.34375000  0.53036000  0.89155000  1.0
  C  C91  1  0.84368000  0.96965000  0.10849000  1.0
  N  N92  1  0.98736000  0.47555000  0.12800000  1.0
  N  N93  1  0.48736000  0.02439000  0.87215000  1.0
  N  N94  1  0.51258000  0.52437000  0.62778000  1.0
  N  N95  1  0.01258000  0.97555000  0.37204000  1.0
  N  N96  1  0.25741000  0.38667000  0.20040000  1.0
  N  N97  1  0.75728000  0.11337000  0.79959000  1.0
  N  N98  1  0.24274000  0.61337000  0.70024000  1.0
  N  N99  1  0.74258000  0.88666000  0.29979000  1.0
  O  O100  1  0.89712000  0.27394000  0.99889000  1.0
  O  O101  1  0.39688000  0.22615000  0.00088000  1.0
  O  O102  1  0.60292000  0.72602000  0.49883000  1.0
  O  O103  1  0.10264000  0.77408000  0.50141000  1.0
  O  O104  1  0.67152000  0.36687000  0.94340000  1.0
  O  O105  1  0.17157000  0.13307000  0.05686000  1.0
  O  O106  1  0.82845000  0.63301000  0.44317000  1.0
  O  O107  1  0.32850000  0.86690000  0.55655000  1.0
  O  O108  1  0.01542000  0.68317000  0.21622000  1.0
  O  O109  1  0.51525000  0.81686000  0.78376000  1.0
  O  O110  1  0.48488000  0.31689000  0.71622000  1.0
  O  O111  1  0.98469000  0.18312000  0.28378000  1.0
