# generated using pymatgen
data_CuH8C12(N2O)2
_symmetry_space_group_name_H-M   'P 1'
_cell_length_a   6.33181000
_cell_length_b   8.46186000
_cell_length_c   11.58770000
_cell_angle_alpha   109.13600000
_cell_angle_beta   89.99980000
_cell_angle_gamma   90.00000000
_symmetry_Int_Tables_number   1
_chemical_formula_structural   CuH8C12(N2O)2
_chemical_formula_sum   'Cu2 H16 C24 N8 O4'
_cell_volume   586.54953520
_cell_formula_units_Z   2
loop_
 _symmetry_equiv_pos_site_id
 _symmetry_equiv_pos_as_xyz
  1  'x, y, z'
loop_
 _atom_site_type_symbol
 _atom_site_label
 _atom_site_symmetry_multiplicity
 _atom_site_fract_x
 _atom_site_fract_y
 _atom_site_fract_z
 _atom_site_occupancy
  Cu  Cu0  1  0.14279000  0.48717000  0.98908000  1.0
  Cu  Cu1  1  0.64280000  0.51283000  0.01092000  1.0
  H  H2  1  0.61080000  0.19647000  0.23415000  1.0
  H  H3  1  0.11080000  0.80352000  0.76585000  1.0
  H  H4  1  0.59273000  0.13016000  0.42679000  1.0
  H  H5  1  0.09273000  0.86983000  0.57321000  1.0
  H  H6  1  0.18386000  0.38782000  0.54231000  1.0
  H  H7  1  0.68387000  0.61218000  0.45769000  1.0
  H  H8  1  0.20230000  0.44905000  0.34800000  1.0
  H  H9  1  0.70230000  0.55096000  0.65201000  1.0
  H  H10  1  0.69874000  0.98512000  0.54365000  1.0
  H  H11  1  0.19875000  0.01488000  0.45635000  1.0
  H  H12  1  0.69340000  0.93337000  0.74406000  1.0
  H  H13  1  0.19341000  0.06663000  0.25595000  1.0
  H  H14  1  0.87460000  0.13510000  0.92292000  1.0
  H  H15  1  0.37460000  0.86490000  0.07708000  1.0
  H  H16  1  0.03383000  0.44458000  0.72466000  1.0
  H  H17  1  0.53383000  0.55542000  0.27534000  1.0
  C  C18  1  0.91240000  0.37536000  0.16575000  1.0
  C  C19  1  0.41239000  0.62464000  0.83425000  1.0
  C  C20  1  0.90659000  0.32884000  0.27966000  1.0
  C  C21  1  0.40660000  0.67116000  0.72034000  1.0
  C  C22  1  0.73543000  0.23788000  0.30228000  1.0
  C  C23  1  0.23543000  0.76211000  0.69772000  1.0
  C  C24  1  0.72678000  0.20052000  0.41035000  1.0
  C  C25  1  0.22678000  0.79947000  0.58965000  1.0
  C  C26  1  0.88537000  0.25519000  0.49965000  1.0
  C  C27  1  0.38538000  0.74480000  0.50035000  1.0
  C  C28  1  0.05673000  0.34581000  0.47578000  1.0
  C  C29  1  0.55674000  0.65418000  0.52422000  1.0
  C  C30  1  0.06820000  0.38057000  0.36652000  1.0
  C  C31  1  0.56820000  0.61943000  0.63348000  1.0
  C  C32  1  0.87241000  0.21789000  0.61536000  1.0
  C  C33  1  0.37242000  0.78212000  0.38464000  1.0
  C  C34  1  0.77147000  0.07437000  0.62400000  1.0
  C  C35  1  0.27147000  0.92564000  0.37600000  1.0
  C  C36  1  0.76954000  0.04408000  0.73500000  1.0
  C  C37  1  0.26954000  0.95592000  0.26500000  1.0
  C  C38  1  0.86947000  0.15719000  0.83550000  1.0
  C  C39  1  0.36947000  0.84280000  0.16450000  1.0
  C  C40  1  0.96165000  0.32682000  0.72294000  1.0
  C  C41  1  0.46165000  0.67318000  0.27706000  1.0
  N  N42  1  0.96175000  0.29764000  0.82985000  1.0
  N  N43  1  0.46174000  0.70236000  0.17015000  1.0
  N  N44  1  0.40738000  0.34614000  0.94882000  1.0
  N  N45  1  0.90738000  0.65387000  0.05118000  1.0
  N  N46  1  0.40747000  0.21360000  0.96882000  1.0
  N  N47  1  0.90747000  0.78641000  0.03118000  1.0
  N  N48  1  0.40803000  0.08450000  0.98336000  1.0
  N  N49  1  0.90804000  0.91550000  0.01663000  1.0
  O  O50  1  0.73376000  0.38333000  0.11720000  1.0
  O  O51  1  0.23376000  0.61667000  0.88280000  1.0
  O  O52  1  0.09269000  0.40400000  0.12823000  1.0
  O  O53  1  0.59269000  0.59600000  0.87177000  1.0
