# generated using pymatgen
data_Na2ZnH18C4(N9O4)2
_symmetry_space_group_name_H-M   'P 1'
_cell_length_a   6.96244000
_cell_length_b   11.87870000
_cell_length_c   13.43676514
_cell_angle_alpha   115.36345760
_cell_angle_beta   92.13316112
_cell_angle_gamma   98.81020000
_symmetry_Int_Tables_number   1
_chemical_formula_structural   Na2ZnH18C4(N9O4)2
_chemical_formula_sum   'Na4 Zn2 H36 C8 N36 O16'
_cell_volume   985.71620361
_cell_formula_units_Z   2
loop_
 _symmetry_equiv_pos_site_id
 _symmetry_equiv_pos_as_xyz
  1  'x, y, z'
loop_
 _atom_site_type_symbol
 _atom_site_label
 _atom_site_symmetry_multiplicity
 _atom_site_fract_x
 _atom_site_fract_y
 _atom_site_fract_z
 _atom_site_occupancy
  Na  Na0  1  0.17997000  0.03645000  0.92446000  1.0
  Na  Na1  1  0.82003000  0.96355000  0.07554000  1.0
  Na  Na2  1  0.36183000  0.35320000  0.98078000  1.0
  Na  Na3  1  0.63816000  0.64680000  0.01922000  1.0
  Zn  Zn4  1  0.24586000  0.71093000  0.42312000  1.0
  Zn  Zn5  1  0.75414000  0.28907000  0.57688000  1.0
  H  H6  1  0.07882000  0.30919000  0.37677000  1.0
  H  H7  1  0.92117000  0.69081000  0.62323000  1.0
  H  H8  1  0.31945000  0.12140000  0.52179000  1.0
  H  H9  1  0.68055000  0.87860000  0.47821000  1.0
  H  H10  1  0.59703000  0.70463000  0.33314000  1.0
  H  H11  1  0.40297000  0.29537000  0.66686000  1.0
  H  H12  1  0.61773000  0.66073000  0.42869000  1.0
  H  H13  1  0.38227000  0.33927000  0.57131000  1.0
  H  H14  1  0.56213000  0.13928000  0.91115000  1.0
  H  H15  1  0.43787000  0.86072000  0.08885000  1.0
  H  H16  1  0.54193000  0.16500000  0.03723000  1.0
  H  H17  1  0.45806000  0.83500000  0.96277000  1.0
  H  H18  1  0.98752000  0.28539000  0.01279000  1.0
  H  H19  1  0.01248000  0.71461000  0.98721000  1.0
  H  H20  1  0.93498000  0.18691000  0.88962000  1.0
  H  H21  1  0.06502000  0.81309000  0.11038000  1.0
  H  H22  1  0.22114000  0.78431000  0.82915000  1.0
  H  H23  1  0.77885000  0.21569000  0.17085000  1.0
  H  H24  1  0.40031000  0.83269000  0.78490000  1.0
  H  H25  1  0.59968000  0.16731000  0.21510000  1.0
  H  H26  1  0.19213000  0.09397000  0.18472000  1.0
  H  H27  1  0.80787000  0.90603000  0.81528000  1.0
  H  H28  1  0.10195000  0.18789000  0.15099000  1.0
  H  H29  1  0.89805000  0.81210000  0.84901000  1.0
  H  H30  1  0.72696000  0.37386000  0.89993000  1.0
  H  H31  1  0.27304000  0.62614000  0.10007000  1.0
  H  H32  1  0.76859000  0.41607000  0.02743000  1.0
  H  H33  1  0.23140000  0.58393000  0.97257000  1.0
  H  H34  1  0.16758000  0.35388000  0.78534000  1.0
  H  H35  1  0.83242000  0.64612000  0.21466000  1.0
  H  H36  1  0.23334000  0.21788000  0.74631000  1.0
  H  H37  1  0.76666000  0.78213000  0.25369000  1.0
  H  H38  1  0.49280000  0.43478000  0.23062000  1.0
  H  H39  1  0.50720000  0.56522000  0.76938000  1.0
  H  H40  1  0.51027000  0.53566000  0.18476000  1.0
  H  H41  1  0.48973000  0.46434000  0.81524000  1.0
  C  C42  1  0.23623000  0.48705000  0.48487000  1.0
  C  C43  1  0.76377000  0.51295000  0.51513000  1.0
  C  C44  1  0.06905000  0.42909000  0.30433000  1.0
  C  C45  1  0.93095000  0.57091000  0.69567000  1.0
  C  C46  1  0.28216000  0.94899000  0.38292000  1.0
  C  C47  1  0.71784000  0.05101000  0.61708000  1.0
  C  C48  1  0.20332000  0.98096000  0.56637000  1.0
  C  C49  1  0.79668000  0.01904000  0.43363000  1.0
  N  N50  1  0.28203000  0.61333000  0.51831000  1.0
  N  N51  1  0.71797000  0.38667000  0.48169000  1.0
  N  N52  1  0.38255000  0.66203000  0.62075000  1.0
  N  N53  1  0.61745000  0.33797000  0.37925000  1.0
  N  N54  1  0.39444000  0.56910000  0.64661000  1.0
  N  N55  1  0.60557000  0.43090000  0.35339000  1.0
  N  N56  1  0.30446000  0.45698000  0.56311000  1.0
  N  N57  1  0.69554000  0.54302000  0.43689000  1.0
  N  N58  1  0.13310000  0.39954000  0.38586000  1.0
  N  N59  1  0.86690000  0.60046000  0.61414000  1.0
  N  N60  1  0.98249000  0.34093000  0.20440000  1.0
  N  N61  1  0.01751000  0.65907000  0.79560000  1.0
  N  N62  1  0.93696000  0.40805000  0.14948000  1.0
  N  N63  1  0.06304000  0.59195000  0.85051000  1.0
  N  N64  1  0.99450000  0.52914000  0.21172000  1.0
  N  N65  1  0.00550000  0.47086000  0.78828000  1.0
  N  N66  1  0.07904000  0.54625000  0.31058000  1.0
  N  N67  1  0.92096000  0.45375000  0.68942000  1.0
  N  N68  1  0.25609000  0.82098000  0.33636000  1.0
  N  N69  1  0.74391000  0.17902000  0.66364000  1.0
  N  N70  1  0.28295000  0.78528000  0.22900000  1.0
  N  N71  1  0.71705000  0.21472000  0.77100000  1.0
  N  N72  1  0.32269000  0.88818000  0.21319000  1.0
  N  N73  1  0.67731000  0.11182000  0.78681000  1.0
  N  N74  1  0.32411000  0.99360000  0.30791000  1.0
  N  N75  1  0.67589000  0.00640000  0.69209000  1.0
  N  N76  1  0.26707000  0.02457000  0.49197000  1.0
  N  N77  1  0.73293000  0.97543000  0.50803000  1.0
  N  N78  1  0.18157000  0.05709000  0.67204000  1.0
  N  N79  1  0.81844000  0.94291000  0.32796000  1.0
  N  N80  1  0.11224000  0.97751000  0.71589000  1.0
  N  N81  1  0.88776000  0.02249000  0.28411000  1.0
  N  N82  1  0.09212000  0.85977000  0.64174000  1.0
  N  N83  1  0.90788000  0.14023000  0.35826000  1.0
  N  N84  1  0.15070000  0.85812000  0.54558000  1.0
  N  N85  1  0.84930000  0.14188000  0.45442000  1.0
  O  O86  1  0.55678000  0.72254000  0.40844000  1.0
  O  O87  1  0.44322000  0.27746000  0.59156000  1.0
  O  O88  1  0.47917000  0.17049000  0.97231000  1.0
  O  O89  1  0.52083000  0.82951000  0.02769000  1.0
  O  O90  1  0.03918000  0.21992000  0.95149000  1.0
  O  O91  1  0.96082000  0.78008000  0.04851000  1.0
  O  O92  1  0.33855000  0.85330000  0.85346000  1.0
  O  O93  1  0.66145000  0.14670000  0.14654000  1.0
  O  O94  1  0.13803000  0.10322000  0.12107000  1.0
  O  O95  1  0.86197000  0.89678000  0.87893000  1.0
  O  O96  1  0.70208000  0.43658000  0.97335000  1.0
  O  O97  1  0.29792000  0.56342000  0.02665000  1.0
  O  O98  1  0.28248000  0.31321000  0.78369000  1.0
  O  O99  1  0.71752000  0.68679000  0.21631000  1.0
  O  O100  1  0.43266000  0.45418000  0.17304000  1.0
  O  O101  1  0.56734000  0.54582000  0.82696000  1.0
