# generated using pymatgen
data_ZnH11C17N3O4
_symmetry_space_group_name_H-M   'P 1'
_cell_length_a   10.90400000
_cell_length_b   13.06090000
_cell_length_c   21.06370000
_cell_angle_alpha   89.99990000
_cell_angle_beta   96.21170000
_cell_angle_gamma   90.00000000
_symmetry_Int_Tables_number   1
_chemical_formula_structural   ZnH11C17N3O4
_chemical_formula_sum   'Zn4 H44 C68 N12 O16'
_cell_volume   2982.19681761
_cell_formula_units_Z   4
loop_
 _symmetry_equiv_pos_site_id
 _symmetry_equiv_pos_as_xyz
  1  'x, y, z'
loop_
 _atom_site_type_symbol
 _atom_site_label
 _atom_site_symmetry_multiplicity
 _atom_site_fract_x
 _atom_site_fract_y
 _atom_site_fract_z
 _atom_site_occupancy
  Zn  Zn0  1  0.39433000  0.42528000  0.98507000  1.0
  Zn  Zn1  1  0.10567000  0.92528000  0.51493000  1.0
  Zn  Zn2  1  0.60567000  0.57472000  0.01493000  1.0
  Zn  Zn3  1  0.89433000  0.07471000  0.48507000  1.0
  H  H4  1  0.91246000  0.25354000  0.66513000  1.0
  H  H5  1  0.58755000  0.75355000  0.83487000  1.0
  H  H6  1  0.08755000  0.74646000  0.33487000  1.0
  H  H7  1  0.41245000  0.24645000  0.16513000  1.0
  H  H8  1  0.97351000  0.32891000  0.77408000  1.0
  H  H9  1  0.52648000  0.82891000  0.72592000  1.0
  H  H10  1  0.02649000  0.67109000  0.22592000  1.0
  H  H11  1  0.47351000  0.17109000  0.27408000  1.0
  H  H12  1  0.23499000  0.08424000  0.81484000  1.0
  H  H13  1  0.26501000  0.58424000  0.68516000  1.0
  H  H14  1  0.76501000  0.91576000  0.18516000  1.0
  H  H15  1  0.73499000  0.41576000  0.31484000  1.0
  H  H16  1  0.17706000  0.01335000  0.70476000  1.0
  H  H17  1  0.32294000  0.51335000  0.79524000  1.0
  H  H18  1  0.82294000  0.98665000  0.29524000  1.0
  H  H19  1  0.67706000  0.48665000  0.20476000  1.0
  H  H20  1  0.60309000  0.17991000  0.92007000  1.0
  H  H21  1  0.89691000  0.67990000  0.57993000  1.0
  H  H22  1  0.39691000  0.82009000  0.07993000  1.0
  H  H23  1  0.10309000  0.32009000  0.42007000  1.0
  H  H24  1  0.74400000  0.05476000  0.87395000  1.0
  H  H25  1  0.75599000  0.55475000  0.62605000  1.0
  H  H26  1  0.25599000  0.94524000  0.12605000  1.0
  H  H27  1  0.24400000  0.44524000  0.37395000  1.0
  H  H28  1  0.96331000  0.10005000  0.86875000  1.0
  H  H29  1  0.53669000  0.60004000  0.63125000  1.0
  H  H30  1  0.03669000  0.89996000  0.13125000  1.0
  H  H31  1  0.46331000  0.39996000  0.36875000  1.0
  H  H32  1  0.90237000  0.39245000  0.95626000  1.0
  H  H33  1  0.59763000  0.89245000  0.54374000  1.0
  H  H34  1  0.09763000  0.60755000  0.04374000  1.0
  H  H35  1  0.40237000  0.10755000  0.45626000  1.0
  H  H36  1  0.40363000  0.21424000  0.83635000  1.0
  H  H37  1  0.09637000  0.71424000  0.66365000  1.0
  H  H38  1  0.59637000  0.78575000  0.16365000  1.0
  H  H39  1  0.90363000  0.28576000  0.33635000  1.0
  H  H40  1  0.43930000  0.34303000  0.85927000  1.0
  H  H41  1  0.06070000  0.84303000  0.64073000  1.0
  H  H42  1  0.56070000  0.65697000  0.14073000  1.0
  H  H43  1  0.93930000  0.15697000  0.35927000  1.0
  H  H44  1  0.33517000  0.31583000  0.78949000  1.0
  H  H45  1  0.16483000  0.81583000  0.71051000  1.0
  H  H46  1  0.66483000  0.68417000  0.21051000  1.0
  H  H47  1  0.83516000  0.18417000  0.28949000  1.0
  C  C48  1  0.01094000  0.08674000  0.61264000  1.0
  C  C49  1  0.48907000  0.58674000  0.88736000  1.0
  C  C50  1  0.98907000  0.91326000  0.38736000  1.0
  C  C51  1  0.51093000  0.41326000  0.11264000  1.0
  C  C52  1  0.04184000  0.12952000  0.67889000  1.0
  C  C53  1  0.45816000  0.62952000  0.82111000  1.0
  C  C54  1  0.95816000  0.87048000  0.32111000  1.0
  C  C55  1  0.54184000  0.37048000  0.17889000  1.0
  C  C56  1  0.98328000  0.21778000  0.69838000  1.0
  C  C57  1  0.51671000  0.71778000  0.80162000  1.0
  C  C58  1  0.01672000  0.78222000  0.30162000  1.0
  C  C59  1  0.48328000  0.28222000  0.19838000  1.0
  C  C60  1  0.01701000  0.25938000  0.75867000  1.0
  C  C61  1  0.48299000  0.75939000  0.74134000  1.0
  C  C62  1  0.98299000  0.74062000  0.24134000  1.0
  C  C63  1  0.51700000  0.24062000  0.25867000  1.0
  C  C64  1  0.10842000  0.21117000  0.79984000  1.0
  C  C65  1  0.39158000  0.71117000  0.70016000  1.0
  C  C66  1  0.89158000  0.78883000  0.20016000  1.0
  C  C67  1  0.60841000  0.28883000  0.29984000  1.0
  C  C68  1  0.16537000  0.12163000  0.78165000  1.0
  C  C69  1  0.33463000  0.62164000  0.71835000  1.0
  C  C70  1  0.83463000  0.87836000  0.21835000  1.0
  C  C71  1  0.66537000  0.37837000  0.28165000  1.0
  C  C72  1  0.13254000  0.08175000  0.72094000  1.0
  C  C73  1  0.36746000  0.58176000  0.77906000  1.0
  C  C74  1  0.86746000  0.91824000  0.27906000  1.0
  C  C75  1  0.63254000  0.41824000  0.22094000  1.0
  C  C76  1  0.65768000  0.36853000  0.96616000  1.0
  C  C77  1  0.84232000  0.86853000  0.53383000  1.0
  C  C78  1  0.34232000  0.63147000  0.03383000  1.0
  C  C79  1  0.15768000  0.13146000  0.46616000  1.0
  C  C80  1  0.74438000  0.29298000  0.94064000  1.0
  C  C81  1  0.75563000  0.79298000  0.55936000  1.0
  C  C82  1  0.25562000  0.70702000  0.05936000  1.0
  C  C83  1  0.24438000  0.20702000  0.44063000  1.0
  C  C84  1  0.69992000  0.19794000  0.91740000  1.0
  C  C85  1  0.80008000  0.69793000  0.58260000  1.0
  C  C86  1  0.30008000  0.80207000  0.08260000  1.0
  C  C87  1  0.19992000  0.30206000  0.41740000  1.0
  C  C88  1  0.77863000  0.12890000  0.89167000  1.0
  C  C89  1  0.72136000  0.62890000  0.60833000  1.0
  C  C90  1  0.22136000  0.87110000  0.10832000  1.0
  C  C91  1  0.27863000  0.37110000  0.39167000  1.0
  C  C92  1  0.90201000  0.15440000  0.88865000  1.0
  C  C93  1  0.59799000  0.65440000  0.61135000  1.0
  C  C94  1  0.09799000  0.84560000  0.11135000  1.0
  C  C95  1  0.40201000  0.34560000  0.38865000  1.0
  C  C96  1  0.94750000  0.24946000  0.91199000  1.0
  C  C97  1  0.55250000  0.74946000  0.58801000  1.0
  C  C98  1  0.05250000  0.75054000  0.08801000  1.0
  C  C99  1  0.44750000  0.25054000  0.41199000  1.0
  C  C100  1  0.86829000  0.31840000  0.93825000  1.0
  C  C101  1  0.63171000  0.81840000  0.56175000  1.0
  C  C102  1  0.13171000  0.68161000  0.06175000  1.0
  C  C103  1  0.36829000  0.18160000  0.43825000  1.0
  C  C104  1  0.07693000  0.27785000  0.91031000  1.0
  C  C105  1  0.42307000  0.77785000  0.58969000  1.0
  C  C106  1  0.92307000  0.72215000  0.08969000  1.0
  C  C107  1  0.57693000  0.22216000  0.41031000  1.0
  C  C108  1  0.26222000  0.29538000  0.87854000  1.0
  C  C109  1  0.23778000  0.79538000  0.62146000  1.0
  C  C110  1  0.73778000  0.70462000  0.12146000  1.0
  C  C111  1  0.76222000  0.20462000  0.37854000  1.0
  C  C112  1  0.36607000  0.29205000  0.83867000  1.0
  C  C113  1  0.13393000  0.79205000  0.66133000  1.0
  C  C114  1  0.63393000  0.70795000  0.16133000  1.0
  C  C115  1  0.86607000  0.20795000  0.33867000  1.0
  N  N116  1  0.26053000  0.33847000  0.93554000  1.0
  N  N117  1  0.23947000  0.83846000  0.56446000  1.0
  N  N118  1  0.73947000  0.66153000  0.06447000  1.0
  N  N119  1  0.76053000  0.16154000  0.43553000  1.0
  N  N120  1  0.14563000  0.32761000  0.95580000  1.0
  N  N121  1  0.35437000  0.82761000  0.54420000  1.0
  N  N122  1  0.85437000  0.67239000  0.04420000  1.0
  N  N123  1  0.64563000  0.17239000  0.45580000  1.0
  N  N124  1  0.14707000  0.25566000  0.86076000  1.0
  N  N125  1  0.35293000  0.75566000  0.63924000  1.0
  N  N126  1  0.85293000  0.74434000  0.13924000  1.0
  N  N127  1  0.64707000  0.24434000  0.36076000  1.0
  O  O128  1  0.07660000  0.01187000  0.59785000  1.0
  O  O129  1  0.42340000  0.51188000  0.90215000  1.0
  O  O130  1  0.92340000  0.98812000  0.40215000  1.0
  O  O131  1  0.57660000  0.48813000  0.09785000  1.0
  O  O132  1  0.92345000  0.12908000  0.57732000  1.0
  O  O133  1  0.57657000  0.62908000  0.92268000  1.0
  O  O134  1  0.07657000  0.87092000  0.42268000  1.0
  O  O135  1  0.42344000  0.37092000  0.07732000  1.0
  O  O136  1  0.54584000  0.34018000  0.96556000  1.0
  O  O137  1  0.95416000  0.84016000  0.53443000  1.0
  O  O138  1  0.45416000  0.65983000  0.03443000  1.0
  O  O139  1  0.04584000  0.15982000  0.46555000  1.0
  O  O140  1  0.70304000  0.45418000  0.98521000  1.0
  O  O141  1  0.79697000  0.95417000  0.51479000  1.0
  O  O142  1  0.29697000  0.54583000  0.01479000  1.0
  O  O143  1  0.20304000  0.04582000  0.48521000  1.0
