# generated using pymatgen
data_YbH8C6O7
_symmetry_space_group_name_H-M   'P 1'
_cell_length_a   7.55199000
_cell_length_b   10.57400000
_cell_length_c   12.60430000
_cell_angle_alpha   72.12750000
_cell_angle_beta   72.56960000
_cell_angle_gamma   69.08540000
_symmetry_Int_Tables_number   1
_chemical_formula_structural   YbH8C6O7
_chemical_formula_sum   'Yb4 H32 C24 O28'
_cell_volume   874.15328645
_cell_formula_units_Z   4
loop_
 _symmetry_equiv_pos_site_id
 _symmetry_equiv_pos_as_xyz
  1  'x, y, z'
loop_
 _atom_site_type_symbol
 _atom_site_label
 _atom_site_symmetry_multiplicity
 _atom_site_fract_x
 _atom_site_fract_y
 _atom_site_fract_z
 _atom_site_occupancy
  Yb  Yb0  1  0.98756000  0.68871000  0.77059000  1.0
  Yb  Yb1  1  0.44682000  0.81131000  0.72938000  1.0
  Yb  Yb2  1  0.01244000  0.31129000  0.22942000  1.0
  Yb  Yb3  1  0.55319000  0.18869000  0.27062000  1.0
  H  H4  1  0.98743000  0.74355000  0.13616000  1.0
  H  H5  1  0.86708000  0.75626000  0.36385000  1.0
  H  H6  1  0.01257000  0.25645000  0.86384000  1.0
  H  H7  1  0.13292000  0.24375000  0.63615000  1.0
  H  H8  1  0.10884000  0.86565000  0.03937000  1.0
  H  H9  1  0.01382000  0.63415000  0.46058000  1.0
  H  H10  1  0.89116000  0.13435000  0.96063000  1.0
  H  H11  1  0.98618000  0.36585000  0.53942000  1.0
  H  H12  1  0.41965000  0.66302000  0.01533000  1.0
  H  H13  1  0.09787000  0.83682000  0.48474000  1.0
  H  H14  1  0.58034000  0.33698000  0.98467000  1.0
  H  H15  1  0.90213000  0.16318000  0.51526000  1.0
  H  H16  1  0.34034000  0.70218000  0.15045000  1.0
  H  H17  1  0.19292000  0.79769000  0.34961000  1.0
  H  H18  1  0.65966000  0.29782000  0.84955000  1.0
  H  H19  1  0.80708000  0.20231000  0.65039000  1.0
  H  H20  1  0.61681000  0.50184000  0.58128000  1.0
  H  H21  1  0.69997000  0.99809000  0.91880000  1.0
  H  H22  1  0.38319000  0.49816000  0.41872000  1.0
  H  H23  1  0.30003000  0.00191000  0.08119000  1.0
  H  H24  1  0.54921000  0.63887000  0.46801000  1.0
  H  H25  1  0.65598000  0.86113000  0.03207000  1.0
  H  H26  1  0.45078000  0.36113000  0.53199000  1.0
  H  H27  1  0.34403000  0.13888000  0.96793000  1.0
  H  H28  1  0.17151000  0.42348000  0.91267000  1.0
  H  H29  1  0.50757000  0.07658000  0.58732000  1.0
  H  H30  1  0.82849000  0.57652000  0.08733000  1.0
  H  H31  1  0.49243000  0.92342000  0.41269000  1.0
  H  H32  1  0.33654000  0.50596000  0.85208000  1.0
  H  H33  1  0.69452000  0.99410000  0.64788000  1.0
  H  H34  1  0.66346000  0.49404000  0.14792000  1.0
  H  H35  1  0.30548000  0.00590000  0.35212000  1.0
  C  C36  1  0.06538000  0.73209000  0.96166000  1.0
  C  C37  1  0.75914000  0.76774000  0.53835000  1.0
  C  C38  1  0.93462000  0.26791000  0.03834000  1.0
  C  C39  1  0.24085000  0.23226000  0.46165000  1.0
  C  C40  1  0.10634000  0.75727000  0.06245000  1.0
  C  C41  1  0.92604000  0.74255000  0.43755000  1.0
  C  C42  1  0.89366000  0.24273000  0.93755000  1.0
  C  C43  1  0.07396000  0.25745000  0.56245000  1.0
  C  C44  1  0.30459000  0.51248000  0.14692000  1.0
  C  C45  1  0.96402000  0.98739000  0.35311000  1.0
  C  C46  1  0.69541000  0.48752000  0.85308000  1.0
  C  C47  1  0.03598000  0.01261000  0.64689000  1.0
  C  C48  1  0.30151000  0.66279000  0.09171000  1.0
  C  C49  1  0.05596000  0.83706000  0.40832000  1.0
  C  C50  1  0.69849000  0.33721000  0.90829000  1.0
  C  C51  1  0.94404000  0.16294000  0.59168000  1.0
  C  C52  1  0.31658000  0.60685000  0.60694000  1.0
  C  C53  1  0.53046000  0.89310000  0.89306000  1.0
  C  C54  1  0.68342000  0.39315000  0.39306000  1.0
  C  C55  1  0.46954000  0.10690000  0.10694000  1.0
  C  C56  1  0.50515000  0.55071000  0.52958000  1.0
  C  C57  1  0.58543000  0.94927000  0.97046000  1.0
  C  C58  1  0.49485000  0.44929000  0.47042000  1.0
  C  C59  1  0.41457000  0.05074000  0.02954000  1.0
  O  O60  1  0.16275000  0.76637000  0.86009000  1.0
  O  O61  1  0.78920000  0.73348000  0.63992000  1.0
  O  O62  1  0.83725000  0.23363000  0.13991000  1.0
  O  O63  1  0.21080000  0.26652000  0.36008000  1.0
  O  O64  1  0.93143000  0.67964000  0.97301000  1.0
  O  O65  1  0.58412000  0.82018000  0.52698000  1.0
  O  O66  1  0.06857000  0.32036000  0.02699000  1.0
  O  O67  1  0.41588000  0.17982000  0.47302000  1.0
  O  O68  1  0.30333000  0.69672000  0.66142000  1.0
  O  O69  1  0.66159000  0.80331000  0.83854000  1.0
  O  O70  1  0.69667000  0.30328000  0.33858000  1.0
  O  O71  1  0.33841000  0.19669000  0.16146000  1.0
  O  O72  1  0.16956000  0.56842000  0.62071000  1.0
  O  O73  1  0.35880000  0.93140000  0.87933000  1.0
  O  O74  1  0.83044000  0.43158000  0.37929000  1.0
  O  O75  1  0.64120000  0.06859000  0.12067000  1.0
  O  O76  1  0.15118000  0.48135000  0.16194000  1.0
  O  O77  1  0.79453000  0.01858000  0.33804000  1.0
  O  O78  1  0.84882000  0.51865000  0.83806000  1.0
  O  O79  1  0.20547000  0.98142000  0.66196000  1.0
  O  O80  1  0.22060000  0.48931000  0.84417000  1.0
  O  O81  1  0.55404000  0.01068000  0.65577000  1.0
  O  O82  1  0.77940000  0.51069000  0.15583000  1.0
  O  O83  1  0.44596000  0.98932000  0.34423000  1.0
  O  O84  1  0.46256000  0.42726000  0.17440000  1.0
  O  O85  1  0.06427000  0.07261000  0.32570000  1.0
  O  O86  1  0.53744000  0.57274000  0.82560000  1.0
  O  O87  1  0.93573000  0.92739000  0.67430000  1.0
