# generated using pymatgen
data_CuH6C10SN4
_symmetry_space_group_name_H-M   'P 1'
_cell_length_a   3.73442000
_cell_length_b   16.13520000
_cell_length_c   17.12840000
_cell_angle_alpha   113.15300000
_cell_angle_beta   94.20480000
_cell_angle_gamma   95.80240000
_symmetry_Int_Tables_number   1
_chemical_formula_structural   CuH6C10SN4
_chemical_formula_sum   'Cu4 H24 C40 S4 N16'
_cell_volume   936.85405031
_cell_formula_units_Z   4
loop_
 _symmetry_equiv_pos_site_id
 _symmetry_equiv_pos_as_xyz
  1  'x, y, z'
loop_
 _atom_site_type_symbol
 _atom_site_label
 _atom_site_symmetry_multiplicity
 _atom_site_fract_x
 _atom_site_fract_y
 _atom_site_fract_z
 _atom_site_occupancy
  Cu  Cu0  1  0.50961000  0.52823000  0.18737000  1.0
  Cu  Cu1  1  0.49036000  0.47177000  0.81262000  1.0
  Cu  Cu2  1  0.84062000  0.16482000  0.06162000  1.0
  Cu  Cu3  1  0.15937000  0.83517000  0.93839000  1.0
  H  H4  1  0.73191000  0.63079000  0.04688000  1.0
  H  H5  1  0.26810000  0.36921000  0.95311000  1.0
  H  H6  1  0.72366000  0.78426000  0.04195000  1.0
  H  H7  1  0.27641000  0.21575000  0.95806000  1.0
  H  H8  1  0.55004000  0.91029000  0.16730000  1.0
  H  H9  1  0.45005000  0.08972000  0.83271000  1.0
  H  H10  1  0.41002000  0.87993000  0.29712000  1.0
  H  H11  1  0.59004000  0.12007000  0.70289000  1.0
  H  H12  1  0.95756000  0.90729000  0.46566000  1.0
  H  H13  1  0.04238000  0.09271000  0.53433000  1.0
  H  H14  1  0.81932000  0.02162000  0.60575000  1.0
  H  H15  1  0.18065000  0.97838000  0.39425000  1.0
  H  H16  1  0.91977000  0.98790000  0.73726000  1.0
  H  H17  1  0.08026000  0.01210000  0.26274000  1.0
  H  H18  1  0.15117000  0.84391000  0.72216000  1.0
  H  H19  1  0.84885000  0.15609000  0.27784000  1.0
  H  H20  1  0.16391000  0.52821000  0.46945000  1.0
  H  H21  1  0.83608000  0.47180000  0.53055000  1.0
  H  H22  1  0.17477000  0.36102000  0.44165000  1.0
  H  H23  1  0.82521000  0.63899000  0.55836000  1.0
  H  H24  1  0.40324000  0.26269000  0.30697000  1.0
  H  H25  1  0.59676000  0.73731000  0.69304000  1.0
  H  H26  1  0.57301000  0.32851000  0.20257000  1.0
  H  H27  1  0.42700000  0.67148000  0.79743000  1.0
  C  C28  1  0.66031000  0.68804000  0.10084000  1.0
  C  C29  1  0.33973000  0.31197000  0.89917000  1.0
  C  C30  1  0.65578000  0.77343000  0.09825000  1.0
  C  C31  1  0.34427000  0.22658000  0.90175000  1.0
  C  C32  1  0.56206000  0.84387000  0.16898000  1.0
  C  C33  1  0.43800000  0.15614000  0.83103000  1.0
  C  C34  1  0.48067000  0.82715000  0.23995000  1.0
  C  C35  1  0.51937000  0.17286000  0.76005000  1.0
  C  C36  1  0.48795000  0.73939000  0.23680000  1.0
  C  C37  1  0.51206000  0.26061000  0.76320000  1.0
  C  C38  1  0.39869000  0.71535000  0.30856000  1.0
  C  C39  1  0.60131000  0.28465000  0.69144000  1.0
  C  C40  1  0.21756000  0.74909000  0.44065000  1.0
  C  C41  1  0.78243000  0.25091000  0.55934000  1.0
  C  C42  1  0.12627000  0.81709000  0.52190000  1.0
  C  C43  1  0.87371000  0.18291000  0.47810000  1.0
  C  C44  1  0.00038000  0.89697000  0.52447000  1.0
  C  C45  1  0.99957000  0.10302000  0.47553000  1.0
  C  C46  1  0.92315000  0.95968000  0.60230000  1.0
  C  C47  1  0.07682000  0.04031000  0.39770000  1.0
  C  C48  1  0.97668000  0.94121000  0.67488000  1.0
  C  C49  1  0.02334000  0.05879000  0.32512000  1.0
  C  C50  1  0.10359000  0.85971000  0.66604000  1.0
  C  C51  1  0.89642000  0.14029000  0.33395000  1.0
  C  C52  1  0.33967000  0.60667000  0.36319000  1.0
  C  C53  1  0.66031000  0.39333000  0.63680000  1.0
  C  C54  1  0.35170000  0.51136000  0.35032000  1.0
  C  C55  1  0.64828000  0.48863000  0.64967000  1.0
  C  C56  1  0.24863000  0.47997000  0.41156000  1.0
  C  C57  1  0.75136000  0.52003000  0.58844000  1.0
  C  C58  1  0.26024000  0.38903000  0.39639000  1.0
  C  C59  1  0.73975000  0.61098000  0.60361000  1.0
  C  C60  1  0.38152000  0.33365000  0.32071000  1.0
  C  C61  1  0.61847000  0.66636000  0.67930000  1.0
  C  C62  1  0.47793000  0.37017000  0.26231000  1.0
  C  C63  1  0.52206000  0.62983000  0.73769000  1.0
  C  C64  1  0.91860000  0.36608000  0.09049000  1.0
  C  C65  1  0.08134000  0.63391000  0.90950000  1.0
  C  C66  1  0.71380000  0.97736000  0.91598000  1.0
  C  C67  1  0.28621000  0.02264000  0.08403000  1.0
  S  S68  1  0.95233000  0.47383000  0.10397000  1.0
  S  S69  1  0.04763000  0.52615000  0.89601000  1.0
  S  S70  1  0.64913000  0.86560000  0.86539000  1.0
  S  S71  1  0.35085000  0.13440000  0.13462000  1.0
  N  N72  1  0.57551000  0.67081000  0.16801000  1.0
  N  N73  1  0.42450000  0.32919000  0.83199000  1.0
  N  N74  1  0.44383000  0.62998000  0.29968000  1.0
  N  N75  1  0.55615000  0.37001000  0.70031000  1.0
  N  N76  1  0.46242000  0.45737000  0.27601000  1.0
  N  N77  1  0.53757000  0.54263000  0.72399000  1.0
  N  N78  1  0.23034000  0.66380000  0.43483000  1.0
  N  N79  1  0.76965000  0.33620000  0.56517000  1.0
  N  N80  1  0.17517000  0.79832000  0.59166000  1.0
  N  N81  1  0.82482000  0.20168000  0.40834000  1.0
  N  N82  1  0.28450000  0.77664000  0.37747000  1.0
  N  N83  1  0.71549000  0.22336000  0.62253000  1.0
  N  N84  1  0.89797000  0.28857000  0.07922000  1.0
  N  N85  1  0.10199000  0.71142000  0.92078000  1.0
  N  N86  1  0.76217000  0.05733000  0.95404000  1.0
  N  N87  1  0.23784000  0.94268000  0.04597000  1.0
