# generated using pymatgen
data_Al2H13C24S2N2O10F
_symmetry_space_group_name_H-M   'P 1'
_cell_length_a   6.66475000
_cell_length_b   12.74720000
_cell_length_c   17.76680000
_cell_angle_alpha   82.73070000
_cell_angle_beta   79.99450000
_cell_angle_gamma   75.34070000
_symmetry_Int_Tables_number   1
_chemical_formula_structural   Al2H13C24S2N2O10F
_chemical_formula_sum   'Al2 H13 C24 S2 N2 O10 F1'
_cell_volume   1432.65819511
_cell_formula_units_Z   1
loop_
 _symmetry_equiv_pos_site_id
 _symmetry_equiv_pos_as_xyz
  1  'x, y, z'
loop_
 _atom_site_type_symbol
 _atom_site_label
 _atom_site_symmetry_multiplicity
 _atom_site_fract_x
 _atom_site_fract_y
 _atom_site_fract_z
 _atom_site_occupancy
  Al  Al0  1  0.49669000  0.50916000  0.50023000  1.0
  Al  Al1  1  0.99693000  0.50769000  0.49973000  1.0
  H  H2  1  0.29321000  0.37724000  0.54363000  1.0
  H  H3  1  0.70863000  0.63536000  0.44748000  1.0
  H  H4  1  0.63994000  0.55197000  0.26717000  1.0
  H  H5  1  0.72143000  0.55000000  0.12436000  1.0
  H  H6  1  0.15712000  0.44159000  0.12613000  1.0
  H  H7  1  0.89244000  0.44814000  0.88185000  1.0
  H  H8  1  0.31312000  0.56545000  0.72570000  1.0
  H  H9  1  0.23115000  0.56273000  0.86871000  1.0
  H  H10  1  0.60399000  0.14989000  0.53058000  1.0
  H  H11  1  0.98548000  0.45620000  0.32958000  1.0
  H  H12  1  0.93716000  0.42185000  0.24387000  1.0
  H  H13  1  0.05620000  0.45661000  0.67664000  1.0
  H  H14  1  0.13247000  0.43138000  0.76802000  1.0
  C  C15  1  0.84699000  0.31220000  0.49713000  1.0
  C  C16  1  0.67631000  0.50778000  0.63865000  1.0
  C  C17  1  0.14577000  0.70319000  0.50227000  1.0
  C  C18  1  0.31970000  0.50439000  0.36112000  1.0
  C  C19  1  0.35655000  0.49838000  0.27735000  1.0
  C  C20  1  0.53762000  0.52637000  0.23522000  1.0
  C  C21  1  0.58366000  0.52512000  0.15634000  1.0
  C  C22  1  0.44352000  0.49443000  0.11646000  1.0
  C  C23  1  0.26348000  0.46546000  0.15734000  1.0
  C  C24  1  0.21450000  0.46709000  0.23783000  1.0
  C  C25  1  0.48306000  0.49574000  0.03540000  1.0
  C  C26  1  0.51764000  0.49922000  0.96546000  1.0
  C  C27  1  0.55874000  0.50299000  0.88431000  1.0
  C  C28  1  0.76521000  0.47387000  0.84737000  1.0
  C  C29  1  0.81451000  0.47570000  0.76661000  1.0
  C  C30  1  0.64471000  0.50772000  0.72264000  1.0
  C  C31  1  0.43787000  0.53873000  0.76113000  1.0
  C  C32  1  0.39175000  0.53697000  0.84007000  1.0
  C  C33  1  0.21561000  0.89471000  0.48342000  1.0
  C  C34  1  0.77286000  0.12243000  0.51507000  1.0
  C  C35  1  0.08762000  0.82189000  0.50185000  1.0
  C  C36  1  0.90426000  0.19315000  0.49718000  1.0
  C  C37  1  0.88789000  0.01335000  0.51045000  1.0
  C  C38  1  0.10497000  0.00409000  0.48832000  1.0
  S  S39  1  0.82561000  0.88833000  0.52491000  1.0
  S  S40  1  0.16784000  0.12860000  0.47388000  1.0
  N  N41  1  0.03999000  0.43520000  0.27518000  1.0
  N  N42  1  0.01881000  0.44450000  0.73451000  1.0
  O  O43  1  0.65254000  0.35898000  0.50758000  1.0
  O  O44  1  0.86604000  0.49071000  0.60330000  1.0
  O  O45  1  0.99487000  0.65545000  0.51187000  1.0
  O  O46  1  0.47765000  0.49783000  0.39469000  1.0
  O  O47  1  0.34022000  0.65708000  0.49280000  1.0
  O  O48  1  0.12943000  0.51797000  0.39537000  1.0
  O  O49  1  0.99899000  0.35910000  0.48701000  1.0
  O  O50  1  0.51539000  0.52235000  0.60500000  1.0
  O  O51  1  0.25579000  0.45603000  0.53493000  1.0
  O  O52  1  0.73957000  0.55842000  0.46465000  1.0
  F  F53  1  0.42448000  0.86607000  0.46154000  1.0
