# generated using pymatgen
data_MnH12(C9N5)2
_symmetry_space_group_name_H-M   'P 1'
_cell_length_a   9.21117000
_cell_length_b   9.83644000
_cell_length_c   9.94476000
_cell_angle_alpha   89.99980000
_cell_angle_beta   89.99970000
_cell_angle_gamma   73.35700000
_symmetry_Int_Tables_number   1
_chemical_formula_structural   MnH12(C9N5)2
_chemical_formula_sum   'Mn2 H24 C36 N20'
_cell_volume   863.29946472
_cell_formula_units_Z   2
loop_
 _symmetry_equiv_pos_site_id
 _symmetry_equiv_pos_as_xyz
  1  'x, y, z'
loop_
 _atom_site_type_symbol
 _atom_site_label
 _atom_site_symmetry_multiplicity
 _atom_site_fract_x
 _atom_site_fract_y
 _atom_site_fract_z
 _atom_site_occupancy
  Mn  Mn0  1  0.00000000  0.50000000  0.50000000  1.0
  Mn  Mn1  1  0.50000000  0.00000000  0.00000000  1.0
  H  H2  1  0.41473000  0.77731000  0.45537000  1.0
  H  H3  1  0.08526000  0.72269000  0.95538000  1.0
  H  H4  1  0.58527000  0.22269000  0.54463000  1.0
  H  H5  1  0.91474000  0.27731000  0.04462000  1.0
  H  H6  1  0.23725000  0.40759000  0.76963000  1.0
  H  H7  1  0.26275000  0.09241000  0.26963000  1.0
  H  H8  1  0.76275000  0.59240000  0.23037000  1.0
  H  H9  1  0.73725000  0.90759000  0.73037000  1.0
  H  H10  1  0.46816000  0.36839000  0.90943000  1.0
  H  H11  1  0.03183000  0.13162000  0.40944000  1.0
  H  H12  1  0.53184000  0.63161000  0.09056000  1.0
  H  H13  1  0.96817000  0.86838000  0.59056000  1.0
  H  H14  1  0.65887000  0.49510000  0.86297000  1.0
  H  H15  1  0.84112000  0.00490000  0.36298000  1.0
  H  H16  1  0.34113000  0.50489000  0.13703000  1.0
  H  H17  1  0.15888000  0.99510000  0.63702000  1.0
  H  H18  1  0.62487000  0.66759000  0.67289000  1.0
  H  H19  1  0.87511000  0.83241000  0.17291000  1.0
  H  H20  1  0.37513000  0.33241000  0.32711000  1.0
  H  H21  1  0.12488000  0.16759000  0.82709000  1.0
  H  H22  1  0.16391000  0.73913000  0.37490000  1.0
  H  H23  1  0.33608000  0.76087000  0.87490000  1.0
  H  H24  1  0.83610000  0.26087000  0.62510000  1.0
  H  H25  1  0.66392000  0.23913000  0.12510000  1.0
  C  C26  1  0.30055000  0.55963000  0.64063000  1.0
  C  C27  1  0.19944000  0.94037000  0.14064000  1.0
  C  C28  1  0.69945000  0.44037000  0.35937000  1.0
  C  C29  1  0.80056000  0.05963000  0.85936000  1.0
  C  C30  1  0.32005000  0.46446000  0.74854000  1.0
  C  C31  1  0.17994000  0.03554000  0.24855000  1.0
  C  C32  1  0.67995000  0.53554000  0.25146000  1.0
  C  C33  1  0.82006000  0.96446000  0.75145000  1.0
  C  C34  1  0.45003000  0.44368000  0.82663000  1.0
  C  C35  1  0.04996000  0.05633000  0.32663000  1.0
  C  C36  1  0.54997000  0.55632000  0.17337000  1.0
  C  C37  1  0.95004000  0.94367000  0.67337000  1.0
  C  C38  1  0.55840000  0.51604000  0.79965000  1.0
  C  C39  1  0.94159000  0.98397000  0.29966000  1.0
  C  C40  1  0.44160000  0.48396000  0.20035000  1.0
  C  C41  1  0.05841000  0.01603000  0.70034000  1.0
  C  C42  1  0.54051000  0.61248000  0.69403000  1.0
  C  C43  1  0.95948000  0.88752000  0.19405000  1.0
  C  C44  1  0.45949000  0.38752000  0.30597000  1.0
  C  C45  1  0.04052000  0.11248000  0.80595000  1.0
  C  C46  1  0.41030000  0.63262000  0.61548000  1.0
  C  C47  1  0.08969000  0.86738000  0.11549000  1.0
  C  C48  1  0.58970000  0.36738000  0.38452000  1.0
  C  C49  1  0.91031000  0.13262000  0.88451000  1.0
  C  C50  1  0.22715000  0.68976000  0.46288000  1.0
  C  C51  1  0.27284000  0.81024000  0.96289000  1.0
  C  C52  1  0.77285000  0.31024000  0.53712000  1.0
  C  C53  1  0.72716000  0.18976000  0.03711000  1.0
  C  C54  1  0.06871000  0.44479000  0.19192000  1.0
  C  C55  1  0.43131000  0.05517000  0.69190000  1.0
  C  C56  1  0.93129000  0.55520000  0.80808000  1.0
  C  C57  1  0.56869000  0.94483000  0.30810000  1.0
  C  C58  1  0.21757000  0.28178000  0.04731000  1.0
  C  C59  1  0.28244000  0.21822000  0.54734000  1.0
  C  C60  1  0.78243000  0.71821000  0.95269000  1.0
  C  C61  1  0.71756000  0.78179000  0.45266000  1.0
  N  N62  1  0.18753000  0.59803000  0.54281000  1.0
  N  N63  1  0.31247000  0.90197000  0.04282000  1.0
  N  N64  1  0.81248000  0.40197000  0.45719000  1.0
  N  N65  1  0.68753000  0.09803000  0.95719000  1.0
  N  N66  1  0.35811000  0.71521000  0.50292000  1.0
  N  N67  1  0.14188000  0.78479000  0.00293000  1.0
  N  N68  1  0.64189000  0.28479000  0.49708000  1.0
  N  N69  1  0.85812000  0.21521000  0.99707000  1.0
  N  N70  1  0.08705000  0.36008000  0.08940000  1.0
  N  N71  1  0.41296000  0.13992000  0.58942000  1.0
  N  N72  1  0.91295000  0.63992000  0.91059000  1.0
  N  N73  1  0.58704000  0.86009000  0.41058000  1.0
  N  N74  1  0.03874000  0.52423000  0.28361000  1.0
  N  N75  1  0.46128000  0.97570000  0.78358000  1.0
  N  N76  1  0.96126000  0.47576000  0.71639000  1.0
  N  N77  1  0.53872000  0.02430000  0.21642000  1.0
  N  N78  1  0.32872000  0.20628000  0.99944000  1.0
  N  N79  1  0.17128000  0.29372000  0.49950000  1.0
  N  N80  1  0.67128000  0.79372000  0.00055000  1.0
  N  N81  1  0.82872000  0.70628000  0.50050000  1.0
