# generated using pymatgen
data_CuH9C13INO
_symmetry_space_group_name_H-M   'P 1'
_cell_length_a   7.16075000
_cell_length_b   9.40083000
_cell_length_c   17.37290000
_cell_angle_alpha   89.99980000
_cell_angle_beta   89.99810000
_cell_angle_gamma   97.24730000
_symmetry_Int_Tables_number   1
_chemical_formula_structural   CuH9C13INO
_chemical_formula_sum   'Cu4 H36 C52 I4 N4 O4'
_cell_volume   1160.14820547
_cell_formula_units_Z   4
loop_
 _symmetry_equiv_pos_site_id
 _symmetry_equiv_pos_as_xyz
  1  'x, y, z'
loop_
 _atom_site_type_symbol
 _atom_site_label
 _atom_site_symmetry_multiplicity
 _atom_site_fract_x
 _atom_site_fract_y
 _atom_site_fract_z
 _atom_site_occupancy
  Cu  Cu0  1  0.75612000  0.26811000  0.21335000  1.0
  Cu  Cu1  1  0.74388000  0.73189000  0.71335000  1.0
  Cu  Cu2  1  0.24387000  0.73189000  0.78665000  1.0
  Cu  Cu3  1  0.25611000  0.26812000  0.28665000  1.0
  H  H4  1  0.69552000  0.06628000  0.34429000  1.0
  H  H5  1  0.80449000  0.93372000  0.84430000  1.0
  H  H6  1  0.30448000  0.93372000  0.65571000  1.0
  H  H7  1  0.19551000  0.06629000  0.15570000  1.0
  H  H8  1  0.75540000  0.81387000  0.37069000  1.0
  H  H9  1  0.74462000  0.18613000  0.87070000  1.0
  H  H10  1  0.24462000  0.18613000  0.62931000  1.0
  H  H11  1  0.25537000  0.81388000  0.12930000  1.0
  H  H12  1  0.81860000  0.65680000  0.25856000  1.0
  H  H13  1  0.68142000  0.34321000  0.75857000  1.0
  H  H14  1  0.18142000  0.34321000  0.74144000  1.0
  H  H15  1  0.31857000  0.65679000  0.24143000  1.0
  H  H16  1  0.83974000  0.62631000  0.11803000  1.0
  H  H17  1  0.66027000  0.37369000  0.61804000  1.0
  H  H18  1  0.16026000  0.37368000  0.88197000  1.0
  H  H19  1  0.33972000  0.62631000  0.38196000  1.0
  H  H20  1  0.82668000  0.72961000  0.98552000  1.0
  H  H21  1  0.67332000  0.27040000  0.48552000  1.0
  H  H22  1  0.17332000  0.27039000  0.01449000  1.0
  H  H23  1  0.32667000  0.72960000  0.51448000  1.0
  H  H24  1  0.75153000  0.97730000  0.96822000  1.0
  H  H25  1  0.74849000  0.02271000  0.46822000  1.0
  H  H26  1  0.24847000  0.02270000  0.03178000  1.0
  H  H27  1  0.25152000  0.97730000  0.53178000  1.0
  H  H28  1  0.45620000  0.22325000  0.15028000  1.0
  H  H29  1  0.04380000  0.77674000  0.65028000  1.0
  H  H30  1  0.54379000  0.77673000  0.84972000  1.0
  H  H31  1  0.95620000  0.22326000  0.34973000  1.0
  H  H32  1  0.51841000  0.47942000  0.07660000  1.0
  H  H33  1  0.98158000  0.52057000  0.57661000  1.0
  H  H34  1  0.48157000  0.52057000  0.92340000  1.0
  H  H35  1  0.01842000  0.47943000  0.42340000  1.0
  H  H36  1  0.78676000  0.44182000  0.96565000  1.0
  H  H37  1  0.71326000  0.55818000  0.46566000  1.0
  H  H38  1  0.21323000  0.55817000  0.03435000  1.0
  H  H39  1  0.28676000  0.44182000  0.53434000  1.0
  C  C40  1  0.72064000  0.99421000  0.29712000  1.0
  C  C41  1  0.77937000  0.00578000  0.79713000  1.0
  C  C42  1  0.27936000  0.00579000  0.70288000  1.0
  C  C43  1  0.22063000  0.99422000  0.20287000  1.0
  C  C44  1  0.75450000  0.85248000  0.31162000  1.0
  C  C45  1  0.74552000  0.14751000  0.81163000  1.0
  C  C46  1  0.24552000  0.14752000  0.68838000  1.0
  C  C47  1  0.25447000  0.85249000  0.18837000  1.0
  C  C48  1  0.78741000  0.76636000  0.25025000  1.0
  C  C49  1  0.71260000  0.23364000  0.75026000  1.0
  C  C50  1  0.21260000  0.23364000  0.74975000  1.0
  C  C51  1  0.28740000  0.76637000  0.24974000  1.0
  C  C52  1  0.77773000  0.82005000  0.17436000  1.0
  C  C53  1  0.72228000  0.17994000  0.67437000  1.0
  C  C54  1  0.22227000  0.17994000  0.82564000  1.0
  C  C55  1  0.27771000  0.82006000  0.32563000  1.0
  C  C56  1  0.80886000  0.73587000  0.10904000  1.0
  C  C57  1  0.69115000  0.26412000  0.60905000  1.0
  C  C58  1  0.19114000  0.26412000  0.89096000  1.0
  C  C59  1  0.30884000  0.73588000  0.39094000  1.0
  C  C60  1  0.80103000  0.79275000  0.03615000  1.0
  C  C61  1  0.69898000  0.20725000  0.53616000  1.0
  C  C62  1  0.19897000  0.20724000  0.96385000  1.0
  C  C63  1  0.30102000  0.79275000  0.46384000  1.0
  C  C64  1  0.76012000  0.93411000  0.02606000  1.0
  C  C65  1  0.73990000  0.06589000  0.52606000  1.0
  C  C66  1  0.23988000  0.06588000  0.97394000  1.0
  C  C67  1  0.26011000  0.93412000  0.47394000  1.0
  C  C68  1  0.72744000  0.02092000  0.08826000  1.0
  C  C69  1  0.77258000  0.97909000  0.58827000  1.0
  C  C70  1  0.27257000  0.97908000  0.91174000  1.0
  C  C71  1  0.22743000  0.02091000  0.41173000  1.0
  C  C72  1  0.73905000  0.96458000  0.16449000  1.0
  C  C73  1  0.76097000  0.03541000  0.66450000  1.0
  C  C74  1  0.26095000  0.03541000  0.83551000  1.0
  C  C75  1  0.23903000  0.96459000  0.33551000  1.0
  C  C76  1  0.68655000  0.16665000  0.07522000  1.0
  C  C77  1  0.81346000  0.83335000  0.57522000  1.0
  C  C78  1  0.31345000  0.83334000  0.92478000  1.0
  C  C79  1  0.18654000  0.16665000  0.42478000  1.0
  C  C80  1  0.56716000  0.25486000  0.10879000  1.0
  C  C81  1  0.93284000  0.74514000  0.60879000  1.0
  C  C82  1  0.43283000  0.74513000  0.89121000  1.0
  C  C83  1  0.06716000  0.25487000  0.39122000  1.0
  C  C84  1  0.58992000  0.38646000  0.06604000  1.0
  C  C85  1  0.91008000  0.61353000  0.56605000  1.0
  C  C86  1  0.41006000  0.61352000  0.93396000  1.0
  C  C87  1  0.08993000  0.38647000  0.43396000  1.0
  C  C88  1  0.72066000  0.37227000  0.01049000  1.0
  C  C89  1  0.77936000  0.62773000  0.51049000  1.0
  C  C90  1  0.27934000  0.62773000  0.98951000  1.0
  C  C91  1  0.22066000  0.37227000  0.48951000  1.0
  I  I92  1  0.08695000  0.38971000  0.17876000  1.0
  I  I93  1  0.41304000  0.61030000  0.67876000  1.0
  I  I94  1  0.91304000  0.61029000  0.82123000  1.0
  I  I95  1  0.58695000  0.38972000  0.32123000  1.0
  N  N96  1  0.71850000  0.05095000  0.22687000  1.0
  N  N97  1  0.78151000  0.94905000  0.72687000  1.0
  N  N98  1  0.28150000  0.94905000  0.77313000  1.0
  N  N99  1  0.21849000  0.05096000  0.27313000  1.0
  O  O100  1  0.77959000  0.23879000  0.01458000  1.0
  O  O101  1  0.72043000  0.76123000  0.51459000  1.0
  O  O102  1  0.22041000  0.76121000  0.98542000  1.0
  O  O103  1  0.27958000  0.23878000  0.48541000  1.0
