# generated using pymatgen
data_Zn4H12C44O21F8
_symmetry_space_group_name_H-M   'P 1'
_cell_length_a   23.68306568
_cell_length_b   23.68300000
_cell_length_c   23.68110000
_cell_angle_alpha   72.85100000
_cell_angle_beta   65.76804085
_cell_angle_gamma   107.14388136
_symmetry_Int_Tables_number   1
_chemical_formula_structural   Zn4H12C44O21F8
_chemical_formula_sum   'Zn8 H24 C88 O42 F16'
_cell_volume   10170.95308088
_cell_formula_units_Z   2
loop_
 _symmetry_equiv_pos_site_id
 _symmetry_equiv_pos_as_xyz
  1  'x, y, z'
loop_
 _atom_site_type_symbol
 _atom_site_label
 _atom_site_symmetry_multiplicity
 _atom_site_fract_x
 _atom_site_fract_y
 _atom_site_fract_z
 _atom_site_occupancy
  Zn  Zn0  1  0.48462000  0.44098000  0.45858000  1.0
  Zn  Zn1  1  0.45858000  0.55901000  0.48461000  1.0
  Zn  Zn2  1  0.45637000  0.44097000  0.60044000  1.0
  Zn  Zn3  1  0.60044000  0.55902000  0.45636000  1.0
  Zn  Zn4  1  0.01539000  0.55680000  0.04363000  1.0
  Zn  Zn5  1  0.04143000  0.55682000  0.89954000  1.0
  Zn  Zn6  1  0.04363000  0.44319000  0.01539000  1.0
  Zn  Zn7  1  0.89957000  0.44320000  0.04142000  1.0
  H  H8  1  0.16022000  0.88752000  0.90646000  1.0
  H  H9  1  0.22734000  0.88757000  0.70598000  1.0
  H  H10  1  0.29706000  0.11005000  0.78962000  1.0
  H  H11  1  0.31302000  0.11009000  0.60031000  1.0
  H  H12  1  0.70602000  0.11246000  0.22729000  1.0
  H  H13  1  0.90646000  0.11246000  0.16022000  1.0
  H  H14  1  0.60034000  0.88993000  0.31298000  1.0
  H  H15  1  0.78958000  0.88991000  0.29711000  1.0
  H  H16  1  0.18700000  0.58667000  0.20292000  1.0
  H  H17  1  0.20292000  0.41332000  0.18701000  1.0
  H  H18  1  0.27266000  0.56665000  0.33980000  1.0
  H  H19  1  0.33974000  0.43330000  0.27272000  1.0
  H  H20  1  0.89968000  0.58667000  0.71038000  1.0
  H  H21  1  0.71041000  0.41332000  0.89969000  1.0
  H  H22  1  0.79399000  0.56666000  0.59354000  1.0
  H  H23  1  0.59355000  0.43331000  0.79401000  1.0
  H  H24  1  0.80765000  0.54643000  0.35453000  1.0
  H  H25  1  0.69233000  0.33782000  0.26124000  1.0
  H  H26  1  0.90097000  0.66217000  0.14548000  1.0
  H  H27  1  0.59906000  0.45358000  0.23877000  1.0
  H  H28  1  0.35448000  0.45353000  0.80770000  1.0
  H  H29  1  0.26124000  0.66218000  0.69232000  1.0
  H  H30  1  0.14545000  0.33782000  0.90099000  1.0
  H  H31  1  0.23880000  0.54645000  0.59902000  1.0
  C  C32  1  0.41060000  0.49998000  0.41063000  1.0
  C  C33  1  0.36278000  0.49997000  0.63723000  1.0
  C  C34  1  0.40947000  0.31889000  0.59056000  1.0
  C  C35  1  0.58938000  0.49999000  0.58940000  1.0
  C  C36  1  0.63721000  0.50001000  0.36278000  1.0
  C  C37  1  0.59054000  0.68110000  0.40945000  1.0
  C  C38  1  0.08941000  0.67877000  0.91060000  1.0
  C  C39  1  0.13721000  0.50001000  0.86278000  1.0
  C  C40  1  0.09054000  0.49998000  0.09057000  1.0
  C  C41  1  0.91061000  0.32122000  0.08939000  1.0
  C  C42  1  0.86280000  0.50000000  0.13722000  1.0
  C  C43  1  0.90946000  0.50001000  0.90944000  1.0
  C  C44  1  0.69549000  0.50001000  0.30451000  1.0
  C  C45  1  0.80453000  0.50001000  0.19548000  1.0
  C  C46  1  0.76601000  0.54417000  0.27643000  1.0
  C  C47  1  0.73400000  0.45757000  0.22184000  1.0
  C  C48  1  0.82060000  0.54243000  0.22358000  1.0
  C  C49  1  0.67941000  0.45584000  0.27816000  1.0
  C  C50  1  0.30452000  0.49999000  0.69549000  1.0
  C  C51  1  0.19549000  0.50001000  0.80451000  1.0
  C  C52  1  0.27641000  0.45582000  0.76603000  1.0
  C  C53  1  0.22186000  0.54244000  0.73397000  1.0
  C  C54  1  0.22356000  0.45756000  0.82061000  1.0
  C  C55  1  0.27817000  0.54416000  0.67940000  1.0
  C  C56  1  0.12691000  0.75379000  0.87309000  1.0
  C  C57  1  0.12739000  0.79172000  0.90912000  1.0
  C  C58  1  0.16203000  0.86133000  0.87547000  1.0
  C  C59  1  0.19850000  0.89699000  0.80150000  1.0
  C  C60  1  0.19933000  0.86135000  0.76317000  1.0
  C  C61  1  0.16437000  0.79175000  0.79911000  1.0
  C  C62  1  0.23402000  0.96805000  0.76598000  1.0
  C  C63  1  0.26469000  0.02938000  0.73531000  1.0
  C  C64  1  0.30025000  0.10049000  0.69975000  1.0
  C  C65  1  0.31347000  0.13618000  0.73496000  1.0
  C  C66  1  0.34854000  0.20583000  0.69903000  1.0
  C  C67  1  0.37196000  0.24388000  0.62805000  1.0
  C  C68  1  0.35734000  0.20586000  0.59512000  1.0
  C  C69  1  0.32274000  0.13620000  0.62885000  1.0
  C  C70  1  0.87311000  0.24621000  0.12688000  1.0
  C  C71  1  0.79915000  0.20826000  0.16432000  1.0
  C  C72  1  0.76319000  0.13865000  0.19930000  1.0
  C  C73  1  0.80152000  0.10302000  0.19848000  1.0
  C  C74  1  0.87548000  0.13866000  0.16202000  1.0
  C  C75  1  0.90913000  0.20827000  0.12738000  1.0
  C  C76  1  0.76598000  0.03195000  0.23402000  1.0
  C  C77  1  0.73532000  0.97062000  0.26469000  1.0
  C  C78  1  0.69976000  0.89951000  0.30025000  1.0
  C  C79  1  0.62886000  0.86381000  0.32272000  1.0
  C  C80  1  0.59514000  0.79416000  0.35730000  1.0
  C  C81  1  0.62805000  0.75612000  0.37195000  1.0
  C  C82  1  0.69900000  0.79414000  0.34856000  1.0
  C  C83  1  0.73494000  0.86380000  0.31348000  1.0
  C  C84  1  0.12806000  0.50000000  0.12806000  1.0
  C  C85  1  0.14268000  0.54754000  0.15147000  1.0
  C  C86  1  0.17727000  0.54841000  0.18654000  1.0
  C  C87  1  0.19975000  0.49999000  0.19977000  1.0
  C  C88  1  0.18653000  0.45158000  0.17728000  1.0
  C  C89  1  0.15146000  0.45244000  0.14270000  1.0
  C  C90  1  0.23531000  0.50000000  0.23531000  1.0
  C  C91  1  0.26597000  0.49999000  0.26599000  1.0
  C  C92  1  0.30150000  0.49999000  0.30152000  1.0
  C  C93  1  0.30066000  0.53748000  0.33801000  1.0
  C  C94  1  0.33563000  0.53649000  0.37264000  1.0
  C  C95  1  0.37309000  0.49998000  0.37313000  1.0
  C  C96  1  0.37258000  0.46346000  0.33568000  1.0
  C  C97  1  0.33795000  0.46248000  0.30071000  1.0
  C  C98  1  0.87196000  0.50001000  0.87192000  1.0
  C  C99  1  0.90488000  0.54756000  0.80096000  1.0
  C  C100  1  0.87115000  0.54842000  0.76504000  1.0
  C  C101  1  0.80025000  0.50000000  0.80024000  1.0
  C  C102  1  0.76506000  0.45159000  0.87115000  1.0
  C  C103  1  0.80099000  0.45245000  0.90487000  1.0
  C  C104  1  0.76469000  0.49999000  0.76469000  1.0
  C  C105  1  0.73403000  0.50000000  0.73402000  1.0
  C  C106  1  0.69849000  0.49999000  0.69850000  1.0
  C  C107  1  0.73682000  0.53749000  0.62451000  1.0
  C  C108  1  0.70086000  0.53650000  0.59087000  1.0
  C  C109  1  0.62689000  0.49999000  0.62690000  1.0
  C  C110  1  0.59088000  0.46348000  0.70087000  1.0
  C  C111  1  0.62453000  0.46249000  0.73682000  1.0
  C  C112  1  0.78552000  0.59907000  0.29604000  1.0
  C  C113  1  0.71450000  0.41844000  0.18645000  1.0
  C  C114  1  0.89511000  0.58156000  0.20397000  1.0
  C  C115  1  0.60490000  0.40094000  0.31355000  1.0
  C  C116  1  0.29601000  0.40091000  0.78556000  1.0
  C  C117  1  0.18648000  0.58156000  0.71445000  1.0
  C  C118  1  0.20393000  0.41844000  0.89513000  1.0
  C  C119  1  0.31358000  0.59906000  0.60486000  1.0
  O  O120  1  0.50000000  0.50000000  0.50000000  1.0
  O  O121  1  0.41675000  0.44760000  0.43331000  1.0
  O  O122  1  0.37186000  0.52547000  0.57682000  1.0
  O  O123  1  0.39667000  0.34794000  0.62833000  1.0
  O  O124  1  0.43328000  0.55237000  0.41677000  1.0
  O  O125  1  0.45133000  0.34795000  0.52372000  1.0
  O  O126  1  0.39766000  0.47445000  0.65367000  1.0
  O  O127  1  0.53085000  0.44760000  0.61911000  1.0
  O  O128  1  0.65364000  0.52552000  0.39768000  1.0
  O  O129  1  0.61909000  0.55238000  0.53086000  1.0
  O  O130  1  0.57682000  0.47451000  0.37186000  1.0
  O  O131  1  0.52371000  0.65204000  0.45131000  1.0
  O  O132  1  0.62831000  0.65205000  0.39664000  1.0
  O  O133  1  0.00000000  0.50000000  1.00000000  1.0
  O  O134  1  0.08327000  0.64994000  0.96913000  1.0
  O  O135  1  0.12813000  0.55133000  0.84634000  1.0
  O  O136  1  0.10334000  0.47502000  0.04871000  1.0
  O  O137  1  0.06673000  0.64996000  0.88089000  1.0
  O  O138  1  0.04868000  0.52494000  0.10338000  1.0
  O  O139  1  0.10231000  0.44868000  0.92319000  1.0
  O  O140  1  0.96914000  0.35005000  0.08324000  1.0
  O  O141  1  0.84638000  0.44869000  0.12813000  1.0
  O  O142  1  0.88091000  0.35005000  0.06670000  1.0
  O  O143  1  0.92320000  0.55132000  0.10233000  1.0
  O  O144  1  0.97629000  0.52498000  0.87165000  1.0
  O  O145  1  0.87169000  0.47504000  0.97627000  1.0
  O  O146  1  0.81036000  0.59077000  0.33843000  1.0
  O  O147  1  0.78468000  0.65098000  0.26954000  1.0
  O  O148  1  0.68965000  0.35122000  0.21960000  1.0
  O  O149  1  0.71537000  0.44579000  0.13366000  1.0
  O  O150  1  0.92920000  0.64878000  0.16158000  1.0
  O  O151  1  0.92052000  0.55421000  0.23048000  1.0
  O  O152  1  0.57082000  0.40924000  0.28040000  1.0
  O  O153  1  0.57947000  0.34902000  0.36632000  1.0
  O  O154  1  0.33839000  0.40920000  0.81041000  1.0
  O  O155  1  0.26951000  0.34899000  0.78471000  1.0
  O  O156  1  0.21963000  0.64880000  0.68959000  1.0
  O  O157  1  0.13372000  0.55423000  0.71529000  1.0
  O  O158  1  0.16154000  0.35120000  0.92923000  1.0
  O  O159  1  0.23042000  0.44577000  0.92056000  1.0
  O  O160  1  0.28044000  0.59078000  0.57078000  1.0
  O  O161  1  0.36636000  0.65097000  0.57943000  1.0
  F  F162  1  0.09100000  0.75974000  0.98035000  1.0
  F  F163  1  0.16880000  0.75979000  0.75986000  1.0
  F  F164  1  0.36188000  0.23757000  0.73452000  1.0
  F  F165  1  0.37577000  0.23762000  0.52787000  1.0
  F  F166  1  0.75990000  0.24023000  0.16872000  1.0
  F  F167  1  0.98035000  0.24024000  0.09099000  1.0
  F  F168  1  0.52791000  0.76241000  0.37570000  1.0
  F  F169  1  0.73446000  0.76237000  0.36193000  1.0
  F  F170  1  0.12427000  0.59637000  0.13813000  1.0
  F  F171  1  0.13811000  0.40361000  0.12430000  1.0
  F  F172  1  0.33121000  0.57131000  0.40904000  1.0
  F  F173  1  0.40896000  0.42862000  0.33127000  1.0
  F  F174  1  0.97212000  0.59638000  0.76545000  1.0
  F  F175  1  0.76552000  0.40362000  0.97211000  1.0
  F  F176  1  0.74010000  0.57132000  0.51965000  1.0
  F  F177  1  0.51966000  0.42865000  0.74013000  1.0
