# generated using pymatgen
data_NiH15C15(NO)5
_symmetry_space_group_name_H-M   'P 1'
_cell_length_a   9.10064000
_cell_length_b   9.83853000
_cell_length_c   10.59240000
_cell_angle_alpha   114.88700000
_cell_angle_beta   96.46960000
_cell_angle_gamma   106.61700000
_symmetry_Int_Tables_number   1
_chemical_formula_structural   NiH15C15(NO)5
_chemical_formula_sum   'Ni2 H30 C30 N10 O10'
_cell_volume   794.23713686
_cell_formula_units_Z   2
loop_
 _symmetry_equiv_pos_site_id
 _symmetry_equiv_pos_as_xyz
  1  'x, y, z'
loop_
 _atom_site_type_symbol
 _atom_site_label
 _atom_site_symmetry_multiplicity
 _atom_site_fract_x
 _atom_site_fract_y
 _atom_site_fract_z
 _atom_site_occupancy
  Ni  Ni0  1  0.24229000  0.39613000  0.23124000  1.0
  Ni  Ni1  1  0.75772000  0.60387000  0.76878000  1.0
  H  H2  1  0.13105000  0.45377000  0.94827000  1.0
  H  H3  1  0.86895000  0.54621000  0.05172000  1.0
  H  H4  1  0.28609000  0.10048000  0.97692000  1.0
  H  H5  1  0.71391000  0.89952000  0.02308000  1.0
  H  H6  1  0.11913000  0.23293000  0.67280000  1.0
  H  H7  1  0.88087000  0.76707000  0.32720000  1.0
  H  H8  1  0.09435000  0.89045000  0.61701000  1.0
  H  H9  1  0.90565000  0.10955000  0.38299000  1.0
  H  H10  1  0.27805000  0.93232000  0.73108000  1.0
  H  H11  1  0.72196000  0.06768000  0.26892000  1.0
  H  H12  1  0.30524000  0.90261000  0.49313000  1.0
  H  H13  1  0.69477000  0.09739000  0.50687000  1.0
  H  H14  1  0.23461000  0.05907000  0.51370000  1.0
  H  H15  1  0.76539000  0.94093000  0.48630000  1.0
  H  H16  1  0.43768000  0.31514000  0.58213000  1.0
  H  H17  1  0.56231000  0.68486000  0.41787000  1.0
  H  H18  1  0.82338000  0.32295000  0.85016000  1.0
  H  H19  1  0.17662000  0.67707000  0.14985000  1.0
  H  H20  1  0.56934000  0.03418000  0.75332000  1.0
  H  H21  1  0.43067000  0.96583000  0.24668000  1.0
  H  H22  1  0.64343000  0.11257000  0.01916000  1.0
  H  H23  1  0.35657000  0.88744000  0.98085000  1.0
  H  H24  1  0.93050000  0.17091000  0.02068000  1.0
  H  H25  1  0.06949000  0.82909000  0.97934000  1.0
  H  H26  1  0.07368000  0.59687000  0.40464000  1.0
  H  H27  1  0.92633000  0.40312000  0.59536000  1.0
  H  H28  1  0.15388000  0.18748000  0.31126000  1.0
  H  H29  1  0.84611000  0.81250000  0.68873000  1.0
  H  H30  1  0.25988000  0.13744000  0.20213000  1.0
  H  H31  1  0.74010000  0.86254000  0.79787000  1.0
  C  C32  1  0.15821000  0.34549000  0.91410000  1.0
  C  C33  1  0.84179000  0.65450000  0.08589000  1.0
  C  C34  1  0.24103000  0.16770000  0.93444000  1.0
  C  C35  1  0.75897000  0.83230000  0.06556000  1.0
  C  C36  1  0.15048000  0.23668000  0.77661000  1.0
  C  C37  1  0.84952000  0.76331000  0.22339000  1.0
  C  C38  1  0.21457000  0.98166000  0.67792000  1.0
  C  C39  1  0.78543000  0.01833000  0.32208000  1.0
  C  C40  1  0.29968000  0.01589000  0.57268000  1.0
  C  C41  1  0.70033000  0.98411000  0.42731000  1.0
  C  C42  1  0.51078000  0.28040000  0.64144000  1.0
  C  C43  1  0.48922000  0.71960000  0.35855000  1.0
  C  C44  1  0.70515000  0.28042000  0.78125000  1.0
  C  C45  1  0.29484000  0.71959000  0.21874000  1.0
  C  C46  1  0.58152000  0.13602000  0.73339000  1.0
  C  C47  1  0.41848000  0.86398000  0.26662000  1.0
  C  C48  1  0.52374000  0.28591000  0.22572000  1.0
  C  C49  1  0.47627000  0.71410000  0.77429000  1.0
  C  C50  1  0.69595000  0.32461000  0.22450000  1.0
  C  C51  1  0.30405000  0.67539000  0.77549000  1.0
  C  C52  1  0.73572000  0.22078000  0.10764000  1.0
  C  C53  1  0.26428000  0.77923000  0.89236000  1.0
  C  C54  1  0.89443000  0.25343000  0.10623000  1.0
  C  C55  1  0.10556000  0.74658000  0.89378000  1.0
  C  C56  1  0.97432000  0.49095000  0.32157000  1.0
  C  C57  1  0.02567000  0.50905000  0.67843000  1.0
  C  C58  1  0.81887000  0.46394000  0.33437000  1.0
  C  C59  1  0.18112000  0.53607000  0.66563000  1.0
  C  C60  1  0.79384000  0.57548000  0.47324000  1.0
  C  C61  1  0.20616000  0.42453000  0.52676000  1.0
  N  N62  1  0.21421000  0.30081000  0.01160000  1.0
  N  N63  1  0.78578000  0.69918000  0.98840000  1.0
  N  N64  1  0.20411000  0.12504000  0.79194000  1.0
  N  N65  1  0.79589000  0.87496000  0.20806000  1.0
  N  N66  1  0.45952000  0.13829000  0.64454000  1.0
  N  N67  1  0.54048000  0.86171000  0.35547000  1.0
  N  N68  1  0.65932000  0.36949000  0.72401000  1.0
  N  N69  1  0.34067000  0.63051000  0.27599000  1.0
  N  N70  1  0.01281000  0.38618000  0.21257000  1.0
  N  N71  1  0.98719000  0.61382000  0.78744000  1.0
  O  O72  1  0.47597000  0.40232000  0.25946000  1.0
  O  O73  1  0.52405000  0.59770000  0.74054000  1.0
  O  O74  1  0.44009000  0.13956000  0.18624000  1.0
  O  O75  1  0.55993000  0.86046000  0.81376000  1.0
  O  O76  1  0.72463000  0.50616000  0.53937000  1.0
  O  O77  1  0.27536000  0.49384000  0.46063000  1.0
  O  O78  1  0.85162000  0.72664000  0.51623000  1.0
  O  O79  1  0.14839000  0.27338000  0.48378000  1.0
  O  O80  1  0.15833000  0.15809000  0.20900000  1.0
  O  O81  1  0.84167000  0.84191000  0.79101000  1.0
