# generated using pymatgen
data_YbH13(C4O3)4
_symmetry_space_group_name_H-M   'P 1'
_cell_length_a   7.40218000
_cell_length_b   10.69100000
_cell_length_c   10.94210000
_cell_angle_alpha   87.28230000
_cell_angle_beta   77.79580000
_cell_angle_gamma   77.94940000
_symmetry_Int_Tables_number   1
_chemical_formula_structural   YbH13(C4O3)4
_chemical_formula_sum   'Yb2 H26 C32 O24'
_cell_volume   827.69684223
_cell_formula_units_Z   2
loop_
 _symmetry_equiv_pos_site_id
 _symmetry_equiv_pos_as_xyz
  1  'x, y, z'
loop_
 _atom_site_type_symbol
 _atom_site_label
 _atom_site_symmetry_multiplicity
 _atom_site_fract_x
 _atom_site_fract_y
 _atom_site_fract_z
 _atom_site_occupancy
  Yb  Yb0  1  0.16897000  0.24018000  0.93308000  1.0
  Yb  Yb1  1  0.83102000  0.75982000  0.06692000  1.0
  H  H2  1  0.32598000  0.16546000  0.34795000  1.0
  H  H3  1  0.67402000  0.83454000  0.65205000  1.0
  H  H4  1  0.34365000  0.03819000  0.54532000  1.0
  H  H5  1  0.65636000  0.96180000  0.45467000  1.0
  H  H6  1  0.22421000  0.83647000  0.57421000  1.0
  H  H7  1  0.77579000  0.16352000  0.42578000  1.0
  H  H8  1  0.28923000  0.61154000  0.25645000  1.0
  H  H9  1  0.71077000  0.38846000  0.74355000  1.0
  H  H10  1  0.43294000  0.29675000  0.50703000  1.0
  H  H11  1  0.56707000  0.70325000  0.49298000  1.0
  H  H12  1  0.01922000  0.63298000  0.64529000  1.0
  H  H13  1  0.98079000  0.36703000  0.35471000  1.0
  H  H14  1  0.68837000  0.23029000  0.20160000  1.0
  H  H15  1  0.31162000  0.76970000  0.79840000  1.0
  H  H16  1  0.37563000  0.39071000  0.04733000  1.0
  H  H17  1  0.62437000  0.60929000  0.95267000  1.0
  H  H18  1  0.40856000  0.44346000  0.90957000  1.0
  H  H19  1  0.59145000  0.55654000  0.09044000  1.0
  H  H20  1  0.95450000  0.42601000  0.12483000  1.0
  H  H21  1  0.04550000  0.57399000  0.87517000  1.0
  H  H22  1  0.83507000  0.41826000  0.02627000  1.0
  H  H23  1  0.16493000  0.58174000  0.97374000  1.0
  H  H24  1  0.51779000  0.08469000  0.81728000  1.0
  H  H25  1  0.48221000  0.91531000  0.18272000  1.0
  H  H26  1  0.58856000  0.14994000  0.91712000  1.0
  H  H27  1  0.41143000  0.85006000  0.08288000  1.0
  C  C28  1  0.17802000  0.11721000  0.15663000  1.0
  C  C29  1  0.82197000  0.88279000  0.84337000  1.0
  C  C30  1  0.18392000  0.04055000  0.27420000  1.0
  C  C31  1  0.81607000  0.95945000  0.72580000  1.0
  C  C32  1  0.27083000  0.07826000  0.36426000  1.0
  C  C33  1  0.72916000  0.92174000  0.63574000  1.0
  C  C34  1  0.28501000  0.00576000  0.47218000  1.0
  C  C35  1  0.71499000  0.99423000  0.52782000  1.0
  C  C36  1  0.21556000  0.89348000  0.48986000  1.0
  C  C37  1  0.78445000  0.10651000  0.51014000  1.0
  C  C38  1  0.12706000  0.85649000  0.40111000  1.0
  C  C39  1  0.87294000  0.14350000  0.59889000  1.0
  C  C40  1  0.10895000  0.92846000  0.29246000  1.0
  C  C41  1  0.89105000  0.07154000  0.70753000  1.0
  C  C42  1  0.01374000  0.88067000  0.20045000  1.0
  C  C43  1  0.98626000  0.11933000  0.79955000  1.0
  C  C44  1  0.15118000  0.63535000  0.44919000  1.0
  C  C45  1  0.84882000  0.36465000  0.55080000  1.0
  C  C46  1  0.27676000  0.56876000  0.34934000  1.0
  C  C47  1  0.72325000  0.43124000  0.65065000  1.0
  C  C48  1  0.37827000  0.44592000  0.36935000  1.0
  C  C49  1  0.62173000  0.55409000  0.63064000  1.0
  C  C50  1  0.35515000  0.39166000  0.48913000  1.0
  C  C51  1  0.64486000  0.60834000  0.51087000  1.0
  C  C52  1  0.22680000  0.45912000  0.58837000  1.0
  C  C53  1  0.77320000  0.54089000  0.41163000  1.0
  C  C54  1  0.12310000  0.58146000  0.56880000  1.0
  C  C55  1  0.87691000  0.41854000  0.43120000  1.0
  C  C56  1  0.50212000  0.37737000  0.25922000  1.0
  C  C57  1  0.49789000  0.62263000  0.74077000  1.0
  C  C58  1  0.20042000  0.39525000  0.71383000  1.0
  C  C59  1  0.79958000  0.60476000  0.28617000  1.0
  O  O60  1  0.24639000  0.21859000  0.14015000  1.0
  O  O61  1  0.75360000  0.78142000  0.85986000  1.0
  O  O62  1  0.10670000  0.07846000  0.07246000  1.0
  O  O63  1  0.89329000  0.92154000  0.92754000  1.0
  O  O64  1  0.83766000  0.91934000  0.20694000  1.0
  O  O65  1  0.16234000  0.08065000  0.79306000  1.0
  O  O66  1  0.11212000  0.79208000  0.12465000  1.0
  O  O67  1  0.88789000  0.20793000  0.87534000  1.0
  O  O68  1  0.03974000  0.75162000  0.42478000  1.0
  O  O69  1  0.96026000  0.24838000  0.57521000  1.0
  O  O70  1  0.51005000  0.42058000  0.15134000  1.0
  O  O71  1  0.48996000  0.57942000  0.84866000  1.0
  O  O72  1  0.60797000  0.26443000  0.28152000  1.0
  O  O73  1  0.39202000  0.73557000  0.71849000  1.0
  O  O74  1  0.05803000  0.43875000  0.80092000  1.0
  O  O75  1  0.94198000  0.56125000  0.19908000  1.0
  O  O76  1  0.32124000  0.29624000  0.73121000  1.0
  O  O77  1  0.67875000  0.70375000  0.26878000  1.0
  O  O78  1  0.32310000  0.40064000  0.97091000  1.0
  O  O79  1  0.67690000  0.59936000  0.02909000  1.0
  O  O80  1  0.92671000  0.36387000  0.06907000  1.0
  O  O81  1  0.07329000  0.63613000  0.93093000  1.0
  O  O82  1  0.47829000  0.12141000  0.90112000  1.0
  O  O83  1  0.52170000  0.87859000  0.09889000  1.0
