# generated using pymatgen
data_CdH6(C3O)4
_symmetry_space_group_name_H-M   'P 1'
_cell_length_a   7.19578000
_cell_length_b   7.25274000
_cell_length_c   18.85870000
_cell_angle_alpha   84.68170000
_cell_angle_beta   89.99740000
_cell_angle_gamma   89.99880000
_symmetry_Int_Tables_number   1
_chemical_formula_structural   CdH6(C3O)4
_chemical_formula_sum   'Cd4 H24 C48 O16'
_cell_volume   979.98206296
_cell_formula_units_Z   4
loop_
 _symmetry_equiv_pos_site_id
 _symmetry_equiv_pos_as_xyz
  1  'x, y, z'
loop_
 _atom_site_type_symbol
 _atom_site_label
 _atom_site_symmetry_multiplicity
 _atom_site_fract_x
 _atom_site_fract_y
 _atom_site_fract_z
 _atom_site_occupancy
  Cd  Cd0  1  0.15736000  0.65278000  0.54960000  1.0
  Cd  Cd1  1  0.65738000  0.84722000  0.45039000  1.0
  Cd  Cd2  1  0.84263000  0.34722000  0.45040000  1.0
  Cd  Cd3  1  0.34260000  0.15278000  0.54961000  1.0
  H  H4  1  0.13812000  0.52174000  0.29935000  1.0
  H  H5  1  0.63809000  0.97827000  0.70064000  1.0
  H  H6  1  0.86189000  0.47826000  0.70065000  1.0
  H  H7  1  0.36190000  0.02174000  0.29936000  1.0
  H  H8  1  0.14353000  0.43161000  0.17609000  1.0
  H  H9  1  0.64351000  0.06839000  0.82391000  1.0
  H  H10  1  0.85648000  0.56839000  0.82392000  1.0
  H  H11  1  0.35650000  0.93161000  0.17609000  1.0
  H  H12  1  0.08461000  0.50831000  0.04750000  1.0
  H  H13  1  0.58459000  0.99167000  0.95249000  1.0
  H  H14  1  0.91542000  0.49169000  0.95250000  1.0
  H  H15  1  0.41542000  0.00833000  0.04751000  1.0
  H  H16  1  0.93934000  0.81135000  0.00371000  1.0
  H  H17  1  0.43933000  0.68864000  0.99629000  1.0
  H  H18  1  0.06068000  0.18865000  0.99629000  1.0
  H  H19  1  0.56068000  0.31136000  0.00371000  1.0
  H  H20  1  0.86417000  0.04151000  0.08914000  1.0
  H  H21  1  0.36416000  0.45849000  0.91085000  1.0
  H  H22  1  0.13583000  0.95849000  0.91085000  1.0
  H  H23  1  0.63585000  0.54151000  0.08915000  1.0
  H  H24  1  0.87234000  0.13658000  0.21281000  1.0
  H  H25  1  0.37231000  0.36343000  0.78719000  1.0
  H  H26  1  0.12765000  0.86341000  0.78719000  1.0
  H  H27  1  0.62769000  0.63657000  0.21281000  1.0
  C  C28  1  0.10096000  0.74493000  0.40419000  1.0
  C  C29  1  0.60096000  0.75508000  0.59580000  1.0
  C  C30  1  0.89903000  0.25507000  0.59581000  1.0
  C  C31  1  0.39904000  0.24493000  0.40420000  1.0
  C  C32  1  0.05046000  0.78810000  0.32724000  1.0
  C  C33  1  0.55044000  0.71192000  0.67275000  1.0
  C  C34  1  0.94953000  0.21190000  0.67276000  1.0
  C  C35  1  0.44955000  0.28809000  0.32725000  1.0
  C  C36  1  0.08343000  0.65722000  0.28016000  1.0
  C  C37  1  0.58342000  0.84278000  0.71983000  1.0
  C  C38  1  0.91657000  0.34277000  0.71984000  1.0
  C  C39  1  0.41658000  0.15722000  0.28017000  1.0
  C  C40  1  0.04471000  0.69516000  0.20652000  1.0
  C  C41  1  0.54469000  0.80484000  0.79347000  1.0
  C  C42  1  0.95529000  0.30484000  0.79348000  1.0
  C  C43  1  0.45531000  0.19516000  0.20653000  1.0
  C  C44  1  0.08391000  0.56507000  0.15681000  1.0
  C  C45  1  0.58388000  0.93493000  0.84319000  1.0
  C  C46  1  0.91610000  0.43493000  0.84319000  1.0
  C  C47  1  0.41612000  0.06507000  0.15681000  1.0
  C  C48  1  0.04946000  0.60804000  0.08521000  1.0
  C  C49  1  0.54945000  0.89195000  0.91478000  1.0
  C  C50  1  0.95056000  0.39195000  0.91479000  1.0
  C  C51  1  0.45056000  0.10806000  0.08522000  1.0
  C  C52  1  0.96887000  0.78028000  0.06031000  1.0
  C  C53  1  0.46886000  0.71971000  0.93969000  1.0
  C  C54  1  0.03115000  0.21972000  0.93969000  1.0
  C  C55  1  0.53115000  0.28029000  0.06031000  1.0
  C  C56  1  0.92730000  0.90881000  0.10752000  1.0
  C  C57  1  0.42729000  0.59119000  0.89247000  1.0
  C  C58  1  0.07271000  0.09119000  0.89248000  1.0
  C  C59  1  0.57272000  0.40881000  0.10753000  1.0
  C  C60  1  0.96660000  0.87122000  0.18124000  1.0
  C  C61  1  0.46658000  0.62878000  0.81875000  1.0
  C  C62  1  0.03340000  0.12877000  0.81876000  1.0
  C  C63  1  0.53343000  0.37122000  0.18125000  1.0
  C  C64  1  0.93314000  0.00262000  0.23068000  1.0
  C  C65  1  0.43312000  0.49739000  0.76931000  1.0
  C  C66  1  0.06685000  0.99737000  0.76932000  1.0
  C  C67  1  0.56688000  0.50262000  0.23069000  1.0
  C  C68  1  0.97353000  0.96376000  0.30217000  1.0
  C  C69  1  0.47350000  0.53626000  0.69782000  1.0
  C  C70  1  0.02647000  0.03624000  0.69783000  1.0
  C  C71  1  0.52649000  0.46374000  0.30218000  1.0
  C  C72  1  0.92587000  0.10240000  0.35251000  1.0
  C  C73  1  0.42585000  0.39762000  0.64748000  1.0
  C  C74  1  0.07411000  0.89760000  0.64749000  1.0
  C  C75  1  0.57414000  0.60238000  0.35252000  1.0
  O  O76  1  0.98572000  0.64542000  0.44451000  1.0
  O  O77  1  0.48571000  0.85458000  0.55548000  1.0
  O  O78  1  0.01428000  0.35456000  0.55549000  1.0
  O  O79  1  0.51428000  0.14543000  0.44452000  1.0
  O  O80  1  0.25005000  0.80219000  0.42866000  1.0
  O  O81  1  0.75005000  0.69783000  0.57133000  1.0
  O  O82  1  0.74994000  0.19782000  0.57134000  1.0
  O  O83  1  0.24994000  0.30216000  0.42867000  1.0
  O  O84  1  0.89952000  0.04340000  0.41918000  1.0
  O  O85  1  0.39951000  0.45662000  0.58081000  1.0
  O  O86  1  0.10047000  0.95659000  0.58082000  1.0
  O  O87  1  0.60048000  0.54339000  0.41919000  1.0
  O  O88  1  0.91051000  0.27185000  0.33185000  1.0
  O  O89  1  0.41048000  0.22818000  0.66814000  1.0
  O  O90  1  0.08947000  0.72815000  0.66815000  1.0
  O  O91  1  0.58951000  0.77183000  0.33186000  1.0
