# generated using pymatgen
data_ZnH16C14N6(ClO)2
_symmetry_space_group_name_H-M   'P 1'
_cell_length_a   5.56307000
_cell_length_b   9.35591523
_cell_length_c   19.73210000
_cell_angle_alpha   95.24119117
_cell_angle_beta   98.09330000
_cell_angle_gamma   107.28512898
_symmetry_Int_Tables_number   1
_chemical_formula_structural   ZnH16C14N6(ClO)2
_chemical_formula_sum   'Zn2 H32 C28 N12 Cl4 O4'
_cell_volume   961.17696254
_cell_formula_units_Z   2
loop_
 _symmetry_equiv_pos_site_id
 _symmetry_equiv_pos_as_xyz
  1  'x, y, z'
loop_
 _atom_site_type_symbol
 _atom_site_label
 _atom_site_symmetry_multiplicity
 _atom_site_fract_x
 _atom_site_fract_y
 _atom_site_fract_z
 _atom_site_occupancy
  Zn  Zn0  1  0.77440000  0.75015000  0.75003000  1.0
  Zn  Zn1  1  0.22561000  0.24985000  0.24998000  1.0
  H  H2  1  0.24690000  0.64121000  0.67282000  1.0
  H  H3  1  0.43302000  0.85892000  0.82730000  1.0
  H  H4  1  0.75311000  0.35880000  0.32718000  1.0
  H  H5  1  0.56699000  0.14108000  0.17270000  1.0
  H  H6  1  0.95825000  0.73655000  0.59132000  1.0
  H  H7  1  0.13045000  0.76336000  0.90877000  1.0
  H  H8  1  0.04175000  0.26345000  0.40868000  1.0
  H  H9  1  0.86958000  0.23665000  0.09123000  1.0
  H  H10  1  0.13027000  0.98486000  0.55261000  1.0
  H  H11  1  0.09414000  0.51536000  0.94768000  1.0
  H  H12  1  0.86977000  0.01515000  0.44740000  1.0
  H  H13  1  0.90587000  0.48465000  0.05233000  1.0
  H  H14  1  0.85507000  0.03096000  0.68143000  1.0
  H  H15  1  0.64357000  0.46934000  0.81865000  1.0
  H  H16  1  0.14497000  0.96904000  0.31857000  1.0
  H  H17  1  0.35639000  0.53064000  0.18135000  1.0
  H  H18  1  0.80213000  0.22802000  0.62320000  1.0
  H  H19  1  0.45228000  0.27226000  0.87708000  1.0
  H  H20  1  0.19791000  0.77199000  0.37679000  1.0
  H  H21  1  0.54767000  0.72772000  0.12292000  1.0
  H  H22  1  0.78403000  0.44212000  0.58811000  1.0
  H  H23  1  0.25390000  0.05796000  0.91187000  1.0
  H  H24  1  0.21599000  0.55789000  0.41189000  1.0
  H  H25  1  0.74602000  0.94203000  0.08813000  1.0
  H  H26  1  0.54192000  0.39835000  0.44010000  1.0
  H  H27  1  0.20342000  0.10159000  0.05989000  1.0
  H  H28  1  0.45810000  0.60166000  0.55990000  1.0
  H  H29  1  0.79651000  0.89842000  0.94012000  1.0
  H  H30  1  0.77450000  0.56530000  0.48635000  1.0
  H  H31  1  0.22272000  0.93459000  0.01361000  1.0
  H  H32  1  0.22548000  0.43468000  0.51364000  1.0
  H  H33  1  0.77722000  0.06540000  0.98640000  1.0
  C  C34  1  0.31603000  0.74971000  0.65450000  1.0
  C  C35  1  0.41222000  0.75045000  0.84564000  1.0
  C  C36  1  0.68399000  0.25029000  0.34551000  1.0
  C  C37  1  0.58779000  0.24954000  0.15436000  1.0
  C  C38  1  0.15774000  0.80298000  0.60954000  1.0
  C  C39  1  0.24572000  0.69713000  0.89062000  1.0
  C  C40  1  0.84230000  0.19702000  0.39046000  1.0
  C  C41  1  0.75428000  0.30287000  0.10939000  1.0
  C  C42  1  0.25207000  0.94320000  0.58817000  1.0
  C  C43  1  0.22172000  0.55704000  0.91206000  1.0
  C  C44  1  0.74797000  0.05681000  0.41183000  1.0
  C  C45  1  0.77828000  0.44297000  0.08795000  1.0
  C  C46  1  0.50902000  0.02883000  0.61297000  1.0
  C  C47  1  0.36844000  0.47149000  0.88726000  1.0
  C  C48  1  0.49101000  0.97118000  0.38703000  1.0
  C  C49  1  0.63155000  0.52851000  0.11274000  1.0
  C  C50  1  0.65571000  0.96888000  0.65928000  1.0
  C  C51  1  0.52852000  0.53139000  0.84087000  1.0
  C  C52  1  0.34430000  0.03111000  0.34072000  1.0
  C  C53  1  0.47148000  0.46860000  0.15913000  1.0
  C  C54  1  0.53344000  0.23779000  0.54200000  1.0
  C  C55  1  0.25402000  0.26228000  0.95809000  1.0
  C  C56  1  0.46657000  0.76219000  0.45799000  1.0
  C  C57  1  0.74595000  0.73771000  0.04191000  1.0
  C  C58  1  0.60725000  0.47021000  0.49048000  1.0
  C  C59  1  0.14649000  0.02977000  0.00949000  1.0
  C  C60  1  0.39279000  0.52981000  0.50950000  1.0
  C  C61  1  0.85344000  0.97023000  0.99050000  1.0
  N  N62  1  0.56088000  0.83311000  0.67919000  1.0
  N  N63  1  0.54927000  0.66716000  0.82097000  1.0
  N  N64  1  0.43913000  0.16688000  0.32081000  1.0
  N  N65  1  0.45072000  0.33282000  0.17903000  1.0
  N  N66  1  0.62594000  0.17021000  0.59551000  1.0
  N  N67  1  0.36164000  0.33014000  0.90478000  1.0
  N  N68  1  0.37410000  0.82980000  0.40449000  1.0
  N  N69  1  0.63832000  0.66985000  0.09523000  1.0
  N  N70  1  0.68720000  0.38254000  0.54106000  1.0
  N  N71  1  0.26355000  0.11742000  0.95894000  1.0
  N  N72  1  0.31282000  0.61747000  0.45894000  1.0
  N  N73  1  0.73637000  0.88256000  0.04106000  1.0
  Cl  Cl74  1  0.08328000  0.97197000  0.79482000  1.0
  Cl  Cl75  1  0.81623000  0.52823000  0.70513000  1.0
  Cl  Cl76  1  0.91675000  0.02803000  0.20518000  1.0
  Cl  Cl77  1  0.18379000  0.47177000  0.29487000  1.0
  O  O78  1  0.33809000  0.17230000  0.49868000  1.0
  O  O79  1  0.16703000  0.32766000  0.00136000  1.0
  O  O80  1  0.66194000  0.82771000  0.50132000  1.0
  O  O81  1  0.83295000  0.67235000  0.99865000  1.0
