# generated using pymatgen
data_CuH6C15NO8F
_symmetry_space_group_name_H-M   'P 1'
_cell_length_a   10.57770000
_cell_length_b   11.42140000
_cell_length_c   14.32180000
_cell_angle_alpha   89.99600000
_cell_angle_beta   71.22700000
_cell_angle_gamma   89.95060000
_symmetry_Int_Tables_number   1
_chemical_formula_structural   CuH6C15NO8F
_chemical_formula_sum   'Cu4 H24 C60 N4 O32 F4'
_cell_volume   1638.19930268
_cell_formula_units_Z   4
loop_
 _symmetry_equiv_pos_site_id
 _symmetry_equiv_pos_as_xyz
  1  'x, y, z'
loop_
 _atom_site_type_symbol
 _atom_site_label
 _atom_site_symmetry_multiplicity
 _atom_site_fract_x
 _atom_site_fract_y
 _atom_site_fract_z
 _atom_site_occupancy
  Cu  Cu0  1  0.90724000  0.92126000  0.51123000  1.0
  Cu  Cu1  1  0.09198000  0.42199000  0.98883000  1.0
  Cu  Cu2  1  0.09271000  0.07870000  0.48877000  1.0
  Cu  Cu3  1  0.90802000  0.57802000  0.01117000  1.0
  H  H4  1  0.03499000  0.72215000  0.72151000  1.0
  H  H5  1  0.96503000  0.22213000  0.77842000  1.0
  H  H6  1  0.96502000  0.27785000  0.27848000  1.0
  H  H7  1  0.03498000  0.77787000  0.22158000  1.0
  H  H8  1  0.41028000  0.82364000  0.51047000  1.0
  H  H9  1  0.58966000  0.32358000  0.98951000  1.0
  H  H10  1  0.58973000  0.17636000  0.48953000  1.0
  H  H11  1  0.41035000  0.67642000  0.01048000  1.0
  H  H12  1  0.39802000  0.55901000  0.72913000  1.0
  H  H13  1  0.60215000  0.05898000  0.77084000  1.0
  H  H14  1  0.60198000  0.44099000  0.27088000  1.0
  H  H15  1  0.39784000  0.94101000  0.22917000  1.0
  H  H16  1  0.57082000  0.48260000  0.57270000  1.0
  H  H17  1  0.42932000  0.98250000  0.92726000  1.0
  H  H18  1  0.42919000  0.51740000  0.42730000  1.0
  H  H19  1  0.57068000  0.01750000  0.07274000  1.0
  H  H20  1  0.60797000  0.86082000  0.56616000  1.0
  H  H21  1  0.39185000  0.36076000  0.93388000  1.0
  H  H22  1  0.39203000  0.13918000  0.43384000  1.0
  H  H23  1  0.60815000  0.63925000  0.06612000  1.0
  H  H24  1  0.95248000  0.65802000  0.47801000  1.0
  H  H25  1  0.04752000  0.15818000  0.02199000  1.0
  H  H26  1  0.04753000  0.34198000  0.52199000  1.0
  H  H27  1  0.95248000  0.84183000  0.97801000  1.0
  C  C28  1  0.14204000  0.86424000  0.56726000  1.0
  C  C29  1  0.85771000  0.36385000  0.93261000  1.0
  C  C30  1  0.85797000  0.13576000  0.43274000  1.0
  C  C31  1  0.14229000  0.63615000  0.06739000  1.0
  C  C32  1  0.21580000  0.77962000  0.61052000  1.0
  C  C33  1  0.78409000  0.27954000  0.88934000  1.0
  C  C34  1  0.78421000  0.22038000  0.38948000  1.0
  C  C35  1  0.21591000  0.72048000  0.11064000  1.0
  C  C36  1  0.20923000  0.63410000  0.73414000  1.0
  C  C37  1  0.79096000  0.13384000  0.76580000  1.0
  C  C38  1  0.79077000  0.36592000  0.26587000  1.0
  C  C39  1  0.20904000  0.86615000  0.23421000  1.0
  C  C40  1  0.14278000  0.71217000  0.69099000  1.0
  C  C41  1  0.85728000  0.21200000  0.80890000  1.0
  C  C42  1  0.85723000  0.28784000  0.30901000  1.0
  C  C43  1  0.14273000  0.78800000  0.19109000  1.0
  C  C44  1  0.35474000  0.76911000  0.57265000  1.0
  C  C45  1  0.64517000  0.26908000  0.92727000  1.0
  C  C46  1  0.64526000  0.23089000  0.42734000  1.0
  C  C47  1  0.35483000  0.73093000  0.07272000  1.0
  C  C48  1  0.34741000  0.61935000  0.69401000  1.0
  C  C49  1  0.65277000  0.11923000  0.80597000  1.0
  C  C50  1  0.65259000  0.38067000  0.30601000  1.0
  C  C51  1  0.34724000  0.88075000  0.19403000  1.0
  C  C52  1  0.42105000  0.68675000  0.61289000  1.0
  C  C53  1  0.57895000  0.18671000  0.88707000  1.0
  C  C54  1  0.57896000  0.31325000  0.38712000  1.0
  C  C55  1  0.42105000  0.81329000  0.11293000  1.0
  C  C56  1  0.13219000  0.57378000  0.82764000  1.0
  C  C57  1  0.86788000  0.07358000  0.67193000  1.0
  C  C58  1  0.86781000  0.42622000  0.17235000  1.0
  C  C59  1  0.13213000  0.92643000  0.32806000  1.0
  C  C60  1  0.56749000  0.67382000  0.57331000  1.0
  C  C61  1  0.43250000  0.17377000  0.92664000  1.0
  C  C62  1  0.43251000  0.32618000  0.42669000  1.0
  C  C63  1  0.56750000  0.82623000  0.07336000  1.0
  C  C64  1  0.62883000  0.56330000  0.55778000  1.0
  C  C65  1  0.37127000  0.06326000  0.94218000  1.0
  C  C66  1  0.37117000  0.43670000  0.44222000  1.0
  C  C67  1  0.62873000  0.93674000  0.05782000  1.0
  C  C68  1  0.65035000  0.77279000  0.55313000  1.0
  C  C69  1  0.34950000  0.27278000  0.94689000  1.0
  C  C70  1  0.34965000  0.22721000  0.44688000  1.0
  C  C71  1  0.65050000  0.72722000  0.05311000  1.0
  C  C72  1  0.76724000  0.55914000  0.52226000  1.0
  C  C73  1  0.23285000  0.05925000  0.97772000  1.0
  C  C74  1  0.23276000  0.44087000  0.47774000  1.0
  C  C75  1  0.76715000  0.94075000  0.02228000  1.0
  C  C76  1  0.84368000  0.66078000  0.50420000  1.0
  C  C77  1  0.15632000  0.16095000  0.99578000  1.0
  C  C78  1  0.15632000  0.33923000  0.49580000  1.0
  C  C79  1  0.84368000  0.83905000  0.00422000  1.0
  C  C80  1  0.32274000  0.30211000  0.70361000  1.0
  C  C81  1  0.67725000  0.80211000  0.79639000  1.0
  C  C82  1  0.67726000  0.69789000  0.29639000  1.0
  C  C83  1  0.32274000  0.19789000  0.20361000  1.0
  C  C84  1  0.24098000  0.01174000  0.73964000  1.0
  C  C85  1  0.75902000  0.51175000  0.76035000  1.0
  C  C86  1  0.75902000  0.98825000  0.26036000  1.0
  C  C87  1  0.24098000  0.48826000  0.23965000  1.0
  N  N88  1  0.78391000  0.76597000  0.52065000  1.0
  N  N89  1  0.21594000  0.26611000  0.97937000  1.0
  N  N90  1  0.21609000  0.23404000  0.47935000  1.0
  N  N91  1  0.78406000  0.73389000  0.02063000  1.0
  O  O92  1  0.02961000  0.82904000  0.56384000  1.0
  O  O93  1  0.97016000  0.32874000  0.93629000  1.0
  O  O94  1  0.97040000  0.17095000  0.43615000  1.0
  O  O95  1  0.02985000  0.67125000  0.06371000  1.0
  O  O96  1  0.19672000  0.96339000  0.53970000  1.0
  O  O97  1  0.80334000  0.46323000  0.96038000  1.0
  O  O98  1  0.80326000  0.03662000  0.46033000  1.0
  O  O99  1  0.19666000  0.53675000  0.03964000  1.0
  O  O100  1  0.01938000  0.61885000  0.87437000  1.0
  O  O101  1  0.98041000  0.11891000  0.62534000  1.0
  O  O102  1  0.98062000  0.38115000  0.12563000  1.0
  O  O103  1  0.01958000  0.88108000  0.37466000  1.0
  O  O104  1  0.18611000  0.48550000  0.85454000  1.0
  O  O105  1  0.81341000  0.98569000  0.64525000  1.0
  O  O106  1  0.81387000  0.51446000  0.14544000  1.0
  O  O107  1  0.18656000  0.01434000  0.35473000  1.0
  O  O108  1  0.43433000  0.32965000  0.69085000  1.0
  O  O109  1  0.56561000  0.82967000  0.80915000  1.0
  O  O110  1  0.56567000  0.67035000  0.30915000  1.0
  O  O111  1  0.43438000  0.17033000  0.19084000  1.0
  O  O112  1  0.21240000  0.27295000  0.71491000  1.0
  O  O113  1  0.78764000  0.77294000  0.78506000  1.0
  O  O114  1  0.78760000  0.72704000  0.28510000  1.0
  O  O115  1  0.21235000  0.22707000  0.21492000  1.0
  O  O116  1  0.35550000  0.02995000  0.70045000  1.0
  O  O117  1  0.64447000  0.52999000  0.79957000  1.0
  O  O118  1  0.64450000  0.97004000  0.29956000  1.0
  O  O119  1  0.35553000  0.47001000  0.20043000  1.0
  O  O120  1  0.12731000  0.99362000  0.78057000  1.0
  O  O121  1  0.87272000  0.49361000  0.71940000  1.0
  O  O122  1  0.87269000  0.00638000  0.21943000  1.0
  O  O123  1  0.12728000  0.50640000  0.28060000  1.0
  F  F124  1  0.82992000  0.45360000  0.50563000  1.0
  F  F125  1  0.17027000  0.95375000  0.99433000  1.0
  F  F126  1  0.17008000  0.54641000  0.49437000  1.0
  F  F127  1  0.82973000  0.04625000  0.00567000  1.0
