# generated using pymatgen
data_CdH13C18N3O4
_symmetry_space_group_name_H-M   'P 1'
_cell_length_a   11.78980000
_cell_length_b   14.24860000
_cell_length_c   17.46500000
_cell_angle_alpha   90.00020000
_cell_angle_beta   89.99950000
_cell_angle_gamma   90.00000000
_symmetry_Int_Tables_number   1
_chemical_formula_structural   CdH13C18N3O4
_chemical_formula_sum   'Cd4 H52 C72 N12 O16'
_cell_volume   2933.91293972
_cell_formula_units_Z   4
loop_
 _symmetry_equiv_pos_site_id
 _symmetry_equiv_pos_as_xyz
  1  'x, y, z'
loop_
 _atom_site_type_symbol
 _atom_site_label
 _atom_site_symmetry_multiplicity
 _atom_site_fract_x
 _atom_site_fract_y
 _atom_site_fract_z
 _atom_site_occupancy
  Cd  Cd0  1  0.98405000  0.36366000  0.98438000  1.0
  Cd  Cd1  1  0.98404000  0.63635000  0.01561000  1.0
  Cd  Cd2  1  0.01595000  0.86365000  0.51562000  1.0
  Cd  Cd3  1  0.01595000  0.13634000  0.48438000  1.0
  H  H4  1  0.78166000  0.37445000  0.86590000  1.0
  H  H5  1  0.78166000  0.62555000  0.13410000  1.0
  H  H6  1  0.21834000  0.87445000  0.63410000  1.0
  H  H7  1  0.21834000  0.12555000  0.36590000  1.0
  H  H8  1  0.77345000  0.36822000  0.10254000  1.0
  H  H9  1  0.77346000  0.63178000  0.89746000  1.0
  H  H10  1  0.22654000  0.86822000  0.39746000  1.0
  H  H11  1  0.22654000  0.13178000  0.60254000  1.0
  H  H12  1  0.56190000  0.36864000  0.10483000  1.0
  H  H13  1  0.56191000  0.63136000  0.89517000  1.0
  H  H14  1  0.43809000  0.86864000  0.39517000  1.0
  H  H15  1  0.43809000  0.13136000  0.60482000  1.0
  H  H16  1  0.56992000  0.37264000  0.85720000  1.0
  H  H17  1  0.56992000  0.62736000  0.14280000  1.0
  H  H18  1  0.43008000  0.87264000  0.64280000  1.0
  H  H19  1  0.43008000  0.12736000  0.35719000  1.0
  H  H20  1  0.01112000  0.69782000  0.74993000  1.0
  H  H21  1  0.01112000  0.30218000  0.25007000  1.0
  H  H22  1  0.98889000  0.19782000  0.75007000  1.0
  H  H23  1  0.98888000  0.80218000  0.24993000  1.0
  H  H24  1  0.19138000  0.29302000  0.08065000  1.0
  H  H25  1  0.19138000  0.70698000  0.91935000  1.0
  H  H26  1  0.80862000  0.79302000  0.41935000  1.0
  H  H27  1  0.80862000  0.20698000  0.58065000  1.0
  H  H28  1  0.40270000  0.28675000  0.08352000  1.0
  H  H29  1  0.40270000  0.71324000  0.91648000  1.0
  H  H30  1  0.59730000  0.78675000  0.41648000  1.0
  H  H31  1  0.59730000  0.21325000  0.58352000  1.0
  H  H32  1  0.40247000  0.45122000  0.87504000  1.0
  H  H33  1  0.40247000  0.54878000  0.12496000  1.0
  H  H34  1  0.59753000  0.95122000  0.62496000  1.0
  H  H35  1  0.59753000  0.04878000  0.37504000  1.0
  H  H36  1  0.19054000  0.44834000  0.88040000  1.0
  H  H37  1  0.19054000  0.55166000  0.11960000  1.0
  H  H38  1  0.80946000  0.94833000  0.61960000  1.0
  H  H39  1  0.80946000  0.05166000  0.38040000  1.0
  H  H40  1  0.96900000  0.51529000  0.55716000  1.0
  H  H41  1  0.96900000  0.48471000  0.44285000  1.0
  H  H42  1  0.03099000  0.01529000  0.94285000  1.0
  H  H43  1  0.03099000  0.98471000  0.05715000  1.0
  H  H44  1  0.96191000  0.40103000  0.78671000  1.0
  H  H45  1  0.96191000  0.59897000  0.21330000  1.0
  H  H46  1  0.03809000  0.90102000  0.71329000  1.0
  H  H47  1  0.03809000  0.09897000  0.28671000  1.0
  H  H48  1  0.96325000  0.30136000  0.66741000  1.0
  H  H49  1  0.96325000  0.69864000  0.33259000  1.0
  H  H50  1  0.03674000  0.80136000  0.83259000  1.0
  H  H51  1  0.03674000  0.19864000  0.16741000  1.0
  H  H52  1  0.95890000  0.35089000  0.57964000  1.0
  H  H53  1  0.95890000  0.64911000  0.42036000  1.0
  H  H54  1  0.04110000  0.85089000  0.92036000  1.0
  H  H55  1  0.04110000  0.14911000  0.07964000  1.0
  C  C56  1  0.72891000  0.37357000  0.91726000  1.0
  C  C57  1  0.72891000  0.62643000  0.08274000  1.0
  C  C58  1  0.27109000  0.87357000  0.58274000  1.0
  C  C59  1  0.27109000  0.12643000  0.41726000  1.0
  C  C60  1  0.72448000  0.36977000  0.04954000  1.0
  C  C61  1  0.72448000  0.63023000  0.95046000  1.0
  C  C62  1  0.27552000  0.86977000  0.45046000  1.0
  C  C63  1  0.27552000  0.13023000  0.54954000  1.0
  C  C64  1  0.60659000  0.36902000  0.05022000  1.0
  C  C65  1  0.60659000  0.63099000  0.94979000  1.0
  C  C66  1  0.39340000  0.86902000  0.44978000  1.0
  C  C67  1  0.39341000  0.13099000  0.55021000  1.0
  C  C68  1  0.61105000  0.37294000  0.91307000  1.0
  C  C69  1  0.61105000  0.62705000  0.08693000  1.0
  C  C70  1  0.38895000  0.87295000  0.58693000  1.0
  C  C71  1  0.38895000  0.12706000  0.41306000  1.0
  C  C72  1  0.54688000  0.37047000  0.98071000  1.0
  C  C73  1  0.54688000  0.62953000  0.01929000  1.0
  C  C74  1  0.45312000  0.87047000  0.51929000  1.0
  C  C75  1  0.45312000  0.12953000  0.48071000  1.0
  C  C76  1  0.98719000  0.56947000  0.86117000  1.0
  C  C77  1  0.98719000  0.43053000  0.13883000  1.0
  C  C78  1  0.01282000  0.06947000  0.63883000  1.0
  C  C79  1  0.01282000  0.93053000  0.36117000  1.0
  C  C80  1  0.42162000  0.36968000  0.97964000  1.0
  C  C81  1  0.42162000  0.63032000  0.02036000  1.0
  C  C82  1  0.57838000  0.86968000  0.52036000  1.0
  C  C83  1  0.57838000  0.13032000  0.47964000  1.0
  C  C84  1  0.99799000  0.62770000  0.72755000  1.0
  C  C85  1  0.99799000  0.37230000  0.27245000  1.0
  C  C86  1  0.00201000  0.12770000  0.77245000  1.0
  C  C87  1  0.00201000  0.87230000  0.22755000  1.0
  C  C88  1  0.24197000  0.32746000  0.03644000  1.0
  C  C89  1  0.24197000  0.67254000  0.96356000  1.0
  C  C90  1  0.75803000  0.82746000  0.46356000  1.0
  C  C91  1  0.75803000  0.17254000  0.53644000  1.0
  C  C92  1  0.35985000  0.32486000  0.03778000  1.0
  C  C93  1  0.35985000  0.67514000  0.96222000  1.0
  C  C94  1  0.64014000  0.82486000  0.46221000  1.0
  C  C95  1  0.64015000  0.17514000  0.53778000  1.0
  C  C96  1  0.00469000  0.69723000  0.59657000  1.0
  C  C97  1  0.00469000  0.30277000  0.40343000  1.0
  C  C98  1  0.99531000  0.19723000  0.90343000  1.0
  C  C99  1  0.99531000  0.80277000  0.09657000  1.0
  C  C100  1  0.35964000  0.41435000  0.92146000  1.0
  C  C101  1  0.35964000  0.58565000  0.07854000  1.0
  C  C102  1  0.64036000  0.91435000  0.57854000  1.0
  C  C103  1  0.64036000  0.08565000  0.42146000  1.0
  C  C104  1  0.24168000  0.41385000  0.92427000  1.0
  C  C105  1  0.24168000  0.58615000  0.07573000  1.0
  C  C106  1  0.75832000  0.91385000  0.57573000  1.0
  C  C107  1  0.75831000  0.08615000  0.42427000  1.0
  C  C108  1  0.99242000  0.61421000  0.64849000  1.0
  C  C109  1  0.99243000  0.38579000  0.35151000  1.0
  C  C110  1  0.00758000  0.11420000  0.85151000  1.0
  C  C111  1  0.00758000  0.88580000  0.14849000  1.0
  C  C112  1  0.97388000  0.52455000  0.61898000  1.0
  C  C113  1  0.97388000  0.47545000  0.38102000  1.0
  C  C114  1  0.02612000  0.02455000  0.88102000  1.0
  C  C115  1  0.02612000  0.97545000  0.11898000  1.0
  C  C116  1  0.96919000  0.46050000  0.74755000  1.0
  C  C117  1  0.96919000  0.53950000  0.25245000  1.0
  C  C118  1  0.03082000  0.96049000  0.75245000  1.0
  C  C119  1  0.03081000  0.03951000  0.24755000  1.0
  C  C120  1  0.96232000  0.44606000  0.66763000  1.0
  C  C121  1  0.96232000  0.55394000  0.33237000  1.0
  C  C122  1  0.03768000  0.94606000  0.83237000  1.0
  C  C123  1  0.03768000  0.05394000  0.16763000  1.0
  C  C124  1  0.98558000  0.55110000  0.77692000  1.0
  C  C125  1  0.98558000  0.44890000  0.22308000  1.0
  C  C126  1  0.01442000  0.05110000  0.72308000  1.0
  C  C127  1  0.01442000  0.94890000  0.27692000  1.0
  N  N128  1  0.78466000  0.37217000  0.98435000  1.0
  N  N129  1  0.78466000  0.62783000  0.01565000  1.0
  N  N130  1  0.21534000  0.87217000  0.51565000  1.0
  N  N131  1  0.21534000  0.12783000  0.48435000  1.0
  N  N132  1  0.18392000  0.37201000  0.98107000  1.0
  N  N133  1  0.18392000  0.62799000  0.01893000  1.0
  N  N134  1  0.81608000  0.87200000  0.51893000  1.0
  N  N135  1  0.81608000  0.12799000  0.48107000  1.0
  N  N136  1  0.94078000  0.35881000  0.63653000  1.0
  N  N137  1  0.94078000  0.64119000  0.36347000  1.0
  N  N138  1  0.05922000  0.85881000  0.86347000  1.0
  N  N139  1  0.05922000  0.14119000  0.13653000  1.0
  O  O140  1  0.98060000  0.50230000  0.90935000  1.0
  O  O141  1  0.98061000  0.49770000  0.09066000  1.0
  O  O142  1  0.01940000  0.00230000  0.59065000  1.0
  O  O143  1  0.01941000  0.99771000  0.40934000  1.0
  O  O144  1  0.99289000  0.65506000  0.88354000  1.0
  O  O145  1  0.99290000  0.34494000  0.11646000  1.0
  O  O146  1  0.00710000  0.15506000  0.61646000  1.0
  O  O147  1  0.00711000  0.84494000  0.38354000  1.0
  O  O148  1  0.99197000  0.68784000  0.52466000  1.0
  O  O149  1  0.99196000  0.31216000  0.47534000  1.0
  O  O150  1  0.00803000  0.18784000  0.97535000  1.0
  O  O151  1  0.00803000  0.81216000  0.02466000  1.0
  O  O152  1  0.02677000  0.77703000  0.62752000  1.0
  O  O153  1  0.02677000  0.22297000  0.37248000  1.0
  O  O154  1  0.97324000  0.27704000  0.87249000  1.0
  O  O155  1  0.97323000  0.72297000  0.12752000  1.0
