# generated using pymatgen
data_AlH9C24Br3(NO2)3
_symmetry_space_group_name_H-M   'P 1'
_cell_length_a   3.98104000
_cell_length_b   15.42667253
_cell_length_c   15.70195134
_cell_angle_alpha   61.17601846
_cell_angle_beta   85.85071652
_cell_angle_gamma   84.89650288
_symmetry_Int_Tables_number   1
_chemical_formula_structural   AlH9C24Br3(NO2)3
_chemical_formula_sum   'Al1 H9 C24 Br3 N3 O6'
_cell_volume   841.01874496
_cell_formula_units_Z   1
loop_
 _symmetry_equiv_pos_site_id
 _symmetry_equiv_pos_as_xyz
  1  'x, y, z'
loop_
 _atom_site_type_symbol
 _atom_site_label
 _atom_site_symmetry_multiplicity
 _atom_site_fract_x
 _atom_site_fract_y
 _atom_site_fract_z
 _atom_site_occupancy
  Al  Al0  1  0.98307000  0.49507000  0.50380000  1.0
  H  H1  1  0.46911000  0.13184000  0.96084000  1.0
  H  H2  1  0.02170000  0.95872000  0.40007000  1.0
  H  H3  1  0.76654000  0.41192000  0.12552000  1.0
  H  H4  1  0.72210000  0.24101000  0.48653000  1.0
  H  H5  1  0.90471000  0.14561000  0.39807000  1.0
  H  H6  1  0.64296000  0.76377000  0.25716000  1.0
  H  H7  1  0.52590000  0.94708000  0.15413000  1.0
  H  H8  1  0.22692000  0.49564000  0.76365000  1.0
  H  H9  1  0.09871000  0.41025000  0.94326000  1.0
  C  C10  1  0.46278000  0.41445000  0.65294000  1.0
  C  C11  1  0.54074000  0.42874000  0.41690000  1.0
  C  C12  1  0.44324000  0.64742000  0.43755000  1.0
  C  C13  1  0.41468000  0.36159000  0.76139000  1.0
  C  C14  1  0.38721000  0.75743000  0.38475000  1.0
  C  C15  1  0.62258000  0.37836000  0.35649000  1.0
  C  C16  1  0.48352000  0.25921000  0.81753000  1.0
  C  C17  1  0.41542000  0.21133000  0.91728000  1.0
  C  C18  1  0.21086000  0.81337000  0.42481000  1.0
  C  C19  1  0.15448000  0.91543000  0.36879000  1.0
  C  C20  1  0.62950000  0.42567000  0.25443000  1.0
  C  C21  1  0.74739000  0.37412000  0.20461000  1.0
  C  C22  1  0.72388000  0.27695000  0.40732000  1.0
  C  C23  1  0.82772000  0.22416000  0.35860000  1.0
  C  C24  1  0.50389000  0.80759000  0.28717000  1.0
  C  C25  1  0.44005000  0.90905000  0.23007000  1.0
  C  C26  1  0.27956000  0.41590000  0.80758000  1.0
  C  C27  1  0.20759000  0.36875000  0.90713000  1.0
  C  C28  1  0.27364000  0.26594000  0.96259000  1.0
  C  C29  1  0.19588000  0.21445000  0.06827000  1.0
  C  C30  1  0.26399000  0.96381000  0.27094000  1.0
  C  C31  1  0.19186000  0.07210000  0.21291000  1.0
  C  C32  1  0.84693000  0.27304000  0.25647000  1.0
  C  C33  1  0.98539000  0.21795000  0.20525000  1.0
  Br  Br34  1  0.68303000  0.18359000  0.75858000  1.0
  Br  Br35  1  0.50101000  0.56273000  0.17925000  1.0
  Br  Br36  1  0.04984000  0.75768000  0.55659000  1.0
  N  N37  1  0.27739000  0.11632000  0.11764000  1.0
  N  N38  1  0.04490000  0.11954000  0.25988000  1.0
  N  N39  1  0.04982000  0.26860000  0.10883000  1.0
  O  O40  1  0.70844000  0.60893000  0.41535000  1.0
  O  O41  1  0.69699000  0.47421000  0.61623000  1.0
  O  O42  1  0.75213000  0.40657000  0.48298000  1.0
  O  O43  1  0.21675000  0.59816000  0.49965000  1.0
  O  O44  1  0.27703000  0.48583000  0.40286000  1.0
  O  O45  1  0.25426000  0.39751000  0.60580000  1.0
