# generated using pymatgen
data_SmH11C14Br2N2O9
_symmetry_space_group_name_H-M   'P 1'
_cell_length_a   8.48691000
_cell_length_b   10.03280000
_cell_length_c   11.80880000
_cell_angle_alpha   108.88100000
_cell_angle_beta   104.43100000
_cell_angle_gamma   99.57250000
_symmetry_Int_Tables_number   1
_chemical_formula_structural   SmH11C14Br2N2O9
_chemical_formula_sum   'Sm2 H22 C28 Br4 N4 O18'
_cell_volume   887.28197320
_cell_formula_units_Z   2
loop_
 _symmetry_equiv_pos_site_id
 _symmetry_equiv_pos_as_xyz
  1  'x, y, z'
loop_
 _atom_site_type_symbol
 _atom_site_label
 _atom_site_symmetry_multiplicity
 _atom_site_fract_x
 _atom_site_fract_y
 _atom_site_fract_z
 _atom_site_occupancy
  Sm  Sm0  1  0.01569000  0.20734000  0.51135000  1.0
  Sm  Sm1  1  0.98431000  0.79266000  0.48865000  1.0
  H  H2  1  0.08600000  0.49176000  0.74840000  1.0
  H  H3  1  0.91400000  0.50824000  0.25160000  1.0
  H  H4  1  0.09798000  0.54161000  0.63591000  1.0
  H  H5  1  0.90202000  0.45839000  0.36409000  1.0
  H  H6  1  0.21041000  0.76795000  0.83461000  1.0
  H  H7  1  0.78958000  0.23204000  0.16539000  1.0
  H  H8  1  0.20441000  0.11105000  0.17066000  1.0
  H  H9  1  0.79560000  0.88895000  0.82933000  1.0
  H  H10  1  0.03428000  0.64983000  0.09788000  1.0
  H  H11  1  0.96572000  0.35018000  0.90212000  1.0
  H  H12  1  0.43066000  0.29603000  0.50433000  1.0
  H  H13  1  0.56934000  0.70397000  0.49567000  1.0
  H  H14  1  0.15271000  0.45930000  0.26422000  1.0
  H  H15  1  0.84730000  0.54070000  0.73577000  1.0
  H  H16  1  0.62593000  0.38178000  0.22025000  1.0
  H  H17  1  0.37407000  0.61822000  0.77976000  1.0
  H  H18  1  0.55939000  0.10187000  0.61866000  1.0
  H  H19  1  0.44061000  0.89813000  0.38133000  1.0
  H  H20  1  0.46814000  0.99472000  0.69343000  1.0
  H  H21  1  0.53185000  0.00528000  0.30657000  1.0
  H  H22  1  0.55661000  0.18973000  0.77320000  1.0
  H  H23  1  0.44339000  0.81026000  0.22680000  1.0
  C  C24  1  0.18849000  0.80656000  0.92536000  1.0
  C  C25  1  0.81151000  0.19343000  0.07464000  1.0
  C  C26  1  0.21980000  0.95311000  0.99949000  1.0
  C  C27  1  0.78020000  0.04689000  0.00051000  1.0
  C  C28  1  0.18234000  0.99668000  0.11204000  1.0
  C  C29  1  0.81766000  0.00332000  0.88796000  1.0
  C  C30  1  0.11400000  0.88740000  0.14907000  1.0
  C  C31  1  0.88600000  0.11260000  0.85093000  1.0
  C  C32  1  0.08598000  0.74073000  0.07495000  1.0
  C  C33  1  0.91401000  0.25927000  0.92505000  1.0
  C  C34  1  0.07208000  0.92674000  0.27145000  1.0
  C  C35  1  0.92792000  0.07326000  0.72855000  1.0
  C  C36  1  0.42347000  0.32794000  0.42384000  1.0
  C  C37  1  0.57653000  0.67207000  0.57616000  1.0
  C  C38  1  0.26438000  0.42093000  0.28675000  1.0
  C  C39  1  0.73562000  0.57907000  0.71325000  1.0
  C  C40  1  0.38573000  0.42243000  0.22709000  1.0
  C  C41  1  0.61428000  0.57757000  0.77292000  1.0
  C  C42  1  0.52891000  0.37632000  0.26482000  1.0
  C  C43  1  0.47110000  0.62368000  0.73518000  1.0
  C  C44  1  0.54677000  0.32911000  0.36536000  1.0
  C  C45  1  0.45324000  0.67089000  0.63465000  1.0
  C  C46  1  0.70136000  0.28455000  0.41762000  1.0
  C  C47  1  0.29864000  0.71545000  0.58238000  1.0
  C  C48  1  0.31913000  0.12722000  0.62848000  1.0
  C  C49  1  0.68087000  0.87278000  0.37152000  1.0
  C  C50  1  0.48481000  0.09960000  0.68243000  1.0
  C  C51  1  0.51519000  0.90040000  0.31757000  1.0
  Br  Br52  1  0.31694000  0.09224000  0.94248000  1.0
  Br  Br53  1  0.68306000  0.90775000  0.05752000  1.0
  Br  Br54  1  0.34755000  0.48552000  0.09074000  1.0
  Br  Br55  1  0.65245000  0.51448000  0.90926000  1.0
  N  N56  1  0.12369000  0.70207000  0.96496000  1.0
  N  N57  1  0.87631000  0.29793000  0.03504000  1.0
  N  N58  1  0.28484000  0.37346000  0.38429000  1.0
  N  N59  1  0.71516000  0.62655000  0.61571000  1.0
  O  O60  1  0.09932000  0.56306000  0.89828000  1.0
  O  O61  1  0.90067000  0.43694000  0.10172000  1.0
  O  O62  1  0.02500000  0.82103000  0.30254000  1.0
  O  O63  1  0.97500000  0.17897000  0.69746000  1.0
  O  O64  1  0.08919000  0.06160000  0.33109000  1.0
  O  O65  1  0.91081000  0.93841000  0.66891000  1.0
  O  O66  1  0.17189000  0.37804000  0.44200000  1.0
  O  O67  1  0.82811000  0.62196000  0.55800000  1.0
  O  O68  1  0.71731000  0.25229000  0.51359000  1.0
  O  O69  1  0.28270000  0.74772000  0.48642000  1.0
  O  O70  1  0.81374000  0.28111000  0.36121000  1.0
  O  O71  1  0.18627000  0.71889000  0.63880000  1.0
  O  O72  1  0.18193000  0.02304000  0.57582000  1.0
  O  O73  1  0.81807000  0.97696000  0.42418000  1.0
  O  O74  1  0.31583000  0.25473000  0.63258000  1.0
  O  O75  1  0.68417000  0.74527000  0.36742000  1.0
  O  O76  1  0.07044000  0.45392000  0.65587000  1.0
  O  O77  1  0.92956000  0.54608000  0.34413000  1.0
