# generated using pymatgen
data_ZnPH17C21(NO2)2
_symmetry_space_group_name_H-M   'P 1'
_cell_length_a   11.33410000
_cell_length_b   12.77746763
_cell_length_c   19.10980000
_cell_angle_alpha   78.06191153
_cell_angle_beta   89.94570000
_cell_angle_gamma   63.68847878
_symmetry_Int_Tables_number   1
_chemical_formula_structural   ZnPH17C21(NO2)2
_chemical_formula_sum   'Zn4 P4 H68 C84 N8 O16'
_cell_volume   2414.09995027
_cell_formula_units_Z   4
loop_
 _symmetry_equiv_pos_site_id
 _symmetry_equiv_pos_as_xyz
  1  'x, y, z'
loop_
 _atom_site_type_symbol
 _atom_site_label
 _atom_site_symmetry_multiplicity
 _atom_site_fract_x
 _atom_site_fract_y
 _atom_site_fract_z
 _atom_site_occupancy
  Zn  Zn0  1  0.80746000  0.14520000  0.14282000  1.0
  Zn  Zn1  1  0.95254000  0.85489000  0.35734000  1.0
  Zn  Zn2  1  0.19254000  0.85480000  0.85718000  1.0
  Zn  Zn3  1  0.04746000  0.14511000  0.64266000  1.0
  P  P4  1  0.83507000  0.14410000  0.30492000  1.0
  P  P5  1  0.97925000  0.85603000  0.19527000  1.0
  P  P6  1  0.16493000  0.85590000  0.69508000  1.0
  P  P7  1  0.02075000  0.14397000  0.80474000  1.0
  H  H8  1  0.78871000  0.23777000  0.43896000  1.0
  H  H9  1  0.02650000  0.76225000  0.06127000  1.0
  H  H10  1  0.21129000  0.76222000  0.56105000  1.0
  H  H11  1  0.97350000  0.23775000  0.93873000  1.0
  H  H12  1  0.85740000  0.08134000  0.46116000  1.0
  H  H13  1  0.93897000  0.91868000  0.03901000  1.0
  H  H14  1  0.14262000  0.91864000  0.53885000  1.0
  H  H15  1  0.06102000  0.08132000  0.96099000  1.0
  H  H16  1  0.03664000  0.06951000  0.37803000  1.0
  H  H17  1  0.10623000  0.93065000  0.12192000  1.0
  H  H18  1  0.96337000  0.93048000  0.62197000  1.0
  H  H19  1  0.89377000  0.06935000  0.87808000  1.0
  H  H20  1  0.96136000  0.22838000  0.35204000  1.0
  H  H21  1  0.18974000  0.77180000  0.14797000  1.0
  H  H22  1  0.03865000  0.77161000  0.64796000  1.0
  H  H23  1  0.81026000  0.22820000  0.85203000  1.0
  H  H24  1  0.75505000  0.40025000  0.26142000  1.0
  H  H25  1  0.15542000  0.60008000  0.23859000  1.0
  H  H26  1  0.24495000  0.59974000  0.73858000  1.0
  H  H27  1  0.84459000  0.39992000  0.76141000  1.0
  H  H28  1  0.54041000  0.58182000  0.25128000  1.0
  H  H29  1  0.12268000  0.41826000  0.24869000  1.0
  H  H30  1  0.45959000  0.41817000  0.74872000  1.0
  H  H31  1  0.87731000  0.58175000  0.75131000  1.0
  H  H32  1  0.33816000  0.56135000  0.28375000  1.0
  H  H33  1  0.90014000  0.43835000  0.21647000  1.0
  H  H34  1  0.66185000  0.43864000  0.71624000  1.0
  H  H35  1  0.09985000  0.56166000  0.78353000  1.0
  H  H36  1  0.35092000  0.35771000  0.32459000  1.0
  H  H37  1  0.70915000  0.64182000  0.17592000  1.0
  H  H38  1  0.64907000  0.64229000  0.67540000  1.0
  H  H39  1  0.29085000  0.35819000  0.82408000  1.0
  H  H40  1  0.56834000  0.17562000  0.33714000  1.0
  H  H41  1  0.74413000  0.82415000  0.16341000  1.0
  H  H42  1  0.43165000  0.82438000  0.66285000  1.0
  H  H43  1  0.25587000  0.17586000  0.83660000  1.0
  H  H44  1  0.85712000  0.38505000  0.08547000  1.0
  H  H45  1  0.24197000  0.61515000  0.41477000  1.0
  H  H46  1  0.14288000  0.61495000  0.91454000  1.0
  H  H47  1  0.75804000  0.38484000  0.58522000  1.0
  H  H48  1  0.71630000  0.60848000  0.04804000  1.0
  H  H49  1  0.32458000  0.39168000  0.45232000  1.0
  H  H50  1  0.28371000  0.39151000  0.95197000  1.0
  H  H51  1  0.67542000  0.60831000  0.54767000  1.0
  H  H52  1  0.46774000  0.69229000  0.04941000  1.0
  H  H53  1  0.15997000  0.30764000  0.45091000  1.0
  H  H54  1  0.53226000  0.30771000  0.95059000  1.0
  H  H55  1  0.84002000  0.69236000  0.54908000  1.0
  H  H56  1  0.22663000  0.28769000  0.15012000  1.0
  H  H57  1  0.51479000  0.71158000  0.34997000  1.0
  H  H58  1  0.77336000  0.71232000  0.84989000  1.0
  H  H59  1  0.48521000  0.28843000  0.65002000  1.0
  H  H60  1  0.39142000  0.07018000  0.18251000  1.0
  H  H61  1  0.46191000  0.92918000  0.31750000  1.0
  H  H62  1  0.60857000  0.92983000  0.81750000  1.0
  H  H63  1  0.53809000  0.07083000  0.68250000  1.0
  H  H64  1  0.63553000  0.01479000  0.17943000  1.0
  H  H65  1  0.65039000  0.98493000  0.32065000  1.0
  H  H66  1  0.36446000  0.98522000  0.82058000  1.0
  H  H67  1  0.34961000  0.01508000  0.67935000  1.0
  H  H68  1  0.27612000  0.65099000  0.07420000  1.0
  H  H69  1  0.92744000  0.34866000  0.42592000  1.0
  H  H70  1  0.72387000  0.34902000  0.92580000  1.0
  H  H71  1  0.07254000  0.65135000  0.57408000  1.0
  H  H72  1  0.18512000  0.50453000  0.11069000  1.0
  H  H73  1  0.69009000  0.49490000  0.38933000  1.0
  H  H74  1  0.81487000  0.49548000  0.88930000  1.0
  H  H75  1  0.30990000  0.50511000  0.61067000  1.0
  C  C76  1  0.97099000  0.15300000  0.50563000  1.0
  C  C77  1  0.12426000  0.84690000  0.99446000  1.0
  C  C78  1  0.02902000  0.84699000  0.49437000  1.0
  C  C79  1  0.87573000  0.15310000  0.00554000  1.0
  C  C80  1  0.88311000  0.15559000  0.44413000  1.0
  C  C81  1  0.03884000  0.84442000  0.05602000  1.0
  C  C82  1  0.11689000  0.84440000  0.55587000  1.0
  C  C83  1  0.96116000  0.15558000  0.94398000  1.0
  C  C84  1  0.94205000  0.15104000  0.37228000  1.0
  C  C85  1  0.09314000  0.84909000  0.12779000  1.0
  C  C86  1  0.05796000  0.84895000  0.62772000  1.0
  C  C87  1  0.90686000  0.15091000  0.87220000  1.0
  C  C88  1  0.67578000  0.27575000  0.29990000  1.0
  C  C89  1  0.95163000  0.72431000  0.20037000  1.0
  C  C90  1  0.32423000  0.72424000  0.70010000  1.0
  C  C91  1  0.04838000  0.27569000  0.79963000  1.0
  C  C92  1  0.66671000  0.39076000  0.27590000  1.0
  C  C93  1  0.05766000  0.60937000  0.22424000  1.0
  C  C94  1  0.33330000  0.60923000  0.72410000  1.0
  C  C95  1  0.94234000  0.39064000  0.77576000  1.0
  C  C96  1  0.54603000  0.49294000  0.27019000  1.0
  C  C97  1  0.03934000  0.50706000  0.22992000  1.0
  C  C98  1  0.45398000  0.50705000  0.72981000  1.0
  C  C99  1  0.96066000  0.49295000  0.77008000  1.0
  C  C100  1  0.43218000  0.48128000  0.28795000  1.0
  C  C101  1  0.91394000  0.51853000  0.21229000  1.0
  C  C102  1  0.56783000  0.51871000  0.71205000  1.0
  C  C103  1  0.08605000  0.48148000  0.78772000  1.0
  C  C104  1  0.43978000  0.36714000  0.31120000  1.0
  C  C105  1  0.80733000  0.63259000  0.18921000  1.0
  C  C106  1  0.56022000  0.63286000  0.68879000  1.0
  C  C107  1  0.19267000  0.36742000  0.81080000  1.0
  C  C108  1  0.56113000  0.26498000  0.31787000  1.0
  C  C109  1  0.82633000  0.73487000  0.18255000  1.0
  C  C110  1  0.43887000  0.73501000  0.68213000  1.0
  C  C111  1  0.17367000  0.26514000  0.81746000  1.0
  C  C112  1  0.74974000  0.42489000  0.08584000  1.0
  C  C113  1  0.17448000  0.57524000  0.41440000  1.0
  C  C114  1  0.25027000  0.57511000  0.91417000  1.0
  C  C115  1  0.82553000  0.42475000  0.58560000  1.0
  C  C116  1  0.67001000  0.55000000  0.06499000  1.0
  C  C117  1  0.21987000  0.45010000  0.43528000  1.0
  C  C118  1  0.33000000  0.45000000  0.93502000  1.0
  C  C119  1  0.78012000  0.54990000  0.56472000  1.0
  C  C120  1  0.53428000  0.59627000  0.06600000  1.0
  C  C121  1  0.13051000  0.40370000  0.43427000  1.0
  C  C122  1  0.46572000  0.40373000  0.93401000  1.0
  C  C123  1  0.86949000  0.59630000  0.56573000  1.0
  C  C124  1  0.47932000  0.51609000  0.08781000  1.0
  C  C125  1  0.99546000  0.48376000  0.41235000  1.0
  C  C126  1  0.52068000  0.48392000  0.91219000  1.0
  C  C127  1  0.00453000  0.51624000  0.58765000  1.0
  C  C128  1  0.56763000  0.39185000  0.10720000  1.0
  C  C129  1  0.95952000  0.60803000  0.39295000  1.0
  C  C130  1  0.43237000  0.60815000  0.89280000  1.0
  C  C131  1  0.04048000  0.39197000  0.60705000  1.0
  C  C132  1  0.51620000  0.30655000  0.12856000  1.0
  C  C133  1  0.82290000  0.69320000  0.37159000  1.0
  C  C134  1  0.48380000  0.69345000  0.87145000  1.0
  C  C135  1  0.17709000  0.30681000  0.62840000  1.0
  C  C136  1  0.37744000  0.34784000  0.12924000  1.0
  C  C137  1  0.72559000  0.65172000  0.37088000  1.0
  C  C138  1  0.62256000  0.65216000  0.87076000  1.0
  C  C139  1  0.27441000  0.34828000  0.62912000  1.0
  C  C140  1  0.33252000  0.25999000  0.14936000  1.0
  C  C141  1  0.59289000  0.73943000  0.35074000  1.0
  C  C142  1  0.66747000  0.74001000  0.85065000  1.0
  C  C143  1  0.40711000  0.26058000  0.64926000  1.0
  C  C144  1  0.42332000  0.13990000  0.16747000  1.0
  C  C145  1  0.56352000  0.85956000  0.33261000  1.0
  C  C146  1  0.57667000  0.86011000  0.83254000  1.0
  C  C147  1  0.43648000  0.14045000  0.66739000  1.0
  C  C148  1  0.55894000  0.10758000  0.16569000  1.0
  C  C149  1  0.66669000  0.89208000  0.33440000  1.0
  C  C150  1  0.44106000  0.89242000  0.83431000  1.0
  C  C151  1  0.33331000  0.10792000  0.66560000  1.0
  C  C152  1  0.34037000  0.55489000  0.08995000  1.0
  C  C153  1  0.89546000  0.44478000  0.41016000  1.0
  C  C154  1  0.65964000  0.44511000  0.91005000  1.0
  C  C155  1  0.10454000  0.55522000  0.58984000  1.0
  C  C156  1  0.29133000  0.47399000  0.10956000  1.0
  C  C157  1  0.76566000  0.52554000  0.39052000  1.0
  C  C158  1  0.70868000  0.52601000  0.89044000  1.0
  C  C159  1  0.23435000  0.47446000  0.60948000  1.0
  N  N160  1  0.69999000  0.34828000  0.10619000  1.0
  N  N161  1  0.04820000  0.65175000  0.39398000  1.0
  N  N162  1  0.30001000  0.65172000  0.89381000  1.0
  N  N163  1  0.95179000  0.34825000  0.60602000  1.0
  N  N164  1  0.60364000  0.18865000  0.14682000  1.0
  N  N165  1  0.79241000  0.81114000  0.35337000  1.0
  N  N166  1  0.39635000  0.81135000  0.85318000  1.0
  N  N167  1  0.20760000  0.18886000  0.64663000  1.0
  O  O168  1  0.07280000  0.16677000  0.49435000  1.0
  O  O169  1  0.23982000  0.83305000  0.00569000  1.0
  O  O170  1  0.92720000  0.83323000  0.50565000  1.0
  O  O171  1  0.76016000  0.16695000  0.99429000  1.0
  O  O172  1  0.92880000  0.13876000  0.56830000  1.0
  O  O173  1  0.06788000  0.86114000  0.93182000  1.0
  O  O174  1  0.07121000  0.86122000  0.43171000  1.0
  O  O175  1  0.93211000  0.13886000  0.06817000  1.0
  O  O176  1  0.88915000  0.15846000  0.23196000  1.0
  O  O177  1  0.04761000  0.84175000  0.26814000  1.0
  O  O178  1  0.11085000  0.84154000  0.76804000  1.0
  O  O179  1  0.95240000  0.15825000  0.73186000  1.0
  O  O180  1  0.81169000  0.03434000  0.33091000  1.0
  O  O181  1  0.84617000  0.96571000  0.16939000  1.0
  O  O182  1  0.18832000  0.96565000  0.66909000  1.0
  O  O183  1  0.15383000  0.03429000  0.83062000  1.0
