# generated using pymatgen
data_ZnH13C21N2O7
_symmetry_space_group_name_H-M   'P 1'
_cell_length_a   7.07722000
_cell_length_b   9.30906000
_cell_length_c   14.49990000
_cell_angle_alpha   108.38200000
_cell_angle_beta   96.06160000
_cell_angle_gamma   92.47680000
_symmetry_Int_Tables_number   1
_chemical_formula_structural   ZnH13C21N2O7
_chemical_formula_sum   'Zn2 H26 C42 N4 O14'
_cell_volume   898.50616090
_cell_formula_units_Z   2
loop_
 _symmetry_equiv_pos_site_id
 _symmetry_equiv_pos_as_xyz
  1  'x, y, z'
loop_
 _atom_site_type_symbol
 _atom_site_label
 _atom_site_symmetry_multiplicity
 _atom_site_fract_x
 _atom_site_fract_y
 _atom_site_fract_z
 _atom_site_occupancy
  Zn  Zn0  1  0.19869000  0.56071000  0.43987000  1.0
  Zn  Zn1  1  0.80132000  0.43929000  0.56013000  1.0
  H  H2  1  0.46195000  0.89981000  0.81023000  1.0
  H  H3  1  0.53805000  0.10018000  0.18976000  1.0
  H  H4  1  0.84137000  0.64660000  0.24554000  1.0
  H  H5  1  0.15861000  0.35342000  0.75446000  1.0
  H  H6  1  0.62760000  0.66300000  0.10191000  1.0
  H  H7  1  0.37238000  0.33701000  0.89810000  1.0
  H  H8  1  0.30666000  0.51732000  0.05599000  1.0
  H  H9  1  0.69334000  0.48268000  0.94401000  1.0
  H  H10  1  0.34499000  0.15529000  0.02181000  1.0
  H  H11  1  0.65500000  0.84470000  0.97819000  1.0
  H  H12  1  0.84514000  0.00750000  0.80856000  1.0
  H  H13  1  0.15485000  0.99251000  0.19143000  1.0
  H  H14  1  0.65750000  0.18952000  0.92202000  1.0
  H  H15  1  0.34250000  0.81048000  0.07797000  1.0
  H  H16  1  0.81722000  0.35508000  0.08674000  1.0
  H  H17  1  0.18277000  0.64492000  0.91325000  1.0
  H  H18  1  0.59843000  0.72806000  0.52581000  1.0
  H  H19  1  0.40158000  0.27193000  0.47419000  1.0
  H  H20  1  0.20304000  0.78848000  0.30402000  1.0
  H  H21  1  0.79696000  0.21153000  0.69598000  1.0
  H  H22  1  0.52910000  0.97320000  0.32310000  1.0
  H  H23  1  0.47091000  0.02682000  0.67691000  1.0
  H  H24  1  0.81983000  0.05666000  0.36079000  1.0
  H  H25  1  0.18018000  0.94335000  0.63922000  1.0
  H  H26  1  0.14262000  0.16444000  0.41546000  1.0
  H  H27  1  0.85738000  0.83556000  0.58455000  1.0
  C  C28  1  0.34637000  0.42334000  0.17385000  1.0
  C  C29  1  0.65362000  0.57666000  0.82615000  1.0
  C  C30  1  0.46485000  0.41290000  0.25497000  1.0
  C  C31  1  0.53515000  0.58710000  0.74503000  1.0
  C  C32  1  0.64580000  0.49405000  0.28008000  1.0
  C  C33  1  0.35420000  0.50595000  0.71992000  1.0
  C  C34  1  0.70208000  0.58341000  0.22423000  1.0
  C  C35  1  0.29791000  0.41659000  0.77577000  1.0
  C  C36  1  0.58235000  0.59150000  0.14367000  1.0
  C  C37  1  0.41764000  0.40851000  0.85634000  1.0
  C  C38  1  0.40395000  0.51068000  0.11768000  1.0
  C  C39  1  0.59605000  0.48933000  0.88233000  1.0
  C  C40  1  0.08933000  0.26734000  0.06176000  1.0
  C  C41  1  0.91066000  0.73266000  0.93824000  1.0
  C  C42  1  0.19619000  0.16671000  0.99895000  1.0
  C  C43  1  0.80380000  0.83329000  0.00105000  1.0
  C  C44  1  0.10611000  0.07403000  0.90733000  1.0
  C  C45  1  0.89388000  0.92596000  0.09266000  1.0
  C  C46  1  0.91262000  0.08361000  0.87915000  1.0
  C  C47  1  0.08737000  0.91639000  0.12084000  1.0
  C  C48  1  0.80896000  0.18519000  0.94301000  1.0
  C  C49  1  0.19103000  0.81481000  0.05698000  1.0
  C  C50  1  0.89641000  0.27743000  0.03471000  1.0
  C  C51  1  0.10358000  0.72257000  0.96529000  1.0
  C  C52  1  0.38959000  0.30838000  0.30635000  1.0
  C  C53  1  0.61042000  0.69161000  0.69365000  1.0
  C  C54  1  0.77989000  0.49128000  0.36651000  1.0
  C  C55  1  0.22011000  0.50872000  0.63349000  1.0
  C  C56  1  0.21021000  0.95970000  0.83847000  1.0
  C  C57  1  0.78978000  0.04028000  0.16153000  1.0
  C  C58  1  0.53433000  0.76847000  0.46813000  1.0
  C  C59  1  0.46568000  0.23153000  0.53187000  1.0
  C  C60  1  0.33497000  0.80194000  0.35219000  1.0
  C  C61  1  0.66507000  0.19808000  0.64782000  1.0
  C  C62  1  0.49774000  0.89233000  0.36011000  1.0
  C  C63  1  0.50225000  0.10767000  0.63990000  1.0
  C  C64  1  0.81388000  0.93569000  0.46729000  1.0
  C  C65  1  0.18613000  0.06430000  0.53271000  1.0
  C  C66  1  0.89615000  0.02981000  0.42167000  1.0
  C  C67  1  0.10386000  0.97019000  0.57833000  1.0
  C  C68  1  0.08209000  0.09371000  0.45396000  1.0
  C  C69  1  0.91792000  0.90629000  0.54605000  1.0
  N  N70  1  0.35968000  0.72565000  0.41994000  1.0
  N  N71  1  0.64033000  0.27435000  0.58006000  1.0
  N  N72  1  0.62360000  0.86983000  0.43379000  1.0
  N  N73  1  0.37641000  0.13018000  0.56622000  1.0
  O  O74  1  0.28555000  0.35943000  0.37524000  1.0
  O  O75  1  0.71447000  0.64057000  0.62476000  1.0
  O  O76  1  0.42359000  0.17127000  0.27672000  1.0
  O  O77  1  0.57641000  0.82873000  0.72329000  1.0
  O  O78  1  0.94111000  0.56661000  0.38051000  1.0
  O  O79  1  0.05890000  0.43338000  0.61949000  1.0
  O  O80  1  0.72245000  0.41943000  0.42124000  1.0
  O  O81  1  0.27755000  0.58057000  0.57876000  1.0
  O  O82  1  0.16485000  0.35217000  0.15676000  1.0
  O  O83  1  0.83514000  0.64782000  0.84324000  1.0
  O  O84  1  0.13022000  0.86565000  0.76248000  1.0
  O  O85  1  0.86978000  0.13433000  0.23752000  1.0
  O  O86  1  0.39857000  0.97082000  0.86617000  1.0
  O  O87  1  0.60141000  0.02918000  0.13382000  1.0
