# generated using pymatgen
data_Co5H24C20S2(N3O11)2
_symmetry_space_group_name_H-M   'P 1'
_cell_length_a   9.29744000
_cell_length_b   14.15830000
_cell_length_c   14.40290000
_cell_angle_alpha   69.72160000
_cell_angle_beta   84.11010000
_cell_angle_gamma   83.12580000
_symmetry_Int_Tables_number   1
_chemical_formula_structural   Co5H24C20S2(N3O11)2
_chemical_formula_sum   'Co10 H48 C40 S4 N12 O44'
_cell_volume   1761.83529003
_cell_formula_units_Z   2
loop_
 _symmetry_equiv_pos_site_id
 _symmetry_equiv_pos_as_xyz
  1  'x, y, z'
loop_
 _atom_site_type_symbol
 _atom_site_label
 _atom_site_symmetry_multiplicity
 _atom_site_fract_x
 _atom_site_fract_y
 _atom_site_fract_z
 _atom_site_occupancy
  Co  Co0  1  0.91579000  0.99808000  0.59520000  1.0
  Co  Co1  1  0.08411000  0.00189000  0.40486000  1.0
  Co  Co2  1  0.41109000  0.59682000  0.99421000  1.0
  Co  Co3  1  0.58895000  0.40320000  0.00577000  1.0
  Co  Co4  1  0.19039000  0.80835000  0.57984000  1.0
  Co  Co5  1  0.80968000  0.19159000  0.42019000  1.0
  Co  Co6  1  0.69361000  0.57934000  0.81222000  1.0
  Co  Co7  1  0.30644000  0.42067000  0.18777000  1.0
  Co  Co8  1  0.76361000  0.08773000  0.91427000  1.0
  Co  Co9  1  0.23630000  0.91233000  0.08571000  1.0
  H  H10  1  0.20376000  0.99980000  0.55999000  1.0
  H  H11  1  0.79611000  0.00029000  0.43995000  1.0
  H  H12  1  0.13916000  0.63095000  0.56203000  1.0
  H  H13  1  0.86084000  0.36895000  0.43800000  1.0
  H  H14  1  0.28481000  0.60256000  0.61819000  1.0
  H  H15  1  0.71521000  0.39733000  0.38182000  1.0
  H  H16  1  0.59241000  0.04888000  0.80585000  1.0
  H  H17  1  0.40766000  0.95115000  0.19408000  1.0
  H  H18  1  0.75585000  0.00573000  0.78994000  1.0
  H  H19  1  0.24422000  0.99428000  0.21008000  1.0
  H  H20  1  0.68979000  0.92302000  0.06400000  1.0
  H  H21  1  0.31026000  0.07696000  0.93598000  1.0
  H  H22  1  0.85247000  0.94475000  0.08067000  1.0
  H  H23  1  0.14754000  0.05530000  0.91930000  1.0
  H  H24  1  0.93906000  0.18454000  0.97352000  1.0
  H  H25  1  0.06098000  0.81548000  0.02648000  1.0
  H  H26  1  0.77064000  0.20983000  0.99975000  1.0
  H  H27  1  0.22940000  0.79020000  0.00024000  1.0
  H  H28  1  0.67443000  0.26358000  0.77438000  1.0
  H  H29  1  0.32558000  0.73648000  0.22556000  1.0
  H  H30  1  0.84135000  0.23324000  0.74316000  1.0
  H  H31  1  0.15867000  0.76678000  0.25682000  1.0
  H  H32  1  0.70317000  0.55986000  0.00035000  1.0
  H  H33  1  0.29692000  0.44001000  0.99977000  1.0
  H  H34  1  0.78929000  0.61458000  0.60852000  1.0
  H  H35  1  0.21068000  0.38545000  0.39146000  1.0
  H  H36  1  0.65204000  0.55147000  0.63640000  1.0
  H  H37  1  0.34792000  0.44860000  0.36352000  1.0
  H  H38  1  0.02806000  0.61867000  0.74989000  1.0
  H  H39  1  0.97197000  0.38134000  0.25011000  1.0
  H  H40  1  0.67191000  0.83575000  0.72113000  1.0
  H  H41  1  0.32808000  0.16426000  0.27889000  1.0
  H  H42  1  0.17006000  0.72295000  0.82995000  1.0
  H  H43  1  0.82997000  0.27704000  0.17002000  1.0
  H  H44  1  0.52818000  0.74943000  0.62344000  1.0
  H  H45  1  0.47192000  0.25057000  0.37660000  1.0
  H  H46  1  0.35071000  0.20715000  0.52354000  1.0
  H  H47  1  0.64926000  0.79284000  0.47647000  1.0
  H  H48  1  0.50723000  0.93733000  0.75226000  1.0
  H  H49  1  0.49275000  0.06269000  0.24776000  1.0
  H  H50  1  0.25920000  0.92172000  0.83553000  1.0
  H  H51  1  0.74077000  0.07829000  0.16446000  1.0
  H  H52  1  0.84824000  0.52646000  0.20088000  1.0
  H  H53  1  0.15171000  0.47358000  0.79909000  1.0
  H  H54  1  0.97967000  0.75095000  0.92584000  1.0
  H  H55  1  0.02028000  0.24907000  0.07420000  1.0
  H  H56  1  0.72971000  0.83656000  0.91542000  1.0
  H  H57  1  0.27031000  0.16355000  0.08462000  1.0
  C  C58  1  0.96091000  0.68964000  0.72824000  1.0
  C  C59  1  0.03911000  0.31036000  0.27177000  1.0
  C  C60  1  0.77901000  0.79884000  0.71369000  1.0
  C  C61  1  0.22098000  0.20114000  0.28633000  1.0
  C  C62  1  0.27779000  0.71522000  0.79570000  1.0
  C  C63  1  0.72227000  0.28475000  0.20431000  1.0
  C  C64  1  0.46089000  0.72900000  0.69202000  1.0
  C  C65  1  0.53918000  0.27096000  0.30801000  1.0
  C  C66  1  0.16423000  0.05384000  0.72559000  1.0
  C  C67  1  0.83576000  0.94618000  0.27442000  1.0
  C  C68  1  0.19072000  0.13336000  0.63595000  1.0
  C  C69  1  0.80925000  0.86664000  0.36405000  1.0
  C  C70  1  0.33077000  0.14388000  0.59108000  1.0
  C  C71  1  0.66921000  0.85612000  0.40894000  1.0
  C  C72  1  0.44627000  0.07396000  0.63308000  1.0
  C  C73  1  0.55370000  0.92605000  0.36694000  1.0
  C  C74  1  0.41862000  0.99305000  0.72029000  1.0
  C  C75  1  0.58136000  0.00697000  0.27973000  1.0
  C  C76  1  0.27973000  0.98388000  0.76684000  1.0
  C  C77  1  0.72025000  0.01615000  0.23319000  1.0
  C  C78  1  0.01645000  0.03821000  0.77858000  1.0
  C  C79  1  0.98354000  0.96179000  0.22141000  1.0
  C  C80  1  0.59836000  0.08578000  0.58645000  1.0
  C  C81  1  0.40160000  0.91417000  0.41361000  1.0
  C  C82  1  0.64622000  0.72847000  0.04976000  1.0
  C  C83  1  0.35373000  0.27160000  0.95025000  1.0
  C  C84  1  0.68087000  0.63896000  0.12909000  1.0
  C  C85  1  0.31910000  0.36109000  0.87091000  1.0
  C  C86  1  0.82289000  0.59376000  0.13765000  1.0
  C  C87  1  0.17708000  0.40631000  0.86234000  1.0
  C  C88  1  0.93296000  0.63462000  0.06550000  1.0
  C  C89  1  0.06701000  0.36542000  0.93448000  1.0
  C  C90  1  0.89651000  0.72063000  0.98419000  1.0
  C  C91  1  0.10343000  0.27940000  0.01583000  1.0
  C  C92  1  0.75583000  0.76792000  0.97731000  1.0
  C  C93  1  0.24414000  0.23216000  0.02272000  1.0
  C  C94  1  0.49528000  0.78157000  0.03631000  1.0
  C  C95  1  0.50468000  0.21847000  0.96369000  1.0
  C  C96  1  0.08808000  0.58806000  0.07594000  1.0
  C  C97  1  0.91191000  0.41197000  0.92398000  1.0
  S  S98  1  0.04481000  0.22240000  0.57886000  1.0
  S  S99  1  0.95514000  0.77758000  0.42111000  1.0
  S  S100  1  0.54115000  0.58028000  0.21794000  1.0
  S  S101  1  0.45888000  0.41970000  0.78207000  1.0
  N  N102  1  0.88826000  0.84753000  0.65703000  1.0
  N  N103  1  0.11173000  0.15246000  0.34301000  1.0
  N  N104  1  0.00494000  0.77697000  0.66643000  1.0
  N  N105  1  0.99506000  0.22304000  0.33362000  1.0
  N  N106  1  0.81949000  0.69938000  0.75942000  1.0
  N  N107  1  0.18052000  0.30060000  0.24057000  1.0
  N  N108  1  0.50633000  0.66849000  0.77933000  1.0
  N  N109  1  0.49374000  0.33148000  0.22070000  1.0
  N  N110  1  0.38864000  0.65942000  0.84628000  1.0
  N  N111  1  0.61140000  0.34055000  0.15374000  1.0
  N  N112  1  0.31789000  0.75973000  0.69839000  1.0
  N  N113  1  0.68218000  0.24022000  0.30163000  1.0
  O  O114  1  0.92491000  0.00396000  0.74132000  1.0
  O  O115  1  0.07507000  0.99602000  0.25868000  1.0
  O  O116  1  0.99270000  0.05725000  0.85923000  1.0
  O  O117  1  0.00730000  0.94276000  0.14076000  1.0
  O  O118  1  0.97590000  0.26240000  0.65501000  1.0
  O  O119  1  0.02413000  0.73765000  0.34493000  1.0
  O  O120  1  0.94784000  0.16116000  0.55061000  1.0
  O  O121  1  0.05207000  0.83876000  0.44948000  1.0
  O  O122  1  0.10583000  0.29925000  0.49180000  1.0
  O  O123  1  0.89406000  0.70066000  0.50811000  1.0
  O  O124  1  0.61718000  0.15875000  0.50602000  1.0
  O  O125  1  0.38285000  0.84113000  0.49397000  1.0
  O  O126  1  0.69635000  0.02083000  0.63256000  1.0
  O  O127  1  0.30356000  0.97913000  0.36759000  1.0
  O  O128  1  0.46752000  0.86256000  0.05613000  1.0
  O  O129  1  0.53242000  0.13749000  0.94384000  1.0
  O  O130  1  0.40496000  0.74258000  0.00206000  1.0
  O  O131  1  0.59503000  0.25741000  0.99796000  1.0
  O  O132  1  0.44136000  0.55242000  0.15842000  1.0
  O  O133  1  0.55875000  0.44754000  0.84157000  1.0
  O  O134  1  0.47147000  0.65688000  0.25894000  1.0
  O  O135  1  0.52848000  0.34304000  0.74112000  1.0
  O  O136  1  0.60860000  0.49146000  0.29202000  1.0
  O  O137  1  0.39149000  0.50852000  0.70796000  1.0
  O  O138  1  0.11274000  0.50929000  0.15086000  1.0
  O  O139  1  0.88727000  0.49070000  0.84902000  1.0
  O  O140  1  0.18148000  0.63221000  0.00894000  1.0
  O  O141  1  0.81848000  0.36786000  0.99098000  1.0
  O  O142  1  0.12801000  0.96177000  0.55225000  1.0
  O  O143  1  0.87196000  0.03821000  0.44775000  1.0
  O  O144  1  0.22594000  0.65802000  0.57152000  1.0
  O  O145  1  0.77403000  0.34190000  0.42853000  1.0
  O  O146  1  0.67504000  0.00880000  0.84126000  1.0
  O  O147  1  0.32497000  0.99122000  0.15872000  1.0
  O  O148  1  0.77787000  0.95502000  0.03209000  1.0
  O  O149  1  0.22212000  0.04505000  0.96789000  1.0
  O  O150  1  0.84862000  0.15402000  0.00077000  1.0
  O  O151  1  0.15140000  0.84602000  0.99919000  1.0
  O  O152  1  0.76127000  0.21490000  0.79559000  1.0
  O  O153  1  0.23870000  0.78511000  0.20435000  1.0
  O  O154  1  0.62804000  0.55198000  0.96192000  1.0
  O  O155  1  0.37208000  0.44799000  0.03809000  1.0
  O  O156  1  0.73156000  0.56966000  0.66397000  1.0
  O  O157  1  0.26856000  0.43021000  0.33598000  1.0
