# generated using pymatgen
data_ZnH11C18(NO2)2
_symmetry_space_group_name_H-M   'P 1'
_cell_length_a   10.38490000
_cell_length_b   11.89430000
_cell_length_c   32.23610000
_cell_angle_alpha   89.99990000
_cell_angle_beta   90.00000000
_cell_angle_gamma   89.99990000
_symmetry_Int_Tables_number   1
_chemical_formula_structural   ZnH11C18(NO2)2
_chemical_formula_sum   'Zn8 H88 C144 N16 O32'
_cell_volume   3981.83904973
_cell_formula_units_Z   8
loop_
 _symmetry_equiv_pos_site_id
 _symmetry_equiv_pos_as_xyz
  1  'x, y, z'
loop_
 _atom_site_type_symbol
 _atom_site_label
 _atom_site_symmetry_multiplicity
 _atom_site_fract_x
 _atom_site_fract_y
 _atom_site_fract_z
 _atom_site_occupancy
  Zn  Zn0  1  0.38680000  0.16453000  0.95597000  1.0
  Zn  Zn1  1  0.11320000  0.83547000  0.45597000  1.0
  Zn  Zn2  1  0.61319000  0.66453000  0.54403000  1.0
  Zn  Zn3  1  0.88680000  0.33547000  0.04403000  1.0
  Zn  Zn4  1  0.12308000  0.94921000  0.35316000  1.0
  Zn  Zn5  1  0.37692000  0.05079000  0.85316000  1.0
  Zn  Zn6  1  0.87692000  0.44921000  0.14684000  1.0
  Zn  Zn7  1  0.62308000  0.55079000  0.64684000  1.0
  H  H8  1  0.75593000  0.07337000  0.96000000  1.0
  H  H9  1  0.74407000  0.92663000  0.46000000  1.0
  H  H10  1  0.24407000  0.57337000  0.54000000  1.0
  H  H11  1  0.25593000  0.42663000  0.04000000  1.0
  H  H12  1  0.99546000  0.08059000  0.96521000  1.0
  H  H13  1  0.50454000  0.91941000  0.46521000  1.0
  H  H14  1  0.00455000  0.58059000  0.53479000  1.0
  H  H15  1  0.49546000  0.41941000  0.03479000  1.0
  H  H16  1  0.13591000  0.19620000  0.82947000  1.0
  H  H17  1  0.36409000  0.80380000  0.32947000  1.0
  H  H18  1  0.86409000  0.69620000  0.67053000  1.0
  H  H19  1  0.63591000  0.30380000  0.17053000  1.0
  H  H20  1  0.02814000  0.26224000  0.76605000  1.0
  H  H21  1  0.47186000  0.73776000  0.26605000  1.0
  H  H22  1  0.97186000  0.76224000  0.73395000  1.0
  H  H23  1  0.52814000  0.23776000  0.23395000  1.0
  H  H24  1  0.78664000  0.27868000  0.76445000  1.0
  H  H25  1  0.71336000  0.72132000  0.26445000  1.0
  H  H26  1  0.21336000  0.77868000  0.73555000  1.0
  H  H27  1  0.28664000  0.22132000  0.23555000  1.0
  H  H28  1  0.66036000  0.21998000  0.82531000  1.0
  H  H29  1  0.83964000  0.78002000  0.32531000  1.0
  H  H30  1  0.33963000  0.71998000  0.67469000  1.0
  H  H31  1  0.16037000  0.28002000  0.17469000  1.0
  H  H32  1  0.48037000  0.77929000  0.93866000  1.0
  H  H33  1  0.01963000  0.22071000  0.43866000  1.0
  H  H34  1  0.51963000  0.27929000  0.56134000  1.0
  H  H35  1  0.98037000  0.72071000  0.06134000  1.0
  H  H36  1  0.50811000  0.58842000  0.96996000  1.0
  H  H37  1  0.99189000  0.41158000  0.46996000  1.0
  H  H38  1  0.49189000  0.08842000  0.53004000  1.0
  H  H39  1  0.00811000  0.91158000  0.03004000  1.0
  H  H40  1  0.33423000  0.33205000  0.86844000  1.0
  H  H41  1  0.16577000  0.66795000  0.36844000  1.0
  H  H42  1  0.66577000  0.83205000  0.63156000  1.0
  H  H43  1  0.83422000  0.16795000  0.13156000  1.0
  H  H44  1  0.25333000  0.35349000  0.79709000  1.0
  H  H45  1  0.24667000  0.64651000  0.29709000  1.0
  H  H46  1  0.74667000  0.85349000  0.70291000  1.0
  H  H47  1  0.75333000  0.14651000  0.20291000  1.0
  H  H48  1  0.23316000  0.54445000  0.76505000  1.0
  H  H49  1  0.26684000  0.45555000  0.26505000  1.0
  H  H50  1  0.76684000  0.04445000  0.73495000  1.0
  H  H51  1  0.73316000  0.95555000  0.23495000  1.0
  H  H52  1  0.30081000  0.71240000  0.80465000  1.0
  H  H53  1  0.19919000  0.28760000  0.30465000  1.0
  H  H54  1  0.69919000  0.21240000  0.69535000  1.0
  H  H55  1  0.80081000  0.78760000  0.19535000  1.0
  H  H56  1  0.46387000  0.93057000  0.21129000  1.0
  H  H57  1  0.03613000  0.06943000  0.71129000  1.0
  H  H58  1  0.53613000  0.43057000  0.28871000  1.0
  H  H59  1  0.96387000  0.56943000  0.78871000  1.0
  H  H60  1  0.55738000  0.00279000  0.14627000  1.0
  H  H61  1  0.94262000  0.99721000  0.64627000  1.0
  H  H62  1  0.44262000  0.50279000  0.35373000  1.0
  H  H63  1  0.05738000  0.49721000  0.85373000  1.0
  H  H64  1  0.17363000  0.04962000  0.09643000  1.0
  H  H65  1  0.32637000  0.95038000  0.59643000  1.0
  H  H66  1  0.82637000  0.54962000  0.40357000  1.0
  H  H67  1  0.67363000  0.45038000  0.90357000  1.0
  H  H68  1  0.08205000  0.97624000  0.16164000  1.0
  H  H69  1  0.41795000  0.02376000  0.66164000  1.0
  H  H70  1  0.91795000  0.47624000  0.33836000  1.0
  H  H71  1  0.58206000  0.52376000  0.83836000  1.0
  H  H72  1  0.29708000  0.02380000  0.27207000  1.0
  H  H73  1  0.20292000  0.97620000  0.77207000  1.0
  H  H74  1  0.70292000  0.52380000  0.22793000  1.0
  H  H75  1  0.79708000  0.47620000  0.72793000  1.0
  H  H76  1  0.00768000  0.77864000  0.28785000  1.0
  H  H77  1  0.49232000  0.22136000  0.78785000  1.0
  H  H78  1  0.99232000  0.27864000  0.21215000  1.0
  H  H79  1  0.50768000  0.72136000  0.71215000  1.0
  H  H80  1  0.08008000  0.78067000  0.20507000  1.0
  H  H81  1  0.41991000  0.21933000  0.70507000  1.0
  H  H82  1  0.91991000  0.28067000  0.29493000  1.0
  H  H83  1  0.58009000  0.71933000  0.79493000  1.0
  H  H84  1  0.25049000  0.08560000  0.04106000  1.0
  H  H85  1  0.24951000  0.91440000  0.54106000  1.0
  H  H86  1  0.74950000  0.58560000  0.45894000  1.0
  H  H87  1  0.75050000  0.41440000  0.95894000  1.0
  H  H88  1  0.63764000  0.16201000  0.01259000  1.0
  H  H89  1  0.86236000  0.83799000  0.51259000  1.0
  H  H90  1  0.36236000  0.66201000  0.48741000  1.0
  H  H91  1  0.13764000  0.33799000  0.98741000  1.0
  H  H92  1  0.62806000  0.08862000  0.09344000  1.0
  H  H93  1  0.87194000  0.91138000  0.59344000  1.0
  H  H94  1  0.37194000  0.58862000  0.40656000  1.0
  H  H95  1  0.12807000  0.41138000  0.90656000  1.0
  C  C96  1  0.74948000  0.13194000  0.89747000  1.0
  C  C97  1  0.75052000  0.86806000  0.39747000  1.0
  C  C98  1  0.25052000  0.63194000  0.60253000  1.0
  C  C99  1  0.24948000  0.36806000  0.10253000  1.0
  C  C100  1  0.81303000  0.10082000  0.93355000  1.0
  C  C101  1  0.68697000  0.89918000  0.43355000  1.0
  C  C102  1  0.18697000  0.60082000  0.56645000  1.0
  C  C103  1  0.31303000  0.39918000  0.06645000  1.0
  C  C104  1  0.94763000  0.10232000  0.93621000  1.0
  C  C105  1  0.55237000  0.89768000  0.43621000  1.0
  C  C106  1  0.05237000  0.60232000  0.56379000  1.0
  C  C107  1  0.44763000  0.39768000  0.06379000  1.0
  C  C108  1  0.02314000  0.13162000  0.90238000  1.0
  C  C109  1  0.47686000  0.86838000  0.40238000  1.0
  C  C110  1  0.97686000  0.63162000  0.59762000  1.0
  C  C111  1  0.52314000  0.36838000  0.09762000  1.0
  C  C112  1  0.96213000  0.16606000  0.86425000  1.0
  C  C113  1  0.53788000  0.83394000  0.36425000  1.0
  C  C114  1  0.03787000  0.66606000  0.63575000  1.0
  C  C115  1  0.46213000  0.33394000  0.13575000  1.0
  C  C116  1  0.03182000  0.19955000  0.82823000  1.0
  C  C117  1  0.46818000  0.80045000  0.32823000  1.0
  C  C118  1  0.96818000  0.69955000  0.67177000  1.0
  C  C119  1  0.53182000  0.30045000  0.17177000  1.0
  C  C120  1  0.97076000  0.23703000  0.79287000  1.0
  C  C121  1  0.52924000  0.76298000  0.29287000  1.0
  C  C122  1  0.02924000  0.73703000  0.70713000  1.0
  C  C123  1  0.47076000  0.26297000  0.20713000  1.0
  C  C124  1  0.83562000  0.24586000  0.79185000  1.0
  C  C125  1  0.66438000  0.75414000  0.29185000  1.0
  C  C126  1  0.16438000  0.74586000  0.70815000  1.0
  C  C127  1  0.33562000  0.25414000  0.20815000  1.0
  C  C128  1  0.76434000  0.21329000  0.82582000  1.0
  C  C129  1  0.73566000  0.78671000  0.32582000  1.0
  C  C130  1  0.23565000  0.71328000  0.67418000  1.0
  C  C131  1  0.26435000  0.28671000  0.17418000  1.0
  C  C132  1  0.82298000  0.16969000  0.86234000  1.0
  C  C133  1  0.67702000  0.83031000  0.36234000  1.0
  C  C134  1  0.17702000  0.66969000  0.63766000  1.0
  C  C135  1  0.32298000  0.33031000  0.13766000  1.0
  C  C136  1  0.60562000  0.11928000  0.89739000  1.0
  C  C137  1  0.89438000  0.88072000  0.39739000  1.0
  C  C138  1  0.39438000  0.61928000  0.60261000  1.0
  C  C139  1  0.10562000  0.38072000  0.10261000  1.0
  C  C140  1  0.16630000  0.12792000  0.90882000  1.0
  C  C141  1  0.33369000  0.87208000  0.40882000  1.0
  C  C142  1  0.83369000  0.62792000  0.59118000  1.0
  C  C143  1  0.66631000  0.37208000  0.09118000  1.0
  C  C144  1  0.40136000  0.71626000  0.88187000  1.0
  C  C145  1  0.09864000  0.28375000  0.38187000  1.0
  C  C146  1  0.59865000  0.21626000  0.61813000  1.0
  C  C147  1  0.90136000  0.78374000  0.11813000  1.0
  C  C148  1  0.44966000  0.70472000  0.92166000  1.0
  C  C149  1  0.05034000  0.29528000  0.42166000  1.0
  C  C150  1  0.55034000  0.20472000  0.57834000  1.0
  C  C151  1  0.94966000  0.79528000  0.07834000  1.0
  C  C152  1  0.46363000  0.59750000  0.93948000  1.0
  C  C153  1  0.03637000  0.40250000  0.43948000  1.0
  C  C154  1  0.53637000  0.09750000  0.56052000  1.0
  C  C155  1  0.96363000  0.90250000  0.06052000  1.0
  C  C156  1  0.42344000  0.50158000  0.91884000  1.0
  C  C157  1  0.07656000  0.49842000  0.41884000  1.0
  C  C158  1  0.57656000  0.00158000  0.58116000  1.0
  C  C159  1  0.92345000  0.99842000  0.08116000  1.0
  C  C160  1  0.36753000  0.51044000  0.87830000  1.0
  C  C161  1  0.13247000  0.48956000  0.37830000  1.0
  C  C162  1  0.63248000  0.01044000  0.62170000  1.0
  C  C163  1  0.86753000  0.98956000  0.12170000  1.0
  C  C164  1  0.32821000  0.41533000  0.85458000  1.0
  C  C165  1  0.17179000  0.58467000  0.35458000  1.0
  C  C166  1  0.67179000  0.91533000  0.64542000  1.0
  C  C167  1  0.82822000  0.08467000  0.14542000  1.0
  C  C168  1  0.28146000  0.42769000  0.81474000  1.0
  C  C169  1  0.21854000  0.57231000  0.31474000  1.0
  C  C170  1  0.71853000  0.92769000  0.68526000  1.0
  C  C171  1  0.78147000  0.07231000  0.18526000  1.0
  C  C172  1  0.26988000  0.53540000  0.79659000  1.0
  C  C173  1  0.23013000  0.46460000  0.29659000  1.0
  C  C174  1  0.73012000  0.03540000  0.70341000  1.0
  C  C175  1  0.76988000  0.96460000  0.20341000  1.0
  C  C176  1  0.30712000  0.62918000  0.81862000  1.0
  C  C177  1  0.19287000  0.37082000  0.31862000  1.0
  C  C178  1  0.69287000  0.12918000  0.68138000  1.0
  C  C179  1  0.80713000  0.87083000  0.18138000  1.0
  C  C180  1  0.35827000  0.61991000  0.85941000  1.0
  C  C181  1  0.14173000  0.38010000  0.35941000  1.0
  C  C182  1  0.64173000  0.11990000  0.64059000  1.0
  C  C183  1  0.85827000  0.88010000  0.14059000  1.0
  C  C184  1  0.40375000  0.83002000  0.86186000  1.0
  C  C185  1  0.09625000  0.16998000  0.36186000  1.0
  C  C186  1  0.59625000  0.33002000  0.63814000  1.0
  C  C187  1  0.90375000  0.66998000  0.13814000  1.0
  C  C188  1  0.44685000  0.39032000  0.93973000  1.0
  C  C189  1  0.05315000  0.60968000  0.43973000  1.0
  C  C190  1  0.55315000  0.89032000  0.56027000  1.0
  C  C191  1  0.94685000  0.10968000  0.06027000  1.0
  C  C192  1  0.26724000  0.94908000  0.19017000  1.0
  C  C193  1  0.23276000  0.05092000  0.69017000  1.0
  C  C194  1  0.73276000  0.44908000  0.30983000  1.0
  C  C195  1  0.76724000  0.55092000  0.80983000  1.0
  C  C196  1  0.40063000  0.95696000  0.18609000  1.0
  C  C197  1  0.09937000  0.04304000  0.68609000  1.0
  C  C198  1  0.59937000  0.45696000  0.31391000  1.0
  C  C199  1  0.90063000  0.54304000  0.81391000  1.0
  C  C200  1  0.45319000  0.99753000  0.14922000  1.0
  C  C201  1  0.04682000  0.00247000  0.64922000  1.0
  C  C202  1  0.54681000  0.49753000  0.35078000  1.0
  C  C203  1  0.95319000  0.50247000  0.85078000  1.0
  C  C204  1  0.37180000  0.03041000  0.11684000  1.0
  C  C205  1  0.12820000  0.96959000  0.61684000  1.0
  C  C206  1  0.62820000  0.53041000  0.38316000  1.0
  C  C207  1  0.87180000  0.46959000  0.88316000  1.0
  C  C208  1  0.23791000  0.02235000  0.12118000  1.0
  C  C209  1  0.26209000  0.97765000  0.62118000  1.0
  C  C210  1  0.76209000  0.52235000  0.37882000  1.0
  C  C211  1  0.73791000  0.47765000  0.87882000  1.0
  C  C212  1  0.18601000  0.98121000  0.15779000  1.0
  C  C213  1  0.31400000  0.01879000  0.65779000  1.0
  C  C214  1  0.81399000  0.48122000  0.34221000  1.0
  C  C215  1  0.68601000  0.51878000  0.84221000  1.0
  C  C216  1  0.22895000  0.95683000  0.26606000  1.0
  C  C217  1  0.27105000  0.04317000  0.76606000  1.0
  C  C218  1  0.77105000  0.45683000  0.23394000  1.0
  C  C219  1  0.72895000  0.54317000  0.73394000  1.0
  C  C220  1  0.07875000  0.82989000  0.27223000  1.0
  C  C221  1  0.42125000  0.17011000  0.77223000  1.0
  C  C222  1  0.92125000  0.32989000  0.22777000  1.0
  C  C223  1  0.57875000  0.67011000  0.72777000  1.0
  C  C224  1  0.11403000  0.83029000  0.23126000  1.0
  C  C225  1  0.38597000  0.16971000  0.73126000  1.0
  C  C226  1  0.88597000  0.33029000  0.26874000  1.0
  C  C227  1  0.61403000  0.66971000  0.76874000  1.0
  C  C228  1  0.35444000  0.09410000  0.04397000  1.0
  C  C229  1  0.14556000  0.90590000  0.54397000  1.0
  C  C230  1  0.64555000  0.59410000  0.45603000  1.0
  C  C231  1  0.85445000  0.40590000  0.95603000  1.0
  C  C232  1  0.55644000  0.13230000  0.03048000  1.0
  C  C233  1  0.94356000  0.86770000  0.53048000  1.0
  C  C234  1  0.44356000  0.63230000  0.46952000  1.0
  C  C235  1  0.05644000  0.36770000  0.96952000  1.0
  C  C236  1  0.55223000  0.09608000  0.07066000  1.0
  C  C237  1  0.94777000  0.90391000  0.57066000  1.0
  C  C238  1  0.44777000  0.59608000  0.42934000  1.0
  C  C239  1  0.05223000  0.40392000  0.92934000  1.0
  N  N240  1  0.20989000  0.91104000  0.22788000  1.0
  N  N241  1  0.29011000  0.08896000  0.72788000  1.0
  N  N242  1  0.79011000  0.41104000  0.27212000  1.0
  N  N243  1  0.70989000  0.58896000  0.77212000  1.0
  N  N244  1  0.15047000  0.90913000  0.29349000  1.0
  N  N245  1  0.34952000  0.09087000  0.79349000  1.0
  N  N246  1  0.84953000  0.40913000  0.20651000  1.0
  N  N247  1  0.65048000  0.59087000  0.70651000  1.0
  N  N248  1  0.42368000  0.07199000  0.07908000  1.0
  N  N249  1  0.07632000  0.92801000  0.57908000  1.0
  N  N250  1  0.57632000  0.57199000  0.42092000  1.0
  N  N251  1  0.92368000  0.42801000  0.92092000  1.0
  N  N252  1  0.43295000  0.13013000  0.01432000  1.0
  N  N253  1  0.06705000  0.86987000  0.51432000  1.0
  N  N254  1  0.56705000  0.63013000  0.48568000  1.0
  N  N255  1  0.93295000  0.36987000  0.98568000  1.0
  O  O256  1  0.54673000  0.12037000  0.86255000  1.0
  O  O257  1  0.95327000  0.87963000  0.36255000  1.0
  O  O258  1  0.45327000  0.62037000  0.63745000  1.0
  O  O259  1  0.04673000  0.37963000  0.13745000  1.0
  O  O260  1  0.55043000  0.10427000  0.93221000  1.0
  O  O261  1  0.94957000  0.89573000  0.43221000  1.0
  O  O262  1  0.44957000  0.60427000  0.56779000  1.0
  O  O263  1  0.05043000  0.39573000  0.06779000  1.0
  O  O264  1  0.24104000  0.14834000  0.87824000  1.0
  O  O265  1  0.25896000  0.85166000  0.37824000  1.0
  O  O266  1  0.75896000  0.64834000  0.62176000  1.0
  O  O267  1  0.74104000  0.35166000  0.12176000  1.0
  O  O268  1  0.20836000  0.10681000  0.94523000  1.0
  O  O269  1  0.29164000  0.89319000  0.44523000  1.0
  O  O270  1  0.79164000  0.60681000  0.55477000  1.0
  O  O271  1  0.70836000  0.39319000  0.05477000  1.0
  O  O272  1  0.34559000  0.90945000  0.88215000  1.0
  O  O273  1  0.15441000  0.09055000  0.38215000  1.0
  O  O274  1  0.65441000  0.40945000  0.61785000  1.0
  O  O275  1  0.84559000  0.59055000  0.11785000  1.0
  O  O276  1  0.46183000  0.84474000  0.82820000  1.0
  O  O277  1  0.03817000  0.15526000  0.32820000  1.0
  O  O278  1  0.53817000  0.34474000  0.67180000  1.0
  O  O279  1  0.96183000  0.65526000  0.17180000  1.0
  O  O280  1  0.55290000  0.37201000  0.95690000  1.0
  O  O281  1  0.94710000  0.62799000  0.45690000  1.0
  O  O282  1  0.44710000  0.87201000  0.54310000  1.0
  O  O283  1  0.05290000  0.12799000  0.04310000  1.0
  O  O284  1  0.35180000  0.31965000  0.93838000  1.0
  O  O285  1  0.14820000  0.68034000  0.43838000  1.0
  O  O286  1  0.64820000  0.81965000  0.56162000  1.0
  O  O287  1  0.85180000  0.18034000  0.06162000  1.0
