# generated using pymatgen
data_CdH6C12(NO2)2
_symmetry_space_group_name_H-M   'P 1'
_cell_length_a   6.77294000
_cell_length_b   9.43593000
_cell_length_c   9.49695000
_cell_angle_alpha   105.48600000
_cell_angle_beta   91.03910000
_cell_angle_gamma   102.99900000
_symmetry_Int_Tables_number   1
_chemical_formula_structural   CdH6C12(NO2)2
_chemical_formula_sum   'Cd2 H12 C24 N4 O8'
_cell_volume   567.93769937
_cell_formula_units_Z   2
loop_
 _symmetry_equiv_pos_site_id
 _symmetry_equiv_pos_as_xyz
  1  'x, y, z'
loop_
 _atom_site_type_symbol
 _atom_site_label
 _atom_site_symmetry_multiplicity
 _atom_site_fract_x
 _atom_site_fract_y
 _atom_site_fract_z
 _atom_site_occupancy
  Cd  Cd0  1  0.27070000  0.52958000  0.13206000  1.0
  Cd  Cd1  1  0.72931000  0.47043000  0.86795000  1.0
  H  H2  1  0.27976000  0.93609000  0.96020000  1.0
  H  H3  1  0.72028000  0.06393000  0.03979000  1.0
  H  H4  1  0.19732000  0.10425000  0.41709000  1.0
  H  H5  1  0.80268000  0.89575000  0.58291000  1.0
  H  H6  1  0.23955000  0.76184000  0.72055000  1.0
  H  H7  1  0.76043000  0.23815000  0.27946000  1.0
  H  H8  1  0.29500000  0.19777000  0.93547000  1.0
  H  H9  1  0.70503000  0.80225000  0.06454000  1.0
  H  H10  1  0.24762000  0.29142000  0.58959000  1.0
  H  H11  1  0.75235000  0.70857000  0.41040000  1.0
  H  H12  1  0.26224000  0.76161000  0.45573000  1.0
  H  H13  1  0.73773000  0.23838000  0.54427000  1.0
  C  C14  1  0.21530000  0.84643000  0.21227000  1.0
  C  C15  1  0.78472000  0.15358000  0.78772000  1.0
  C  C16  1  0.22721000  0.51987000  0.82780000  1.0
  C  C17  1  0.77279000  0.48012000  0.17220000  1.0
  C  C18  1  0.27802000  0.17277000  0.04079000  1.0
  C  C19  1  0.72200000  0.82722000  0.95921000  1.0
  C  C20  1  0.26767000  0.02807000  0.05466000  1.0
  C  C21  1  0.73235000  0.97193000  0.94534000  1.0
  C  C22  1  0.23855000  0.00232000  0.19188000  1.0
  C  C23  1  0.76147000  0.99769000  0.80812000  1.0
  C  C24  1  0.22591000  0.12383000  0.31061000  1.0
  C  C25  1  0.77410000  0.87617000  0.68938000  1.0
  C  C26  1  0.25040000  0.26810000  0.29075000  1.0
  C  C27  1  0.74960000  0.73191000  0.70925000  1.0
  C  C28  1  0.25513000  0.40350000  0.41559000  1.0
  C  C29  1  0.74485000  0.59650000  0.58441000  1.0
  C  C30  1  0.25097000  0.39585000  0.56071000  1.0
  C  C31  1  0.74901000  0.60415000  0.43929000  1.0
  C  C32  1  0.24358000  0.52485000  0.67198000  1.0
  C  C33  1  0.75640000  0.47514000  0.32802000  1.0
  C  C34  1  0.24781000  0.65978000  0.63626000  1.0
  C  C35  1  0.75217000  0.34021000  0.36375000  1.0
  C  C36  1  0.26078000  0.66028000  0.49051000  1.0
  C  C37  1  0.73920000  0.33971000  0.50950000  1.0
  N  N38  1  0.27187000  0.28961000  0.15624000  1.0
  N  N39  1  0.72814000  0.71039000  0.84376000  1.0
  N  N40  1  0.26255000  0.53537000  0.38328000  1.0
  N  N41  1  0.73741000  0.46462000  0.61672000  1.0
  O  O42  1  0.09892000  0.58231000  0.89940000  1.0
  O  O43  1  0.90109000  0.41768000  0.10061000  1.0
  O  O44  1  0.35933000  0.78167000  0.16680000  1.0
  O  O45  1  0.64070000  0.21834000  0.83319000  1.0
  O  O46  1  0.34689000  0.45767000  0.88205000  1.0
  O  O47  1  0.65311000  0.54232000  0.11795000  1.0
  O  O48  1  0.06174000  0.79455000  0.27080000  1.0
  O  O49  1  0.93828000  0.20545000  0.72919000  1.0
