# generated using pymatgen
data_ZnH12C20NO5
_symmetry_space_group_name_H-M   'P 1'
_cell_length_a   10.25750000
_cell_length_b   14.19691247
_cell_length_c   27.11470000
_cell_angle_alpha   76.07656234
_cell_angle_beta   90.01820000
_cell_angle_gamma   68.81645309
_symmetry_Int_Tables_number   1
_chemical_formula_structural   ZnH12C20NO5
_chemical_formula_sum   'Zn8 H96 C160 N8 O40'
_cell_volume   3556.92946659
_cell_formula_units_Z   8
loop_
 _symmetry_equiv_pos_site_id
 _symmetry_equiv_pos_as_xyz
  1  'x, y, z'
loop_
 _atom_site_type_symbol
 _atom_site_label
 _atom_site_symmetry_multiplicity
 _atom_site_fract_x
 _atom_site_fract_y
 _atom_site_fract_z
 _atom_site_occupancy
  Zn  Zn0  1  0.89285000  0.77686000  0.92347000  1.0
  Zn  Zn1  1  0.66962000  0.22318000  0.57648000  1.0
  Zn  Zn2  1  0.10716000  0.22313000  0.07653000  1.0
  Zn  Zn3  1  0.33038000  0.77682000  0.42352000  1.0
  Zn  Zn4  1  0.66139000  0.99898000  0.92733000  1.0
  Zn  Zn5  1  0.66061000  0.00103000  0.57266000  1.0
  Zn  Zn6  1  0.33862000  0.00102000  0.07267000  1.0
  Zn  Zn7  1  0.33939000  0.99897000  0.42734000  1.0
  H  H8  1  0.93610000  0.64281000  0.08426000  1.0
  H  H9  1  0.57882000  0.35721000  0.41577000  1.0
  H  H10  1  0.06390000  0.35719000  0.91574000  1.0
  H  H11  1  0.42119000  0.64278000  0.58423000  1.0
  H  H12  1  0.97222000  0.59175000  0.17970000  1.0
  H  H13  1  0.56396000  0.40838000  0.32033000  1.0
  H  H14  1  0.02778000  0.40825000  0.82030000  1.0
  H  H15  1  0.43604000  0.59162000  0.67967000  1.0
  H  H16  1  0.62581000  0.82484000  0.21896000  1.0
  H  H17  1  0.45060000  0.17526000  0.28100000  1.0
  H  H18  1  0.37419000  0.17516000  0.78104000  1.0
  H  H19  1  0.54940000  0.82474000  0.71900000  1.0
  H  H20  1  0.45813000  0.91865000  0.27202000  1.0
  H  H21  1  0.37728000  0.08111000  0.22797000  1.0
  H  H22  1  0.54188000  0.08135000  0.72798000  1.0
  H  H23  1  0.62272000  0.91889000  0.77203000  1.0
  H  H24  1  0.79565000  0.84917000  0.38559000  1.0
  H  H25  1  0.64512000  0.15087000  0.11444000  1.0
  H  H26  1  0.20435000  0.15083000  0.61441000  1.0
  H  H27  1  0.35488000  0.84913000  0.88556000  1.0
  H  H28  1  0.96619000  0.75297000  0.33225000  1.0
  H  H29  1  0.71900000  0.24733000  0.16778000  1.0
  H  H30  1  0.03381000  0.24703000  0.66775000  1.0
  H  H31  1  0.28101000  0.75267000  0.83222000  1.0
  H  H32  1  0.78567000  0.91689000  0.17975000  1.0
  H  H33  1  0.70222000  0.08330000  0.32019000  1.0
  H  H34  1  0.21433000  0.08311000  0.82025000  1.0
  H  H35  1  0.29778000  0.91669000  0.67981000  1.0
  H  H36  1  0.74216000  0.96616000  0.08510000  1.0
  H  H37  1  0.70795000  0.03393000  0.41482000  1.0
  H  H38  1  0.25783000  0.03384000  0.91490000  1.0
  H  H39  1  0.29205000  0.96607000  0.58518000  1.0
  H  H40  1  0.81859000  0.06447000  0.76185000  1.0
  H  H41  1  0.88301000  0.93534000  0.73811000  1.0
  H  H42  1  0.18141000  0.93553000  0.23815000  1.0
  H  H43  1  0.11700000  0.06466000  0.26189000  1.0
  H  H44  1  0.72413000  0.25476000  0.72338000  1.0
  H  H45  1  0.97878000  0.74504000  0.77653000  1.0
  H  H46  1  0.27587000  0.74524000  0.27662000  1.0
  H  H47  1  0.02122000  0.25496000  0.22347000  1.0
  H  H48  1  0.81291000  0.54724000  0.73900000  1.0
  H  H49  1  0.36029000  0.45238000  0.76114000  1.0
  H  H50  1  0.18710000  0.45275000  0.26100000  1.0
  H  H51  1  0.63971000  0.54762000  0.23886000  1.0
  H  H52  1  0.84073000  0.67296000  0.78483000  1.0
  H  H53  1  0.51394000  0.32656000  0.71537000  1.0
  H  H54  1  0.15927000  0.32704000  0.21517000  1.0
  H  H55  1  0.48607000  0.67343000  0.28463000  1.0
  H  H56  1  0.62643000  0.56079000  0.90736000  1.0
  H  H57  1  0.18776000  0.43910000  0.59262000  1.0
  H  H58  1  0.37356000  0.43922000  0.09264000  1.0
  H  H59  1  0.81224000  0.56089000  0.40738000  1.0
  H  H60  1  0.59180000  0.43890000  0.86083000  1.0
  H  H61  1  0.03113000  0.56102000  0.63910000  1.0
  H  H62  1  0.40821000  0.56110000  0.13917000  1.0
  H  H63  1  0.96887000  0.43898000  0.36090000  1.0
  H  H64  1  0.79925000  0.30560000  0.86967000  1.0
  H  H65  1  0.10481000  0.69432000  0.63025000  1.0
  H  H66  1  0.20075000  0.69440000  0.13033000  1.0
  H  H67  1  0.89519000  0.30568000  0.36975000  1.0
  H  H68  1  0.88246000  0.11560000  0.90881000  1.0
  H  H69  1  0.99795000  0.88432000  0.59114000  1.0
  H  H70  1  0.11754000  0.88440000  0.09119000  1.0
  H  H71  1  0.00206000  0.11568000  0.40886000  1.0
  H  H72  1  0.06497000  0.59095000  0.00476000  1.0
  H  H73  1  0.65501000  0.40933000  0.49525000  1.0
  H  H74  1  0.93504000  0.40904000  0.99524000  1.0
  H  H75  1  0.34501000  0.59066000  0.50475000  1.0
  H  H76  1  0.23750000  0.41570000  0.00730000  1.0
  H  H77  1  0.65280000  0.58448000  0.49265000  1.0
  H  H78  1  0.76250000  0.58430000  0.99270000  1.0
  H  H79  1  0.34720000  0.41552000  0.50735000  1.0
  H  H80  1  0.29330000  0.54044000  0.84868000  1.0
  H  H81  1  0.83391000  0.45960000  0.65125000  1.0
  H  H82  1  0.70670000  0.45956000  0.15132000  1.0
  H  H83  1  0.16610000  0.54040000  0.34875000  1.0
  H  H84  1  0.10990000  0.70768000  0.85331000  1.0
  H  H85  1  0.81744000  0.29248000  0.64664000  1.0
  H  H86  1  0.89010000  0.29232000  0.14669000  1.0
  H  H87  1  0.18256000  0.70752000  0.35336000  1.0
  H  H88  1  0.41663000  0.29061000  0.01041000  1.0
  H  H89  1  0.70708000  0.70954000  0.48950000  1.0
  H  H90  1  0.58336000  0.70939000  0.98959000  1.0
  H  H91  1  0.29291000  0.29046000  0.51050000  1.0
  H  H92  1  0.56756000  0.11354000  0.00616000  1.0
  H  H93  1  0.68081000  0.88661000  0.49378000  1.0
  H  H94  1  0.43243000  0.88646000  0.99384000  1.0
  H  H95  1  0.31918000  0.11339000  0.50622000  1.0
  H  H96  1  0.52204000  0.19686000  0.84780000  1.0
  H  H97  1  0.71966000  0.80306000  0.65215000  1.0
  H  H98  1  0.47796000  0.80315000  0.15220000  1.0
  H  H99  1  0.28034000  0.19694000  0.34785000  1.0
  H  H100  1  0.36457000  0.37986000  0.84474000  1.0
  H  H101  1  0.74516000  0.62011000  0.65518000  1.0
  H  H102  1  0.63543000  0.62014000  0.15526000  1.0
  H  H103  1  0.25484000  0.37989000  0.34482000  1.0
  C  C104  1  0.81119000  0.83880000  0.02191000  1.0
  C  C105  1  0.64982000  0.16120000  0.47806000  1.0
  C  C106  1  0.18881000  0.16120000  0.97809000  1.0
  C  C107  1  0.35018000  0.83880000  0.52194000  1.0
  C  C108  1  0.83744000  0.80767000  0.07895000  1.0
  C  C109  1  0.64487000  0.19237000  0.42102000  1.0
  C  C110  1  0.16256000  0.19233000  0.92105000  1.0
  C  C111  1  0.35514000  0.80762000  0.57898000  1.0
  C  C112  1  0.90360000  0.70212000  0.10563000  1.0
  C  C113  1  0.60553000  0.29794000  0.39439000  1.0
  C  C114  1  0.09640000  0.29788000  0.89437000  1.0
  C  C115  1  0.39447000  0.70206000  0.60561000  1.0
  C  C116  1  0.92465000  0.67367000  0.15865000  1.0
  C  C117  1  0.59821000  0.32646000  0.34137000  1.0
  C  C118  1  0.07535000  0.32633000  0.84135000  1.0
  C  C119  1  0.40179000  0.67354000  0.65863000  1.0
  C  C120  1  0.88108000  0.75074000  0.18579000  1.0
  C  C121  1  0.63167000  0.24941000  0.31421000  1.0
  C  C122  1  0.11892000  0.24926000  0.81421000  1.0
  C  C123  1  0.36833000  0.75059000  0.68580000  1.0
  C  C124  1  0.90952000  0.71952000  0.24259000  1.0
  C  C125  1  0.62891000  0.28065000  0.25741000  1.0
  C  C126  1  0.09049000  0.28048000  0.75741000  1.0
  C  C127  1  0.37110000  0.71934000  0.74259000  1.0
  C  C128  1  0.80810000  0.78282000  0.27222000  1.0
  C  C129  1  0.59083000  0.21735000  0.22777000  1.0
  C  C130  1  0.19191000  0.21718000  0.72778000  1.0
  C  C131  1  0.40917000  0.78265000  0.77223000  1.0
  C  C132  1  0.66460000  0.83066000  0.25503000  1.0
  C  C133  1  0.49533000  0.16939000  0.24496000  1.0
  C  C134  1  0.33540000  0.16934000  0.74497000  1.0
  C  C135  1  0.50467000  0.83061000  0.75504000  1.0
  C  C136  1  0.56978000  0.88447000  0.28446000  1.0
  C  C137  1  0.45459000  0.11542000  0.21555000  1.0
  C  C138  1  0.43023000  0.11553000  0.71554000  1.0
  C  C139  1  0.54540000  0.88459000  0.78445000  1.0
  C  C140  1  0.61673000  0.89208000  0.33130000  1.0
  C  C141  1  0.50919000  0.10782000  0.16872000  1.0
  C  C142  1  0.38327000  0.10792000  0.66870000  1.0
  C  C143  1  0.49081000  0.89218000  0.83128000  1.0
  C  C144  1  0.51047000  0.94824000  0.36216000  1.0
  C  C145  1  0.45910000  0.05168000  0.13785000  1.0
  C  C146  1  0.48952000  0.05177000  0.63784000  1.0
  C  C147  1  0.54090000  0.94832000  0.86215000  1.0
  C  C148  1  0.75991000  0.84385000  0.34886000  1.0
  C  C149  1  0.60400000  0.15616000  0.15117000  1.0
  C  C150  1  0.24009000  0.15616000  0.65114000  1.0
  C  C151  1  0.39600000  0.84384000  0.84883000  1.0
  C  C152  1  0.85480000  0.78972000  0.31941000  1.0
  C  C153  1  0.64452000  0.21042000  0.18061000  1.0
  C  C154  1  0.14520000  0.21028000  0.68059000  1.0
  C  C155  1  0.35548000  0.78958000  0.81939000  1.0
  C  C156  1  0.81666000  0.85645000  0.15903000  1.0
  C  C157  1  0.67282000  0.14370000  0.34093000  1.0
  C  C158  1  0.18334000  0.14355000  0.84097000  1.0
  C  C159  1  0.32718000  0.85630000  0.65907000  1.0
  C  C160  1  0.79421000  0.88455000  0.10605000  1.0
  C  C161  1  0.67846000  0.11554000  0.39390000  1.0
  C  C162  1  0.20578000  0.11545000  0.89395000  1.0
  C  C163  1  0.32155000  0.88445000  0.60610000  1.0
  C  C164  1  0.90661000  0.96223000  0.86087000  1.0
  C  C165  1  0.86911000  0.03768000  0.63912000  1.0
  C  C166  1  0.09340000  0.03777000  0.13913000  1.0
  C  C167  1  0.13090000  0.96232000  0.36088000  1.0
  C  C168  1  0.85293000  0.07768000  0.83813000  1.0
  C  C169  1  0.93056000  0.92219000  0.66182000  1.0
  C  C170  1  0.14707000  0.92232000  0.16187000  1.0
  C  C171  1  0.06944000  0.07781000  0.33818000  1.0
  C  C172  1  0.81076000  0.11753000  0.78568000  1.0
  C  C173  1  0.92816000  0.88233000  0.71426000  1.0
  C  C174  1  0.18923000  0.88247000  0.21432000  1.0
  C  C175  1  0.07184000  0.11768000  0.28574000  1.0
  C  C176  1  0.75767000  0.22452000  0.76410000  1.0
  C  C177  1  0.98206000  0.77532000  0.73583000  1.0
  C  C178  1  0.24233000  0.77548000  0.23590000  1.0
  C  C179  1  0.01795000  0.22468000  0.26417000  1.0
  C  C180  1  0.74922000  0.29447000  0.79409000  1.0
  C  C181  1  0.04363000  0.70538000  0.70584000  1.0
  C  C182  1  0.25077000  0.70553000  0.20591000  1.0
  C  C183  1  0.95638000  0.29462000  0.29416000  1.0
  C  C184  1  0.69819000  0.40833000  0.76800000  1.0
  C  C185  1  0.10667000  0.59154000  0.73195000  1.0
  C  C186  1  0.30181000  0.59167000  0.23200000  1.0
  C  C187  1  0.89333000  0.40846000  0.26805000  1.0
  C  C188  1  0.70281000  0.48423000  0.79708000  1.0
  C  C189  1  0.18735000  0.51563000  0.70292000  1.0
  C  C190  1  0.29720000  0.51576000  0.20292000  1.0
  C  C191  1  0.81265000  0.48437000  0.29708000  1.0
  C  C192  1  0.76852000  0.55317000  0.77511000  1.0
  C  C193  1  0.32192000  0.44658000  0.72498000  1.0
  C  C194  1  0.23148000  0.44683000  0.22489000  1.0
  C  C195  1  0.67808000  0.55342000  0.27502000  1.0
  C  C196  1  0.78577000  0.62186000  0.80086000  1.0
  C  C197  1  0.40792000  0.37784000  0.69927000  1.0
  C  C198  1  0.21423000  0.37814000  0.19914000  1.0
  C  C199  1  0.59208000  0.62216000  0.30073000  1.0
  C  C200  1  0.73819000  0.62296000  0.84917000  1.0
  C  C201  1  0.36161000  0.37684000  0.65090000  1.0
  C  C202  1  0.26181000  0.37704000  0.15083000  1.0
  C  C203  1  0.63839000  0.62315000  0.34910000  1.0
  C  C204  1  0.77381000  0.68840000  0.87830000  1.0
  C  C205  1  0.46274000  0.31134000  0.62184000  1.0
  C  C206  1  0.22619000  0.31160000  0.12170000  1.0
  C  C207  1  0.53725000  0.68866000  0.37816000  1.0
  C  C208  1  0.66624000  0.55784000  0.87026000  1.0
  C  C209  1  0.22457000  0.44203000  0.62973000  1.0
  C  C210  1  0.33375000  0.44217000  0.12973000  1.0
  C  C211  1  0.77536333  0.55797000  0.37027000  1.0
  C  C212  1  0.64831000  0.48907000  0.84432000  1.0
  C  C213  1  0.13782000  0.51083000  0.65563000  1.0
  C  C214  1  0.35169000  0.51093000  0.15568000  1.0
  C  C215  1  0.86218000  0.48917000  0.34437000  1.0
  C  C216  1  0.79754000  0.25373000  0.84621000  1.0
  C  C217  1  0.05118000  0.74614000  0.65372000  1.0
  C  C218  1  0.20246000  0.74627000  0.15379000  1.0
  C  C219  1  0.94882000  0.25386000  0.34628000  1.0
  C  C220  1  0.84625000  0.14644000  0.86826000  1.0
  C  C221  1  0.99259000  0.85345000  0.63169000  1.0
  C  C222  1  0.15375000  0.85356000  0.13174000  1.0
  C  C223  1  0.00741000  0.14656000  0.36831000  1.0
  C  C224  1  0.11905000  0.57544000  0.97127000  1.0
  C  C225  1  0.69391000  0.42478000  0.52871000  1.0
  C  C226  1  0.88095000  0.42456000  0.02873000  1.0
  C  C227  1  0.30609000  0.57522000  0.47129000  1.0
  C  C228  1  0.21718000  0.47748000  0.97211000  1.0
  C  C229  1  0.69433000  0.52268000  0.52784000  1.0
  C  C230  1  0.78281000  0.52252000  0.02789000  1.0
  C  C231  1  0.30568000  0.47731000  0.47216000  1.0
  C  C232  1  0.28232000  0.46004000  0.92779000  1.0
  C  C233  1  0.74236000  0.54006000  0.57213000  1.0
  C  C234  1  0.71768000  0.53995000  0.07221000  1.0
  C  C235  1  0.25764000  0.45994000  0.42787000  1.0
  C  C236  1  0.24676000  0.54537000  0.88451000  1.0
  C  C237  1  0.79216000  0.45472000  0.61541000  1.0
  C  C238  1  0.75325000  0.45462000  0.11549000  1.0
  C  C239  1  0.20784000  0.54528000  0.38459000  1.0
  C  C240  1  0.14532000  0.64069000  0.88654000  1.0
  C  C241  1  0.78579000  0.35947000  0.61342000  1.0
  C  C242  1  0.85469000  0.35930000  0.11346000  1.0
  C  C243  1  0.21421000  0.64053000  0.38658000  1.0
  C  C244  1  0.37972000  0.35380000  0.92738000  1.0
  C  C245  1  0.73379000  0.64624000  0.57254000  1.0
  C  C246  1  0.62027000  0.64620000  0.07262000  1.0
  C  C247  1  0.26621000  0.35376000  0.42746000  1.0
  C  C248  1  0.43861000  0.27596000  0.97305000  1.0
  C  C249  1  0.71462000  0.72413000  0.52687000  1.0
  C  C250  1  0.56138000  0.72404000  0.02695000  1.0
  C  C251  1  0.28538000  0.27587000  0.47313000  1.0
  C  C252  1  0.52359000  0.17565000  0.97123000  1.0
  C  C253  1  0.69930000  0.82443000  0.52870000  1.0
  C  C254  1  0.47640000  0.82435000  0.02876000  1.0
  C  C255  1  0.30070000  0.17557000  0.47130000  1.0
  C  C256  1  0.49726000  0.22295000  0.88251000  1.0
  C  C257  1  0.72076000  0.77703000  0.61742000  1.0
  C  C258  1  0.50274000  0.77706000  0.11749000  1.0
  C  C259  1  0.27924000  0.22297000  0.38258000  1.0
  C  C260  1  0.41124000  0.32475000  0.88144000  1.0
  C  C261  1  0.73658000  0.67522000  0.61848000  1.0
  C  C262  1  0.58876000  0.67525000  0.11856000  1.0
  C  C263  1  0.26342000  0.32478000  0.38152000  1.0
  N  N264  1  0.08151000  0.65581000  0.92899000  1.0
  N  N265  1  0.73679000  0.34441000  0.57099000  1.0
  N  N266  1  0.91849000  0.34419000  0.07101000  1.0
  N  N267  1  0.26321000  0.65559000  0.42901000  1.0
  N  N268  1  0.55307000  0.14927000  0.92674000  1.0
  N  N269  1  0.70256000  0.85078000  0.57320000  1.0
  N  N270  1  0.44693000  0.85073000  0.07326000  1.0
  N  N271  1  0.29744000  0.14922000  0.42680000  1.0
  O  O272  1  0.85708000  0.93165000  0.90485000  1.0
  O  O273  1  0.78883000  0.06849000  0.59514000  1.0
  O  O274  1  0.14292000  0.06835000  0.09515000  1.0
  O  O275  1  0.21117000  0.93151000  0.40486000  1.0
  O  O276  1  0.72856000  0.93288000  0.00144000  1.0
  O  O277  1  0.66135000  0.06711000  0.49852000  1.0
  O  O278  1  0.27145000  0.06712000  0.99856000  1.0
  O  O279  1  0.33864000  0.93288000  0.50148000  1.0
  O  O280  1  0.87239000  0.76934000  0.99853000  1.0
  O  O281  1  0.64145000  0.23067000  0.50144000  1.0
  O  O282  1  0.12760000  0.23067000  0.00147000  1.0
  O  O283  1  0.35855000  0.76933000  0.49856000  1.0
  O  O284  1  0.01457000  0.64282000  0.26419000  1.0
  O  O285  1  0.65738000  0.35729000  0.23584000  1.0
  O  O286  1  0.98543000  0.35718000  0.73581000  1.0
  O  O287  1  0.34262000  0.64271000  0.76416000  1.0
  O  O288  1  0.53533000  0.91775000  0.41153000  1.0
  O  O289  1  0.45333000  0.08224000  0.08848000  1.0
  O  O290  1  0.46466000  0.08225000  0.58847000  1.0
  O  O291  1  0.54668000  0.91776000  0.91152000  1.0
  O  O292  1  0.39723000  0.02065000  0.34049000  1.0
  O  O293  1  0.41838000  0.97924000  0.15949000  1.0
  O  O294  1  0.60277000  0.97936000  0.65951000  1.0
  O  O295  1  0.58163000  0.02076000  0.84051000  1.0
  O  O296  1  0.99172000  0.89983000  0.84074000  1.0
  O  O297  1  0.89228000  0.09986000  0.65929000  1.0
  O  O298  1  0.00829000  0.10017000  0.15926000  1.0
  O  O299  1  0.10772000  0.90014000  0.34070000  1.0
  O  O300  1  0.65944000  0.44038000  0.72174000  1.0
  O  O301  1  0.10000000  0.55954000  0.77822000  1.0
  O  O302  1  0.34056000  0.55962000  0.27826000  1.0
  O  O303  1  0.89999000  0.44046000  0.22178000  1.0
  O  O304  1  0.75964000  0.67479000  0.92584000  1.0
  O  O305  1  0.43502000  0.32484000  0.57429000  1.0
  O  O306  1  0.24036000  0.32521000  0.07416000  1.0
  O  O307  1  0.56497000  0.67515000  0.42571000  1.0
  O  O308  1  0.82714000  0.75435000  0.85548000  1.0
  O  O309  1  0.58196000  0.24535000  0.64470000  1.0
  O  O310  1  0.17286000  0.24565000  0.14452000  1.0
  O  O311  1  0.41804000  0.75465000  0.35529000  1.0
