# generated using pymatgen
data_Zn3C30Cl8(O3F)4
_symmetry_space_group_name_H-M   'P 1'
_cell_length_a   19.04600000
_cell_length_b   19.04680000
_cell_length_c   19.23310000
_cell_angle_alpha   110.70200000
_cell_angle_beta   110.70000000
_cell_angle_gamma   104.13800000
_symmetry_Int_Tables_number   1
_chemical_formula_structural   Zn3C30Cl8(O3F)4
_chemical_formula_sum   'Zn6 C60 Cl16 O24 F8'
_cell_volume   5535.19016215
_cell_formula_units_Z   2
loop_
 _symmetry_equiv_pos_site_id
 _symmetry_equiv_pos_as_xyz
  1  'x, y, z'
loop_
 _atom_site_type_symbol
 _atom_site_label
 _atom_site_symmetry_multiplicity
 _atom_site_fract_x
 _atom_site_fract_y
 _atom_site_fract_z
 _atom_site_occupancy
  Zn  Zn0  1  0.56172000  0.00209000  0.06017000  1.0
  Zn  Zn1  1  0.44643000  0.44637000  0.50271000  1.0
  Zn  Zn2  1  0.55364000  0.55358000  0.49729000  1.0
  Zn  Zn3  1  0.43823000  0.99786000  0.93972000  1.0
  Zn  Zn4  1  0.99792000  0.43827000  0.93984000  1.0
  Zn  Zn5  1  0.00214000  0.56175000  0.06030000  1.0
  C  C6  1  0.45881000  0.09510000  0.09675000  1.0
  C  C7  1  0.55683000  0.85146000  0.76814000  1.0
  C  C8  1  0.12616000  0.44625000  0.36847000  1.0
  C  C9  1  0.44618000  0.12632000  0.36839000  1.0
  C  C10  1  0.55392000  0.87386000  0.63158000  1.0
  C  C11  1  0.87374000  0.55393000  0.63168000  1.0
  C  C12  1  0.48283000  0.20590000  0.38258000  1.0
  C  C13  1  0.51730000  0.79427000  0.61736000  1.0
  C  C14  1  0.79415000  0.51725000  0.61747000  1.0
  C  C15  1  0.20575000  0.48281000  0.38266000  1.0
  C  C16  1  0.85136000  0.55678000  0.76823000  1.0
  C  C17  1  0.47403000  0.22000000  0.31223000  1.0
  C  C18  1  0.52612000  0.78014000  0.68770000  1.0
  C  C19  1  0.78002000  0.52601000  0.68780000  1.0
  C  C20  1  0.21986000  0.47391000  0.31230000  1.0
  C  C21  1  0.14854000  0.44319000  0.23186000  1.0
  C  C22  1  0.44325000  0.14865000  0.23180000  1.0
  C  C23  1  0.45682000  0.16088000  0.16760000  1.0
  C  C24  1  0.54323000  0.83915000  0.83229000  1.0
  C  C25  1  0.83912000  0.54317000  0.83241000  1.0
  C  C26  1  0.54116000  0.90487000  0.90312000  1.0
  C  C27  1  0.16083000  0.45671000  0.16767000  1.0
  C  C28  1  0.48684000  0.23989000  0.17963000  1.0
  C  C29  1  0.51328000  0.76012000  0.82023000  1.0
  C  C30  1  0.76010000  0.51314000  0.82037000  1.0
  C  C31  1  0.23987000  0.48661000  0.17970000  1.0
  C  C32  1  0.90489000  0.54116000  0.90324000  1.0
  C  C33  1  0.50151000  0.30991000  0.25147000  1.0
  C  C34  1  0.49876000  0.69017000  0.74843000  1.0
  C  C35  1  0.69009000  0.49850000  0.74854000  1.0
  C  C36  1  0.30982000  0.50115000  0.25152000  1.0
  C  C37  1  0.09512000  0.45878000  0.09683000  1.0
  C  C38  1  0.49530000  0.30084000  0.31819000  1.0
  C  C39  1  0.50495000  0.69931000  0.68172000  1.0
  C  C40  1  0.69918000  0.50472000  0.68182000  1.0
  C  C41  1  0.30069000  0.49504000  0.31826000  1.0
  C  C42  1  0.37017000  0.49414000  0.38648000  1.0
  C  C43  1  0.62962000  0.50558000  0.61363000  1.0
  C  C44  1  0.50586000  0.62982000  0.61351000  1.0
  C  C45  1  0.49444000  0.37039000  0.38638000  1.0
  C  C46  1  0.59870000  0.12658000  0.00936000  1.0
  C  C47  1  0.40125000  0.87338000  0.99058000  1.0
  C  C48  1  0.87342000  0.40131000  0.99068000  1.0
  C  C49  1  0.12663000  0.59878000  0.00948000  1.0
  C  C50  1  0.65543000  0.19161000  0.00903000  1.0
  C  C51  1  0.34452000  0.80839000  0.99094000  1.0
  C  C52  1  0.80839000  0.34458000  0.99099000  1.0
  C  C53  1  0.19162000  0.65551000  0.00912000  1.0
  C  C54  1  0.70384000  0.24190000  0.00318000  1.0
  C  C55  1  0.29611000  0.75813000  0.99683000  1.0
  C  C56  1  0.75809000  0.29615000  0.99683000  1.0
  C  C57  1  0.24188000  0.70391000  0.00323000  1.0
  C  C58  1  0.40142000  0.06818000  0.21880000  1.0
  C  C59  1  0.59863000  0.93195000  0.78117000  1.0
  C  C60  1  0.93184000  0.59863000  0.78127000  1.0
  C  C61  1  0.06805000  0.40144000  0.21886000  1.0
  C  C62  1  0.40100000  0.05699000  0.28624000  1.0
  C  C63  1  0.59907000  0.94317000  0.71375000  1.0
  C  C64  1  0.94305000  0.59910000  0.71385000  1.0
  C  C65  1  0.05683000  0.40109000  0.28631000  1.0
  Cl  Cl66  1  0.34503000  0.98456000  0.11851000  1.0
  Cl  Cl67  1  0.65010000  0.03768000  0.72630000  1.0
  Cl  Cl68  1  0.03755000  0.65016000  0.72638000  1.0
  Cl  Cl69  1  0.96231000  0.35016000  0.27381000  1.0
  Cl  Cl70  1  0.34998000  0.96251000  0.27374000  1.0
  Cl  Cl71  1  0.54533000  0.28184000  0.48644000  1.0
  Cl  Cl72  1  0.45479000  0.71833000  0.51349000  1.0
  Cl  Cl73  1  0.71823000  0.45476000  0.51360000  1.0
  Cl  Cl74  1  0.65497000  0.01554000  0.88148000  1.0
  Cl  Cl75  1  0.28172000  0.54533000  0.48652000  1.0
  Cl  Cl76  1  0.52329000  0.40044000  0.24694000  1.0
  Cl  Cl77  1  0.47713000  0.59964000  0.75294000  1.0
  Cl  Cl78  1  0.59955000  0.47674000  0.75306000  1.0
  Cl  Cl79  1  0.40035000  0.52272000  0.24699000  1.0
  Cl  Cl80  1  0.01544000  0.65500000  0.88157000  1.0
  Cl  Cl81  1  0.98444000  0.34507000  0.11857000  1.0
  O  O82  1  0.51634000  0.07266000  0.12321000  1.0
  O  O83  1  0.58974000  0.92744000  0.97981000  1.0
  O  O84  1  0.92746000  0.58974000  0.97992000  1.0
  O  O85  1  0.07253000  0.41019000  0.02015000  1.0
  O  O86  1  0.41020000  0.07251000  0.02007000  1.0
  O  O87  1  0.63053000  0.10252000  0.06215000  1.0
  O  O88  1  0.36943000  0.89743000  0.93778000  1.0
  O  O89  1  0.89746000  0.36949000  0.93787000  1.0
  O  O90  1  0.48360000  0.92728000  0.87666000  1.0
  O  O91  1  0.10256000  0.63060000  0.06227000  1.0
  O  O92  1  0.52241000  0.09836000  0.95588000  1.0
  O  O93  1  0.47755000  0.90159000  0.04404000  1.0
  O  O94  1  0.90166000  0.47759000  0.04418000  1.0
  O  O95  1  0.09843000  0.52248000  0.95604000  1.0
  O  O96  1  0.92734000  0.48364000  0.87677000  1.0
  O  O97  1  0.44442000  0.54347000  0.41411000  1.0
  O  O98  1  0.55539000  0.45619000  0.58597000  1.0
  O  O99  1  0.45653000  0.55559000  0.58588000  1.0
  O  O100  1  0.54384000  0.44463000  0.41404000  1.0
  O  O101  1  0.07273000  0.51635000  0.12330000  1.0
  O  O102  1  0.34913000  0.44027000  0.40859000  1.0
  O  O103  1  0.65062000  0.55952000  0.59160000  1.0
  O  O104  1  0.55974000  0.65086000  0.59141000  1.0
  O  O105  1  0.44050000  0.34939000  0.40841000  1.0
  F  F106  1  0.50450000  0.25226000  0.12156000  1.0
  F  F107  1  0.54626000  0.88671000  0.56525000  1.0
  F  F108  1  0.88656000  0.54630000  0.56535000  1.0
  F  F109  1  0.11331000  0.45402000  0.43483000  1.0
  F  F110  1  0.45386000  0.11351000  0.43475000  1.0
  F  F111  1  0.49560000  0.74766000  0.87825000  1.0
  F  F112  1  0.74771000  0.49545000  0.87841000  1.0
  F  F113  1  0.25232000  0.50422000  0.12165000  1.0
