# generated using pymatgen
data_AgH7C6(NO)2
_symmetry_space_group_name_H-M   'P 1'
_cell_length_a   8.60557000
_cell_length_b   8.60558000
_cell_length_c   9.51204000
_cell_angle_alpha   96.94000000
_cell_angle_beta   96.94010000
_cell_angle_gamma   100.07800000
_symmetry_Int_Tables_number   1
_chemical_formula_structural   AgH7C6(NO)2
_chemical_formula_sum   'Ag4 H28 C24 N8 O8'
_cell_volume   681.16968844
_cell_formula_units_Z   4
loop_
 _symmetry_equiv_pos_site_id
 _symmetry_equiv_pos_as_xyz
  1  'x, y, z'
loop_
 _atom_site_type_symbol
 _atom_site_label
 _atom_site_symmetry_multiplicity
 _atom_site_fract_x
 _atom_site_fract_y
 _atom_site_fract_z
 _atom_site_occupancy
  Ag  Ag0  1  0.00000000  0.00000000  0.00000000  1.0
  Ag  Ag1  1  0.00000000  0.00000000  0.50000000  1.0
  Ag  Ag2  1  0.88252000  0.11746000  0.75000000  1.0
  Ag  Ag3  1  0.11748000  0.88253000  0.25000000  1.0
  H  H4  1  0.56464000  0.89048000  0.73633000  1.0
  H  H5  1  0.10952000  0.43535000  0.76367000  1.0
  H  H6  1  0.43535000  0.10952000  0.26366000  1.0
  H  H7  1  0.89048000  0.56465000  0.23633000  1.0
  H  H8  1  0.48671000  0.25311000  0.70440000  1.0
  H  H9  1  0.74690000  0.51329000  0.79560000  1.0
  H  H10  1  0.51328000  0.74690000  0.29560000  1.0
  H  H11  1  0.25310000  0.48671000  0.20440000  1.0
  H  H12  1  0.35066000  0.12360000  0.56408000  1.0
  H  H13  1  0.87641000  0.64934000  0.93593000  1.0
  H  H14  1  0.64933000  0.87641000  0.43593000  1.0
  H  H15  1  0.12359000  0.35066000  0.06407000  1.0
  H  H16  1  0.54838000  0.08816000  0.61299000  1.0
  H  H17  1  0.91185000  0.45163000  0.88702000  1.0
  H  H18  1  0.45162000  0.91184000  0.38701000  1.0
  H  H19  1  0.08815000  0.54837000  0.11298000  1.0
  H  H20  1  0.41298000  0.56469000  0.88690000  1.0
  H  H21  1  0.43531000  0.58702000  0.61310000  1.0
  H  H22  1  0.58702000  0.43531000  0.11310000  1.0
  H  H23  1  0.56469000  0.41299000  0.38690000  1.0
  H  H24  1  0.60409000  0.68254000  0.88061000  1.0
  H  H25  1  0.31747000  0.39591000  0.61938000  1.0
  H  H26  1  0.39591000  0.31747000  0.11938000  1.0
  H  H27  1  0.68253000  0.60409000  0.38062000  1.0
  H  H28  1  0.52103000  0.68410000  0.04334000  1.0
  H  H29  1  0.31590000  0.47897000  0.45666000  1.0
  H  H30  1  0.47897000  0.31590000  0.95666000  1.0
  H  H31  1  0.68410000  0.52102000  0.54334000  1.0
  C  C32  1  0.44663000  0.12913000  0.65294000  1.0
  C  C33  1  0.87087000  0.55337000  0.84706000  1.0
  C  C34  1  0.55337000  0.87087000  0.34707000  1.0
  C  C35  1  0.12913000  0.44663000  0.15293000  1.0
  C  C36  1  0.25780000  0.05984000  0.81832000  1.0
  C  C37  1  0.94017000  0.74220000  0.68168000  1.0
  C  C38  1  0.74220000  0.94017000  0.18168000  1.0
  C  C39  1  0.05983000  0.25780000  0.31832000  1.0
  C  C40  1  0.28627000  0.85324000  0.96310000  1.0
  C  C41  1  0.14676000  0.71373000  0.53690000  1.0
  C  C42  1  0.71373000  0.14676000  0.03690000  1.0
  C  C43  1  0.85324000  0.28627000  0.46310000  1.0
  C  C44  1  0.41653000  0.81531000  0.89120000  1.0
  C  C45  1  0.18469000  0.58346000  0.60880000  1.0
  C  C46  1  0.58346000  0.18469000  0.10880000  1.0
  C  C47  1  0.81531000  0.41653000  0.39119000  1.0
  C  C48  1  0.46383000  0.90781000  0.79177000  1.0
  C  C49  1  0.09220000  0.53617000  0.70823000  1.0
  C  C50  1  0.53616000  0.09219000  0.20822000  1.0
  C  C51  1  0.90781000  0.46384000  0.29177000  1.0
  C  C52  1  0.49356000  0.67984000  0.92718000  1.0
  C  C53  1  0.32017000  0.50644000  0.57282000  1.0
  C  C54  1  0.50645000  0.32017000  0.07282000  1.0
  C  C55  1  0.67983000  0.49356000  0.42717000  1.0
  N  N56  1  0.38967000  0.02917000  0.75651000  1.0
  N  N57  1  0.97083000  0.61033000  0.74349000  1.0
  N  N58  1  0.61033000  0.97083000  0.24349000  1.0
  N  N59  1  0.02917000  0.38967000  0.25651000  1.0
  N  N60  1  0.21007000  0.96971000  0.91906000  1.0
  N  N61  1  0.03029000  0.78993000  0.58095000  1.0
  N  N62  1  0.78993000  0.03029000  0.08094000  1.0
  N  N63  1  0.96971000  0.21007000  0.41906000  1.0
  O  O64  1  0.18845000  0.16872000  0.78005000  1.0
  O  O65  1  0.83129000  0.81155000  0.71995000  1.0
  O  O66  1  0.81155000  0.83129000  0.21995000  1.0
  O  O67  1  0.16872000  0.18846000  0.28005000  1.0
  O  O68  1  0.24330000  0.78079000  0.06500000  1.0
  O  O69  1  0.21921000  0.75669000  0.43500000  1.0
  O  O70  1  0.75670000  0.21920000  0.93500000  1.0
  O  O71  1  0.78079000  0.24330000  0.56500000  1.0
