# generated using pymatgen
data_CdH6C8S2N5
_symmetry_space_group_name_H-M   'P 1'
_cell_length_a   7.12132000
_cell_length_b   11.29230000
_cell_length_c   14.98990000
_cell_angle_alpha   90.00010000
_cell_angle_beta   90.00010000
_cell_angle_gamma   89.99970000
_symmetry_Int_Tables_number   1
_chemical_formula_structural   CdH6C8S2N5
_chemical_formula_sum   'Cd4 H24 C32 S8 N20'
_cell_volume   1205.42902509
_cell_formula_units_Z   4
loop_
 _symmetry_equiv_pos_site_id
 _symmetry_equiv_pos_as_xyz
  1  'x, y, z'
loop_
 _atom_site_type_symbol
 _atom_site_label
 _atom_site_symmetry_multiplicity
 _atom_site_fract_x
 _atom_site_fract_y
 _atom_site_fract_z
 _atom_site_occupancy
  Cd  Cd0  1  0.45771000  0.54765000  0.27862000  1.0
  Cd  Cd1  1  0.45771000  0.45235000  0.72138000  1.0
  Cd  Cd2  1  0.54228000  0.95235000  0.77862000  1.0
  Cd  Cd3  1  0.54229000  0.04765000  0.22138000  1.0
  H  H4  1  0.36657000  0.50000000  0.50000000  1.0
  H  H5  1  0.63343000  0.00000000  0.00000000  1.0
  H  H6  1  0.86182000  0.53171000  0.35743000  1.0
  H  H7  1  0.86182000  0.46829000  0.64257000  1.0
  H  H8  1  0.13818000  0.96829000  0.85743000  1.0
  H  H9  1  0.13818000  0.03172000  0.14257000  1.0
  H  H10  1  0.04919000  0.49999000  0.50000000  1.0
  H  H11  1  0.95081000  0.00000000  0.00000000  1.0
  H  H12  1  0.05275000  0.58738000  0.18797000  1.0
  H  H13  1  0.05274000  0.41262000  0.81202000  1.0
  H  H14  1  0.94725000  0.91263000  0.68798000  1.0
  H  H15  1  0.94726000  0.08738000  0.31203000  1.0
  H  H16  1  0.08463000  0.68528000  0.92186000  1.0
  H  H17  1  0.08464000  0.31472000  0.07814000  1.0
  H  H18  1  0.91536000  0.81473000  0.42186000  1.0
  H  H19  1  0.91537000  0.18527000  0.57814000  1.0
  H  H20  1  0.43856000  0.68938000  0.93166000  1.0
  H  H21  1  0.43856000  0.31062000  0.06833000  1.0
  H  H22  1  0.56144000  0.81062000  0.43167000  1.0
  H  H23  1  0.56145000  0.18937000  0.56834000  1.0
  H  H24  1  0.58567000  0.63400000  0.08015000  1.0
  H  H25  1  0.58567000  0.36601000  0.91985000  1.0
  H  H26  1  0.41433000  0.86601000  0.58015000  1.0
  H  H27  1  0.41434000  0.13399000  0.41985000  1.0
  C  C28  1  0.29217000  0.82159000  0.31721000  1.0
  C  C29  1  0.29216000  0.17841000  0.68279000  1.0
  C  C30  1  0.70783000  0.67841000  0.81721000  1.0
  C  C31  1  0.70783000  0.32159000  0.18279000  1.0
  C  C32  1  0.25561000  0.27595000  0.27215000  1.0
  C  C33  1  0.25561000  0.72404000  0.72786000  1.0
  C  C34  1  0.74438000  0.22405000  0.77214000  1.0
  C  C35  1  0.74439000  0.77595000  0.22786000  1.0
  C  C36  1  0.51961000  0.50000000  0.50000000  1.0
  C  C37  1  0.48039000  0.00000000  0.00000000  1.0
  C  C38  1  0.79504000  0.51667000  0.42183000  1.0
  C  C39  1  0.79504000  0.48332000  0.57817000  1.0
  C  C40  1  0.20496000  0.98333000  0.92183000  1.0
  C  C41  1  0.20496000  0.01668000  0.07818000  1.0
  C  C42  1  0.89659000  0.50000000  0.50000000  1.0
  C  C43  1  0.10341000  0.00000000  0.00000000  1.0
  C  C44  1  0.13791000  0.60969000  0.12977000  1.0
  C  C45  1  0.13791000  0.39031000  0.87023000  1.0
  C  C46  1  0.86209000  0.89031000  0.62977000  1.0
  C  C47  1  0.86210000  0.10970000  0.37023000  1.0
  C  C48  1  0.15718000  0.66374000  0.98402000  1.0
  C  C49  1  0.15719000  0.33626000  0.01597000  1.0
  C  C50  1  0.84282000  0.83626000  0.48402000  1.0
  C  C51  1  0.84282000  0.16374000  0.51597000  1.0
  C  C52  1  0.35274000  0.66586000  0.98905000  1.0
  C  C53  1  0.35273000  0.33415000  0.01094000  1.0
  C  C54  1  0.64726000  0.83415000  0.48906000  1.0
  C  C55  1  0.64727000  0.16585000  0.51095000  1.0
  C  C56  1  0.43360000  0.63592000  0.07046000  1.0
  C  C57  1  0.43359000  0.36408000  0.92954000  1.0
  C  C58  1  0.56641000  0.86408000  0.57046000  1.0
  C  C59  1  0.56641000  0.13592000  0.42954000  1.0
  S  S60  1  0.21778000  0.70119000  0.36585000  1.0
  S  S61  1  0.21778000  0.29881000  0.63415000  1.0
  S  S62  1  0.78221000  0.79881000  0.86585000  1.0
  S  S63  1  0.78222000  0.20119000  0.13415000  1.0
  S  S64  1  0.17651000  0.39585000  0.31945000  1.0
  S  S65  1  0.17651000  0.60415000  0.68054000  1.0
  S  S66  1  0.82348000  0.10415000  0.81945000  1.0
  S  S67  1  0.82349000  0.89585000  0.18055000  1.0
  N  N68  1  0.34662000  0.90943000  0.28306000  1.0
  N  N69  1  0.34662000  0.09057000  0.71695000  1.0
  N  N70  1  0.65338000  0.59057000  0.78305000  1.0
  N  N71  1  0.65338000  0.40943000  0.21695000  1.0
  N  N72  1  0.30906000  0.18846000  0.23702000  1.0
  N  N73  1  0.30906000  0.81153000  0.76298000  1.0
  N  N74  1  0.69095000  0.31153000  0.73702000  1.0
  N  N75  1  0.69094000  0.68846000  0.26299000  1.0
  N  N76  1  0.60635000  0.51554000  0.42194000  1.0
  N  N77  1  0.60635000  0.48446000  0.57806000  1.0
  N  N78  1  0.39364000  0.98445000  0.92194000  1.0
  N  N79  1  0.39365000  0.01554000  0.07806000  1.0
  N  N80  1  0.32548000  0.60714000  0.14086000  1.0
  N  N81  1  0.32547000  0.39286000  0.85913000  1.0
  N  N82  1  0.67452000  0.89286000  0.64087000  1.0
  N  N83  1  0.67453000  0.10714000  0.35914000  1.0
  N  N84  1  0.04821000  0.63656000  0.05435000  1.0
  N  N85  1  0.04821000  0.36345000  0.94564000  1.0
  N  N86  1  0.95179000  0.86345000  0.55436000  1.0
  N  N87  1  0.95179000  0.13656000  0.44565000  1.0
