# generated using pymatgen
data_CaH11C5NCl2O3
_symmetry_space_group_name_H-M   'P 1'
_cell_length_a   7.04580000
_cell_length_b   11.53530000
_cell_length_c   12.11130000
_cell_angle_alpha   90.00000000
_cell_angle_beta   90.00020000
_cell_angle_gamma   89.99990000
_symmetry_Int_Tables_number   1
_chemical_formula_structural   CaH11C5NCl2O3
_chemical_formula_sum   'Ca4 H44 C20 N4 Cl8 O12'
_cell_volume   984.35095476
_cell_formula_units_Z   4
loop_
 _symmetry_equiv_pos_site_id
 _symmetry_equiv_pos_as_xyz
  1  'x, y, z'
loop_
 _atom_site_type_symbol
 _atom_site_label
 _atom_site_symmetry_multiplicity
 _atom_site_fract_x
 _atom_site_fract_y
 _atom_site_fract_z
 _atom_site_occupancy
  Ca  Ca0  1  0.55506000  0.78062000  0.57846000  1.0
  Ca  Ca1  1  0.94494000  0.21938000  0.07846000  1.0
  Ca  Ca2  1  0.44493000  0.28062000  0.92154000  1.0
  Ca  Ca3  1  0.05505000  0.71938000  0.42154000  1.0
  H  H4  1  0.55031000  0.52176000  0.65295000  1.0
  H  H5  1  0.94970000  0.47823000  0.15295000  1.0
  H  H6  1  0.44969000  0.02176000  0.84705000  1.0
  H  H7  1  0.05031000  0.97824000  0.34705000  1.0
  H  H8  1  0.73579000  0.55626000  0.58666000  1.0
  H  H9  1  0.76422000  0.44374000  0.08666000  1.0
  H  H10  1  0.26422000  0.05626000  0.91334000  1.0
  H  H11  1  0.23579000  0.94374000  0.41334000  1.0
  H  H12  1  0.72445000  0.68822000  0.20001000  1.0
  H  H13  1  0.77554000  0.31179000  0.70001000  1.0
  H  H14  1  0.27555000  0.18821000  0.29999000  1.0
  H  H15  1  0.22445000  0.81178000  0.79999000  1.0
  H  H16  1  0.70926000  0.92242000  0.26274000  1.0
  H  H17  1  0.79073000  0.07758000  0.76274000  1.0
  H  H18  1  0.29074000  0.42242000  0.23726000  1.0
  H  H19  1  0.20926000  0.57758000  0.73726000  1.0
  H  H20  1  0.77274000  0.87428000  0.12903000  1.0
  H  H21  1  0.72725000  0.12572000  0.62903000  1.0
  H  H22  1  0.22727000  0.37428000  0.37097000  1.0
  H  H23  1  0.27274000  0.62572000  0.87097000  1.0
  H  H24  1  0.50021000  0.99578000  0.08642000  1.0
  H  H25  1  0.99979000  0.00422000  0.58642000  1.0
  H  H26  1  0.49980000  0.49578000  0.41357000  1.0
  H  H27  1  0.00021000  0.50422000  0.91357000  1.0
  H  H28  1  0.37752000  0.95137000  0.20792000  1.0
  H  H29  1  0.12248000  0.04863000  0.70793000  1.0
  H  H30  1  0.62249000  0.45137000  0.29207000  1.0
  H  H31  1  0.87752000  0.54863000  0.79207000  1.0
  H  H32  1  0.23537000  0.82445000  0.07070000  1.0
  H  H33  1  0.26463000  0.17556000  0.57071000  1.0
  H  H34  1  0.76464000  0.32445000  0.42930000  1.0
  H  H35  1  0.73537000  0.67555000  0.92929000  1.0
  H  H36  1  0.45730000  0.80667000  0.00032000  1.0
  H  H37  1  0.04269000  0.19333000  0.50032000  1.0
  H  H38  1  0.54270000  0.30668000  0.49968000  1.0
  H  H39  1  0.95731000  0.69333000  0.99968000  1.0
  H  H40  1  0.32004000  0.69798000  0.20319000  1.0
  H  H41  1  0.17995000  0.30203000  0.70320000  1.0
  H  H42  1  0.67997000  0.19798000  0.29681000  1.0
  H  H43  1  0.82004000  0.80202000  0.79681000  1.0
  H  H44  1  0.45995000  0.64283000  0.10626000  1.0
  H  H45  1  0.04004000  0.35717000  0.60627000  1.0
  H  H46  1  0.54005000  0.14283000  0.39374000  1.0
  H  H47  1  0.95996000  0.85717000  0.89374000  1.0
  C  C48  1  0.57164000  0.73329000  0.34443000  1.0
  C  C49  1  0.92833000  0.26670000  0.84443000  1.0
  C  C50  1  0.42836000  0.23329000  0.15557000  1.0
  C  C51  1  0.07164000  0.76670000  0.65556000  1.0
  C  C52  1  0.60800000  0.74725000  0.22164000  1.0
  C  C53  1  0.89199000  0.25275000  0.72164000  1.0
  C  C54  1  0.39200000  0.24725000  0.27837000  1.0
  C  C55  1  0.10800000  0.75275000  0.77836000  1.0
  C  C56  1  0.65869000  0.87366000  0.19088000  1.0
  C  C57  1  0.84131000  0.12634000  0.69088000  1.0
  C  C58  1  0.34131000  0.37366000  0.30912000  1.0
  C  C59  1  0.15869000  0.62634000  0.80912000  1.0
  C  C60  1  0.47476000  0.92279000  0.14228000  1.0
  C  C61  1  0.02524000  0.07721000  0.64229000  1.0
  C  C62  1  0.52525000  0.42279000  0.35771000  1.0
  C  C63  1  0.97475000  0.57721000  0.85771000  1.0
  C  C64  1  0.38959000  0.81996000  0.08108000  1.0
  C  C65  1  0.11040000  0.18005000  0.58109000  1.0
  C  C66  1  0.61041000  0.31996000  0.41892000  1.0
  C  C67  1  0.88959000  0.68004000  0.91892000  1.0
  N  N68  1  0.43720000  0.71793000  0.15345000  1.0
  N  N69  1  0.06279000  0.28208000  0.65346000  1.0
  N  N70  1  0.56280000  0.21793000  0.34655000  1.0
  N  N71  1  0.93720000  0.78207000  0.84654000  1.0
  Cl  Cl72  1  0.54477000  0.86572000  0.78686000  1.0
  Cl  Cl73  1  0.95524000  0.13428000  0.28686000  1.0
  Cl  Cl74  1  0.45523000  0.36572000  0.71314000  1.0
  Cl  Cl75  1  0.04477000  0.63428000  0.21314000  1.0
  Cl  Cl76  1  0.49202000  0.99695000  0.48751000  1.0
  Cl  Cl77  1  0.00798000  0.00305000  0.98750000  1.0
  Cl  Cl78  1  0.50798000  0.49695000  0.01250000  1.0
  Cl  Cl79  1  0.99202000  0.50305000  0.51250000  1.0
  O  O80  1  0.61732000  0.58833000  0.61903000  1.0
  O  O81  1  0.88269000  0.41167000  0.11903000  1.0
  O  O82  1  0.38268000  0.08833000  0.88097000  1.0
  O  O83  1  0.11732000  0.91167000  0.38097000  1.0
  O  O84  1  0.40619000  0.71838000  0.38265000  1.0
  O  O85  1  0.09382000  0.28162000  0.88266000  1.0
  O  O86  1  0.59382000  0.21838000  0.11735000  1.0
  O  O87  1  0.90617000  0.78162000  0.61735000  1.0
  O  O88  1  0.71838000  0.74148000  0.40618000  1.0
  O  O89  1  0.78163000  0.25852000  0.90617000  1.0
  O  O90  1  0.28163000  0.24148000  0.09383000  1.0
  O  O91  1  0.21836000  0.75851000  0.59382000  1.0
