# generated using pymatgen
data_TbH21(C7O3)4
_symmetry_space_group_name_H-M   'P 1'
_cell_length_a   9.15560000
_cell_length_b   14.04760000
_cell_length_c   16.25820000
_cell_angle_alpha   85.21820000
_cell_angle_beta   77.46330000
_cell_angle_gamma   72.53470000
_symmetry_Int_Tables_number   1
_chemical_formula_structural   TbH21(C7O3)4
_chemical_formula_sum   'Tb2 H42 C56 O24'
_cell_volume   1946.70613093
_cell_formula_units_Z   2
loop_
 _symmetry_equiv_pos_site_id
 _symmetry_equiv_pos_as_xyz
  1  'x, y, z'
loop_
 _atom_site_type_symbol
 _atom_site_label
 _atom_site_symmetry_multiplicity
 _atom_site_fract_x
 _atom_site_fract_y
 _atom_site_fract_z
 _atom_site_occupancy
  Tb  Tb0  1  0.22464000  0.53079000  0.49758000  1.0
  Tb  Tb1  1  0.77536000  0.46921000  0.50241000  1.0
  H  H2  1  0.23495000  0.72638000  0.51440000  1.0
  H  H3  1  0.76505000  0.27362000  0.48560000  1.0
  H  H4  1  0.39980000  0.67666000  0.45834000  1.0
  H  H5  1  0.60020000  0.32334000  0.54166000  1.0
  H  H6  1  0.09738000  0.68824000  0.37903000  1.0
  H  H7  1  0.90262000  0.31176000  0.62096000  1.0
  H  H8  1  0.99369000  0.61234000  0.38027000  1.0
  H  H9  1  0.00631000  0.38766000  0.61973000  1.0
  H  H10  1  0.60227000  0.53364000  0.76608000  1.0
  H  H11  1  0.39774000  0.46635000  0.23392000  1.0
  H  H12  1  0.14842000  0.65867000  0.70577000  1.0
  H  H13  1  0.85159000  0.34134000  0.29423000  1.0
  H  H14  1  0.12855000  0.29454000  0.74429000  1.0
  H  H15  1  0.87144000  0.70546000  0.25571000  1.0
  H  H16  1  0.51748000  0.18231000  0.54079000  1.0
  H  H17  1  0.48252000  0.81769000  0.45922000  1.0
  H  H18  1  0.49865000  0.60660000  0.91134000  1.0
  H  H19  1  0.50136000  0.39339000  0.08866000  1.0
  H  H20  1  0.04518000  0.73575000  0.84939000  1.0
  H  H21  1  0.95483000  0.26425000  0.15061000  1.0
  H  H22  1  0.17467000  0.12270000  0.80985000  1.0
  H  H23  1  0.82532000  0.87730000  0.19015000  1.0
  H  H24  1  0.56175000  0.01206000  0.60415000  1.0
  H  H25  1  0.43825000  0.98795000  0.39586000  1.0
  H  H26  1  0.34652000  0.83192000  0.86329000  1.0
  H  H27  1  0.65348000  0.16808000  0.13671000  1.0
  H  H28  1  0.07520000  0.79566000  0.10941000  1.0
  H  H29  1  0.92481000  0.20433000  0.89059000  1.0
  H  H30  1  0.67688000  0.91836000  0.77457000  1.0
  H  H31  1  0.32312000  0.08164000  0.22543000  1.0
  H  H32  1  0.36535000  0.83779000  0.64765000  1.0
  H  H33  1  0.63465000  0.16221000  0.35235000  1.0
  H  H34  1  0.35039000  0.99723000  0.90252000  1.0
  H  H35  1  0.64961000  0.00277000  0.09748000  1.0
  H  H36  1  0.07595000  0.96501000  0.14839000  1.0
  H  H37  1  0.92405000  0.03499000  0.85161000  1.0
  H  H38  1  0.89902000  0.78119000  0.70319000  1.0
  H  H39  1  0.10097000  0.21881000  0.29682000  1.0
  H  H40  1  0.58876000  0.69753000  0.57792000  1.0
  H  H41  1  0.41124000  0.30248000  0.42208000  1.0
  H  H42  1  0.27681000  0.20457000  0.01336000  1.0
  H  H43  1  0.72319000  0.79543000  0.98665000  1.0
  C  C44  1  0.44134000  0.55011000  0.64172000  1.0
  C  C45  1  0.55868000  0.44988000  0.35828000  1.0
  C  C46  1  0.29558000  0.34998000  0.59770000  1.0
  C  C47  1  0.70442000  0.65003000  0.40229000  1.0
  C  C48  1  0.38084000  0.59195000  0.72824000  1.0
  C  C49  1  0.61917000  0.40805000  0.27175000  1.0
  C  C50  1  0.32057000  0.24972000  0.63826000  1.0
  C  C51  1  0.67942000  0.75028000  0.36175000  1.0
  C  C52  1  0.48035000  0.57706000  0.78557000  1.0
  C  C53  1  0.51965000  0.42293000  0.21443000  1.0
  C  C54  1  0.22387000  0.64837000  0.75132000  1.0
  C  C55  1  0.77614000  0.35163000  0.24868000  1.0
  C  C56  1  0.22281000  0.23222000  0.71386000  1.0
  C  C57  1  0.77718000  0.76778000  0.28614000  1.0
  C  C58  1  0.44246000  0.16953000  0.59981000  1.0
  C  C59  1  0.55754000  0.83047000  0.40020000  1.0
  C  C60  1  0.42347000  0.61779000  0.86563000  1.0
  C  C61  1  0.57653000  0.38220000  0.13437000  1.0
  C  C62  1  0.16617000  0.69019000  0.83086000  1.0
  C  C63  1  0.83384000  0.30981000  0.16914000  1.0
  C  C64  1  0.24731000  0.13723000  0.75041000  1.0
  C  C65  1  0.75268000  0.86277000  0.24959000  1.0
  C  C66  1  0.46742000  0.07388000  0.63491000  1.0
  C  C67  1  0.53258000  0.92612000  0.36510000  1.0
  C  C68  1  0.26690000  0.67400000  0.88713000  1.0
  C  C69  1  0.73311000  0.32600000  0.11287000  1.0
  C  C70  1  0.36958000  0.05799000  0.71058000  1.0
  C  C71  1  0.63041000  0.94202000  0.28943000  1.0
  C  C72  1  0.21138000  0.80409000  0.98472000  1.0
  C  C73  1  0.78863000  0.19591000  0.01528000  1.0
  C  C74  1  0.51086000  0.88659000  0.71230000  1.0
  C  C75  1  0.48913000  0.11341000  0.28770000  1.0
  C  C76  1  0.28855000  0.86055000  0.92582000  1.0
  C  C77  1  0.71145000  0.13945000  0.07417000  1.0
  C  C78  1  0.13472000  0.84128000  0.06521000  1.0
  C  C79  1  0.86529000  0.15871000  0.93479000  1.0
  C  C80  1  0.65843000  0.87076000  0.73058000  1.0
  C  C81  1  0.34156000  0.12924000  0.26942000  1.0
  C  C82  1  0.48305000  0.82421000  0.65901000  1.0
  C  C83  1  0.51695000  0.17580000  0.34098000  1.0
  C  C84  1  0.28975000  0.95366000  0.94810000  1.0
  C  C85  1  0.71025000  0.04634000  0.05190000  1.0
  C  C86  1  0.13592000  0.93450000  0.08652000  1.0
  C  C87  1  0.86408000  0.06550000  0.91348000  1.0
  C  C88  1  0.78234000  0.79352000  0.69092000  1.0
  C  C89  1  0.21766000  0.20648000  0.30909000  1.0
  C  C90  1  0.60723000  0.74610000  0.62091000  1.0
  C  C91  1  0.39277000  0.25391000  0.37909000  1.0
  C  C92  1  0.21383000  0.99180000  0.02822000  1.0
  C  C93  1  0.78617000  0.00819000  0.97178000  1.0
  C  C94  1  0.75821000  0.73157000  0.63492000  1.0
  C  C95  1  0.24179000  0.26843000  0.36508000  1.0
  C  C96  1  0.21321000  0.09020000  0.05309000  1.0
  C  C97  1  0.78678000  0.90980000  0.94691000  1.0
  C  C98  1  0.89330000  0.65304000  0.58848000  1.0
  C  C99  1  0.10670000  0.34696000  0.41152000  1.0
  O  O100  1  0.34657000  0.56888000  0.59194000  1.0
  O  O101  1  0.65342000  0.43112000  0.40805000  1.0
  O  O102  1  0.28467000  0.69468000  0.46022000  1.0
  O  O103  1  0.71533000  0.30532000  0.53978000  1.0
  O  O104  1  0.03074000  0.65974000  0.58311000  1.0
  O  O105  1  0.96926000  0.34028000  0.41688000  1.0
  O  O106  1  0.09498000  0.61962000  0.38914000  1.0
  O  O107  1  0.90502000  0.38038000  0.61086000  1.0
  O  O108  1  0.16479000  0.41797000  0.61832000  1.0
  O  O109  1  0.83520000  0.58203000  0.38169000  1.0
  O  O110  1  0.41569000  0.50001000  0.37828000  1.0
  O  O111  1  0.58431000  0.49998000  0.62171000  1.0
  O  O112  1  0.40306000  0.36856000  0.53938000  1.0
  O  O113  1  0.59693000  0.63144000  0.46062000  1.0
  O  O114  1  0.13064000  0.41770000  0.44617000  1.0
  O  O115  1  0.86936000  0.58231000  0.55383000  1.0
  O  O116  1  0.20582000  0.71108000  0.96876000  1.0
  O  O117  1  0.79419000  0.28891000  0.03124000  1.0
  O  O118  1  0.38611000  0.96577000  0.74941000  1.0
  O  O119  1  0.61387000  0.03423000  0.25060000  1.0
  O  O120  1  0.15810000  0.12538000  0.12384000  1.0
  O  O121  1  0.84189000  0.87461000  0.87616000  1.0
  O  O122  1  0.28143000  0.14203000  0.98905000  1.0
  O  O123  1  0.71858000  0.85797000  0.01096000  1.0
