# generated using pymatgen
data_Na2PH13(C3O5)2
_symmetry_space_group_name_H-M   'P 1'
_cell_length_a   6.29571000
_cell_length_b   8.57617000
_cell_length_c   11.37680000
_cell_angle_alpha   89.29610000
_cell_angle_beta   89.33980000
_cell_angle_gamma   85.55840000
_symmetry_Int_Tables_number   1
_chemical_formula_structural   Na2PH13(C3O5)2
_chemical_formula_sum   'Na4 P2 H26 C12 O20'
_cell_volume   612.34304060
_cell_formula_units_Z   2
loop_
 _symmetry_equiv_pos_site_id
 _symmetry_equiv_pos_as_xyz
  1  'x, y, z'
loop_
 _atom_site_type_symbol
 _atom_site_label
 _atom_site_symmetry_multiplicity
 _atom_site_fract_x
 _atom_site_fract_y
 _atom_site_fract_z
 _atom_site_occupancy
  Na  Na0  1  0.14929000  0.62870000  0.85161000  1.0
  Na  Na1  1  0.85071000  0.37130000  0.14839000  1.0
  Na  Na2  1  0.19780000  0.85693000  0.60532000  1.0
  Na  Na3  1  0.80220000  0.14307000  0.39468000  1.0
  P  P4  1  0.65772000  0.72372000  0.77256000  1.0
  P  P5  1  0.34228000  0.27628000  0.22744000  1.0
  H  H6  1  0.72837000  0.11072000  0.90881000  1.0
  H  H7  1  0.27164000  0.88928000  0.09119000  1.0
  H  H8  1  0.37643000  0.28810000  0.84014000  1.0
  H  H9  1  0.62358000  0.71190000  0.15986000  1.0
  H  H10  1  0.30837000  0.34262000  0.97070000  1.0
  H  H11  1  0.69163000  0.65738000  0.02930000  1.0
  H  H12  1  0.00635000  0.67673000  0.08648000  1.0
  H  H13  1  0.99365000  0.32327000  0.91352000  1.0
  H  H14  1  0.20871000  0.56028000  0.08819000  1.0
  H  H15  1  0.79129000  0.43972000  0.91181000  1.0
  H  H16  1  0.74007000  0.39346000  0.72657000  1.0
  H  H17  1  0.25993000  0.60654000  0.27343000  1.0
  H  H18  1  0.50204000  0.99996000  0.89295000  1.0
  H  H19  1  0.49796000  0.00004000  0.10705000  1.0
  H  H20  1  0.72763000  0.91718000  0.97065000  1.0
  H  H21  1  0.27238000  0.08282000  0.02935000  1.0
  H  H22  1  0.51480000  0.46415000  0.64210000  1.0
  H  H23  1  0.48521000  0.53585000  0.35790000  1.0
  H  H24  1  0.05255000  0.98429000  0.82680000  1.0
  H  H25  1  0.94745000  0.01571000  0.17319000  1.0
  H  H26  1  0.48939000  0.15334000  0.59066000  1.0
  H  H27  1  0.51061000  0.84665000  0.40934000  1.0
  H  H28  1  0.75407000  0.38766000  0.57099000  1.0
  H  H29  1  0.24593000  0.61235000  0.42901000  1.0
  H  H30  1  0.06156000  0.50921000  0.61267000  1.0
  H  H31  1  0.93844000  0.49078000  0.38733000  1.0
  C  C32  1  0.77506000  0.61847000  0.64118000  1.0
  C  C33  1  0.22494000  0.38153000  0.35882000  1.0
  C  C34  1  0.71420000  0.02269000  0.67519000  1.0
  C  C35  1  0.28578000  0.97732000  0.32481000  1.0
  C  C36  1  0.76920000  0.92151000  0.78348000  1.0
  C  C37  1  0.23081000  0.07850000  0.21652000  1.0
  C  C38  1  0.71261000  0.69351000  0.52101000  1.0
  C  C39  1  0.28741000  0.30649000  0.47898000  1.0
  C  C40  1  0.67588000  0.99267000  0.89618000  1.0
  C  C41  1  0.32412000  0.00733000  0.10382000  1.0
  C  C42  1  0.68917000  0.45586000  0.64575000  1.0
  C  C43  1  0.31084000  0.54414000  0.35425000  1.0
  O  O44  1  0.99701000  0.89241000  0.79217000  1.0
  O  O45  1  0.00299000  0.10759000  0.20782000  1.0
  O  O46  1  0.41917000  0.74795000  0.76330000  1.0
  O  O47  1  0.58083000  0.25206000  0.23670000  1.0
  O  O48  1  0.54210000  0.78653000  0.51725000  1.0
  O  O49  1  0.45789000  0.21347000  0.48275000  1.0
  O  O50  1  0.74932000  0.63356000  0.87976000  1.0
  O  O51  1  0.25068000  0.36644000  0.12024000  1.0
  O  O52  1  0.52160000  0.09318000  0.67719000  1.0
  O  O53  1  0.47839000  0.90682000  0.32281000  1.0
  O  O54  1  0.00270000  0.60772000  0.65274000  1.0
  O  O55  1  0.99729000  0.39227000  0.34725000  1.0
  O  O56  1  0.84582000  0.03227000  0.59362000  1.0
  O  O57  1  0.15418000  0.96774000  0.40638000  1.0
  O  O58  1  0.82609000  0.65781000  0.43273000  1.0
  O  O59  1  0.17389000  0.34218000  0.56728000  1.0
  O  O60  1  0.27256000  0.35308000  0.88562000  1.0
  O  O61  1  0.72744000  0.64692000  0.11438000  1.0
  O  O62  1  0.15539000  0.66531000  0.05783000  1.0
  O  O63  1  0.84461000  0.33469000  0.94217000  1.0
