# generated using pymatgen
data_CdH5C7(IN2)2
_symmetry_space_group_name_H-M   'P 1'
_cell_length_a   7.52185000
_cell_length_b   10.23130000
_cell_length_c   14.66220000
_cell_angle_alpha   76.84300000
_cell_angle_beta   83.85980000
_cell_angle_gamma   88.62770000
_symmetry_Int_Tables_number   1
_chemical_formula_structural   CdH5C7(IN2)2
_chemical_formula_sum   'Cd4 H20 C28 I8 N16'
_cell_volume   1092.45461310
_cell_formula_units_Z   4
loop_
 _symmetry_equiv_pos_site_id
 _symmetry_equiv_pos_as_xyz
  1  'x, y, z'
loop_
 _atom_site_type_symbol
 _atom_site_label
 _atom_site_symmetry_multiplicity
 _atom_site_fract_x
 _atom_site_fract_y
 _atom_site_fract_z
 _atom_site_occupancy
  Cd  Cd0  1  0.44359000  0.75288000  0.72318000  1.0
  Cd  Cd1  1  0.55641000  0.24712000  0.27682000  1.0
  Cd  Cd2  1  0.93777000  0.91577000  0.72997000  1.0
  Cd  Cd3  1  0.06222000  0.08423000  0.27003000  1.0
  H  H4  1  0.24240000  0.40512000  0.49229000  1.0
  H  H5  1  0.75760000  0.59488000  0.50771000  1.0
  H  H6  1  0.26559000  0.87560000  0.49231000  1.0
  H  H7  1  0.73442000  0.12440000  0.50769000  1.0
  H  H8  1  0.61979000  0.58639000  0.90412000  1.0
  H  H9  1  0.38021000  0.41361000  0.09588000  1.0
  H  H10  1  0.67617000  0.34893000  0.98931000  1.0
  H  H11  1  0.32383000  0.65107000  0.01069000  1.0
  H  H12  1  0.59844000  0.16093000  0.91564000  1.0
  H  H13  1  0.40156000  0.83907000  0.08436000  1.0
  H  H14  1  0.47219000  0.21749000  0.76051000  1.0
  H  H15  1  0.52781000  0.78251000  0.23949000  1.0
  H  H16  1  0.03010000  0.56401000  0.25172000  1.0
  H  H17  1  0.96990000  0.43599000  0.74828000  1.0
  H  H18  1  0.90098000  0.60083000  0.09732000  1.0
  H  H19  1  0.09902000  0.39917000  0.90269000  1.0
  H  H20  1  0.82718000  0.83599000  0.01441000  1.0
  H  H21  1  0.17282000  0.16401000  0.98559000  1.0
  H  H22  1  0.88863000  0.02582000  0.09015000  1.0
  H  H23  1  0.11136000  0.97417000  0.90985000  1.0
  C  C24  1  0.58712000  0.50103000  0.87579000  1.0
  C  C25  1  0.41288000  0.49897000  0.12421000  1.0
  C  C26  1  0.61851000  0.36951000  0.92236000  1.0
  C  C27  1  0.38149000  0.63050000  0.07764000  1.0
  C  C28  1  0.57678000  0.26546000  0.88109000  1.0
  C  C29  1  0.42322000  0.73454000  0.11891000  1.0
  C  C30  1  0.50618000  0.29601000  0.79495000  1.0
  C  C31  1  0.49382000  0.70399000  0.20505000  1.0
  C  C32  1  0.47590000  0.43090000  0.75309000  1.0
  C  C33  1  0.52410000  0.56910000  0.24691000  1.0
  C  C34  1  0.39677000  0.46811000  0.66388000  1.0
  C  C35  1  0.60323000  0.53190000  0.33612000  1.0
  C  C36  1  0.28696000  0.58251000  0.54261000  1.0
  C  C37  1  0.71305000  0.41749000  0.45739000  1.0
  C  C38  1  0.22249000  0.67977000  0.46520000  1.0
  C  C39  1  0.77751000  0.32023000  0.53480000  1.0
  C  C40  1  0.11044000  0.76159000  0.33794000  1.0
  C  C41  1  0.88956000  0.23842000  0.66206000  1.0
  C  C42  1  0.02973000  0.77592000  0.24964000  1.0
  C  C43  1  0.97027000  0.22408000  0.75036000  1.0
  C  C44  1  0.99695000  0.66452000  0.21348000  1.0
  C  C45  1  0.00305000  0.33548000  0.78652000  1.0
  C  C46  1  0.92510000  0.68594000  0.12766000  1.0
  C  C47  1  0.07490000  0.31406000  0.87234000  1.0
  C  C48  1  0.88537000  0.81645000  0.08123000  1.0
  C  C49  1  0.11463000  0.18354000  0.91877000  1.0
  C  C50  1  0.91962000  0.92182000  0.12250000  1.0
  C  C51  1  0.08038000  0.07818000  0.87750000  1.0
  I  I52  1  0.09758000  0.69522000  0.85661000  1.0
  I  I53  1  0.90241000  0.30477000  0.14339000  1.0
  I  I54  1  0.59275000  0.89193000  0.85534000  1.0
  I  I55  1  0.40725000  0.10807000  0.14466000  1.0
  I  I56  1  0.30650000  0.99157000  0.61611000  1.0
  I  I57  1  0.69350000  0.00843000  0.38389000  1.0
  I  I58  1  0.81285000  0.75132000  0.61357000  1.0
  I  I59  1  0.18715000  0.24868000  0.38643000  1.0
  N  N60  1  0.51528000  0.53106000  0.79349000  1.0
  N  N61  1  0.48473000  0.46894000  0.20651000  1.0
  N  N62  1  0.35654000  0.59695000  0.62018000  1.0
  N  N63  1  0.64346000  0.40305000  0.37982000  1.0
  N  N64  1  0.35571000  0.37601000  0.61748000  1.0
  N  N65  1  0.64429000  0.62400000  0.38252000  1.0
  N  N66  1  0.28682000  0.45011000  0.54189000  1.0
  N  N67  1  0.71318000  0.54989000  0.45811000  1.0
  N  N68  1  0.14998000  0.64279000  0.39534000  1.0
  N  N69  1  0.85002000  0.35722000  0.60466000  1.0
  N  N70  1  0.22724000  0.81531000  0.44941000  1.0
  N  N71  1  0.77277000  0.18469000  0.55059000  1.0
  N  N72  1  0.15539000  0.86877000  0.36917000  1.0
  N  N73  1  0.84461000  0.13123000  0.63083000  1.0
  N  N74  1  0.99186000  0.90218000  0.20432000  1.0
  N  N75  1  0.00814000  0.09781000  0.79568000  1.0
