# generated using pymatgen
data_Cu3H12C15N7
_symmetry_space_group_name_H-M   'P 1'
_cell_length_a   23.57530000
_cell_length_b   23.59070000
_cell_length_c   23.62360000
_cell_angle_alpha   90.07680000
_cell_angle_beta   90.05040000
_cell_angle_gamma   89.98960000
_symmetry_Int_Tables_number   1
_chemical_formula_structural   Cu3H12C15N7
_chemical_formula_sum   'Cu12 H48 C60 N28'
_cell_volume   13138.43300622
_cell_formula_units_Z   4
loop_
 _symmetry_equiv_pos_site_id
 _symmetry_equiv_pos_as_xyz
  1  'x, y, z'
loop_
 _atom_site_type_symbol
 _atom_site_label
 _atom_site_symmetry_multiplicity
 _atom_site_fract_x
 _atom_site_fract_y
 _atom_site_fract_z
 _atom_site_occupancy
  Cu  Cu0  1  0.81835000  0.87332000  0.92622000  1.0
  Cu  Cu1  1  0.93367000  0.82321000  0.87222000  1.0
  Cu  Cu2  1  0.87319000  0.92664000  0.81592000  1.0
  Cu  Cu3  1  0.32263000  0.12796000  0.56710000  1.0
  Cu  Cu4  1  0.42911000  0.18477000  0.62197000  1.0
  Cu  Cu5  1  0.37228000  0.07467000  0.67955000  1.0
  Cu  Cu6  1  0.68040000  0.37283000  0.06920000  1.0
  Cu  Cu7  1  0.57280000  0.31723000  0.12253000  1.0
  Cu  Cu8  1  0.62877000  0.42842000  0.17963000  1.0
  Cu  Cu9  1  0.18120000  0.62630000  0.42839000  1.0
  Cu  Cu10  1  0.06752000  0.67816000  0.37314000  1.0
  Cu  Cu11  1  0.12099000  0.56814000  0.32292000  1.0
  H  H12  1  0.80514000  0.79131000  0.03224000  1.0
  H  H13  1  0.96468000  0.73171000  0.96367000  1.0
  H  H14  1  0.77868000  0.01458000  0.78149000  1.0
  H  H15  1  0.71028000  0.95500000  0.94079000  1.0
  H  H16  1  0.04055000  0.80792000  0.78883000  1.0
  H  H17  1  0.96507000  0.96248000  0.72463000  1.0
  H  H18  1  0.28792000  0.22199000  0.47746000  1.0
  H  H19  1  0.44739000  0.29036000  0.53802000  1.0
  H  H20  1  0.28850000  0.96851000  0.69441000  1.0
  H  H21  1  0.23632000  0.03220000  0.53053000  1.0
  H  H22  1  0.52494000  0.21135000  0.71049000  1.0
  H  H23  1  0.45180000  0.06197000  0.78776000  1.0
  H  H24  1  0.71561000  0.27798000  0.98038000  1.0
  H  H25  1  0.55430000  0.21175000  0.03797000  1.0
  H  H26  1  0.71123000  0.53581000  0.19351000  1.0
  H  H27  1  0.76734000  0.46784000  0.03259000  1.0
  H  H28  1  0.47706000  0.29091000  0.21084000  1.0
  H  H29  1  0.54862000  0.44184000  0.28709000  1.0
  H  H30  1  0.19532000  0.70897000  0.53426000  1.0
  H  H31  1  0.03833000  0.77199000  0.46280000  1.0
  H  H32  1  0.21303000  0.47734000  0.28911000  1.0
  H  H33  1  0.29186000  0.54795000  0.43909000  1.0
  H  H34  1  0.96465000  0.69806000  0.28570000  1.0
  H  H35  1  0.02536000  0.53236000  0.23460000  1.0
  H  H36  1  0.80593000  0.68235000  0.07734000  1.0
  H  H37  1  0.93677000  0.69122000  0.07511000  1.0
  H  H38  1  0.44656000  0.33501000  0.42813000  1.0
  H  H39  1  0.31581000  0.33420000  0.43852000  1.0
  H  H40  1  0.55590000  0.16789000  0.92819000  1.0
  H  H41  1  0.68653000  0.16639000  0.94000000  1.0
  H  H42  1  0.19617000  0.81970000  0.57876000  1.0
  H  H43  1  0.06532000  0.81190000  0.57483000  1.0
  H  H44  1  0.66646000  0.06500000  0.94045000  1.0
  H  H45  1  0.66716000  0.05554000  0.80988000  1.0
  H  H46  1  0.33506000  0.43629000  0.44134000  1.0
  H  H47  1  0.32987000  0.44313000  0.31075000  1.0
  H  H48  1  0.18152000  0.92175000  0.68989000  1.0
  H  H49  1  0.19429000  0.92168000  0.55959000  1.0
  H  H50  1  0.81769000  0.58308000  0.19021000  1.0
  H  H51  1  0.80832000  0.57926000  0.05968000  1.0
  H  H52  1  0.08347000  0.80764000  0.67771000  1.0
  H  H53  1  0.07923000  0.93836000  0.68660000  1.0
  H  H54  1  0.43495000  0.44724000  0.32831000  1.0
  H  H55  1  0.44101000  0.31634000  0.32582000  1.0
  H  H56  1  0.91863000  0.69460000  0.17723000  1.0
  H  H57  1  0.91783000  0.56410000  0.18960000  1.0
  H  H58  1  0.56447000  0.05530000  0.82892000  1.0
  H  H59  1  0.56144000  0.18628000  0.82548000  1.0
  C  C60  1  0.84284000  0.78241000  0.00741000  1.0
  C  C61  1  0.88688000  0.74353000  0.01786000  1.0
  C  C62  1  0.92479000  0.75275000  0.97290000  1.0
  C  C63  1  0.76945000  0.99352000  0.82128000  1.0
  C  C64  1  0.72444000  0.00267000  0.85921000  1.0
  C  C65  1  0.73509000  0.96388000  0.90316000  1.0
  C  C66  1  0.01406000  0.84420000  0.77880000  1.0
  C  C67  1  0.02276000  0.88755000  0.73887000  1.0
  C  C68  1  0.97603000  0.92372000  0.74681000  1.0
  C  C69  1  0.32775000  0.23111000  0.49867000  1.0
  C  C70  1  0.36568000  0.27626000  0.49003000  1.0
  C  C71  1  0.40974000  0.26553000  0.52878000  1.0
  C  C72  1  0.28130000  0.99222000  0.65571000  1.0
  C  C73  1  0.24472000  0.98018000  0.61014000  1.0
  C  C74  1  0.25541000  0.02424000  0.57160000  1.0
  C  C75  1  0.50045000  0.17413000  0.72195000  1.0
  C  C76  1  0.50651000  0.13812000  0.76891000  1.0
  C  C77  1  0.46385000  0.09721000  0.76083000  1.0
  C  C78  1  0.67535000  0.26936000  0.00089000  1.0
  C  C79  1  0.63691000  0.22479000  0.99134000  1.0
  C  C80  1  0.59247000  0.23604000  0.02948000  1.0
  C  C81  1  0.71941000  0.51109000  0.15561000  1.0
  C  C82  1  0.75679000  0.52214000  0.11052000  1.0
  C  C83  1  0.74733000  0.47683000  0.07298000  1.0
  C  C84  1  0.50117000  0.32850000  0.22205000  1.0
  C  C85  1  0.49471000  0.36491000  0.26873000  1.0
  C  C86  1  0.53691000  0.40620000  0.26041000  1.0
  C  C87  1  0.15825000  0.71863000  0.50874000  1.0
  C  C88  1  0.11502000  0.75861000  0.51832000  1.0
  C  C89  1  0.07755000  0.75004000  0.47279000  1.0
  C  C90  1  0.22472000  0.50100000  0.32679000  1.0
  C  C91  1  0.27285000  0.49533000  0.36148000  1.0
  C  C92  1  0.26444000  0.53626000  0.40404000  1.0
  C  C93  1  0.98749000  0.65867000  0.27895000  1.0
  C  C94  1  0.97536000  0.61354000  0.24180000  1.0
  C  C95  1  0.01804000  0.57363000  0.25362000  1.0
  C  C96  1  0.84999000  0.67771000  0.09093000  1.0
  C  C97  1  0.89346000  0.70291000  0.06335000  1.0
  C  C98  1  0.40259000  0.34905000  0.42401000  1.0
  C  C99  1  0.35911000  0.32198000  0.44972000  1.0
  C  C100  1  0.59959000  0.15297000  0.92433000  1.0
  C  C101  1  0.64329000  0.17916000  0.95074000  1.0
  C  C102  1  0.15193000  0.82466000  0.59160000  1.0
  C  C103  1  0.10859000  0.79961000  0.56358000  1.0
  C  C104  1  0.65256000  0.06977000  0.89658000  1.0
  C  C105  1  0.67919000  0.04375000  0.85299000  1.0
  C  C106  1  0.34787000  0.43110000  0.39719000  1.0
  C  C107  1  0.31903000  0.45540000  0.35406000  1.0
  C  C108  1  0.17814000  0.90733000  0.64606000  1.0
  C  C109  1  0.20458000  0.93425000  0.60296000  1.0
  C  C110  1  0.82227000  0.59620000  0.14611000  1.0
  C  C111  1  0.79688000  0.56803000  0.10309000  1.0
  C  C112  1  0.09649000  0.85183000  0.67308000  1.0
  C  C113  1  0.06822000  0.89490000  0.69829000  1.0
  C  C114  1  0.42951000  0.40330000  0.34180000  1.0
  C  C115  1  0.45376000  0.35932000  0.31411000  1.0
  C  C116  1  0.90431000  0.65072000  0.17350000  1.0
  C  C117  1  0.93044000  0.60736000  0.20045000  1.0
  C  C118  1  0.57103000  0.09921000  0.84215000  1.0
  C  C119  1  0.54769000  0.14346000  0.81421000  1.0
  N  N120  1  0.39552000  0.39670000  0.38973000  1.0
  N  N121  1  0.85697000  0.64357000  0.13867000  1.0
  N  N122  1  0.14420000  0.85939000  0.63893000  1.0
  N  N123  1  0.60570000  0.10533000  0.88976000  1.0
  N  N124  1  0.90459000  0.79342000  0.93824000  1.0
  N  N125  1  0.85384000  0.81215000  0.95983000  1.0
  N  N126  1  0.78291000  0.93431000  0.89215000  1.0
  N  N127  1  0.80436000  0.95303000  0.84148000  1.0
  N  N128  1  0.94206000  0.90314000  0.78777000  1.0
  N  N129  1  0.96576000  0.85397000  0.80793000  1.0
  N  N130  1  0.39874000  0.21753000  0.55787000  1.0
  N  N131  1  0.34804000  0.19606000  0.53888000  1.0
  N  N132  1  0.29469000  0.05991000  0.59292000  1.0
  N  N133  1  0.31108000  0.03991000  0.64500000  1.0
  N  N134  1  0.43492000  0.10815000  0.71269000  1.0
  N  N135  1  0.45796000  0.15571000  0.68839000  1.0
  N  N136  1  0.60376000  0.28377000  0.05905000  1.0
  N  N137  1  0.65503000  0.30456000  0.04102000  1.0
  N  N138  1  0.70795000  0.44141000  0.09439000  1.0
  N  N139  1  0.69030000  0.46281000  0.14553000  1.0
  N  N140  1  0.56599000  0.39508000  0.21240000  1.0
  N  N141  1  0.54347000  0.34701000  0.18843000  1.0
  N  N142  1  0.09727000  0.70869000  0.43861000  1.0
  N  N143  1  0.14722000  0.68886000  0.46110000  1.0
  N  N144  1  0.21501000  0.56386000  0.39524000  1.0
  N  N145  1  0.19023000  0.54163000  0.34749000  1.0
  N  N146  1  0.05306000  0.59372000  0.29405000  1.0
  N  N147  1  0.03396000  0.64635000  0.31005000  1.0
