# generated using pymatgen
data_ZnMoH8C4N2(OF)4
_symmetry_space_group_name_H-M   'P 1'
_cell_length_a   7.20359500
_cell_length_b   7.20360000
_cell_length_c   16.43530000
_cell_angle_alpha   90.00010000
_cell_angle_beta   90.00020000
_cell_angle_gamma   59.99993112
_symmetry_Int_Tables_number   1
_chemical_formula_structural   ZnMoH8C4N2(OF)4
_chemical_formula_sum   'Zn3 Mo3 H24 C12 N6 O12 F12'
_cell_volume   738.59581655
_cell_formula_units_Z   3
loop_
 _symmetry_equiv_pos_site_id
 _symmetry_equiv_pos_as_xyz
  1  'x, y, z'
loop_
 _atom_site_type_symbol
 _atom_site_label
 _atom_site_symmetry_multiplicity
 _atom_site_fract_x
 _atom_site_fract_y
 _atom_site_fract_z
 _atom_site_occupancy
  Zn  Zn0  1  0.22318000  0.77682000  0.83333000  1.0
  Zn  Zn1  1  0.77682000  1.00000000  0.50000000  1.0
  Zn  Zn2  1  0.00000000  0.22318000  0.16666000  1.0
  Mo  Mo3  1  0.45450000  0.99999000  1.00000000  1.0
  Mo  Mo4  1  0.00000000  0.54551000  0.66666667  1.0
  Mo  Mo5  1  0.54551000  0.45450000  0.33333333  1.0
  H  H6  1  0.94132000  0.14770000  0.95568000  1.0
  H  H7  1  0.14769000  0.91099000  0.62235000  1.0
  H  H8  1  0.91098000  0.94133000  0.28902000  1.0
  H  H9  1  0.08900000  0.85231000  0.04432000  1.0
  H  H10  1  0.05869000  0.08900000  0.37765000  1.0
  H  H11  1  0.85231000  0.05869000  0.71099000  1.0
  H  H12  1  0.58970000  0.49207000  0.95573000  1.0
  H  H13  1  0.49208000  0.91822000  0.62240000  1.0
  H  H14  1  0.91822000  0.58970000  0.28906000  1.0
  H  H15  1  0.08177000  0.50794000  0.04427000  1.0
  H  H16  1  0.41029000  0.08177000  0.37760000  1.0
  H  H17  1  0.50794000  0.41029000  0.71094000  1.0
  H  H18  1  0.15146000  0.47264000  0.89570000  1.0
  H  H19  1  0.47264000  0.37589000  0.56237000  1.0
  H  H20  1  0.37590000  0.15147000  0.22904000  1.0
  H  H21  1  0.62410000  0.52736000  0.10429000  1.0
  H  H22  1  0.84854000  0.62410000  0.43762000  1.0
  H  H23  1  0.52737000  0.84854000  0.77096000  1.0
  H  H24  1  0.93122000  0.69869000  0.90634000  1.0
  H  H25  1  0.69868000  0.37009000  0.57301000  1.0
  H  H26  1  0.37009000  0.93123000  0.23967000  1.0
  H  H27  1  0.62991000  0.30132000  0.09366000  1.0
  H  H28  1  0.06877000  0.62991000  0.42699000  1.0
  H  H29  1  0.30132000  0.06878000  0.76032000  1.0
  C  C30  1  0.84378000  0.20333000  0.90086000  1.0
  C  C31  1  0.20333000  0.95290000  0.56753000  1.0
  C  C32  1  0.95289000  0.84378000  0.23419000  1.0
  C  C33  1  0.04711000  0.79666000  0.09912000  1.0
  C  C34  1  0.15623000  0.04711000  0.43245000  1.0
  C  C35  1  0.79666000  0.15623000  0.76579000  1.0
  C  C36  1  0.64950000  0.39611000  0.90083000  1.0
  C  C37  1  0.39611000  0.95439000  0.56750000  1.0
  C  C38  1  0.95439000  0.64950000  0.23416000  1.0
  C  C39  1  0.04562000  0.60390000  0.09915000  1.0
  C  C40  1  0.35048000  0.04562000  0.43248000  1.0
  C  C41  1  0.60391000  0.35048000  0.76582000  1.0
  N  N42  1  0.52958000  0.47042000  0.83332000  1.0
  N  N43  1  0.47042000  0.00000000  0.49999000  1.0
  N  N44  1  0.00000000  0.52958000  0.16665000  1.0
  N  N45  1  0.91743000  0.08257000  0.83332000  1.0
  N  N46  1  0.08257000  1.00000000  0.49999000  1.0
  N  N47  1  0.00000000  0.91743000  0.16665000  1.0
  O  O48  1  0.68200000  0.84082000  0.94413000  1.0
  O  O49  1  0.84081000  0.47719000  0.61080000  1.0
  O  O50  1  0.47718000  0.68200000  0.27746000  1.0
  O  O51  1  0.52281000  0.15918000  0.05587000  1.0
  O  O52  1  0.31801000  0.52281000  0.38920000  1.0
  O  O53  1  0.15918000  0.31801000  0.72253000  1.0
  O  O54  1  0.08874000  0.62911000  0.89876000  1.0
  O  O55  1  0.62911000  0.28215000  0.56543000  1.0
  O  O56  1  0.28215000  0.08873000  0.23209000  1.0
  O  O57  1  0.71785000  0.37089000  0.10123000  1.0
  O  O58  1  0.91126000  0.71785000  0.43456000  1.0
  O  O59  1  0.37089000  0.91127000  0.76790000  1.0
  F  F60  1  0.30600000  0.20554000  0.91380000  1.0
  F  F61  1  0.20554000  0.48845000  0.58047000  1.0
  F  F62  1  0.48846000  0.30599000  0.24713000  1.0
  F  F63  1  0.51154000  0.79446000  0.08619000  1.0
  F  F64  1  0.69399000  0.51155000  0.41952000  1.0
  F  F65  1  0.79446000  0.69401000  0.75286000  1.0
  F  F66  1  0.30328000  0.84753000  0.94726000  1.0
  F  F67  1  0.84753000  0.84919000  0.61393000  1.0
  F  F68  1  0.84919000  0.30328000  0.28059000  1.0
  F  F69  1  0.15081000  0.15247000  0.05273000  1.0
  F  F70  1  0.69672000  0.15081000  0.38606000  1.0
  F  F71  1  0.15248000  0.69672000  0.71940000  1.0
