# generated using pymatgen
data_Zn4H6C24S6Br2O19
_symmetry_space_group_name_H-M   'P 1'
_cell_length_a   19.60120000
_cell_length_b   19.64630000
_cell_length_c   33.37670000
_cell_angle_alpha   78.98110000
_cell_angle_beta   79.16910000
_cell_angle_gamma   63.99160000
_symmetry_Int_Tables_number   1
_chemical_formula_structural   Zn4H6C24S6Br2O19
_chemical_formula_sum   'Zn16 H24 C96 S24 Br8 O76'
_cell_volume   11259.25437890
_cell_formula_units_Z   4
loop_
 _symmetry_equiv_pos_site_id
 _symmetry_equiv_pos_as_xyz
  1  'x, y, z'
loop_
 _atom_site_type_symbol
 _atom_site_label
 _atom_site_symmetry_multiplicity
 _atom_site_fract_x
 _atom_site_fract_y
 _atom_site_fract_z
 _atom_site_occupancy
  Zn  Zn0  1  0.05671000  0.40163000  0.47674000  1.0
  Zn  Zn1  1  0.98434000  0.48458000  0.56040000  1.0
  Zn  Zn2  1  0.05898000  0.56106000  0.48146000  1.0
  Zn  Zn3  1  0.89816000  0.55262000  0.48135000  1.0
  Zn  Zn4  1  0.69790000  0.34913000  0.27130000  1.0
  Zn  Zn5  1  0.69063000  0.18973000  0.26581000  1.0
  Zn  Zn6  1  0.77068000  0.26620000  0.18973000  1.0
  Zn  Zn7  1  0.84885000  0.19169000  0.27361000  1.0
  Zn  Zn8  1  0.26485000  0.76638000  0.68888000  1.0
  Zn  Zn9  1  0.34805000  0.69826000  0.77135000  1.0
  Zn  Zn10  1  0.19099000  0.84880000  0.77016000  1.0
  Zn  Zn11  1  0.19275000  0.68479000  0.76685000  1.0
  Zn  Zn12  1  0.56254000  0.05897000  0.98400000  1.0
  Zn  Zn13  1  0.40147000  0.05437000  0.97697000  1.0
  Zn  Zn14  1  0.55622000  0.90093000  0.97791000  1.0
  Zn  Zn15  1  0.48227000  0.98215000  0.05937000  1.0
  H  H16  1  0.74934000  0.44790000  0.35026000  1.0
  H  H17  1  0.00142000  0.30107000  0.40083000  1.0
  H  H18  1  0.19417000  0.70684000  0.60159000  1.0
  H  H19  1  0.04733000  0.55047000  0.64646000  1.0
  H  H20  1  0.46376000  0.24142000  0.33947000  1.0
  H  H21  1  0.48131000  0.70092000  0.60048000  1.0
  H  H22  1  0.20607000  0.98047000  0.60071000  1.0
  H  H23  1  0.95098000  0.96145000  0.34331000  1.0
  H  H24  1  0.65842000  0.13713000  0.04992000  1.0
  H  H25  1  0.59598000  0.10936000  0.20059000  1.0
  H  H26  1  0.54775000  0.76980000  0.14797000  1.0
  H  H27  1  0.15862000  0.14507000  0.04101000  1.0
  H  H28  1  0.30190000  0.00166000  0.90019000  1.0
  H  H29  1  0.43982000  0.74855000  0.85150000  1.0
  H  H30  1  0.30318000  0.28083000  0.90204000  1.0
  H  H31  1  0.78801000  0.00938000  0.90555000  1.0
  H  H32  1  0.24059000  0.62445000  0.36350000  1.0
  H  H33  1  0.86639000  0.42882000  0.66015000  1.0
  H  H34  1  0.09897000  0.31969000  0.68743000  1.0
  H  H35  1  0.75783000  0.73469000  0.35748000  1.0
  H  H36  1  0.82976000  0.44679000  0.06749000  1.0
  H  H37  1  0.13270000  0.15712000  0.24993000  1.0
  H  H38  1  0.56506000  0.43636000  0.80593000  1.0
  H  H39  1  0.91914000  0.69747000  0.79480000  1.0
  C  C40  1  0.06862000  0.31734000  0.55925000  1.0
  C  C41  1  0.06650000  0.57453000  0.56649000  1.0
  C  C42  1  0.18289000  0.44081000  0.43609000  1.0
  C  C43  1  0.93325000  0.68084000  0.43851000  1.0
  C  C44  1  0.92910000  0.42835000  0.43357000  1.0
  C  C45  1  0.81881000  0.55769000  0.56510000  1.0
  C  C46  1  0.56873000  0.31084000  0.31115000  1.0
  C  C47  1  0.68332000  0.18224000  0.17968000  1.0
  C  C48  1  0.69486000  0.43295000  0.18866000  1.0
  C  C49  1  0.93653000  0.18501000  0.19172000  1.0
  C  C50  1  0.81891000  0.31727000  0.32051000  1.0
  C  C51  1  0.81038000  0.06405000  0.31121000  1.0
  C  C52  1  0.43172000  0.69613000  0.68753000  1.0
  C  C53  1  0.31233000  0.82364000  0.81889000  1.0
  C  C54  1  0.18362000  0.93426000  0.68721000  1.0
  C  C55  1  0.06561000  0.80669000  0.80926000  1.0
  C  C56  1  0.18272000  0.67593000  0.68128000  1.0
  C  C57  1  0.31408000  0.56769000  0.81243000  1.0
  C  C58  1  0.43947000  0.18435000  0.93986000  1.0
  C  C59  1  0.43280000  0.92961000  0.92959000  1.0
  C  C60  1  0.68708000  0.93702000  0.94060000  1.0
  C  C61  1  0.55846000  0.81573000  0.06101000  1.0
  C  C62  1  0.56826000  0.06733000  0.07056000  1.0
  C  C63  1  0.31439000  0.05901000  0.05937000  1.0
  C  C64  1  0.89852000  0.40351000  0.40381000  1.0
  C  C65  1  0.85085000  0.34390000  0.34872000  1.0
  C  C66  1  0.82691000  0.44574000  0.38891000  1.0
  C  C67  1  0.92323000  0.30249000  0.36286000  1.0
  C  C68  1  0.80448000  0.41557000  0.36192000  1.0
  C  C69  1  0.94559000  0.33260000  0.38987000  1.0
  C  C70  1  0.09516000  0.60471000  0.59456000  1.0
  C  C71  1  0.14984000  0.64947000  0.65343000  1.0
  C  C72  1  0.13609000  0.65043000  0.58183000  1.0
  C  C73  1  0.10731000  0.60521000  0.66617000  1.0
  C  C74  1  0.16248000  0.67165000  0.61116000  1.0
  C  C75  1  0.08072000  0.58406000  0.63686000  1.0
  C  C76  1  0.30651000  0.45596000  0.40070000  1.0
  C  C77  1  0.44784000  0.29761000  0.34802000  1.0
  C  C78  1  0.25960000  0.41714000  0.41253000  1.0
  C  C79  1  0.49387000  0.33659000  0.33641000  1.0
  C  C80  1  0.37995000  0.34108000  0.37173000  1.0
  C  C81  1  0.37571000  0.41240000  0.37745000  1.0
  C  C82  1  0.72689000  0.58281000  0.63346000  1.0
  C  C83  1  0.52484000  0.67636000  0.62139000  1.0
  C  C84  1  0.74474000  0.58672000  0.59086000  1.0
  C  C85  1  0.50784000  0.67140000  0.66372000  1.0
  C  C86  1  0.60477000  0.64502000  0.61043000  1.0
  C  C87  1  0.64668000  0.61651000  0.64471000  1.0
  C  C88  1  0.07562000  0.22798000  0.62817000  1.0
  C  C89  1  0.17463000  0.02510000  0.62057000  1.0
  C  C90  1  0.08954000  0.24339000  0.58560000  1.0
  C  C91  1  0.15999000  0.00997000  0.66265000  1.0
  C  C92  1  0.14333000  0.10457000  0.60831000  1.0
  C  C93  1  0.10599000  0.14829000  0.64141000  1.0
  C  C94  1  0.83435000  0.80229000  0.40013000  1.0
  C  C95  1  0.90362000  0.94466000  0.35027000  1.0
  C  C96  1  0.90514000  0.75692000  0.41430000  1.0
  C  C97  1  0.83317000  0.98928000  0.33643000  1.0
  C  C98  1  0.90355000  0.87678000  0.37366000  1.0
  C  C99  1  0.83312000  0.87122000  0.37691000  1.0
  C  C100  1  0.65663000  0.15289000  0.15014000  1.0
  C  C101  1  0.59650000  0.09495000  0.10025000  1.0
  C  C102  1  0.67486000  0.16020000  0.10703000  1.0
  C  C103  1  0.57898000  0.08704000  0.14343000  1.0
  C  C104  1  0.64472000  0.13150000  0.08319000  1.0
  C  C105  1  0.60912000  0.11561000  0.16730000  1.0
  C  C106  1  0.67542000  0.52258000  0.11949000  1.0
  C  C107  1  0.57577000  0.72516000  0.12793000  1.0
  C  C108  1  0.66757000  0.50668000  0.16224000  1.0
  C  C109  1  0.58391000  0.74021000  0.08553000  1.0
  C  C110  1  0.60857000  0.64571000  0.14013000  1.0
  C  C111  1  0.64137000  0.60224000  0.10669000  1.0
  C  C112  1  0.08521000  0.11469000  0.17942000  1.0
  C  C113  1  0.16829000  0.12463000  0.07299000  1.0
  C  C114  1  0.01230000  0.15701000  0.16726000  1.0
  C  C115  1  0.24031000  0.08276000  0.08534000  1.0
  C  C116  1  0.11196000  0.13584000  0.10740000  1.0
  C  C117  1  0.14257000  0.10228000  0.14516000  1.0
  C  C118  1  0.33909000  0.85320000  0.84831000  1.0
  C  C119  1  0.40403000  0.89830000  0.90210000  1.0
  C  C120  1  0.29944000  0.92514000  0.86275000  1.0
  C  C121  1  0.44298000  0.82559000  0.88843000  1.0
  C  C122  1  0.33217000  0.94618000  0.88904000  1.0
  C  C123  1  0.41017000  0.80458000  0.86210000  1.0
  C  C124  1  0.40859000  0.45263000  0.85644000  1.0
  C  C125  1  0.34729000  0.30156000  0.89881000  1.0
  C  C126  1  0.34043000  0.49399000  0.83896000  1.0
  C  C127  1  0.41521000  0.26042000  0.91583000  1.0
  C  C128  1  0.34496000  0.37170000  0.87744000  1.0
  C  C129  1  0.41139000  0.38236000  0.87861000  1.0
  C  C130  1  0.94754000  0.78784000  0.85117000  1.0
  C  C131  1  0.80534000  0.95100000  0.89993000  1.0
  C  C132  1  0.99184000  0.82855000  0.83562000  1.0
  C  C133  1  0.76170000  0.91035000  0.91530000  1.0
  C  C134  1  0.87307000  0.90593000  0.87674000  1.0
  C  C135  1  0.87933000  0.83203000  0.87488000  1.0
  S  S136  1  0.29994000  0.32814000  0.39556000  1.0
  S  S137  1  0.45607000  0.42524000  0.35416000  1.0
  S  S138  1  0.66433000  0.63243000  0.56489000  1.0
  S  S139  1  0.58765000  0.62976000  0.69041000  1.0
  S  S140  1  0.13899000  0.16147000  0.56193000  1.0
  S  S141  1  0.10854000  0.09107000  0.68763000  1.0
  S  S142  1  0.96929000  0.79840000  0.39972000  1.0
  S  S143  1  0.76670000  0.95010000  0.35150000  1.0
  S  S144  1  0.61862000  0.58826000  0.18648000  1.0
  S  S145  1  0.63043000  0.65928000  0.06020000  1.0
  S  S146  1  0.01378000  0.18075000  0.11450000  1.0
  S  S147  1  0.24068000  0.05634000  0.13817000  1.0
  S  S148  1  0.27996000  0.44813000  0.84987000  1.0
  S  S149  1  0.47620000  0.30626000  0.90651000  1.0
  S  S150  1  0.95096000  0.91957000  0.85000000  1.0
  S  S151  1  0.80188000  0.81794000  0.90206000  1.0
  S  S152  1  0.29118000  0.54544000  0.41389000  1.0
  S  S153  1  0.79012000  0.54536000  0.67212000  1.0
  S  S154  1  0.02091000  0.29455000  0.66340000  1.0
  S  S155  1  0.75085000  0.78486000  0.41010000  1.0
  S  S156  1  0.71592000  0.45694000  0.08254000  1.0
  S  S157  1  0.10999000  0.07351000  0.22972000  1.0
  S  S158  1  0.48296000  0.48131000  0.85634000  1.0
  S  S159  1  0.97040000  0.69115000  0.84704000  1.0
  Br  Br160  1  0.75782000  0.54526000  0.40132000  1.0
  Br  Br161  1  0.99691000  0.20768000  0.34592000  1.0
  Br  Br162  1  0.15700000  0.68877000  0.52648000  1.0
  Br  Br163  1  0.08005000  0.57269000  0.72180000  1.0
  Br  Br164  1  0.74038000  0.20551000  0.07776000  1.0
  Br  Br165  1  0.51612000  0.03871000  0.17344000  1.0
  Br  Br166  1  0.20095000  0.99847000  0.84987000  1.0
  Br  Br167  1  0.53841000  0.75013000  0.90396000  1.0
  O  O168  1  0.00053000  0.49868000  0.49981000  1.0
  O  O169  1  0.07462000  0.31447000  0.52070000  1.0
  O  O170  1  0.01790000  0.54755000  0.58332000  1.0
  O  O171  1  0.14780000  0.51039000  0.44215000  1.0
  O  O172  1  0.04781000  0.37600000  0.57715000  1.0
  O  O173  1  0.15866000  0.38845000  0.44774000  1.0
  O  O174  1  0.09356000  0.57648000  0.52878000  1.0
  O  O175  1  0.99636000  0.66056000  0.45293000  1.0
  O  O176  1  0.88185000  0.48168000  0.45416000  1.0
  O  O177  1  0.89385000  0.64258000  0.44223000  1.0
  O  O178  1  0.00084000  0.39251000  0.43621000  1.0
  O  O179  1  0.87700000  0.50785000  0.58195000  1.0
  O  O180  1  0.81734000  0.58496000  0.52704000  1.0
  O  O181  1  0.75146000  0.24987000  0.25006000  1.0
  O  O182  1  0.60356000  0.35428000  0.30645000  1.0
  O  O183  1  0.67384000  0.15731000  0.21765000  1.0
  O  O184  1  0.74305000  0.37501000  0.17162000  1.0
  O  O185  1  0.59165000  0.24823000  0.29622000  1.0
  O  O186  1  0.66783000  0.43484000  0.22667000  1.0
  O  O187  1  0.71196000  0.22989000  0.16502000  1.0
  O  O188  1  0.87969000  0.21071000  0.17099000  1.0
  O  O189  1  0.84989000  0.24659000  0.31665000  1.0
  O  O190  1  0.93449000  0.18227000  0.23026000  1.0
  O  O191  1  0.76180000  0.36813000  0.30302000  1.0
  O  O192  1  0.74157000  0.09575000  0.30231000  1.0
  O  O193  1  0.86106000  0.09036000  0.30057000  1.0
  O  O194  1  0.24872000  0.74978000  0.74917000  1.0
  O  O195  1  0.37384000  0.72255000  0.66756000  1.0
  O  O196  1  0.35330000  0.75452000  0.81235000  1.0
  O  O197  1  0.16161000  0.93424000  0.72580000  1.0
  O  O198  1  0.43073000  0.68845000  0.72657000  1.0
  O  O199  1  0.22356000  0.87644000  0.66800000  1.0
  O  O200  1  0.25226000  0.86914000  0.80252000  1.0
  O  O201  1  0.09739000  0.85269000  0.80552000  1.0
  O  O202  1  0.18279000  0.64742000  0.71880000  1.0
  O  O203  1  0.09001000  0.74611000  0.79255000  1.0
  O  O204  1  0.20898000  0.72518000  0.66458000  1.0
  O  O205  1  0.36249000  0.59557000  0.79836000  1.0
  O  O206  1  0.24417000  0.59571000  0.80563000  1.0
  O  O207  1  0.50021000  0.00009000  0.99927000  1.0
  O  O208  1  0.50400000  0.15824000  0.95377000  1.0
  O  O209  1  0.38487000  0.99175000  0.94354000  1.0
  O  O210  1  0.65836000  0.88810000  0.95167000  1.0
  O  O211  1  0.39444000  0.15141000  0.94451000  1.0
  O  O212  1  0.65780000  0.00554000  0.94913000  1.0
  O  O213  1  0.50206000  0.89315000  0.93659000  1.0
  O  O214  1  0.56857000  0.81602000  0.02200000  1.0
  O  O215  1  0.52245000  0.03637000  0.08517000  1.0
  O  O216  1  0.52920000  0.87366000  0.08073000  1.0
  O  O217  1  0.59275000  0.07742000  0.03263000  1.0
  O  O218  1  0.31399000  0.07952000  0.02076000  1.0
  O  O219  1  0.37285000  0.01945000  0.07869000  1.0
  O  O220  1  0.21943000  0.60605000  0.39008000  1.0
  O  O221  1  0.26665000  0.54932000  0.45678000  1.0
  O  O222  1  0.35730000  0.55862000  0.39426000  1.0
  O  O223  1  0.81524000  0.45611000  0.67534000  1.0
  O  O224  1  0.85524000  0.56318000  0.65957000  1.0
  O  O225  1  0.74133000  0.56831000  0.70959000  1.0
  O  O226  1  0.06958000  0.34232000  0.66385000  1.0
  O  O227  1  0.95149000  0.34823000  0.64696000  1.0
  O  O228  1  0.01923000  0.25099000  0.70324000  1.0
  O  O229  1  0.77315000  0.71373000  0.38510000  1.0
  O  O230  1  0.73774000  0.75842000  0.45251000  1.0
  O  O231  1  0.69313000  0.85067000  0.38970000  1.0
  O  O232  1  0.80621000  0.41761000  0.08758000  1.0
  O  O233  1  0.68996000  0.39761000  0.09328000  1.0
  O  O234  1  0.70712000  0.50310000  0.04301000  1.0
  O  O235  1  0.08753000  0.14627000  0.25341000  1.0
  O  O236  1  0.06234000  0.03648000  0.25045000  1.0
  O  O237  1  0.19232000  0.03360000  0.22520000  1.0
  O  O238  1  0.51940000  0.48430000  0.80879000  1.0
  O  O239  1  0.45157000  0.55732000  0.86674000  1.0
  O  O240  1  0.53944000  0.41841000  0.87908000  1.0
  O  O241  1  0.97013000  0.69069000  0.79879000  1.0
  O  O242  1  0.04673000  0.64330000  0.85610000  1.0
  O  O243  1  0.90604000  0.67709000  0.86898000  1.0
