# generated using pymatgen
data_CuH16C16(NO2)2
_symmetry_space_group_name_H-M   'P 1'
_cell_length_a   8.71251000
_cell_length_b   8.75846000
_cell_length_c   10.66740000
_cell_angle_alpha   88.56760000
_cell_angle_beta   69.23490000
_cell_angle_gamma   77.15620000
_symmetry_Int_Tables_number   1
_chemical_formula_structural   CuH16C16(NO2)2
_chemical_formula_sum   'Cu2 H32 C32 N4 O8'
_cell_volume   740.79536982
_cell_formula_units_Z   2
loop_
 _symmetry_equiv_pos_site_id
 _symmetry_equiv_pos_as_xyz
  1  'x, y, z'
loop_
 _atom_site_type_symbol
 _atom_site_label
 _atom_site_symmetry_multiplicity
 _atom_site_fract_x
 _atom_site_fract_y
 _atom_site_fract_z
 _atom_site_occupancy
  Cu  Cu0  1  0.49151000  0.34085000  0.36678000  1.0
  Cu  Cu1  1  0.50849000  0.65915000  0.63322000  1.0
  H  H2  1  0.14444000  0.52000000  0.50452000  1.0
  H  H3  1  0.85555000  0.48001000  0.49548000  1.0
  H  H4  1  0.91605000  0.52891000  0.72364000  1.0
  H  H5  1  0.08394000  0.47108000  0.27636000  1.0
  H  H6  1  0.23540000  0.11396000  0.81101000  1.0
  H  H7  1  0.76460000  0.88604000  0.18898000  1.0
  H  H8  1  0.44431000  0.12443000  0.59093000  1.0
  H  H9  1  0.55569000  0.87557000  0.40907000  1.0
  H  H10  1  0.73421000  0.51929000  0.89556000  1.0
  H  H11  1  0.26578000  0.48070000  0.10444000  1.0
  H  H12  1  0.52841000  0.52410000  0.12828000  1.0
  H  H13  1  0.47159000  0.47590000  0.87172000  1.0
  H  H14  1  0.84148000  0.15517000  0.22859000  1.0
  H  H15  1  0.15852000  0.84483000  0.77140000  1.0
  H  H16  1  0.06545000  0.13405000  0.00238000  1.0
  H  H17  1  0.93455000  0.86595000  0.99762000  1.0
  H  H18  1  0.86497000  0.23028000  0.64448000  1.0
  H  H19  1  0.13503000  0.76971000  0.35552000  1.0
  H  H20  1  0.73135000  0.09860000  0.67080000  1.0
  H  H21  1  0.26864000  0.90140000  0.32920000  1.0
  H  H22  1  0.00207000  0.12829000  0.39907000  1.0
  H  H23  1  0.99793000  0.87170000  0.60093000  1.0
  H  H24  1  0.87155000  0.99343000  0.43306000  1.0
  H  H25  1  0.12845000  0.00656000  0.56695000  1.0
  H  H26  1  0.17805000  0.08913000  0.19849000  1.0
  H  H27  1  0.82195000  0.91087000  0.80152000  1.0
  H  H28  1  0.26585000  0.21922000  0.07947000  1.0
  H  H29  1  0.73415000  0.78077000  0.92053000  1.0
  H  H30  1  0.35587000  0.93941000  0.98275000  1.0
  H  H31  1  0.64414000  0.06059000  0.01726000  1.0
  H  H32  1  0.44569000  0.88236000  0.10681000  1.0
  H  H33  1  0.55431000  0.11764000  0.89320000  1.0
  C  C34  1  0.15883000  0.43379000  0.57713000  1.0
  C  C35  1  0.84117000  0.56621000  0.42287000  1.0
  C  C36  1  0.03155000  0.43751000  0.70101000  1.0
  C  C37  1  0.96844000  0.56249000  0.29899000  1.0
  C  C38  1  0.05372000  0.32376000  0.79244000  1.0
  C  C39  1  0.94628000  0.67624000  0.20756000  1.0
  C  C40  1  0.20543000  0.20879000  0.74962000  1.0
  C  C41  1  0.79457000  0.79121000  0.25037000  1.0
  C  C42  1  0.32674000  0.21333000  0.62386000  1.0
  C  C43  1  0.67326000  0.78667000  0.37613000  1.0
  C  C44  1  0.92255000  0.32676000  0.92700000  1.0
  C  C45  1  0.07745000  0.67324000  0.07300000  1.0
  C  C46  1  0.76662000  0.43626000  0.96525000  1.0
  C  C47  1  0.23338000  0.56374000  0.03475000  1.0
  C  C48  1  0.64900000  0.43904000  0.09406000  1.0
  C  C49  1  0.35100000  0.56096000  0.90594000  1.0
  C  C50  1  0.82443000  0.23221000  0.15042000  1.0
  C  C51  1  0.17558000  0.76779000  0.84958000  1.0
  C  C52  1  0.94847000  0.22251000  0.02372000  1.0
  C  C53  1  0.05154000  0.77749000  0.97628000  1.0
  C  C54  1  0.67469000  0.28661000  0.55786000  1.0
  C  C55  1  0.32531000  0.71339000  0.44214000  1.0
  C  C56  1  0.80524000  0.16675000  0.59420000  1.0
  C  C57  1  0.19476000  0.83325000  0.40580000  1.0
  C  C58  1  0.93604000  0.05771000  0.47830000  1.0
  C  C59  1  0.06396000  0.94229000  0.52170000  1.0
  C  C60  1  0.37170000  0.17247000  0.23452000  1.0
  C  C61  1  0.62830000  0.82754000  0.76548000  1.0
  C  C62  1  0.29763000  0.11972000  0.13768000  1.0
  C  C63  1  0.70238000  0.88028000  0.86233000  1.0
  C  C64  1  0.41778000  0.97987000  0.04526000  1.0
  C  C65  1  0.58222000  0.02013000  0.95475000  1.0
  N  N66  1  0.30555000  0.32570000  0.53938000  1.0
  N  N67  1  0.69445000  0.67431000  0.46062000  1.0
  N  N68  1  0.67700000  0.33913000  0.18567000  1.0
  N  N69  1  0.32300000  0.66087000  0.81433000  1.0
  O  O70  1  0.67085000  0.26381000  0.44028000  1.0
  O  O71  1  0.32915000  0.73618000  0.55971000  1.0
  O  O72  1  0.57954000  0.39518000  0.64335000  1.0
  O  O73  1  0.42047000  0.60483000  0.35663000  1.0
  O  O74  1  0.33728000  0.32237000  0.26251000  1.0
  O  O75  1  0.66271000  0.67764000  0.73750000  1.0
  O  O76  1  0.46248000  0.07328000  0.28051000  1.0
  O  O77  1  0.53752000  0.92673000  0.71949000  1.0
