# generated using pymatgen
data_CuH19C20N3O7
_symmetry_space_group_name_H-M   'P 1'
_cell_length_a   8.70731000
_cell_length_b   11.10660000
_cell_length_c   11.13880000
_cell_angle_alpha   82.79240000
_cell_angle_beta   87.92710000
_cell_angle_gamma   73.62550000
_symmetry_Int_Tables_number   1
_chemical_formula_structural   CuH19C20N3O7
_chemical_formula_sum   'Cu2 H38 C40 N6 O14'
_cell_volume   1025.35819239
_cell_formula_units_Z   2
loop_
 _symmetry_equiv_pos_site_id
 _symmetry_equiv_pos_as_xyz
  1  'x, y, z'
loop_
 _atom_site_type_symbol
 _atom_site_label
 _atom_site_symmetry_multiplicity
 _atom_site_fract_x
 _atom_site_fract_y
 _atom_site_fract_z
 _atom_site_occupancy
  Cu  Cu0  1  0.42665000  0.98824000  0.15188000  1.0
  Cu  Cu1  1  0.57335000  0.01175000  0.84812000  1.0
  H  H2  1  0.28007000  0.84759000  0.00743000  1.0
  H  H3  1  0.71992000  0.15241000  0.99258000  1.0
  H  H4  1  0.27080000  0.62679000  0.00436000  1.0
  H  H5  1  0.72920000  0.37321000  0.99564000  1.0
  H  H6  1  0.58084000  0.52319000  0.31773000  1.0
  H  H7  1  0.41915000  0.47680000  0.68226000  1.0
  H  H8  1  0.57744000  0.74962000  0.30593000  1.0
  H  H9  1  0.42256000  0.25037000  0.69407000  1.0
  H  H10  1  0.21118000  0.45841000  0.05540000  1.0
  H  H11  1  0.78882000  0.54159000  0.94459000  1.0
  H  H12  1  0.21760000  0.23370000  0.06702000  1.0
  H  H13  1  0.78241000  0.76629000  0.93298000  1.0
  H  H14  1  0.63165000  0.11726000  0.27217000  1.0
  H  H15  1  0.36834000  0.88274000  0.72784000  1.0
  H  H16  1  0.64304000  0.33772000  0.27362000  1.0
  H  H17  1  0.35695000  0.66229000  0.72638000  1.0
  H  H18  1  0.96538000  0.07671000  0.43033000  1.0
  H  H19  1  0.03461000  0.92333000  0.56965000  1.0
  H  H20  1  0.91706000  0.97896000  0.33238000  1.0
  H  H21  1  0.08292000  0.02105000  0.66764000  1.0
  H  H22  1  0.93068000  0.13222000  0.27342000  1.0
  H  H23  1  0.06930000  0.86777000  0.72655000  1.0
  H  H24  1  0.00480000  0.91301000  0.12669000  1.0
  H  H25  1  0.99519000  0.08700000  0.87332000  1.0
  H  H26  1  0.91953000  0.90477000  0.98423000  1.0
  H  H27  1  0.08048000  0.09524000  0.01578000  1.0
  H  H28  1  0.97086000  0.77045000  0.09712000  1.0
  H  H29  1  0.02915000  0.22956000  0.90289000  1.0
  H  H30  1  0.97213000  0.20160000  0.61315000  1.0
  H  H31  1  0.02787000  0.79841000  0.38685000  1.0
  H  H32  1  0.12376000  0.30972000  0.72097000  1.0
  H  H33  1  0.87625000  0.69029000  0.27903000  1.0
  H  H34  1  0.78431000  0.66896000  0.60752000  1.0
  H  H35  1  0.21570000  0.33105000  0.39248000  1.0
  H  H36  1  0.62250000  0.55865000  0.50530000  1.0
  H  H37  1  0.37751000  0.44135000  0.49469000  1.0
  H  H38  1  0.72361000  0.22007000  0.53619000  1.0
  H  H39  1  0.27640000  0.77992000  0.46381000  1.0
  C  C40  1  0.34437000  0.77218000  0.07466000  1.0
  C  C41  1  0.65562000  0.22782000  0.92535000  1.0
  C  C42  1  0.33963000  0.64832000  0.07442000  1.0
  C  C43  1  0.66036000  0.35167000  0.92558000  1.0
  C  C44  1  0.42692000  0.55348000  0.16143000  1.0
  C  C45  1  0.57308000  0.44651000  0.83858000  1.0
  C  C46  1  0.51354000  0.59118000  0.24623000  1.0
  C  C47  1  0.48645000  0.40881000  0.75376000  1.0
  C  C48  1  0.51206000  0.71704000  0.24127000  1.0
  C  C49  1  0.48793000  0.28296000  0.75873000  1.0
  C  C50  1  0.42723000  0.42012000  0.16401000  1.0
  C  C51  1  0.57276000  0.57988000  0.83599000  1.0
  C  C52  1  0.30780000  0.38734000  0.10497000  1.0
  C  C53  1  0.69220000  0.61265000  0.89503000  1.0
  C  C54  1  0.31047000  0.26136000  0.10984000  1.0
  C  C55  1  0.68952000  0.73864000  0.89016000  1.0
  C  C56  1  0.54120000  0.19667000  0.22580000  1.0
  C  C57  1  0.45879000  0.80332000  0.77420000  1.0
  C  C58  1  0.54561000  0.32080000  0.22595000  1.0
  C  C59  1  0.45439000  0.67920000  0.77406000  1.0
  C  C60  1  0.15836000  0.99480000  0.31239000  1.0
  C  C61  1  0.84164000  0.00520000  0.68760000  1.0
  C  C62  1  0.98235000  0.04964000  0.33860000  1.0
  C  C63  1  0.01764000  0.95037000  0.66139000  1.0
  C  C64  1  0.75872000  0.91068000  0.13924000  1.0
  C  C65  1  0.24129000  0.08933000  0.86076000  1.0
  C  C66  1  0.92303000  0.87389000  0.08165000  1.0
  C  C67  1  0.07697000  0.12612000  0.91836000  1.0
  C  C68  1  0.78395000  0.37193000  0.55538000  1.0
  C  C69  1  0.21607000  0.62808000  0.44462000  1.0
  C  C70  1  0.92811000  0.30315000  0.61444000  1.0
  C  C71  1  0.07191000  0.69685000  0.38556000  1.0
  C  C72  1  0.01349000  0.36413000  0.67511000  1.0
  C  C73  1  0.98652000  0.63587000  0.32489000  1.0
  C  C74  1  0.95892000  0.49527000  0.67424000  1.0
  C  C75  1  0.04109000  0.50473000  0.32576000  1.0
  C  C76  1  0.82262000  0.56674000  0.60829000  1.0
  C  C77  1  0.17739000  0.43326000  0.39171000  1.0
  C  C78  1  0.73449000  0.50505000  0.55011000  1.0
  C  C79  1  0.26553000  0.49495000  0.44988000  1.0
  N  N80  1  0.42985000  0.80626000  0.15594000  1.0
  N  N81  1  0.57014000  0.19373000  0.84406000  1.0
  N  N82  1  0.42597000  0.16705000  0.16804000  1.0
  N  N83  1  0.57403000  0.83294000  0.83197000  1.0
  N  N84  1  0.04171000  0.55599000  0.74660000  1.0
  N  N85  1  0.95830000  0.44401000  0.25340000  1.0
  O  O86  1  0.20248000  0.03336000  0.20565000  1.0
  O  O87  1  0.79750000  0.96664000  0.79434000  1.0
  O  O88  1  0.25132000  0.91811000  0.38891000  1.0
  O  O89  1  0.74867000  0.08190000  0.61109000  1.0
  O  O90  1  0.63837000  0.95817000  0.06541000  1.0
  O  O91  1  0.36163000  0.04182000  0.93460000  1.0
  O  O92  1  0.74144000  0.89457000  0.25166000  1.0
  O  O93  1  0.25856000  0.10542000  0.74835000  1.0
  O  O94  1  0.69101000  0.31377000  0.50465000  1.0
  O  O95  1  0.30899000  0.68625000  0.49534000  1.0
  O  O96  1  0.01438000  0.67319000  0.72849000  1.0
  O  O97  1  0.98564000  0.32682000  0.27151000  1.0
  O  O98  1  0.13611000  0.48832000  0.82692000  1.0
  O  O99  1  0.86388000  0.51168000  0.17309000  1.0
