# generated using pymatgen
data_Na2H7C6NO6
_symmetry_space_group_name_H-M   'P 1'
_cell_length_a   9.41748000
_cell_length_b   9.41743000
_cell_length_c   9.41746000
_cell_angle_alpha   90.00010000
_cell_angle_beta   90.00010000
_cell_angle_gamma   89.99990000
_symmetry_Int_Tables_number   1
_chemical_formula_structural   Na2H7C6NO6
_chemical_formula_sum   'Na8 H28 C24 N4 O24'
_cell_volume   835.22001204
_cell_formula_units_Z   4
loop_
 _symmetry_equiv_pos_site_id
 _symmetry_equiv_pos_as_xyz
  1  'x, y, z'
loop_
 _atom_site_type_symbol
 _atom_site_label
 _atom_site_symmetry_multiplicity
 _atom_site_fract_x
 _atom_site_fract_y
 _atom_site_fract_z
 _atom_site_occupancy
  Na  Na0  1  0.90672000  0.90672000  0.90672000  1.0
  Na  Na1  1  0.59328000  0.40672000  0.09328000  1.0
  Na  Na2  1  0.40672000  0.09328000  0.59328000  1.0
  Na  Na3  1  0.09328000  0.59328000  0.40672000  1.0
  Na  Na4  1  0.11568000  0.88432000  0.61568000  1.0
  Na  Na5  1  0.88432000  0.61568000  0.11567000  1.0
  Na  Na6  1  0.61568000  0.11568000  0.88432000  1.0
  Na  Na7  1  0.38432000  0.38432000  0.38432000  1.0
  H  H8  1  0.04580000  0.04580000  0.04580000  1.0
  H  H9  1  0.45420000  0.54580000  0.95420000  1.0
  H  H10  1  0.54580000  0.95420000  0.45420000  1.0
  H  H11  1  0.95420000  0.45420000  0.54580000  1.0
  H  H12  1  0.32139000  0.18459000  0.07413000  1.0
  H  H13  1  0.18460000  0.07413000  0.32139000  1.0
  H  H14  1  0.07413000  0.32139000  0.18459000  1.0
  H  H15  1  0.17861000  0.68460000  0.92587000  1.0
  H  H16  1  0.31541000  0.57413000  0.67861000  1.0
  H  H17  1  0.42587000  0.82139000  0.81541000  1.0
  H  H18  1  0.82139000  0.81540000  0.42587000  1.0
  H  H19  1  0.68459000  0.92587000  0.17861000  1.0
  H  H20  1  0.57413000  0.67861000  0.31540000  1.0
  H  H21  1  0.67861000  0.31541000  0.57413000  1.0
  H  H22  1  0.81541000  0.42587000  0.82139000  1.0
  H  H23  1  0.92587000  0.17861000  0.68460000  1.0
  H  H24  1  0.18897000  0.25803000  0.96222000  1.0
  H  H25  1  0.25803000  0.96222000  0.18897000  1.0
  H  H26  1  0.96222000  0.18897000  0.25803000  1.0
  H  H27  1  0.31103000  0.75804000  0.03779000  1.0
  H  H28  1  0.24197000  0.46222000  0.81103000  1.0
  H  H29  1  0.53778000  0.68897000  0.74197000  1.0
  H  H30  1  0.68897000  0.74196000  0.53778000  1.0
  H  H31  1  0.75803000  0.03778000  0.31103000  1.0
  H  H32  1  0.46222000  0.81103000  0.24197000  1.0
  H  H33  1  0.81103000  0.24197000  0.46221000  1.0
  H  H34  1  0.74196000  0.53778000  0.68896000  1.0
  H  H35  1  0.03779000  0.31103000  0.75803000  1.0
  C  C36  1  0.22527000  0.15977000  0.01340000  1.0
  C  C37  1  0.15977000  0.01340000  0.22528000  1.0
  C  C38  1  0.01340000  0.22528000  0.15977000  1.0
  C  C39  1  0.27472000  0.65977000  0.98660000  1.0
  C  C40  1  0.34023000  0.51341000  0.77473000  1.0
  C  C41  1  0.48660000  0.72528000  0.84023000  1.0
  C  C42  1  0.72528000  0.84023000  0.48660000  1.0
  C  C43  1  0.65977000  0.98660000  0.27473000  1.0
  C  C44  1  0.51340000  0.77472000  0.34023000  1.0
  C  C45  1  0.77473000  0.34023000  0.51340000  1.0
  C  C46  1  0.84023000  0.48660000  0.72527000  1.0
  C  C47  1  0.98660000  0.27472000  0.65977000  1.0
  C  C48  1  0.25265000  0.04921000  0.89616000  1.0
  C  C49  1  0.04921000  0.89616000  0.25267000  1.0
  C  C50  1  0.89616000  0.25266000  0.04921000  1.0
  C  C51  1  0.24733000  0.54922000  0.10384000  1.0
  C  C52  1  0.45079000  0.39616000  0.74734000  1.0
  C  C53  1  0.60384000  0.75267000  0.95079000  1.0
  C  C54  1  0.75266000  0.95079000  0.60384000  1.0
  C  C55  1  0.54921000  0.10384000  0.24735000  1.0
  C  C56  1  0.39616000  0.74734000  0.45078000  1.0
  C  C57  1  0.74734000  0.45079000  0.39616000  1.0
  C  C58  1  0.95078000  0.60385000  0.75267000  1.0
  C  C59  1  0.10384000  0.24734000  0.54921000  1.0
  N  N60  1  0.10987000  0.10987000  0.10987000  1.0
  N  N61  1  0.39013000  0.60987000  0.89013000  1.0
  N  N62  1  0.60987000  0.89013000  0.39013000  1.0
  N  N63  1  0.89013000  0.39013000  0.60987000  1.0
  O  O64  1  0.15322000  0.96284000  0.86843000  1.0
  O  O65  1  0.96284000  0.86843000  0.15322000  1.0
  O  O66  1  0.86843000  0.15322000  0.96283000  1.0
  O  O67  1  0.34678000  0.46284000  0.13157000  1.0
  O  O68  1  0.53716000  0.36843000  0.84678000  1.0
  O  O69  1  0.63157000  0.65322000  0.03717000  1.0
  O  O70  1  0.65322000  0.03716000  0.63157000  1.0
  O  O71  1  0.46284000  0.13157000  0.34678000  1.0
  O  O72  1  0.36843000  0.84678000  0.53717000  1.0
  O  O73  1  0.84678000  0.53717000  0.36843000  1.0
  O  O74  1  0.03716000  0.63157000  0.65321000  1.0
  O  O75  1  0.13157000  0.34678000  0.46283000  1.0
  O  O76  1  0.37172000  0.05740000  0.83506000  1.0
  O  O77  1  0.05740000  0.83507000  0.37172000  1.0
  O  O78  1  0.83507000  0.37171000  0.05739000  1.0
  O  O79  1  0.12829000  0.55740000  0.16493000  1.0
  O  O80  1  0.44260000  0.33507000  0.62829000  1.0
  O  O81  1  0.66494000  0.87171000  0.94260000  1.0
  O  O82  1  0.87172000  0.94260000  0.66493000  1.0
  O  O83  1  0.55740000  0.16494000  0.12829000  1.0
  O  O84  1  0.33506000  0.62828000  0.44260000  1.0
  O  O85  1  0.62829000  0.44260000  0.33507000  1.0
  O  O86  1  0.94259000  0.66494000  0.87170000  1.0
  O  O87  1  0.16493000  0.12829000  0.55740000  1.0
