# generated using pymatgen
data_AlH12C17O9
_symmetry_space_group_name_H-M   'P 1'
_cell_length_a   6.71710000
_cell_length_b   19.54270000
_cell_length_c   19.74260000
_cell_angle_alpha   98.80280000
_cell_angle_beta   91.35990000
_cell_angle_gamma   91.45300000
_symmetry_Int_Tables_number   1
_chemical_formula_structural   AlH12C17O9
_chemical_formula_sum   'Al4 H48 C68 O36'
_cell_volume   2559.26573154
_cell_formula_units_Z   4
loop_
 _symmetry_equiv_pos_site_id
 _symmetry_equiv_pos_as_xyz
  1  'x, y, z'
loop_
 _atom_site_type_symbol
 _atom_site_label
 _atom_site_symmetry_multiplicity
 _atom_site_fract_x
 _atom_site_fract_y
 _atom_site_fract_z
 _atom_site_occupancy
  Al  Al0  1  0.80197000  0.24674000  0.24778000  1.0
  Al  Al1  1  0.20861000  0.74811000  0.74381000  1.0
  Al  Al2  1  0.30165000  0.25324000  0.24847000  1.0
  Al  Al3  1  0.70908000  0.74543000  0.74673000  1.0
  H  H4  1  0.28559000  0.34526000  0.07333000  1.0
  H  H5  1  0.65919000  0.60885000  0.89459000  1.0
  H  H6  1  0.77206000  0.16533000  0.43259000  1.0
  H  H7  1  0.17007000  0.87917000  0.59594000  1.0
  H  H8  1  0.26519000  0.41990000  0.98427000  1.0
  H  H9  1  0.69913000  0.53681000  0.98553000  1.0
  H  H10  1  0.75870000  0.09060000  0.52213000  1.0
  H  H11  1  0.19965000  0.95975000  0.51178000  1.0
  H  H12  1  0.73015000  0.06267000  0.91647000  1.0
  H  H13  1  0.32682000  0.94982000  0.05897000  1.0
  H  H14  1  0.15161000  0.43907000  0.53752000  1.0
  H  H15  1  0.86464000  0.55430000  0.46035000  1.0
  H  H16  1  0.98179000  0.62899000  0.10329000  1.0
  H  H17  1  0.87703000  0.61199000  0.18297000  1.0
  H  H18  1  0.72739000  0.64863000  0.12178000  1.0
  H  H19  1  0.46713000  0.49934000  0.85038000  1.0
  H  H20  1  0.29820000  0.43743000  0.87833000  1.0
  H  H21  1  0.55050000  0.44702000  0.91172000  1.0
  H  H22  1  0.49213000  0.87629000  0.40548000  1.0
  H  H23  1  0.38816000  0.88312000  0.32148000  1.0
  H  H24  1  0.24189000  0.84594000  0.38265000  1.0
  H  H25  1  0.00412000  0.00269000  0.65058000  1.0
  H  H26  1  0.84241000  0.06863000  0.62954000  1.0
  H  H27  1  0.08238000  0.05796000  0.59130000  1.0
  H  H28  1  0.73531000  0.40784000  0.21670000  1.0
  H  H29  1  0.40808000  0.61701000  0.82550000  1.0
  H  H30  1  0.16139000  0.08449000  0.29465000  1.0
  H  H31  1  0.92680000  0.89467000  0.67918000  1.0
  H  H32  1  0.82787000  0.19381000  0.06915000  1.0
  H  H33  1  0.16961000  0.80654000  0.92444000  1.0
  H  H34  1  0.13236000  0.37936000  0.38998000  1.0
  H  H35  1  0.88147000  0.61499000  0.61237000  1.0
  H  H36  1  0.58826000  0.01030000  0.11104000  1.0
  H  H37  1  0.44860000  0.96544000  0.16873000  1.0
  H  H38  1  0.60192000  0.04045000  0.20143000  1.0
  H  H39  1  0.70753000  0.05997000  0.80023000  1.0
  H  H40  1  0.50429000  0.01338000  0.83180000  1.0
  H  H41  1  0.57319000  0.99249000  0.74380000  1.0
  H  H42  1  0.12163000  0.51907000  0.40042000  1.0
  H  H43  1  0.95376000  0.55828000  0.34597000  1.0
  H  H44  1  0.12523000  0.49468000  0.30925000  1.0
  H  H45  1  0.27478000  0.55709000  0.73343000  1.0
  H  H46  1  0.20704000  0.46698000  0.70731000  1.0
  H  H47  1  0.02049000  0.52870000  0.73527000  1.0
  H  H48  1  0.53389000  0.21594000  0.16158000  1.0
  H  H49  1  0.46501000  0.74514000  0.83573000  1.0
  H  H50  1  0.05938000  0.24306000  0.33735000  1.0
  H  H51  1  0.95204000  0.75713000  0.65764000  1.0
  C  C52  1  0.57849000  0.34926000  0.33658000  1.0
  C  C53  1  0.43719000  0.64474000  0.65836000  1.0
  C  C54  1  0.04057000  0.15577000  0.15417000  1.0
  C  C55  1  0.97860000  0.84625000  0.83331000  1.0
  C  C56  1  0.53775000  0.16272000  0.32288000  1.0
  C  C57  1  0.46770000  0.83171000  0.66923000  1.0
  C  C58  1  0.05446000  0.33953000  0.17741000  1.0
  C  C59  1  0.95136000  0.66396000  0.82497000  1.0
  C  C60  1  0.90887000  0.49400000  0.08915000  1.0
  C  C61  1  0.18250000  0.55064000  0.94200000  1.0
  C  C62  1  0.40442000  0.00677000  0.41116000  1.0
  C  C63  1  0.68701000  0.95690000  0.56172000  1.0
  C  C64  1  0.90917000  0.44794000  0.13793000  1.0
  C  C65  1  0.16134000  0.59932000  0.89721000  1.0
  C  C66  1  0.39758000  0.05321000  0.36301000  1.0
  C  C67  1  0.66943000  0.90799000  0.60647000  1.0
  C  C68  1  0.04489000  0.39331000  0.13083000  1.0
  C  C69  1  0.97051000  0.61775000  0.87757000  1.0
  C  C70  1  0.53170000  0.11100000  0.37146000  1.0
  C  C71  1  0.48102000  0.88206000  0.62044000  1.0
  C  C72  1  0.17778000  0.38633000  0.07712000  1.0
  C  C73  1  0.80530000  0.59262000  0.90838000  1.0
  C  C74  1  0.66641000  0.12151000  0.42737000  1.0
  C  C75  1  0.31302000  0.90234000  0.58693000  1.0
  C  C76  1  0.16766000  0.42950000  0.02748000  1.0
  C  C77  1  0.82919000  0.55155000  0.95906000  1.0
  C  C78  1  0.66088000  0.07838000  0.47710000  1.0
  C  C79  1  0.33206000  0.94700000  0.53924000  1.0
  C  C80  1  0.03336000  0.48388000  0.03136000  1.0
  C  C81  1  0.01730000  0.52863000  0.97727000  1.0
  C  C82  1  0.53041000  0.02032000  0.47092000  1.0
  C  C83  1  0.51839000  0.97518000  0.52464000  1.0
  C  C84  1  0.05752000  0.09642000  0.09694000  1.0
  C  C85  1  0.97735000  0.91012000  0.88639000  1.0
  C  C86  1  0.58467000  0.41029000  0.39167000  1.0
  C  C87  1  0.43728000  0.58107000  0.60575000  1.0
  C  C88  1  0.83275000  0.02217000  0.92379000  1.0
  C  C89  1  0.21782000  0.98898000  0.05402000  1.0
  C  C90  1  0.27464000  0.47706000  0.54202000  1.0
  C  C91  1  0.74631000  0.51479000  0.45468000  1.0
  C  C92  1  0.85316000  0.96494000  0.87394000  1.0
  C  C93  1  0.21112000  0.04839000  0.10218000  1.0
  C  C94  1  0.27669000  0.53045000  0.59644000  1.0
  C  C95  1  0.74529000  0.46108000  0.40019000  1.0
  C  C96  1  0.09482000  0.91632000  0.94628000  1.0
  C  C97  1  0.92911000  0.08830000  0.03896000  1.0
  C  C98  1  0.59455000  0.57433000  0.56051000  1.0
  C  C99  1  0.42829000  0.41645000  0.43694000  1.0
  C  C100  1  0.08737000  0.97795000  0.99624000  1.0
  C  C101  1  0.94544000  0.02949000  0.98611000  1.0
  C  C102  1  0.59238000  0.52037000  0.50286000  1.0
  C  C103  1  0.42875000  0.47080000  0.49391000  1.0
  C  C104  1  0.84713000  0.61298000  0.12819000  1.0
  C  C105  1  0.42311000  0.47440000  0.89438000  1.0
  C  C106  1  0.35642000  0.88509000  0.37608000  1.0
  C  C107  1  0.95382000  0.03090000  0.60935000  1.0
  C  C108  1  0.77000000  0.45632000  0.19626000  1.0
  C  C109  1  0.33941000  0.63740000  0.87506000  1.0
  C  C110  1  0.24559000  0.03905000  0.30523000  1.0
  C  C111  1  0.84761000  0.87255000  0.63028000  1.0
  C  C112  1  0.79365000  0.14565000  0.03236000  1.0
  C  C113  1  0.21612000  0.85612000  0.95723000  1.0
  C  C114  1  0.25040000  0.36643000  0.42592000  1.0
  C  C115  1  0.77512000  0.62311000  0.57074000  1.0
  C  C116  1  0.50459000  0.01619000  0.15874000  1.0
  C  C117  1  0.62926000  0.00920000  0.79645000  1.0
  C  C118  1  0.02988000  0.51054000  0.35279000  1.0
  C  C119  1  0.15957000  0.52064000  0.70761000  1.0
  O  O120  1  0.37173000  0.17968000  0.29892000  1.0
  O  O121  1  0.63315000  0.81815000  0.69709000  1.0
  O  O122  1  0.89354000  0.30611000  0.18515000  1.0
  O  O123  1  0.11554000  0.69050000  0.80799000  1.0
  O  O124  1  0.73926000  0.32743000  0.31024000  1.0
  O  O125  1  0.27209000  0.66561000  0.68234000  1.0
  O  O126  1  0.19984000  0.19153000  0.17027000  1.0
  O  O127  1  0.81339000  0.81317000  0.82118000  1.0
  O  O128  1  0.70920000  0.18723000  0.31089000  1.0
  O  O129  1  0.29874000  0.80572000  0.68035000  1.0
  O  O130  1  0.22527000  0.32895000  0.20219000  1.0
  O  O131  1  0.78051000  0.67383000  0.79992000  1.0
  O  O132  1  0.87263000  0.16595000  0.18249000  1.0
  O  O133  1  0.14414000  0.83079000  0.80571000  1.0
  O  O134  1  0.40578000  0.32108000  0.32104000  1.0
  O  O135  1  0.60654000  0.67530000  0.67371000  1.0
  O  O136  1  0.54875000  0.24566000  0.20567000  1.0
  O  O137  1  0.46051000  0.74948000  0.78705000  1.0
  O  O138  1  0.05472000  0.25118000  0.29006000  1.0
  O  O139  1  0.95382000  0.74331000  0.70340000  1.0
  O  O140  1  0.77428000  0.54575000  0.09542000  1.0
  O  O141  1  0.36945000  0.52490000  0.95165000  1.0
  O  O142  1  0.27358000  0.95104000  0.40186000  1.0
  O  O143  1  0.87296000  0.98457000  0.55097000  1.0
  O  O144  1  0.69794000  0.51106000  0.22169000  1.0
  O  O145  1  0.41435000  0.68755000  0.91291000  1.0
  O  O146  1  0.21275000  0.98166000  0.27170000  1.0
  O  O147  1  0.90926000  0.82216000  0.59249000  1.0
  O  O148  1  0.65539000  0.14531000  0.99015000  1.0
  O  O149  1  0.35539000  0.85657000  0.99869000  1.0
  O  O150  1  0.22724000  0.31827000  0.45839000  1.0
  O  O151  1  0.81182000  0.66431000  0.53152000  1.0
  O  O152  1  0.34409000  0.06298000  0.15551000  1.0
  O  O153  1  0.76226000  0.95688000  0.81060000  1.0
  O  O154  1  0.88791000  0.45427000  0.35227000  1.0
  O  O155  1  0.11672000  0.53271000  0.63911000  1.0
