# generated using pymatgen
data_CdH18C10S2(N2O)2
_symmetry_space_group_name_H-M   'P 1'
_cell_length_a   5.90714000
_cell_length_b   6.60142000
_cell_length_c   9.99576000
_cell_angle_alpha   84.76320000
_cell_angle_beta   82.49480000
_cell_angle_gamma   70.59200000
_symmetry_Int_Tables_number   1
_chemical_formula_structural   CdH18C10S2(N2O)2
_chemical_formula_sum   'Cd1 H18 C10 S2 N4 O2'
_cell_volume   364.01299107
_cell_formula_units_Z   1
loop_
 _symmetry_equiv_pos_site_id
 _symmetry_equiv_pos_as_xyz
  1  'x, y, z'
loop_
 _atom_site_type_symbol
 _atom_site_label
 _atom_site_symmetry_multiplicity
 _atom_site_fract_x
 _atom_site_fract_y
 _atom_site_fract_z
 _atom_site_occupancy
  Cd  Cd0  1  0.50000000  0.00001000  0.49999000  1.0
  H  H1  1  0.16947000  0.30097000  0.67335000  1.0
  H  H2  1  0.83052000  0.69902000  0.32666000  1.0
  H  H3  1  0.44810000  0.93278000  0.83951000  1.0
  H  H4  1  0.55192000  0.06723000  0.16049000  1.0
  H  H5  1  0.14969000  0.98397000  0.79813000  1.0
  H  H6  1  0.85032000  0.01603000  0.20188000  1.0
  H  H7  1  0.00048000  0.31110000  0.93203000  1.0
  H  H8  1  0.99953000  0.68888000  0.06798000  1.0
  H  H9  1  0.16773000  0.08817000  0.03522000  1.0
  H  H10  1  0.83229000  0.91182000  0.96478000  1.0
  H  H11  1  0.49721000  0.52453000  0.88282000  1.0
  H  H12  1  0.50279000  0.47547000  0.11718000  1.0
  H  H13  1  0.20105000  0.56552000  0.83768000  1.0
  H  H14  1  0.79894000  0.43448000  0.16233000  1.0
  H  H15  1  0.50609000  0.42188000  0.64363000  1.0
  H  H16  1  0.49389000  0.57813000  0.35636000  1.0
  H  H17  1  0.66243000  0.19939000  0.74668000  1.0
  H  H18  1  0.33756000  0.80061000  0.25331000  1.0
  C  C19  1  0.06213000  0.75754000  0.59349000  1.0
  C  C20  1  0.93785000  0.24242000  0.40650000  1.0
  C  C21  1  0.27873000  0.06046000  0.82047000  1.0
  C  C22  1  0.72128000  0.93954000  0.17953000  1.0
  C  C23  1  0.18123000  0.19338000  0.94485000  1.0
  C  C24  1  0.81878000  0.80661000  0.05516000  1.0
  C  C25  1  0.37609000  0.44297000  0.85614000  1.0
  C  C26  1  0.62391000  0.55704000  0.14386000  1.0
  C  C27  1  0.48335000  0.31526000  0.73119000  1.0
  C  C28  1  0.51665000  0.68474000  0.26881000  1.0
  S  S29  1  0.82533000  0.68739000  0.64916000  1.0
  S  S30  1  0.17466000  0.31260000  0.35083000  1.0
  N  N31  1  0.76178000  0.19717000  0.44434000  1.0
  N  N32  1  0.23822000  0.80286000  0.55565000  1.0
  N  N33  1  0.32976000  0.19222000  0.69956000  1.0
  N  N34  1  0.67024000  0.80778000  0.30044000  1.0
  O  O35  1  0.34029000  0.30504000  0.97100000  1.0
  O  O36  1  0.65973000  0.69496000  0.02901000  1.0
