# generated using pymatgen
data_CdH14C13(IN)2
_symmetry_space_group_name_H-M   'P 1'
_cell_length_a   4.99994000
_cell_length_b   11.71580000
_cell_length_c   13.45230000
_cell_angle_alpha   89.99960000
_cell_angle_beta   89.99960000
_cell_angle_gamma   89.37280000
_symmetry_Int_Tables_number   1
_chemical_formula_structural   CdH14C13(IN)2
_chemical_formula_sum   'Cd2 H28 C26 I4 N4'
_cell_volume   787.96561194
_cell_formula_units_Z   2
loop_
 _symmetry_equiv_pos_site_id
 _symmetry_equiv_pos_as_xyz
  1  'x, y, z'
loop_
 _atom_site_type_symbol
 _atom_site_label
 _atom_site_symmetry_multiplicity
 _atom_site_fract_x
 _atom_site_fract_y
 _atom_site_fract_z
 _atom_site_occupancy
  Cd  Cd0  1  0.46810000  0.22222000  0.25000000  1.0
  Cd  Cd1  1  0.53192000  0.77777000  0.75000000  1.0
  H  H2  1  0.05008000  0.08238000  0.38061000  1.0
  H  H3  1  0.94991000  0.91761000  0.88062000  1.0
  H  H4  1  0.94991000  0.91761000  0.61939000  1.0
  H  H5  1  0.05008000  0.08239000  0.11939000  1.0
  H  H6  1  0.75088000  0.10746000  0.52784000  1.0
  H  H7  1  0.24912000  0.89254000  0.02783000  1.0
  H  H8  1  0.24912000  0.89254000  0.47217000  1.0
  H  H9  1  0.75088000  0.10746000  0.97216000  1.0
  H  H10  1  0.11412000  0.43572000  0.57520000  1.0
  H  H11  1  0.88588000  0.56428000  0.07522000  1.0
  H  H12  1  0.88588000  0.56428000  0.42478000  1.0
  H  H13  1  0.11412000  0.43573000  0.92479000  1.0
  H  H14  1  0.38906000  0.39981000  0.42269000  1.0
  H  H15  1  0.61093000  0.60018000  0.92270000  1.0
  H  H16  1  0.61093000  0.60018000  0.57730000  1.0
  H  H17  1  0.38907000  0.39982000  0.07730000  1.0
  H  H18  1  0.56166000  0.24043000  0.65346000  1.0
  H  H19  1  0.43835000  0.75957000  0.15346000  1.0
  H  H20  1  0.43835000  0.75957000  0.34654000  1.0
  H  H21  1  0.56165000  0.24043000  0.84654000  1.0
  H  H22  1  0.67128000  0.38415000  0.65775000  1.0
  H  H23  1  0.32873000  0.61586000  0.15776000  1.0
  H  H24  1  0.32873000  0.61586000  0.34225000  1.0
  H  H25  1  0.67128000  0.38415000  0.84225000  1.0
  H  H26  1  0.08510000  0.31926000  0.75000000  1.0
  H  H27  1  0.91490000  0.68074000  0.25000000  1.0
  H  H28  1  0.96283000  0.17777000  0.75000000  1.0
  H  H29  1  0.03718000  0.82224000  0.25000000  1.0
  C  C30  1  0.05743000  0.15966000  0.42579000  1.0
  C  C31  1  0.94256000  0.84033000  0.92579000  1.0
  C  C32  1  0.94257000  0.84033000  0.57421000  1.0
  C  C33  1  0.05743000  0.15967000  0.07421000  1.0
  C  C34  1  0.89179000  0.17417000  0.50805000  1.0
  C  C35  1  0.10820000  0.82583000  0.00805000  1.0
  C  C36  1  0.10821000  0.82583000  0.49195000  1.0
  C  C37  1  0.89178000  0.17417000  0.99195000  1.0
  C  C38  1  0.90629000  0.27467000  0.56417000  1.0
  C  C39  1  0.09371000  0.72533000  0.06418000  1.0
  C  C40  1  0.09371000  0.72533000  0.43582000  1.0
  C  C41  1  0.90629000  0.27467000  0.93582000  1.0
  C  C42  1  0.09176000  0.35643000  0.53362000  1.0
  C  C43  1  0.90824000  0.64357000  0.03363000  1.0
  C  C44  1  0.90824000  0.64357000  0.46637000  1.0
  C  C45  1  0.09176000  0.35644000  0.96637000  1.0
  C  C46  1  0.24696000  0.33685000  0.44984000  1.0
  C  C47  1  0.75302000  0.66315000  0.94985000  1.0
  C  C48  1  0.75302000  0.66315000  0.55015000  1.0
  C  C49  1  0.24697000  0.33685000  0.05016000  1.0
  C  C50  1  0.73989000  0.29449000  0.65540000  1.0
  C  C51  1  0.26012000  0.70552000  0.15540000  1.0
  C  C52  1  0.26012000  0.70552000  0.34460000  1.0
  C  C53  1  0.73988000  0.29449000  0.84460000  1.0
  C  C54  1  0.90107000  0.26825000  0.75000000  1.0
  C  C55  1  0.09893000  0.73175000  0.25000000  1.0
  I  I56  1  0.58594000  0.99237000  0.25000000  1.0
  I  I57  1  0.41407000  0.00762000  0.75000000  1.0
  I  I58  1  0.75740000  0.42161000  0.25000000  1.0
  I  I59  1  0.24259000  0.57839000  0.75000000  1.0
  N  N60  1  0.23094000  0.23999000  0.39650000  1.0
  N  N61  1  0.76905000  0.76000000  0.89651000  1.0
  N  N62  1  0.76906000  0.76000000  0.60349000  1.0
  N  N63  1  0.23094000  0.24000000  0.10349000  1.0
