# generated using pymatgen
data_Na2Zn3H16C8(SO10)2
_symmetry_space_group_name_H-M   'P 1'
_cell_length_a   6.19120000
_cell_length_b   11.01370000
_cell_length_c   15.08900000
_cell_angle_alpha   94.69700000
_cell_angle_beta   90.00000000
_cell_angle_gamma   90.00000000
_symmetry_Int_Tables_number   1
_chemical_formula_structural   Na2Zn3H16C8(SO10)2
_chemical_formula_sum   'Na4 Zn6 H32 C16 S4 O40'
_cell_volume   1025.43368236
_cell_formula_units_Z   2
loop_
 _symmetry_equiv_pos_site_id
 _symmetry_equiv_pos_as_xyz
  1  'x, y, z'
loop_
 _atom_site_type_symbol
 _atom_site_label
 _atom_site_symmetry_multiplicity
 _atom_site_fract_x
 _atom_site_fract_y
 _atom_site_fract_z
 _atom_site_occupancy
  Na  Na0  1  0.72838000  0.48785000  0.31238000  1.0
  Na  Na1  1  0.22838000  0.01214000  0.18762000  1.0
  Na  Na2  1  0.27162000  0.51215000  0.68762000  1.0
  Na  Na3  1  0.77163000  0.98786000  0.81238000  1.0
  Zn  Zn4  1  0.00000000  0.50000000  0.00000000  1.0
  Zn  Zn5  1  0.50000000  0.00000000  0.50000000  1.0
  Zn  Zn6  1  0.47680000  0.29453000  0.79768000  1.0
  Zn  Zn7  1  0.97680000  0.20547000  0.70232000  1.0
  Zn  Zn8  1  0.52320000  0.70547000  0.20232000  1.0
  Zn  Zn9  1  0.02320000  0.79453000  0.29768000  1.0
  H  H10  1  0.89837000  0.64020000  0.18537000  1.0
  H  H11  1  0.39837000  0.85980000  0.31463000  1.0
  H  H12  1  0.10164000  0.35980000  0.81463000  1.0
  H  H13  1  0.60164000  0.14020000  0.68537000  1.0
  H  H14  1  0.08157000  0.57296000  0.41308000  1.0
  H  H15  1  0.58157000  0.92704000  0.08692000  1.0
  H  H16  1  0.91844000  0.42704000  0.58692000  1.0
  H  H17  1  0.41844000  0.07296000  0.91308000  1.0
  H  H18  1  0.21632000  0.45852000  0.37745000  1.0
  H  H19  1  0.71631000  0.04148000  0.12255000  1.0
  H  H20  1  0.78369000  0.54148000  0.62255000  1.0
  H  H21  1  0.28369000  0.95852000  0.87745000  1.0
  H  H22  1  0.53625000  0.61706000  0.48598000  1.0
  H  H23  1  0.03625000  0.88294000  0.01402000  1.0
  H  H24  1  0.46375000  0.38294000  0.51402000  1.0
  H  H25  1  0.96375000  0.11706000  0.98598000  1.0
  H  H26  1  0.70130000  0.68746000  0.43517000  1.0
  H  H27  1  0.20130000  0.81254000  0.06483000  1.0
  H  H28  1  0.29871000  0.31254000  0.56483000  1.0
  H  H29  1  0.79871000  0.18746000  0.93517000  1.0
  H  H30  1  0.30985000  0.31481000  0.21011000  1.0
  H  H31  1  0.80985000  0.18519000  0.28989000  1.0
  H  H32  1  0.69015000  0.68519000  0.78989000  1.0
  H  H33  1  0.19015000  0.81481000  0.71011000  1.0
  H  H34  1  0.57385000  0.32959000  0.09257000  1.0
  H  H35  1  0.07386000  0.17041000  0.40743000  1.0
  H  H36  1  0.42614000  0.67041000  0.90743000  1.0
  H  H37  1  0.92614000  0.82959000  0.59257000  1.0
  H  H38  1  0.42164000  0.19595000  0.07934000  1.0
  H  H39  1  0.92164000  0.30404000  0.42066000  1.0
  H  H40  1  0.57835000  0.80404000  0.92067000  1.0
  H  H41  1  0.07835000  0.69596000  0.57934000  1.0
  C  C42  1  0.27244000  0.48966000  0.16100000  1.0
  C  C43  1  0.77244000  0.01034000  0.33900000  1.0
  C  C44  1  0.72756000  0.51034000  0.83900000  1.0
  C  C45  1  0.22755000  0.98966000  0.66100000  1.0
  C  C46  1  0.25872000  0.35066000  0.14759000  1.0
  C  C47  1  0.75871000  0.14934000  0.35241000  1.0
  C  C48  1  0.74128000  0.64934000  0.85241000  1.0
  C  C49  1  0.24128000  0.85067000  0.64759000  1.0
  C  C50  1  0.41127000  0.29490000  0.07572000  1.0
  C  C51  1  0.91127000  0.20510000  0.42428000  1.0
  C  C52  1  0.58873000  0.70510000  0.92428000  1.0
  C  C53  1  0.08873000  0.79490000  0.57572000  1.0
  C  C54  1  0.38296000  0.32123000  0.97992000  1.0
  C  C55  1  0.88296000  0.17876000  0.52008000  1.0
  C  C56  1  0.61704000  0.67876000  0.02008000  1.0
  C  C57  1  0.11704000  0.82124000  0.47992000  1.0
  S  S58  1  0.98728000  0.29315000  0.13355000  1.0
  S  S59  1  0.48728000  0.20685000  0.36645000  1.0
  S  S60  1  0.01271000  0.70685000  0.86645000  1.0
  S  S61  1  0.51272000  0.79315000  0.63355000  1.0
  O  O62  1  0.14556000  0.55805000  0.12168000  1.0
  O  O63  1  0.64556000  0.94195000  0.37832000  1.0
  O  O64  1  0.85444000  0.44195000  0.87832000  1.0
  O  O65  1  0.35444000  0.05805000  0.62168000  1.0
  O  O66  1  0.42379000  0.53049000  0.21242000  1.0
  O  O67  1  0.92379000  0.96951000  0.28758000  1.0
  O  O68  1  0.57621000  0.46951000  0.78758000  1.0
  O  O69  1  0.07621000  0.03048000  0.71242000  1.0
  O  O70  1  0.28263000  0.41208000  0.95505000  1.0
  O  O71  1  0.78263000  0.08792000  0.54495000  1.0
  O  O72  1  0.71737000  0.58792000  0.04495000  1.0
  O  O73  1  0.21737000  0.91208000  0.45506000  1.0
  O  O74  1  0.48428000  0.24666000  0.92371000  1.0
  O  O75  1  0.98427000  0.25334000  0.57629000  1.0
  O  O76  1  0.51573000  0.75334000  0.07629000  1.0
  O  O77  1  0.01573000  0.74667000  0.42371000  1.0
  O  O78  1  0.89998000  0.33926000  0.05106000  1.0
  O  O79  1  0.39998000  0.16073000  0.44894000  1.0
  O  O80  1  0.10002000  0.66073000  0.94894000  1.0
  O  O81  1  0.60002000  0.83927000  0.55106000  1.0
  O  O82  1  0.86691000  0.33739000  0.21289000  1.0
  O  O83  1  0.36691000  0.16261000  0.28711000  1.0
  O  O84  1  0.13308000  0.66261000  0.78711000  1.0
  O  O85  1  0.63309000  0.83739000  0.71289000  1.0
  O  O86  1  0.00539000  0.15920000  0.12230000  1.0
  O  O87  1  0.50539000  0.34080000  0.37770000  1.0
  O  O88  1  0.99461000  0.84080000  0.87770000  1.0
  O  O89  1  0.49461000  0.65920000  0.62230000  1.0
  O  O90  1  0.82444000  0.67763000  0.23833000  1.0
  O  O91  1  0.32444000  0.82237000  0.26168000  1.0
  O  O92  1  0.17556000  0.32236000  0.76167000  1.0
  O  O93  1  0.67556000  0.17764000  0.73832000  1.0
  O  O94  1  0.06924000  0.48936000  0.38562000  1.0
  O  O95  1  0.56924000  0.01064000  0.11438000  1.0
  O  O96  1  0.93076000  0.51065000  0.61438000  1.0
  O  O97  1  0.43076000  0.98936000  0.88562000  1.0
  O  O98  1  0.59309000  0.62262000  0.42598000  1.0
  O  O99  1  0.09309000  0.87738000  0.07402000  1.0
  O  O100  1  0.40691000  0.37738000  0.57402000  1.0
  O  O101  1  0.90692000  0.12262000  0.92598000  1.0
