# generated using pymatgen
data_HgH14C13N4Cl2O
_symmetry_space_group_name_H-M   'P 1'
_cell_length_a   4.44513000
_cell_length_b   14.41450000
_cell_length_c   15.13380000
_cell_angle_alpha   73.73100000
_cell_angle_beta   89.99990000
_cell_angle_gamma   89.99990000
_symmetry_Int_Tables_number   1
_chemical_formula_structural   HgH14C13N4Cl2O
_chemical_formula_sum   'Hg2 H28 C26 N8 Cl4 O2'
_cell_volume   930.85882901
_cell_formula_units_Z   2
loop_
 _symmetry_equiv_pos_site_id
 _symmetry_equiv_pos_as_xyz
  1  'x, y, z'
loop_
 _atom_site_type_symbol
 _atom_site_label
 _atom_site_symmetry_multiplicity
 _atom_site_fract_x
 _atom_site_fract_y
 _atom_site_fract_z
 _atom_site_occupancy
  Hg  Hg0  1  0.69973000  0.75000000  0.25000000  1.0
  Hg  Hg1  1  0.30027000  0.25000000  0.75000000  1.0
  H  H2  1  0.05903000  0.83985000  0.38760000  1.0
  H  H3  1  0.05903000  0.66015000  0.11240000  1.0
  H  H4  1  0.94097000  0.16015000  0.61240000  1.0
  H  H5  1  0.94097000  0.33985000  0.88760000  1.0
  H  H6  1  0.22702000  0.79328000  0.55244000  1.0
  H  H7  1  0.22702000  0.70672000  0.94756000  1.0
  H  H8  1  0.77298000  0.20672000  0.44755000  1.0
  H  H9  1  0.77298000  0.29327000  0.05244000  1.0
  H  H10  1  0.78980000  0.51829000  0.58720000  1.0
  H  H11  1  0.78980000  0.98170000  0.91281000  1.0
  H  H12  1  0.21020000  0.48171000  0.41280000  1.0
  H  H13  1  0.21020000  0.01829000  0.08720000  1.0
  H  H14  1  0.63539000  0.57690000  0.42014000  1.0
  H  H15  1  0.63540000  0.92310000  0.07986000  1.0
  H  H16  1  0.36460000  0.42310000  0.57986000  1.0
  H  H17  1  0.36461000  0.07690000  0.92014000  1.0
  H  H18  1  0.93411000  0.58301000  0.72524000  1.0
  H  H19  1  0.93411000  0.91699000  0.77476000  1.0
  H  H20  1  0.06589000  0.41699000  0.27476000  1.0
  H  H21  1  0.06589000  0.08301000  0.22524000  1.0
  H  H22  1  0.28623000  0.55441000  0.68829000  1.0
  H  H23  1  0.28623000  0.94559000  0.81171000  1.0
  H  H24  1  0.71377000  0.44559000  0.31171000  1.0
  H  H25  1  0.71377000  0.05441000  0.18829000  1.0
  H  H26  1  0.50314000  0.69077000  0.72036000  1.0
  H  H27  1  0.50314000  0.80923000  0.77964000  1.0
  H  H28  1  0.49686000  0.30923000  0.27964000  1.0
  H  H29  1  0.49686000  0.19077000  0.22036000  1.0
  C  C30  1  0.00125000  0.76999000  0.43488000  1.0
  C  C31  1  0.00125000  0.73002000  0.06512000  1.0
  C  C32  1  0.99874000  0.23001000  0.56512000  1.0
  C  C33  1  0.99875000  0.26999000  0.93488000  1.0
  C  C34  1  0.09552000  0.74287000  0.52622000  1.0
  C  C35  1  0.09553000  0.75713000  0.97378000  1.0
  C  C36  1  0.90447000  0.25713000  0.47378000  1.0
  C  C37  1  0.90448000  0.24287000  0.02622000  1.0
  C  C38  1  0.02444000  0.65101000  0.58307000  1.0
  C  C39  1  0.02444000  0.84898000  0.91693000  1.0
  C  C40  1  0.97556000  0.34899000  0.41693000  1.0
  C  C41  1  0.97557000  0.15102000  0.08307000  1.0
  C  C42  1  0.85331000  0.59022000  0.54487000  1.0
  C  C43  1  0.85332000  0.90978000  0.95513000  1.0
  C  C44  1  0.14668000  0.40978000  0.45513000  1.0
  C  C45  1  0.14668000  0.09022000  0.04487000  1.0
  C  C46  1  0.76701000  0.62161000  0.45332000  1.0
  C  C47  1  0.76702000  0.87839000  0.04668000  1.0
  C  C48  1  0.23299000  0.37839000  0.54668000  1.0
  C  C49  1  0.23299000  0.12161000  0.95332000  1.0
  C  C50  1  0.12809000  0.61493000  0.68204000  1.0
  C  C51  1  0.12809000  0.88507000  0.81796000  1.0
  C  C52  1  0.87191000  0.38507000  0.31796000  1.0
  C  C53  1  0.87191000  0.11493000  0.18204000  1.0
  C  C54  1  0.11170000  0.75000000  0.75000000  1.0
  C  C55  1  0.88830000  0.25000000  0.25000000  1.0
  N  N56  1  0.84180000  0.70978000  0.39918000  1.0
  N  N57  1  0.84181000  0.79022000  0.10082000  1.0
  N  N58  1  0.15820000  0.29022000  0.60082000  1.0
  N  N59  1  0.15820000  0.20977000  0.89918000  1.0
  N  N60  1  0.27288000  0.68617000  0.71776000  1.0
  N  N61  1  0.27288000  0.81383000  0.78224000  1.0
  N  N62  1  0.72712000  0.31383000  0.28224000  1.0
  N  N63  1  0.72712000  0.18617000  0.21776000  1.0
  Cl  Cl64  1  0.35671000  0.60046000  0.26222000  1.0
  Cl  Cl65  1  0.35671000  0.89954000  0.23778000  1.0
  Cl  Cl66  1  0.64329000  0.39954000  0.73778000  1.0
  Cl  Cl67  1  0.64329000  0.10046000  0.76222000  1.0
  O  O68  1  0.82818000  0.75000000  0.75000000  1.0
  O  O69  1  0.17182000  0.25000000  0.25000000  1.0
