# generated using pymatgen
data_ZnH9C16NO8
_symmetry_space_group_name_H-M   'P 1'
_cell_length_a   9.51978000
_cell_length_b   10.87170000
_cell_length_c   13.07990000
_cell_angle_alpha   86.27430000
_cell_angle_beta   77.54700000
_cell_angle_gamma   72.56900000
_symmetry_Int_Tables_number   1
_chemical_formula_structural   ZnH9C16NO8
_chemical_formula_sum   'Zn2 H18 C32 N2 O16'
_cell_volume   1261.16862556
_cell_formula_units_Z   2
loop_
 _symmetry_equiv_pos_site_id
 _symmetry_equiv_pos_as_xyz
  1  'x, y, z'
loop_
 _atom_site_type_symbol
 _atom_site_label
 _atom_site_symmetry_multiplicity
 _atom_site_fract_x
 _atom_site_fract_y
 _atom_site_fract_z
 _atom_site_occupancy
  Zn  Zn0  1  0.34173000  0.54133000  0.51453000  1.0
  Zn  Zn1  1  0.65835000  0.45867000  0.48545000  1.0
  H  H2  1  0.66028000  0.51840000  0.79858000  1.0
  H  H3  1  0.33961000  0.48159000  0.20142000  1.0
  H  H4  1  0.76880000  0.56295000  0.94207000  1.0
  H  H5  1  0.23106000  0.43709000  0.05790000  1.0
  H  H6  1  0.78453000  0.52958000  0.64472000  1.0
  H  H7  1  0.21559000  0.47026000  0.35528000  1.0
  H  H8  1  0.11251000  0.40762000  0.93252000  1.0
  H  H9  1  0.88732000  0.59254000  0.06741000  1.0
  H  H10  1  0.48624000  0.24292000  0.31276000  1.0
  H  H11  1  0.51406000  0.75693000  0.68728000  1.0
  H  H12  1  0.39048000  0.82799000  0.22155000  1.0
  H  H13  1  0.55913000  0.85821000  0.23784000  1.0
  H  H14  1  0.40171000  0.99022000  0.21154000  1.0
  H  H15  1  0.44089000  0.14232000  0.76193000  1.0
  H  H16  1  0.60977000  0.17190000  0.77845000  1.0
  H  H17  1  0.59774000  0.00993000  0.78853000  1.0
  H  H18  1  0.09325000  0.66386000  0.68421000  1.0
  H  H19  1  0.90669000  0.33615000  0.31574000  1.0
  C  C20  1  0.54064000  0.25374000  0.48293000  1.0
  C  C21  1  0.45945000  0.74624000  0.51711000  1.0
  C  C22  1  0.47016000  0.88190000  0.51361000  1.0
  C  C23  1  0.52993000  0.11807000  0.48642000  1.0
  C  C24  1  0.88144000  0.51575000  0.58027000  1.0
  C  C25  1  0.11871000  0.48403000  0.41975000  1.0
  C  C26  1  0.00808000  0.55051000  0.58963000  1.0
  C  C27  1  0.99209000  0.44926000  0.41039000  1.0
  C  C28  1  0.53513000  0.52745000  0.29664000  1.0
  C  C29  1  0.46479000  0.47257000  0.70335000  1.0
  C  C30  1  0.45565000  0.46675000  0.81969000  1.0
  C  C31  1  0.54424000  0.53327000  0.18030000  1.0
  C  C32  1  0.67540000  0.54408000  0.99935000  1.0
  C  C33  1  0.32446000  0.45598000  0.00063000  1.0
  C  C34  1  0.66747000  0.55740000  0.10547000  1.0
  C  C35  1  0.33242000  0.44263000  0.89451000  1.0
  C  C36  1  0.43293000  0.50101000  0.14515000  1.0
  C  C37  1  0.56694000  0.49902000  0.85485000  1.0
  C  C38  1  0.43773000  0.48943000  0.03724000  1.0
  C  C39  1  0.56213000  0.51061000  0.96276000  1.0
  C  C40  1  0.46302000  0.07839000  0.41318000  1.0
  C  C41  1  0.53704000  0.92158000  0.58686000  1.0
  C  C42  1  0.43346000  0.95748000  0.42655000  1.0
  C  C43  1  0.56666000  0.04247000  0.57347000  1.0
  C  C44  1  0.21630000  0.39053000  0.86931000  1.0
  C  C45  1  0.78357000  0.60952000  0.13066000  1.0
  C  C46  1  0.41842000  0.17355000  0.33116000  1.0
  C  C47  1  0.58168000  0.82645000  0.66889000  1.0
  C  C48  1  0.43603000  0.89704000  0.25076000  1.0
  C  C49  1  0.56393000  0.10309000  0.74920000  1.0
  C  C50  1  0.01335000  0.60632000  0.69015000  1.0
  C  C51  1  0.98668000  0.39360000  0.30984000  1.0
  N  N52  1  0.12612000  0.53459000  0.50836000  1.0
  N  N53  1  0.87402000  0.46522000  0.49165000  1.0
  O  O54  1  0.41403000  0.34088000  0.49808000  1.0
  O  O55  1  0.58607000  0.65909000  0.50188000  1.0
  O  O56  1  0.66923000  0.27122000  0.46749000  1.0
  O  O57  1  0.33086000  0.72876000  0.53263000  1.0
  O  O58  1  0.40328000  0.55942000  0.35403000  1.0
  O  O59  1  0.59664000  0.44068000  0.64598000  1.0
  O  O60  1  0.65725000  0.48370000  0.32895000  1.0
  O  O61  1  0.34267000  0.51621000  0.67102000  1.0
  O  O62  1  0.22970000  0.32823000  0.79138000  1.0
  O  O63  1  0.77019000  0.67176000  0.20862000  1.0
  O  O64  1  0.31523000  0.18278000  0.28607000  1.0
  O  O65  1  0.68477000  0.81742000  0.71404000  1.0
  O  O66  1  0.37249000  0.90592000  0.36148000  1.0
  O  O67  1  0.62775000  0.09393000  0.63852000  1.0
  O  O68  1  0.93370000  0.58781000  0.77258000  1.0
  O  O69  1  0.06631000  0.41217000  0.22742000  1.0
