# generated using pymatgen
data_ZnH7C9(NO2)2
_symmetry_space_group_name_H-M   'P 1'
_cell_length_a   9.76915000
_cell_length_b   10.95570000
_cell_length_c   11.23920000
_cell_angle_alpha   90.62430000
_cell_angle_beta   89.97260000
_cell_angle_gamma   89.98140000
_symmetry_Int_Tables_number   1
_chemical_formula_structural   ZnH7C9(NO2)2
_chemical_formula_sum   'Zn2 H14 C18 N4 O8'
_cell_volume   1202.83610154
_cell_formula_units_Z   2
loop_
 _symmetry_equiv_pos_site_id
 _symmetry_equiv_pos_as_xyz
  1  'x, y, z'
loop_
 _atom_site_type_symbol
 _atom_site_label
 _atom_site_symmetry_multiplicity
 _atom_site_fract_x
 _atom_site_fract_y
 _atom_site_fract_z
 _atom_site_occupancy
  Zn  Zn0  1  0.64034000  0.49987000  0.49991000  1.0
  Zn  Zn1  1  0.34866000  0.49998000  0.50004000  1.0
  H  H2  1  0.28989000  0.52018000  0.10891000  1.0
  H  H3  1  0.85812000  0.37122000  0.63400000  1.0
  H  H4  1  0.23125000  0.61789000  0.32287000  1.0
  H  H5  1  0.07612000  0.68368000  0.28162000  1.0
  H  H6  1  0.23113000  0.38284000  0.67770000  1.0
  H  H7  1  0.07607000  0.31685000  0.71880000  1.0
  H  H8  1  0.28999000  0.47981000  0.89109000  1.0
  H  H9  1  0.59629000  0.45574000  0.09624000  1.0
  H  H10  1  0.59646000  0.54380000  0.90372000  1.0
  H  H11  1  0.28029000  0.11498000  0.50074000  1.0
  H  H12  1  0.28036000  0.88486000  0.49794000  1.0
  H  H13  1  0.71948000  0.88504000  0.49564000  1.0
  H  H14  1  0.71936000  0.11475000  0.50512000  1.0
  H  H15  1  0.85810000  0.62888000  0.36609000  1.0
  C  C16  1  0.49962000  0.26442000  0.50598000  1.0
  C  C17  1  0.37572000  0.93642000  0.49840000  1.0
  C  C18  1  0.49985000  0.87214000  0.49625000  1.0
  C  C19  1  0.49975000  0.12769000  0.50347000  1.0
  C  C20  1  0.62397000  0.93644000  0.49763000  1.0
  C  C21  1  0.62389000  0.06339000  0.50267000  1.0
  C  C22  1  0.06249000  0.57002000  0.42234000  1.0
  C  C23  1  0.06245000  0.43039000  0.57803000  1.0
  C  C24  1  0.91801000  0.57144000  0.42492000  1.0
  C  C25  1  0.91802000  0.42869000  0.57522000  1.0
  C  C26  1  0.49979000  0.73541000  0.49388000  1.0
  C  C27  1  0.49399000  0.51017000  0.73405000  1.0
  C  C28  1  0.49378000  0.48961000  0.26592000  1.0
  C  C29  1  0.38766000  0.50199000  0.06459000  1.0
  C  C30  1  0.38774000  0.49786000  0.93541000  1.0
  C  C31  1  0.49757000  0.48159000  0.13428000  1.0
  C  C32  1  0.49773000  0.51809000  0.86570000  1.0
  C  C33  1  0.37567000  0.06341000  0.50065000  1.0
  N  N34  1  0.85034000  0.49997000  0.50000000  1.0
  N  N35  1  0.13398000  0.50021000  0.50019000  1.0
  N  N36  1  0.13152000  0.63902000  0.34341000  1.0
  N  N37  1  0.13147000  0.36165000  0.65712000  1.0
  O  O38  1  0.61224000  0.31775000  0.53050000  1.0
  O  O39  1  0.61243000  0.68203000  0.46933000  1.0
  O  O40  1  0.38657000  0.31738000  0.48265000  1.0
  O  O41  1  0.38675000  0.68252000  0.51733000  1.0
  O  O42  1  0.60562000  0.53319000  0.68057000  1.0
  O  O43  1  0.60538000  0.46652000  0.31934000  1.0
  O  O44  1  0.38078000  0.48127000  0.68319000  1.0
  O  O45  1  0.38061000  0.51865000  0.31685000  1.0
