# generated using pymatgen
data_Cu3H10C14N4Cl3
_symmetry_space_group_name_H-M   'P 1'
_cell_length_a   5.04562000
_cell_length_b   16.50030000
_cell_length_c   18.67780000
_cell_angle_alpha   90.00000000
_cell_angle_beta   90.00000000
_cell_angle_gamma   90.00000000
_symmetry_Int_Tables_number   1
_chemical_formula_structural   Cu3H10C14N4Cl3
_chemical_formula_sum   'Cu12 H40 C56 N16 Cl12'
_cell_volume   1555.00611272
_cell_formula_units_Z   4
loop_
 _symmetry_equiv_pos_site_id
 _symmetry_equiv_pos_as_xyz
  1  'x, y, z'
loop_
 _atom_site_type_symbol
 _atom_site_label
 _atom_site_symmetry_multiplicity
 _atom_site_fract_x
 _atom_site_fract_y
 _atom_site_fract_z
 _atom_site_occupancy
  Cu  Cu0  1  0.70553000  0.06220000  0.78839000  1.0
  Cu  Cu1  1  0.29447000  0.56220000  0.21161000  1.0
  Cu  Cu2  1  0.79447000  0.06220000  0.28839000  1.0
  Cu  Cu3  1  0.20553000  0.56220000  0.71161000  1.0
  Cu  Cu4  1  0.64692000  0.02302000  0.56700000  1.0
  Cu  Cu5  1  0.35309000  0.52301000  0.43300000  1.0
  Cu  Cu6  1  0.85309000  0.02301000  0.06700000  1.0
  Cu  Cu7  1  0.14692000  0.52302000  0.93300000  1.0
  Cu  Cu8  1  0.08120000  0.10832000  0.66438000  1.0
  Cu  Cu9  1  0.91880000  0.60831000  0.33562000  1.0
  Cu  Cu10  1  0.41880000  0.10832000  0.16438000  1.0
  Cu  Cu11  1  0.58120000  0.60832000  0.83562000  1.0
  H  H12  1  0.15204000  0.93590000  0.76946000  1.0
  H  H13  1  0.84795000  0.43590000  0.23054000  1.0
  H  H14  1  0.34795000  0.93590000  0.26946000  1.0
  H  H15  1  0.65204000  0.43590000  0.73054000  1.0
  H  H16  1  0.21113000  0.79204000  0.81174000  1.0
  H  H17  1  0.78887000  0.29204000  0.18826000  1.0
  H  H18  1  0.28887000  0.79204000  0.31174000  1.0
  H  H19  1  0.71113000  0.29204000  0.68826000  1.0
  H  H20  1  0.88899000  0.73663000  0.90122000  1.0
  H  H21  1  0.11101000  0.23663000  0.09879000  1.0
  H  H22  1  0.61100000  0.73663000  0.40121000  1.0
  H  H23  1  0.38899000  0.23663000  0.59878000  1.0
  H  H24  1  0.54479000  0.82773000  0.95134000  1.0
  H  H25  1  0.45521000  0.32773000  0.04866000  1.0
  H  H26  1  0.95521000  0.82773000  0.45134000  1.0
  H  H27  1  0.04479000  0.32773000  0.54866000  1.0
  H  H28  1  0.92975000  0.14027000  0.95880000  1.0
  H  H29  1  0.07025000  0.64027000  0.04120000  1.0
  H  H30  1  0.57026000  0.14027000  0.45880000  1.0
  H  H31  1  0.42974000  0.64027000  0.54120000  1.0
  H  H32  1  0.25837000  0.16710000  0.85890000  1.0
  H  H33  1  0.74163000  0.66710000  0.14110000  1.0
  H  H34  1  0.24163000  0.16710000  0.35890000  1.0
  H  H35  1  0.75837000  0.66710000  0.64110000  1.0
  H  H36  1  0.03367000  0.85447000  0.01280000  1.0
  H  H37  1  0.96633000  0.35447000  0.98720000  1.0
  H  H38  1  0.46633000  0.85447000  0.51280000  1.0
  H  H39  1  0.53367000  0.35447000  0.48720000  1.0
  H  H40  1  0.11909000  0.75331000  0.11162000  1.0
  H  H41  1  0.88091000  0.25332000  0.88838000  1.0
  H  H42  1  0.38091000  0.75331000  0.61162000  1.0
  H  H43  1  0.61909000  0.25331000  0.38838000  1.0
  H  H44  1  0.51511000  0.77353000  0.18984000  1.0
  H  H45  1  0.48489000  0.27353000  0.81016000  1.0
  H  H46  1  0.98490000  0.77353000  0.68984000  1.0
  H  H47  1  0.01511000  0.27353000  0.31016000  1.0
  H  H48  1  0.81305000  0.89174000  0.16628000  1.0
  H  H49  1  0.18696000  0.39174000  0.83373000  1.0
  H  H50  1  0.68696000  0.89174000  0.66627000  1.0
  H  H51  1  0.31305000  0.39174000  0.33372000  1.0
  C  C52  1  0.02426000  0.90998000  0.81069000  1.0
  C  C53  1  0.97574000  0.40998000  0.18931000  1.0
  C  C54  1  0.47574000  0.90998000  0.31069000  1.0
  C  C55  1  0.52426000  0.40998000  0.68931000  1.0
  C  C56  1  0.05552000  0.83036000  0.83389000  1.0
  C  C57  1  0.94448000  0.33037000  0.16611000  1.0
  C  C58  1  0.44447000  0.83037000  0.33389000  1.0
  C  C59  1  0.55552000  0.33036000  0.66611000  1.0
  C  C60  1  0.87802000  0.79979000  0.88430000  1.0
  C  C61  1  0.12198000  0.29979000  0.11570000  1.0
  C  C62  1  0.62198000  0.79979000  0.38430000  1.0
  C  C63  1  0.37802000  0.29979000  0.61570000  1.0
  C  C64  1  0.68730000  0.85140000  0.91305000  1.0
  C  C65  1  0.31270000  0.35140000  0.08695000  1.0
  C  C66  1  0.81271000  0.85140000  0.41305000  1.0
  C  C67  1  0.18730000  0.35140000  0.58695000  1.0
  C  C68  1  0.67688000  0.93229000  0.89057000  1.0
  C  C69  1  0.32312000  0.43229000  0.10943000  1.0
  C  C70  1  0.82313000  0.93229000  0.39056000  1.0
  C  C71  1  0.17688000  0.43229000  0.60944000  1.0
  C  C72  1  0.48628000  0.99283000  0.91805000  1.0
  C  C73  1  0.51372000  0.49283000  0.08195000  1.0
  C  C74  1  0.01371000  0.99283000  0.41805000  1.0
  C  C75  1  0.98629000  0.49283000  0.58195000  1.0
  C  C76  1  0.33238000  0.98559000  0.98089000  1.0
  C  C77  1  0.66762000  0.48559000  0.01911000  1.0
  C  C78  1  0.16762000  0.98559000  0.48089000  1.0
  C  C79  1  0.83238000  0.48559000  0.51911000  1.0
  C  C80  1  0.09658000  0.10015000  0.94808000  1.0
  C  C81  1  0.90342000  0.60015000  0.05193000  1.0
  C  C82  1  0.40343000  0.10015000  0.44807000  1.0
  C  C83  1  0.59658000  0.60015000  0.55192000  1.0
  C  C84  1  0.27324000  0.11370000  0.89268000  1.0
  C  C85  1  0.72676000  0.61370000  0.10732000  1.0
  C  C86  1  0.22676000  0.11370000  0.39268000  1.0
  C  C87  1  0.77324000  0.61370000  0.60732000  1.0
  C  C88  1  0.38025000  0.92420000  0.03791000  1.0
  C  C89  1  0.61975000  0.42420000  0.96209000  1.0
  C  C90  1  0.11975000  0.92420000  0.53791000  1.0
  C  C91  1  0.88025000  0.42420000  0.46209000  1.0
  C  C92  1  0.20344000  0.86025000  0.04823000  1.0
  C  C93  1  0.79656000  0.36025000  0.95177000  1.0
  C  C94  1  0.29656000  0.86025000  0.54823000  1.0
  C  C95  1  0.70344000  0.36025000  0.45177000  1.0
  C  C96  1  0.25207000  0.80409000  0.10220000  1.0
  C  C97  1  0.74794000  0.30409000  0.89780000  1.0
  C  C98  1  0.24793000  0.80409000  0.60219000  1.0
  C  C99  1  0.75206000  0.30409000  0.39780000  1.0
  C  C100  1  0.47377000  0.81481000  0.14575000  1.0
  C  C101  1  0.52623000  0.31481000  0.85425000  1.0
  C  C102  1  0.02623000  0.81481000  0.64575000  1.0
  C  C103  1  0.97377000  0.31481000  0.35425000  1.0
  C  C104  1  0.63964000  0.88020000  0.13303000  1.0
  C  C105  1  0.36036000  0.38021000  0.86697000  1.0
  C  C106  1  0.86037000  0.88021000  0.63303000  1.0
  C  C107  1  0.13964000  0.38020000  0.36697000  1.0
  N  N108  1  0.83728000  0.95994000  0.83708000  1.0
  N  N109  1  0.16272000  0.45995000  0.16292000  1.0
  N  N110  1  0.66272000  0.95995000  0.33708000  1.0
  N  N111  1  0.33728000  0.45994000  0.66292000  1.0
  N  N112  1  0.45868000  0.05913000  0.87559000  1.0
  N  N113  1  0.54132000  0.55913000  0.12441000  1.0
  N  N114  1  0.04132000  0.05913000  0.37559000  1.0
  N  N115  1  0.95868000  0.55913000  0.62441000  1.0
  N  N116  1  0.12554000  0.03663000  0.99274000  1.0
  N  N117  1  0.87447000  0.53663000  0.00726000  1.0
  N  N118  1  0.37447000  0.03663000  0.49274000  1.0
  N  N119  1  0.62553000  0.53663000  0.50726000  1.0
  N  N120  1  0.59792000  0.93417000  0.07963000  1.0
  N  N121  1  0.40208000  0.43417000  0.92037000  1.0
  N  N122  1  0.90209000  0.93417000  0.57962000  1.0
  N  N123  1  0.09792000  0.43417000  0.42037000  1.0
  Cl  Cl124  1  0.43071000  0.02920000  0.68567000  1.0
  Cl  Cl125  1  0.56929000  0.52920000  0.31432000  1.0
  Cl  Cl126  1  0.06929000  0.02920000  0.18568000  1.0
  Cl  Cl127  1  0.93071000  0.52920000  0.81432000  1.0
  Cl  Cl128  1  0.90938000  0.17865000  0.75902000  1.0
  Cl  Cl129  1  0.09062000  0.67865000  0.24098000  1.0
  Cl  Cl130  1  0.59062000  0.17865000  0.25902000  1.0
  Cl  Cl131  1  0.40938000  0.67865000  0.74098000  1.0
  Cl  Cl132  1  0.88023000  0.14958000  0.56410000  1.0
  Cl  Cl133  1  0.11976000  0.64958000  0.43590000  1.0
  Cl  Cl134  1  0.61976000  0.14958000  0.06410000  1.0
  Cl  Cl135  1  0.38024000  0.64958000  0.93590000  1.0
