# generated using pymatgen
data_Zn3H22C32(NO6)2
_symmetry_space_group_name_H-M   'P 1'
_cell_length_a   9.01434000
_cell_length_b   9.24141667
_cell_length_c   17.77680000
_cell_angle_alpha   78.22410771
_cell_angle_beta   89.99550000
_cell_angle_gamma   61.13492628
_symmetry_Int_Tables_number   1
_chemical_formula_structural   Zn3H22C32(NO6)2
_chemical_formula_sum   'Zn3 H22 C32 N2 O12'
_cell_volume   1261.21917519
_cell_formula_units_Z   1
loop_
 _symmetry_equiv_pos_site_id
 _symmetry_equiv_pos_as_xyz
  1  'x, y, z'
loop_
 _atom_site_type_symbol
 _atom_site_label
 _atom_site_symmetry_multiplicity
 _atom_site_fract_x
 _atom_site_fract_y
 _atom_site_fract_z
 _atom_site_occupancy
  Zn  Zn0  1  0.49962000  0.99991000  0.00001000  1.0
  Zn  Zn1  1  0.50894000  0.98527000  0.82113000  1.0
  Zn  Zn2  1  0.49020000  0.01449000  0.17888000  1.0
  H  H3  1  0.06601000  0.87169000  0.85697000  1.0
  H  H4  1  0.93278000  0.12808000  0.14303000  1.0
  H  H5  1  0.06263000  0.87751000  0.95642000  1.0
  H  H6  1  0.93648000  0.12226000  0.04357000  1.0
  H  H7  1  0.04762000  0.61317000  0.98969000  1.0
  H  H8  1  0.66206000  0.38791000  0.00937000  1.0
  H  H9  1  0.95168000  0.38657000  0.01046000  1.0
  H  H10  1  0.33721000  0.61202000  0.99049000  1.0
  H  H11  1  0.30961000  0.37385000  0.95427000  1.0
  H  H12  1  0.68980000  0.62583000  0.04576000  1.0
  H  H13  1  0.02171000  0.47450000  0.88770000  1.0
  H  H14  1  0.49659000  0.52946000  0.10990000  1.0
  H  H15  1  0.97752000  0.52489000  0.11265000  1.0
  H  H16  1  0.50236000  0.47052000  0.88987000  1.0
  H  H17  1  0.04646000  0.62269000  0.81576000  1.0
  H  H18  1  0.66429000  0.38009000  0.18312000  1.0
  H  H19  1  0.95236000  0.37673000  0.18442000  1.0
  H  H20  1  0.33437000  0.61977000  0.81673000  1.0
  H  H21  1  0.31273000  0.26656000  0.66741000  1.0
  H  H22  1  0.68791000  0.73360000  0.33252000  1.0
  H  H23  1  0.30418000  0.26674000  0.52631000  1.0
  H  H24  1  0.69844000  0.73369000  0.47353000  1.0
  C  C25  1  0.10470000  0.79225000  0.91643000  1.0
  C  C26  1  0.89433000  0.20751000  0.08356000  1.0
  C  C27  1  0.01767000  0.68229000  0.92852000  1.0
  C  C28  1  0.69859000  0.31925000  0.07065000  1.0
  C  C29  1  0.98148000  0.31735000  0.07162000  1.0
  C  C30  1  0.30047000  0.68068000  0.92921000  1.0
  C  C31  1  0.27633000  0.44308000  0.89336000  1.0
  C  C32  1  0.72277000  0.55664000  0.10668000  1.0
  C  C33  1  0.82545000  0.79846000  0.91460000  1.0
  C  C34  1  0.62090000  0.20325000  0.08377000  1.0
  C  C35  1  0.17369000  0.20107000  0.08560000  1.0
  C  C36  1  0.37808000  0.79676000  0.91601000  1.0
  C  C37  1  0.08194000  0.55477000  0.87702000  1.0
  C  C38  1  0.63589000  0.44745000  0.12186000  1.0
  C  C39  1  0.91710000  0.44477000  0.12318000  1.0
  C  C40  1  0.36304000  0.55244000  0.87801000  1.0
  C  C41  1  0.34025000  0.31253000  0.84478000  1.0
  C  C42  1  0.65871000  0.68724000  0.15524000  1.0
  C  C43  1  0.50248000  0.00224000  0.54078000  1.0
  C  C44  1  0.50075000  0.99838000  0.45922000  1.0
  C  C45  1  0.39319000  0.15413000  0.64584000  1.0
  C  C46  1  0.60815000  0.84621000  0.35409000  1.0
  C  C47  1  0.39228000  0.15105000  0.56873000  1.0
  C  C48  1  0.61011000  0.84943000  0.43120000  1.0
  C  C49  1  0.77665000  0.64568000  0.61319000  1.0
  C  C50  1  0.39427000  0.13538000  0.40007000  1.0
  C  C51  1  0.22738000  0.35607000  0.38676000  1.0
  C  C52  1  0.60921000  0.86536000  0.59994000  1.0
  C  C53  1  0.72574000  0.71323000  0.67254000  1.0
  C  C54  1  0.40364000  0.11809000  0.32470000  1.0
  C  C55  1  0.27724000  0.28760000  0.32761000  1.0
  C  C56  1  0.59869000  0.88260000  0.67534000  1.0
  N  N57  1  0.50149000  0.01185000  0.70353000  1.0
  N  N58  1  0.49961000  0.98847000  0.29647000  1.0
  O  O59  1  0.42369000  0.15215000  0.88352000  1.0
  O  O60  1  0.57567000  0.84762000  0.11647000  1.0
  O  O61  1  0.31671000  0.35185000  0.77300000  1.0
  O  O62  1  0.68185000  0.64797000  0.22702000  1.0
  O  O63  1  0.74692000  0.84160000  0.97196000  1.0
  O  O64  1  0.59392000  0.15446000  0.02643000  1.0
  O  O65  1  0.25232000  0.15805000  0.02823000  1.0
  O  O66  1  0.40535000  0.84541000  0.97334000  1.0
  O  O67  1  0.75768000  0.84648000  0.84388000  1.0
  O  O68  1  0.59256000  0.16090000  0.15363000  1.0
  O  O69  1  0.24139000  0.15286000  0.15634000  1.0
  O  O70  1  0.40609000  0.83929000  0.84610000  1.0
