# generated using pymatgen
data_TbCd2H19C20N6Cl2O13
_symmetry_space_group_name_H-M   'P 1'
_cell_length_a   7.37343000
_cell_length_b   12.51500000
_cell_length_c   17.27660000
_cell_angle_alpha   68.79930000
_cell_angle_beta   87.05090000
_cell_angle_gamma   81.34230000
_symmetry_Int_Tables_number   1
_chemical_formula_structural   TbCd2H19C20N6Cl2O13
_chemical_formula_sum   'Tb2 Cd4 H38 C40 N12 Cl4 O26'
_cell_volume   1469.41359573
_cell_formula_units_Z   2
loop_
 _symmetry_equiv_pos_site_id
 _symmetry_equiv_pos_as_xyz
  1  'x, y, z'
loop_
 _atom_site_type_symbol
 _atom_site_label
 _atom_site_symmetry_multiplicity
 _atom_site_fract_x
 _atom_site_fract_y
 _atom_site_fract_z
 _atom_site_occupancy
  Tb  Tb0  1  0.77300000  0.58680000  0.77458000  1.0
  Tb  Tb1  1  0.27321000  0.36103000  0.22554000  1.0
  Cd  Cd2  1  0.81805000  0.01821000  0.90519000  1.0
  Cd  Cd3  1  0.31820000  0.92320000  0.09450000  1.0
  Cd  Cd4  1  0.55425000  0.83425000  0.47322000  1.0
  Cd  Cd5  1  0.05359000  0.30786000  0.52681000  1.0
  H  H6  1  0.26997000  0.32213000  0.83708000  1.0
  H  H7  1  0.77033000  0.15980000  0.16291000  1.0
  H  H8  1  0.38220000  0.77821000  0.84436000  1.0
  H  H9  1  0.88274000  0.62201000  0.15585000  1.0
  H  H10  1  0.34238000  0.48087000  0.58369000  1.0
  H  H11  1  0.84269000  0.06391000  0.41664000  1.0
  H  H12  1  0.20487000  0.86723000  0.60246000  1.0
  H  H13  1  0.70569000  0.46927000  0.39722000  1.0
  H  H14  1  0.85673000  0.70790000  0.55485000  1.0
  H  H15  1  0.35567000  0.26264000  0.44535000  1.0
  H  H16  1  0.82585000  0.61317000  0.52016000  1.0
  H  H17  1  0.32528000  0.13327000  0.47987000  1.0
  H  H18  1  0.52821000  0.30185000  0.57364000  1.0
  H  H19  1  0.02847000  0.87477000  0.42667000  1.0
  H  H20  1  0.24594000  0.97025000  0.84967000  1.0
  H  H21  1  0.74633000  0.81948000  0.15034000  1.0
  H  H22  1  0.05253000  0.06238000  0.59761000  1.0
  H  H23  1  0.55388000  0.65970000  0.40193000  1.0
  H  H24  1  0.44339000  0.13580000  0.83811000  1.0
  H  H25  1  0.94407000  0.97457000  0.16180000  1.0
  H  H26  1  0.94596000  0.40197000  0.94815000  1.0
  H  H27  1  0.44648000  0.35028000  0.05152000  1.0
  H  H28  1  0.09136000  0.48424000  0.91082000  1.0
  H  H29  1  0.59118000  0.39526000  0.08941000  1.0
  H  H30  1  0.55609000  0.08676000  0.58877000  1.0
  H  H31  1  0.05649000  0.67551000  0.41112000  1.0
  H  H32  1  0.46105000  0.62211000  0.67062000  1.0
  H  H33  1  0.96228000  0.29202000  0.32917000  1.0
  H  H34  1  0.39917000  0.70402000  0.72399000  1.0
  H  H35  1  0.89981000  0.42741000  0.27603000  1.0
  H  H36  1  0.17495000  0.50377000  0.73637000  1.0
  H  H37  1  0.67534000  0.23986000  0.26386000  1.0
  H  H38  1  0.16359000  0.61711000  0.76071000  1.0
  H  H39  1  0.66350000  0.37760000  0.23961000  1.0
  H  H40  1  0.57199000  0.51650000  0.94666000  1.0
  H  H41  1  0.07182000  0.46314000  0.05303000  1.0
  H  H42  1  0.67535000  0.62475000  0.92516000  1.0
  H  H43  1  0.17533000  0.54969000  0.07493000  1.0
  C  C44  1  0.74636000  0.91631000  0.76032000  1.0
  C  C45  1  0.24629000  0.67654000  0.23995000  1.0
  C  C46  1  0.89752000  0.26064000  0.78272000  1.0
  C  C47  1  0.39795000  0.04312000  0.21709000  1.0
  C  C48  1  0.69936000  0.93438000  0.67844000  1.0
  C  C49  1  0.19936000  0.61272000  0.32169000  1.0
  C  C50  1  0.32933000  0.31423000  0.77985000  1.0
  C  C51  1  0.82972000  0.09439000  0.22021000  1.0
  C  C52  1  0.91787000  0.31994000  0.69702000  1.0
  C  C53  1  0.41864000  0.01644000  0.30287000  1.0
  C  C54  1  0.60081000  0.09223000  0.70835000  1.0
  C  C55  1  0.10115000  0.80061000  0.29171000  1.0
  C  C56  1  0.30954000  0.84464000  0.79093000  1.0
  C  C57  1  0.81013000  0.63510000  0.20911000  1.0
  C  C58  1  0.04380000  0.14053000  0.72851000  1.0
  C  C59  1  0.54449000  0.86866000  0.27130000  1.0
  C  C60  1  0.85245000  0.43896000  0.64118000  1.0
  C  C61  1  0.35342000  0.07959000  0.35870000  1.0
  C  C62  1  0.80743000  0.29082000  0.85296000  1.0
  C  C63  1  0.30765000  0.14376000  0.14678000  1.0
  C  C64  1  0.84781000  0.81639000  0.82789000  1.0
  C  C65  1  0.34707000  0.64401000  0.17251000  1.0
  C  C66  1  0.36905000  0.40236000  0.63850000  1.0
  C  C67  1  0.86944000  0.04048000  0.36174000  1.0
  C  C68  1  0.13786000  0.03245000  0.72368000  1.0
  C  C69  1  0.63864000  0.75575000  0.27610000  1.0
  C  C70  1  0.50085000  0.20348000  0.70551000  1.0
  C  C71  1  0.00136000  0.90902000  0.29458000  1.0
  C  C72  1  0.21011000  0.89505000  0.65524000  1.0
  C  C73  1  0.71100000  0.54984000  0.34453000  1.0
  C  C74  1  0.47121000  0.30207000  0.63307000  1.0
  C  C75  1  0.97159000  0.93475000  0.36717000  1.0
  C  C76  1  0.23256000  0.95118000  0.79371000  1.0
  C  C77  1  0.73308000  0.74446000  0.20624000  1.0
  C  C78  1  0.12887000  0.00363000  0.65273000  1.0
  C  C79  1  0.62995000  0.65599000  0.34695000  1.0
  C  C80  1  0.42776000  0.21062000  0.78042000  1.0
  C  C81  1  0.92832000  0.99141000  0.21958000  1.0
  C  C82  1  0.72401000  0.86429000  0.62451000  1.0
  C  C83  1  0.22360000  0.48866000  0.37559000  1.0
  N  N84  1  0.97606000  0.14827000  0.80078000  1.0
  N  N85  1  0.47646000  0.94887000  0.19899000  1.0
  N  N86  1  0.00937000  0.24197000  0.66423000  1.0
  N  N87  1  0.51024000  0.90560000  0.33566000  1.0
  N  N88  1  0.29863000  0.40855000  0.71046000  1.0
  N  N89  1  0.79904000  0.11895000  0.28970000  1.0
  N  N90  1  0.29710000  0.81680000  0.72336000  1.0
  N  N91  1  0.79779000  0.53968000  0.27657000  1.0
  N  N92  1  0.61046000  0.04676000  0.64741000  1.0
  N  N93  1  0.11067000  0.69417000  0.35259000  1.0
  N  N94  1  0.68532000  0.01454000  0.77669000  1.0
  N  N95  1  0.18541000  0.79120000  0.22354000  1.0
  Cl  Cl96  1  0.32553000  0.70392000  0.53958000  1.0
  Cl  Cl97  1  0.82524000  0.24329000  0.46021000  1.0
  Cl  Cl98  1  0.99807000  0.92184000  0.03886000  1.0
  Cl  Cl99  1  0.49882000  0.95997000  0.96138000  1.0
  O  O100  1  0.86722000  0.71601000  0.82207000  1.0
  O  O101  1  0.36689000  0.53767000  0.17858000  1.0
  O  O102  1  0.80334000  0.39484000  0.85214000  1.0
  O  O103  1  0.30371000  0.24689000  0.14776000  1.0
  O  O104  1  0.74610000  0.21134000  0.91158000  1.0
  O  O105  1  0.24610000  0.12312000  0.08794000  1.0
  O  O106  1  0.83244000  0.69849000  0.50213000  1.0
  O  O107  1  0.33172000  0.20048000  0.49800000  1.0
  O  O108  1  0.86498000  0.46268000  0.56290000  1.0
  O  O109  1  0.36578000  0.02503000  0.43698000  1.0
  O  O110  1  0.02369000  0.44993000  0.96174000  1.0
  O  O111  1  0.52494000  0.41131000  0.03803000  1.0
  O  O112  1  0.47474000  0.62337000  0.72667000  1.0
  O  O113  1  0.97536000  0.34953000  0.27324000  1.0
  O  O114  1  0.67412000  0.91997000  0.54923000  1.0
  O  O115  1  0.17275000  0.46922000  0.45063000  1.0
  O  O116  1  0.09513000  0.55381000  0.76650000  1.0
  O  O117  1  0.59512000  0.32009000  0.23372000  1.0
  O  O118  1  0.78492000  0.51427000  0.67224000  1.0
  O  O119  1  0.28612000  0.18609000  0.32756000  1.0
  O  O120  1  0.78827000  0.75712000  0.65318000  1.0
  O  O121  1  0.28852000  0.41005000  0.34717000  1.0
  O  O122  1  0.90675000  0.83546000  0.88787000  1.0
  O  O123  1  0.40504000  0.72290000  0.11242000  1.0
  O  O124  1  0.60467000  0.58595000  0.89982000  1.0
  O  O125  1  0.10491000  0.48553000  0.10005000  1.0
