# generated using pymatgen
data_UAgH9C12N2O7
_symmetry_space_group_name_H-M   'P 1'
_cell_length_a   8.76689000
_cell_length_b   8.84273000
_cell_length_c   18.17580000
_cell_angle_alpha   90.00000000
_cell_angle_beta   90.00000000
_cell_angle_gamma   98.59330000
_symmetry_Int_Tables_number   1
_chemical_formula_structural   UAgH9C12N2O7
_chemical_formula_sum   'U4 Ag4 H36 C48 N8 O28'
_cell_volume   1393.22877022
_cell_formula_units_Z   4
loop_
 _symmetry_equiv_pos_site_id
 _symmetry_equiv_pos_as_xyz
  1  'x, y, z'
loop_
 _atom_site_type_symbol
 _atom_site_label
 _atom_site_symmetry_multiplicity
 _atom_site_fract_x
 _atom_site_fract_y
 _atom_site_fract_z
 _atom_site_occupancy
  U  U0  1  0.30287000  0.54793000  0.46677000  1.0
  U  U1  1  0.19713000  0.95207000  0.96676000  1.0
  U  U2  1  0.69714000  0.45209000  0.53323000  1.0
  U  U3  1  0.80286000  0.04792000  0.03323000  1.0
  Ag  Ag4  1  0.17026000  0.43380000  0.95742000  1.0
  Ag  Ag5  1  0.32974000  0.06620000  0.45742000  1.0
  Ag  Ag6  1  0.82974000  0.56620000  0.04258000  1.0
  Ag  Ag7  1  0.67026000  0.93380000  0.54258000  1.0
  H  H8  1  0.20108000  0.67579000  0.70170000  1.0
  H  H9  1  0.29892000  0.82421000  0.20170000  1.0
  H  H10  1  0.79892000  0.32421000  0.29830000  1.0
  H  H11  1  0.70108000  0.17579000  0.79830000  1.0
  H  H12  1  0.22246000  0.65861000  0.83904000  1.0
  H  H13  1  0.27754000  0.84139000  0.33904000  1.0
  H  H14  1  0.77754000  0.34139000  0.16096000  1.0
  H  H15  1  0.72246000  0.15861000  0.66096000  1.0
  H  H16  1  0.99384000  0.21312000  0.84037000  1.0
  H  H17  1  0.50616000  0.28688000  0.34037000  1.0
  H  H18  1  0.00616000  0.78688000  0.15963000  1.0
  H  H19  1  0.49384000  0.71312000  0.65963000  1.0
  H  H20  1  0.94826000  0.22001000  0.70387000  1.0
  H  H21  1  0.55174000  0.27999000  0.20387000  1.0
  H  H22  1  0.05174000  0.77999000  0.29613000  1.0
  H  H23  1  0.44826000  0.72001000  0.79613000  1.0
  H  H24  1  0.55894000  0.68735000  0.15368000  1.0
  H  H25  1  0.94105000  0.81265000  0.65368000  1.0
  H  H26  1  0.44106000  0.31265000  0.84632000  1.0
  H  H27  1  0.05894000  0.18735000  0.34632000  1.0
  H  H28  1  0.44930000  0.63629000  0.02863000  1.0
  H  H29  1  0.05070000  0.86372000  0.52863000  1.0
  H  H30  1  0.55070000  0.36371000  0.97137000  1.0
  H  H31  1  0.94930000  0.13629000  0.47137000  1.0
  H  H32  1  0.17743000  0.36885000  0.23862000  1.0
  H  H33  1  0.32258000  0.13115000  0.73862000  1.0
  H  H34  1  0.82257000  0.63115000  0.76138000  1.0
  H  H35  1  0.67743000  0.86885000  0.26138000  1.0
  H  H36  1  0.09205000  0.31656000  0.10872000  1.0
  H  H37  1  0.40795000  0.18343000  0.60872000  1.0
  H  H38  1  0.90795000  0.68343000  0.89128000  1.0
  H  H39  1  0.59205000  0.81656000  0.39128000  1.0
  H  H40  1  0.58165000  0.54417000  0.38503000  1.0
  H  H41  1  0.91835000  0.95583000  0.88503000  1.0
  H  H42  1  0.41835000  0.45583000  0.61497000  1.0
  H  H43  1  0.08165000  0.04417000  0.11497000  1.0
  C  C44  1  0.04844000  0.46025000  0.61048000  1.0
  C  C45  1  0.45156000  0.03975000  0.11048000  1.0
  C  C46  1  0.95156000  0.53975000  0.38952000  1.0
  C  C47  1  0.54844000  0.96024000  0.88952000  1.0
  C  C48  1  0.07000000  0.44983000  0.69238000  1.0
  C  C49  1  0.43000000  0.05017000  0.19238000  1.0
  C  C50  1  0.93000000  0.55017000  0.30762000  1.0
  C  C51  1  0.57000000  0.94983000  0.80762000  1.0
  C  C52  1  0.15095000  0.57295000  0.73084000  1.0
  C  C53  1  0.34905000  0.92705000  0.23084000  1.0
  C  C54  1  0.84905000  0.42706000  0.26916000  1.0
  C  C55  1  0.65095000  0.07294000  0.76916000  1.0
  C  C56  1  0.16618000  0.56260000  0.80658000  1.0
  C  C57  1  0.33382000  0.93740000  0.30658000  1.0
  C  C58  1  0.83382000  0.43740000  0.19342000  1.0
  C  C59  1  0.66618000  0.06260000  0.69342000  1.0
  C  C60  1  0.03548000  0.31406000  0.80746000  1.0
  C  C61  1  0.46452000  0.18593000  0.30746000  1.0
  C  C62  1  0.96452000  0.68593000  0.19254000  1.0
  C  C63  1  0.53548000  0.81406000  0.69254000  1.0
  C  C64  1  0.01063000  0.31879000  0.73197000  1.0
  C  C65  1  0.48937000  0.18121000  0.23196000  1.0
  C  C66  1  0.98938000  0.68121000  0.26803000  1.0
  C  C67  1  0.51063000  0.81879000  0.76803000  1.0
  C  C68  1  0.42859000  0.56478000  0.28442000  1.0
  C  C69  1  0.07141000  0.93522000  0.78442000  1.0
  C  C70  1  0.57141000  0.43522000  0.71558000  1.0
  C  C71  1  0.92859000  0.06478000  0.21558000  1.0
  C  C72  1  0.37384000  0.53403000  0.20667000  1.0
  C  C73  1  0.12616000  0.96597000  0.70667000  1.0
  C  C74  1  0.62616000  0.46597000  0.79333000  1.0
  C  C75  1  0.87384000  0.03403000  0.29333000  1.0
  C  C76  1  0.45381000  0.60599000  0.14652000  1.0
  C  C77  1  0.04619000  0.89401000  0.64652000  1.0
  C  C78  1  0.54619000  0.39401000  0.85348000  1.0
  C  C79  1  0.95381000  0.10599000  0.35348000  1.0
  C  C80  1  0.39453000  0.57581000  0.07620000  1.0
  C  C81  1  0.10546000  0.92419000  0.57620000  1.0
  C  C82  1  0.60547000  0.42419000  0.92380000  1.0
  C  C83  1  0.89453000  0.07581000  0.42380000  1.0
  C  C84  1  0.24122000  0.42903000  0.19349000  1.0
  C  C85  1  0.25878000  0.07097000  0.69349000  1.0
  C  C86  1  0.75878000  0.57097000  0.80651000  1.0
  C  C87  1  0.74122000  0.92903000  0.30651000  1.0
  C  C88  1  0.19314000  0.39941000  0.12155000  1.0
  C  C89  1  0.30686000  0.10059000  0.62155000  1.0
  C  C90  1  0.80686000  0.60059000  0.87845000  1.0
  C  C91  1  0.69314000  0.89941000  0.37845000  1.0
  N  N92  1  0.11136000  0.43464000  0.84439000  1.0
  N  N93  1  0.38864000  0.06536000  0.34439000  1.0
  N  N94  1  0.88864000  0.56536000  0.15561000  1.0
  N  N95  1  0.61136000  0.93464000  0.65561000  1.0
  N  N96  1  0.26662000  0.47340000  0.06389000  1.0
  N  N97  1  0.23338000  0.02660000  0.56389000  1.0
  N  N98  1  0.73338000  0.52660000  0.93611000  1.0
  N  N99  1  0.76662000  0.97340000  0.43611000  1.0
  O  O100  1  0.22000000  0.34666000  0.45741000  1.0
  O  O101  1  0.28001000  0.15334000  0.95741000  1.0
  O  O102  1  0.78000000  0.65333000  0.54259000  1.0
  O  O103  1  0.72000000  0.84667000  0.04259000  1.0
  O  O104  1  0.37536000  0.75312000  0.47208000  1.0
  O  O105  1  0.12464000  0.74688000  0.97208000  1.0
  O  O106  1  0.62463000  0.24687000  0.52792000  1.0
  O  O107  1  0.87536000  0.25313000  0.02792000  1.0
  O  O108  1  0.93214000  0.37764000  0.58195000  1.0
  O  O109  1  0.56786000  0.12236000  0.08195000  1.0
  O  O110  1  0.06786000  0.62236000  0.41805000  1.0
  O  O111  1  0.43214000  0.87764000  0.91805000  1.0
  O  O112  1  0.54660000  0.49960000  0.43400000  1.0
  O  O113  1  0.95340000  0.00040000  0.93400000  1.0
  O  O114  1  0.45339000  0.50040000  0.56600000  1.0
  O  O115  1  0.04660000  0.99960000  0.06600000  1.0
  O  O116  1  0.14801000  0.55265000  0.57589000  1.0
  O  O117  1  0.35199000  0.94735000  0.07589000  1.0
  O  O118  1  0.85199000  0.44735000  0.42411000  1.0
  O  O119  1  0.64801000  0.05265000  0.92411000  1.0
  O  O120  1  0.32259000  0.55420000  0.33368000  1.0
  O  O121  1  0.17742000  0.94580000  0.83368000  1.0
  O  O122  1  0.67741000  0.44580000  0.66632000  1.0
  O  O123  1  0.82259000  0.05420000  0.16632000  1.0
  O  O124  1  0.57163000  0.59499000  0.29584000  1.0
  O  O125  1  0.92837000  0.90501000  0.79584000  1.0
  O  O126  1  0.42837000  0.40501000  0.70416000  1.0
  O  O127  1  0.07163000  0.09499000  0.20416000  1.0
