# generated using pymatgen
data_BaH14(C2O)8
_symmetry_space_group_name_H-M   'P 1'
_cell_length_a   8.36557000
_cell_length_b   10.58660000
_cell_length_c   10.58670000
_cell_angle_alpha   66.72970000
_cell_angle_beta   83.24040000
_cell_angle_gamma   83.24140000
_symmetry_Int_Tables_number   1
_chemical_formula_structural   BaH14(C2O)8
_chemical_formula_sum   'Ba2 H28 C32 O16'
_cell_volume   852.72241858
_cell_formula_units_Z   2
loop_
 _symmetry_equiv_pos_site_id
 _symmetry_equiv_pos_as_xyz
  1  'x, y, z'
loop_
 _atom_site_type_symbol
 _atom_site_label
 _atom_site_symmetry_multiplicity
 _atom_site_fract_x
 _atom_site_fract_y
 _atom_site_fract_z
 _atom_site_occupancy
  Ba  Ba0  1  0.75000000  0.93054000  0.06946000  1.0
  Ba  Ba1  1  0.25000000  0.06946000  0.93054000  1.0
  H  H2  1  0.45956000  0.35466000  0.70812000  1.0
  H  H3  1  0.04045000  0.29187000  0.64533000  1.0
  H  H4  1  0.54044000  0.64535000  0.29187000  1.0
  H  H5  1  0.95956000  0.70812000  0.35467000  1.0
  H  H6  1  0.39997000  0.60020000  0.55287000  1.0
  H  H7  1  0.10003000  0.44713000  0.39979000  1.0
  H  H8  1  0.60001000  0.39981000  0.44713000  1.0
  H  H9  1  0.89999000  0.55286000  0.60021000  1.0
  H  H10  1  0.49114000  0.78899000  0.60478000  1.0
  H  H11  1  0.00885000  0.39522000  0.21101000  1.0
  H  H12  1  0.50884000  0.21101000  0.39523000  1.0
  H  H13  1  0.99115000  0.60478000  0.78900000  1.0
  H  H14  1  0.64636000  0.73128000  0.81038000  1.0
  H  H15  1  0.85363000  0.18962000  0.26872000  1.0
  H  H16  1  0.35364000  0.26871000  0.18963000  1.0
  H  H17  1  0.14637000  0.81038000  0.73129000  1.0
  H  H18  1  0.71907000  0.38618000  0.08181000  1.0
  H  H19  1  0.78094000  0.91819000  0.61383000  1.0
  H  H20  1  0.28093000  0.61382000  0.91819000  1.0
  H  H21  1  0.21908000  0.08181000  0.38617000  1.0
  H  H22  1  0.91012000  0.62857000  0.10384000  1.0
  H  H23  1  0.58987000  0.89616000  0.37143000  1.0
  H  H24  1  0.08987000  0.37143000  0.89616000  1.0
  H  H25  1  0.41013000  0.10384000  0.62857000  1.0
  H  H26  1  0.05801000  0.71237000  0.09996000  1.0
  H  H27  1  0.44199000  0.90005000  0.28762000  1.0
  H  H28  1  0.94198000  0.28762000  0.90004000  1.0
  H  H29  1  0.55802000  0.09995000  0.71238000  1.0
  C  C30  1  0.62422000  0.25591000  0.93674000  1.0
  C  C31  1  0.87577000  0.06327000  0.74409000  1.0
  C  C32  1  0.37577000  0.74410000  0.06325000  1.0
  C  C33  1  0.12423000  0.93673000  0.25591000  1.0
  C  C34  1  0.58771000  0.40483000  0.84539000  1.0
  C  C35  1  0.91227000  0.15462000  0.59516000  1.0
  C  C36  1  0.41229000  0.59517000  0.15460000  1.0
  C  C37  1  0.08773000  0.84539000  0.40484000  1.0
  C  C38  1  0.49989000  0.43770000  0.73022000  1.0
  C  C39  1  0.00012000  0.26978000  0.56229000  1.0
  C  C40  1  0.50011000  0.56230000  0.26977000  1.0
  C  C41  1  0.99990000  0.73022000  0.43771000  1.0
  C  C42  1  0.46784000  0.57520000  0.64271000  1.0
  C  C43  1  0.03215000  0.35729000  0.42479000  1.0
  C  C44  1  0.53215000  0.42480000  0.35729000  1.0
  C  C45  1  0.96786000  0.64270000  0.57521000  1.0
  C  C46  1  0.52027000  0.68171000  0.67052000  1.0
  C  C47  1  0.97972000  0.32948000  0.31829000  1.0
  C  C48  1  0.47972000  0.31829000  0.32948000  1.0
  C  C49  1  0.02028000  0.67052000  0.68171000  1.0
  C  C50  1  0.60771000  0.65021000  0.78437000  1.0
  C  C51  1  0.89227000  0.21563000  0.34979000  1.0
  C  C52  1  0.39229000  0.34979000  0.21563000  1.0
  C  C53  1  0.10773000  0.78437000  0.65022000  1.0
  C  C54  1  0.64374000  0.51220000  0.87179000  1.0
  C  C55  1  0.85625000  0.12821000  0.48780000  1.0
  C  C56  1  0.35627000  0.48780000  0.12820000  1.0
  C  C57  1  0.14375000  0.87179000  0.51220000  1.0
  C  C58  1  0.73160000  0.48589000  0.99348000  1.0
  C  C59  1  0.76839000  0.00652000  0.51412000  1.0
  C  C60  1  0.26840000  0.51411000  0.00652000  1.0
  C  C61  1  0.23161000  0.99348000  0.48589000  1.0
  O  O62  1  0.51445000  0.17327000  0.96595000  1.0
  O  O63  1  0.98555000  0.03406000  0.82672000  1.0
  O  O64  1  0.48555000  0.82674000  0.03404000  1.0
  O  O65  1  0.01444000  0.96595000  0.17329000  1.0
  O  O66  1  0.76512000  0.21835000  0.98052000  1.0
  O  O67  1  0.73487000  0.01948000  0.78165000  1.0
  O  O68  1  0.23488000  0.78165000  0.01948000  1.0
  O  O69  1  0.26513000  0.98052000  0.21835000  1.0
  O  O70  1  0.81460000  0.57250000  0.99884000  1.0
  O  O71  1  0.68538000  0.00115000  0.42752000  1.0
  O  O72  1  0.18540000  0.42750000  0.00116000  1.0
  O  O73  1  0.31462000  0.99885000  0.57249000  1.0
  O  O74  1  0.94738000  0.68880000  0.14372000  1.0
  O  O75  1  0.55262000  0.85629000  0.31119000  1.0
  O  O76  1  0.05261000  0.31120000  0.85628000  1.0
  O  O77  1  0.44739000  0.14372000  0.68881000  1.0
