# generated using pymatgen
data_CdH11C13NO6
_symmetry_space_group_name_H-M   'P 1'
_cell_length_a   7.90968000
_cell_length_b   12.06300000
_cell_length_c   13.67800000
_cell_angle_alpha   90.00000000
_cell_angle_beta   98.90650000
_cell_angle_gamma   90.00000000
_symmetry_Int_Tables_number   1
_chemical_formula_structural   CdH11C13NO6
_chemical_formula_sum   'Cd4 H44 C52 N4 O24'
_cell_volume   1289.34287652
_cell_formula_units_Z   4
loop_
 _symmetry_equiv_pos_site_id
 _symmetry_equiv_pos_as_xyz
  1  'x, y, z'
loop_
 _atom_site_type_symbol
 _atom_site_label
 _atom_site_symmetry_multiplicity
 _atom_site_fract_x
 _atom_site_fract_y
 _atom_site_fract_z
 _atom_site_occupancy
  Cd  Cd0  1  0.64101000  0.91505000  0.83046000  1.0
  Cd  Cd1  1  0.85899000  0.41505000  0.16954000  1.0
  Cd  Cd2  1  0.35900000  0.08495000  0.16954000  1.0
  Cd  Cd3  1  0.14101000  0.58495000  0.83046000  1.0
  H  H4  1  0.99767000  0.86395000  0.79742000  1.0
  H  H5  1  0.50233000  0.36395000  0.20258000  1.0
  H  H6  1  0.00234000  0.13605000  0.20258000  1.0
  H  H7  1  0.49767000  0.63605000  0.79742000  1.0
  H  H8  1  0.01631000  0.95979000  0.87907000  1.0
  H  H9  1  0.48369000  0.45979000  0.12093000  1.0
  H  H10  1  0.98369000  0.04021000  0.12093000  1.0
  H  H11  1  0.51631000  0.54021000  0.87907000  1.0
  H  H12  1  0.27421000  0.86056000  0.79675000  1.0
  H  H13  1  0.22579000  0.36056000  0.20325000  1.0
  H  H14  1  0.72579000  0.13944000  0.20325000  1.0
  H  H15  1  0.77421000  0.63944000  0.79675000  1.0
  H  H16  1  0.29702000  0.96116000  0.87454000  1.0
  H  H17  1  0.20298000  0.46116000  0.12546000  1.0
  H  H18  1  0.70298000  0.03884000  0.12546000  1.0
  H  H19  1  0.79702000  0.53884000  0.87454000  1.0
  H  H20  1  0.75476000  0.63535000  0.04754000  1.0
  H  H21  1  0.74524000  0.13535000  0.95245000  1.0
  H  H22  1  0.24524000  0.36465000  0.95246000  1.0
  H  H23  1  0.25476000  0.86465000  0.04754000  1.0
  H  H24  1  0.91637000  0.92004000  0.22773000  1.0
  H  H25  1  0.58363000  0.42004000  0.77227000  1.0
  H  H26  1  0.08363000  0.07996000  0.77227000  1.0
  H  H27  1  0.41637000  0.57996000  0.22773000  1.0
  H  H28  1  0.00399000  0.58386000  0.33300000  1.0
  H  H29  1  0.49600000  0.08386000  0.66700000  1.0
  H  H30  1  0.99600000  0.41614000  0.66700000  1.0
  H  H31  1  0.50400000  0.91614000  0.33300000  1.0
  H  H32  1  0.13201000  0.95842000  0.33278000  1.0
  H  H33  1  0.36799000  0.45842000  0.66722000  1.0
  H  H34  1  0.86799000  0.04158000  0.66722000  1.0
  H  H35  1  0.63201000  0.54158000  0.33278000  1.0
  H  H36  1  0.25257000  0.03578000  0.49384000  1.0
  H  H37  1  0.24743000  0.53578000  0.50616000  1.0
  H  H38  1  0.74743000  0.96422000  0.50616000  1.0
  H  H39  1  0.75257000  0.46422000  0.49384000  1.0
  H  H40  1  0.23933000  0.92858000  0.64917000  1.0
  H  H41  1  0.26067000  0.42858000  0.35083000  1.0
  H  H42  1  0.76067000  0.07142000  0.35083000  1.0
  H  H43  1  0.73933000  0.57142000  0.64917000  1.0
  H  H44  1  0.98972000  0.66075000  0.47694000  1.0
  H  H45  1  0.51028000  0.16075000  0.52306000  1.0
  H  H46  1  0.01028000  0.33925000  0.52306000  1.0
  H  H47  1  0.48972000  0.83925000  0.47694000  1.0
  C  C48  1  0.76720000  0.86084000  0.04040000  1.0
  C  C49  1  0.73280000  0.36084000  0.95960000  1.0
  C  C50  1  0.23280000  0.13916000  0.95960000  1.0
  C  C51  1  0.26720000  0.63916000  0.04040000  1.0
  C  C52  1  0.83116000  0.78778000  0.12688000  1.0
  C  C53  1  0.66884000  0.28779000  0.87312000  1.0
  C  C54  1  0.16884000  0.21222000  0.87312000  1.0
  C  C55  1  0.33116000  0.71221000  0.12688000  1.0
  C  C56  1  0.81612000  0.67281000  0.11645000  1.0
  C  C57  1  0.68388000  0.17281000  0.88355000  1.0
  C  C58  1  0.18388000  0.32719000  0.88355000  1.0
  C  C59  1  0.31612000  0.82719000  0.11645000  1.0
  C  C60  1  0.90724000  0.83064000  0.21755000  1.0
  C  C61  1  0.59276000  0.33064000  0.78245000  1.0
  C  C62  1  0.09276000  0.16936000  0.78245000  1.0
  C  C63  1  0.40724000  0.66936000  0.21755000  1.0
  C  C64  1  0.97090000  0.75932000  0.29552000  1.0
  C  C65  1  0.52911000  0.25933000  0.70448000  1.0
  C  C66  1  0.02910000  0.24067000  0.70448000  1.0
  C  C67  1  0.47090000  0.74067000  0.29552000  1.0
  C  C68  1  0.95475000  0.64515000  0.27715000  1.0
  C  C69  1  0.54525000  0.14514000  0.72285000  1.0
  C  C70  1  0.04525000  0.35486000  0.72285000  1.0
  C  C71  1  0.45475000  0.85486000  0.27715000  1.0
  C  C72  1  0.05008000  0.80381000  0.39227000  1.0
  C  C73  1  0.44992000  0.30382000  0.60773000  1.0
  C  C74  1  0.94992000  0.19618000  0.60773000  1.0
  C  C75  1  0.55008000  0.69618000  0.39227000  1.0
  C  C76  1  0.12599000  0.90970000  0.39926000  1.0
  C  C77  1  0.37401000  0.40970000  0.60074000  1.0
  C  C78  1  0.87401000  0.09030000  0.60074000  1.0
  C  C79  1  0.62599000  0.59030000  0.39926000  1.0
  C  C80  1  0.19450000  0.95370000  0.49094000  1.0
  C  C81  1  0.30549000  0.45369000  0.50906000  1.0
  C  C82  1  0.80549000  0.04631000  0.50906000  1.0
  C  C83  1  0.69451000  0.54630000  0.49094000  1.0
  C  C84  1  0.18747000  0.89377000  0.57734000  1.0
  C  C85  1  0.31253000  0.39377000  0.42266000  1.0
  C  C86  1  0.81253000  0.10623000  0.42266000  1.0
  C  C87  1  0.68747000  0.60623000  0.57734000  1.0
  C  C88  1  0.11639000  0.78705000  0.57132000  1.0
  C  C89  1  0.38361000  0.28705000  0.42868000  1.0
  C  C90  1  0.88361000  0.21295000  0.42868000  1.0
  C  C91  1  0.61639000  0.71295000  0.57132000  1.0
  C  C92  1  0.04865000  0.74255000  0.47904000  1.0
  C  C93  1  0.45135000  0.24255000  0.52096000  1.0
  C  C94  1  0.95135000  0.25745000  0.52096000  1.0
  C  C95  1  0.54865000  0.75745000  0.47904000  1.0
  C  C96  1  0.11470000  0.71763000  0.66131000  1.0
  C  C97  1  0.38530000  0.21763000  0.33869000  1.0
  C  C98  1  0.88530000  0.28237000  0.33869000  1.0
  C  C99  1  0.61470000  0.78237000  0.66131000  1.0
  N  N100  1  0.87758000  0.60372000  0.19026000  1.0
  N  N101  1  0.62242000  0.10373000  0.80974000  1.0
  N  N102  1  0.12242000  0.39628000  0.80974000  1.0
  N  N103  1  0.37758000  0.89627000  0.19026000  1.0
  O  O104  1  0.67932000  0.81234000  0.96703000  1.0
  O  O105  1  0.82067000  0.31234000  0.03297000  1.0
  O  O106  1  0.32068000  0.18766000  0.03297000  1.0
  O  O107  1  0.17933000  0.68766000  0.96703000  1.0
  O  O108  1  0.80368000  0.96406000  0.04333000  1.0
  O  O109  1  0.69632000  0.46405000  0.95667000  1.0
  O  O110  1  0.19632000  0.03594000  0.95667000  1.0
  O  O111  1  0.30368000  0.53594000  0.04333000  1.0
  O  O112  1  0.10102000  0.61354000  0.65256000  1.0
  O  O113  1  0.39898000  0.11354000  0.34744000  1.0
  O  O114  1  0.89898000  0.38646000  0.34744000  1.0
  O  O115  1  0.60102000  0.88646000  0.65256000  1.0
  O  O116  1  0.12997000  0.76465000  0.74764000  1.0
  O  O117  1  0.37003000  0.26465000  0.25236000  1.0
  O  O118  1  0.87004000  0.23535000  0.25236000  1.0
  O  O119  1  0.62997000  0.73535000  0.74764000  1.0
  O  O120  1  0.93694000  0.92600000  0.82423000  1.0
  O  O121  1  0.56306000  0.42601000  0.17577000  1.0
  O  O122  1  0.06306000  0.07400000  0.17577000  1.0
  O  O123  1  0.43694000  0.57399000  0.82423000  1.0
  O  O124  1  0.34660000  0.92569000  0.82004000  1.0
  O  O125  1  0.15340000  0.42569000  0.17996000  1.0
  O  O126  1  0.65341000  0.07431000  0.17996000  1.0
  O  O127  1  0.84660000  0.57431000  0.82004000  1.0
