# generated using pymatgen
data_InH11C18O7
_symmetry_space_group_name_H-M   'P 1'
_cell_length_a   7.34145000
_cell_length_b   32.26320000
_cell_length_c   32.26320000
_cell_angle_alpha   60.00000000
_cell_angle_beta   89.99990000
_cell_angle_gamma   90.00010000
_symmetry_Int_Tables_number   1
_chemical_formula_structural   InH11C18O7
_chemical_formula_sum   'In6 H66 C108 O42'
_cell_volume   6618.00906494
_cell_formula_units_Z   6
loop_
 _symmetry_equiv_pos_site_id
 _symmetry_equiv_pos_as_xyz
  1  'x, y, z'
loop_
 _atom_site_type_symbol
 _atom_site_label
 _atom_site_symmetry_multiplicity
 _atom_site_fract_x
 _atom_site_fract_y
 _atom_site_fract_z
 _atom_site_occupancy
  In  In0  1  0.00000000  0.00000000  0.50000000  1.0
  In  In1  1  0.00000000  0.50000000  0.00000000  1.0
  In  In2  1  0.00000000  0.50000000  0.50000000  1.0
  In  In3  1  0.50000000  1.00000000  0.50000000  1.0
  In  In4  1  0.50000000  0.50000000  0.00000000  1.0
  In  In5  1  0.50000000  0.50000000  0.50000000  1.0
  H  H6  1  0.25000000  0.00000000  0.56252000  1.0
  H  H7  1  0.25000000  0.43749000  0.00000000  1.0
  H  H8  1  0.25000000  0.56252000  0.43748000  1.0
  H  H9  1  0.75000000  1.00000000  0.43748000  1.0
  H  H10  1  0.75000000  0.56251000  0.00000000  1.0
  H  H11  1  0.75000000  0.43748000  0.56252000  1.0
  H  H12  1  0.95740000  0.86486000  0.51089000  1.0
  H  H13  1  0.95739000  0.62425000  0.86486000  1.0
  H  H14  1  0.95739000  0.51089000  0.62425000  1.0
  H  H15  1  0.45739000  0.13514000  0.48911000  1.0
  H  H16  1  0.45740000  0.37575000  0.13515000  1.0
  H  H17  1  0.45740000  0.48911000  0.37575000  1.0
  H  H18  1  0.54261000  0.48911000  0.13514000  1.0
  H  H19  1  0.54261000  0.13514000  0.37575000  1.0
  H  H20  1  0.54260000  0.37575000  0.48911000  1.0
  H  H21  1  0.04260000  0.51089000  0.86486000  1.0
  H  H22  1  0.04260000  0.86486000  0.62425000  1.0
  H  H23  1  0.04261000  0.62425000  0.51089000  1.0
  H  H24  1  0.04260000  0.13514000  0.48911000  1.0
  H  H25  1  0.04260000  0.37575000  0.13514000  1.0
  H  H26  1  0.04261000  0.48911000  0.37575000  1.0
  H  H27  1  0.54261000  0.86486000  0.51089000  1.0
  H  H28  1  0.54261000  0.62425000  0.86485000  1.0
  H  H29  1  0.54260000  0.51089000  0.62425000  1.0
  H  H30  1  0.45739000  0.51089000  0.86486000  1.0
  H  H31  1  0.45739000  0.86486000  0.62424000  1.0
  H  H32  1  0.45740000  0.62425000  0.51089000  1.0
  H  H33  1  0.95740000  0.48911000  0.13514000  1.0
  H  H34  1  0.95740000  0.13514000  0.37575000  1.0
  H  H35  1  0.95739000  0.37575000  0.48911000  1.0
  H  H36  1  0.95757000  0.77548000  0.54454000  1.0
  H  H37  1  0.95757000  0.67998000  0.77549000  1.0
  H  H38  1  0.95757000  0.54453000  0.67999000  1.0
  H  H39  1  0.45757000  0.22452000  0.45547000  1.0
  H  H40  1  0.45758000  0.32002000  0.22451000  1.0
  H  H41  1  0.45757000  0.45547000  0.32001000  1.0
  H  H42  1  0.54243000  0.45547000  0.22451000  1.0
  H  H43  1  0.54242000  0.22452000  0.32001000  1.0
  H  H44  1  0.54242000  0.32002000  0.45546000  1.0
  H  H45  1  0.04243000  0.54453000  0.77548000  1.0
  H  H46  1  0.04243000  0.77548000  0.67999000  1.0
  H  H47  1  0.04243000  0.67998000  0.54454000  1.0
  H  H48  1  0.04242000  0.22452000  0.45546000  1.0
  H  H49  1  0.04243000  0.32001000  0.22452000  1.0
  H  H50  1  0.04243000  0.45547000  0.32001000  1.0
  H  H51  1  0.54243000  0.77548000  0.54454000  1.0
  H  H52  1  0.54243000  0.67998000  0.77549000  1.0
  H  H53  1  0.54243000  0.54453000  0.67999000  1.0
  H  H54  1  0.45757000  0.54453000  0.77549000  1.0
  H  H55  1  0.45758000  0.77548000  0.67999000  1.0
  H  H56  1  0.45757000  0.67998000  0.54454000  1.0
  H  H57  1  0.95757000  0.45547000  0.22451000  1.0
  H  H58  1  0.95757000  0.22452000  0.32001000  1.0
  H  H59  1  0.95757000  0.32001000  0.45547000  1.0
  H  H60  1  0.25000000  0.63002000  0.61446000  1.0
  H  H61  1  0.25000000  0.75552000  0.63002000  1.0
  H  H62  1  0.25000000  0.61446000  0.75552000  1.0
  H  H63  1  0.75000000  0.36998000  0.38554000  1.0
  H  H64  1  0.75000000  0.24448000  0.36998000  1.0
  H  H65  1  0.75000000  0.38554000  0.24448000  1.0
  H  H66  1  0.25000000  0.38554000  0.36998000  1.0
  H  H67  1  0.25000000  0.36998000  0.24448000  1.0
  H  H68  1  0.25000000  0.24448000  0.38554000  1.0
  H  H69  1  0.75000000  0.61446000  0.63002000  1.0
  H  H70  1  0.75000000  0.63002000  0.75552000  1.0
  H  H71  1  0.75000000  0.75552000  0.61446000  1.0
  C  C72  1  0.24999000  0.92204000  0.49405000  1.0
  C  C73  1  0.24999000  0.58391000  0.92203000  1.0
  C  C74  1  0.25000000  0.49406000  0.58390000  1.0
  C  C75  1  0.75001000  0.07796000  0.50595000  1.0
  C  C76  1  0.75001000  0.41609000  0.07797000  1.0
  C  C77  1  0.75000000  0.50594000  0.41610000  1.0
  C  C78  1  0.24999000  0.50595000  0.07796000  1.0
  C  C79  1  0.25000000  0.07796000  0.41610000  1.0
  C  C80  1  0.25000000  0.41609000  0.50595000  1.0
  C  C81  1  0.75001000  0.49406000  0.92203000  1.0
  C  C82  1  0.75001000  0.92204000  0.58390000  1.0
  C  C83  1  0.75000000  0.58391000  0.49405000  1.0
  C  C84  1  0.25000000  0.86999000  0.50922000  1.0
  C  C85  1  0.25000000  0.62079000  0.87000000  1.0
  C  C86  1  0.25000000  0.50921000  0.62080000  1.0
  C  C87  1  0.75000000  0.13001000  0.49078000  1.0
  C  C88  1  0.75000000  0.37921000  0.13000000  1.0
  C  C89  1  0.75000000  0.49079000  0.37920000  1.0
  C  C90  1  0.25000000  0.49079000  0.13000000  1.0
  C  C91  1  0.25000000  0.13001000  0.37920000  1.0
  C  C92  1  0.25000000  0.37921000  0.49078000  1.0
  C  C93  1  0.75000000  0.50921000  0.87000000  1.0
  C  C94  1  0.75000000  0.86999000  0.62080000  1.0
  C  C95  1  0.75000000  0.62079000  0.50922000  1.0
  C  C96  1  0.08475000  0.84509000  0.51802000  1.0
  C  C97  1  0.08474000  0.63689000  0.84509000  1.0
  C  C98  1  0.08474000  0.51802000  0.63689000  1.0
  C  C99  1  0.58474000  0.15491000  0.48198000  1.0
  C  C100  1  0.58475000  0.36311000  0.15491000  1.0
  C  C101  1  0.58474000  0.48198000  0.36311000  1.0
  C  C102  1  0.41526000  0.48198000  0.15491000  1.0
  C  C103  1  0.41525000  0.15491000  0.36311000  1.0
  C  C104  1  0.41525000  0.36311000  0.48198000  1.0
  C  C105  1  0.91526000  0.51802000  0.84509000  1.0
  C  C106  1  0.91526000  0.84509000  0.63689000  1.0
  C  C107  1  0.91526000  0.63689000  0.51802000  1.0
  C  C108  1  0.91525000  0.15491000  0.48198000  1.0
  C  C109  1  0.91526000  0.36311000  0.15491000  1.0
  C  C110  1  0.91526000  0.48198000  0.36311000  1.0
  C  C111  1  0.41526000  0.84509000  0.51802000  1.0
  C  C112  1  0.41525000  0.63689000  0.84509000  1.0
  C  C113  1  0.41526000  0.51802000  0.63689000  1.0
  C  C114  1  0.58474000  0.51802000  0.84509000  1.0
  C  C115  1  0.58475000  0.84509000  0.63689000  1.0
  C  C116  1  0.58474000  0.63689000  0.51802000  1.0
  C  C117  1  0.08475000  0.48198000  0.15491000  1.0
  C  C118  1  0.08474000  0.15491000  0.36311000  1.0
  C  C119  1  0.08474000  0.36311000  0.48198000  1.0
  C  C120  1  0.08395000  0.79571000  0.53691000  1.0
  C  C121  1  0.08395000  0.66738000  0.79571000  1.0
  C  C122  1  0.08395000  0.53691000  0.66738000  1.0
  C  C123  1  0.58395000  0.20429000  0.46309000  1.0
  C  C124  1  0.58395000  0.33261000  0.20430000  1.0
  C  C125  1  0.58394000  0.46309000  0.33262000  1.0
  C  C126  1  0.41605000  0.46309000  0.20429000  1.0
  C  C127  1  0.41605000  0.20429000  0.33262000  1.0
  C  C128  1  0.41605000  0.33261000  0.46310000  1.0
  C  C129  1  0.91605000  0.53691000  0.79570000  1.0
  C  C130  1  0.91605000  0.79571000  0.66738000  1.0
  C  C131  1  0.91605000  0.66738000  0.53691000  1.0
  C  C132  1  0.91605000  0.20429000  0.46309000  1.0
  C  C133  1  0.91605000  0.33261000  0.20430000  1.0
  C  C134  1  0.91605000  0.46309000  0.33262000  1.0
  C  C135  1  0.41605000  0.79571000  0.53691000  1.0
  C  C136  1  0.41605000  0.66738000  0.79571000  1.0
  C  C137  1  0.41605000  0.53691000  0.66738000  1.0
  C  C138  1  0.58395000  0.53691000  0.79570000  1.0
  C  C139  1  0.58395000  0.79571000  0.66738000  1.0
  C  C140  1  0.58395000  0.66739000  0.53690000  1.0
  C  C141  1  0.08395000  0.46309000  0.20430000  1.0
  C  C142  1  0.08395000  0.20429000  0.33262000  1.0
  C  C143  1  0.08394000  0.33262000  0.46309000  1.0
  C  C144  1  0.25000000  0.77154000  0.54706000  1.0
  C  C145  1  0.25000000  0.68140000  0.77153000  1.0
  C  C146  1  0.25000000  0.54707000  0.68139000  1.0
  C  C147  1  0.75000000  0.22846000  0.45294000  1.0
  C  C148  1  0.75000000  0.31860000  0.22847000  1.0
  C  C149  1  0.75000000  0.45293000  0.31861000  1.0
  C  C150  1  0.25000000  0.45293000  0.22847000  1.0
  C  C151  1  0.25000000  0.22846000  0.31861000  1.0
  C  C152  1  0.25000000  0.31860000  0.45294000  1.0
  C  C153  1  0.75000000  0.54707000  0.77153000  1.0
  C  C154  1  0.75000000  0.77154000  0.68139000  1.0
  C  C155  1  0.75000000  0.68140000  0.54706000  1.0
  C  C156  1  0.25000000  0.69541000  0.61751000  1.0
  C  C157  1  0.25000000  0.68708000  0.69541000  1.0
  C  C158  1  0.25000000  0.61751000  0.68708000  1.0
  C  C159  1  0.75000000  0.30459000  0.38249000  1.0
  C  C160  1  0.75000000  0.31292000  0.30459000  1.0
  C  C161  1  0.75000000  0.38249000  0.31292000  1.0
  C  C162  1  0.24999000  0.38249000  0.30459000  1.0
  C  C163  1  0.24999000  0.30459000  0.31292000  1.0
  C  C164  1  0.25000000  0.31292000  0.38249000  1.0
  C  C165  1  0.75000000  0.61751000  0.69541000  1.0
  C  C166  1  0.75000000  0.69541000  0.68708000  1.0
  C  C167  1  0.75000000  0.68708000  0.61751000  1.0
  C  C168  1  0.25000000  0.64571000  0.63742000  1.0
  C  C169  1  0.25000000  0.71687000  0.64571000  1.0
  C  C170  1  0.25000000  0.63742000  0.71687000  1.0
  C  C171  1  0.75000000  0.35429000  0.36258000  1.0
  C  C172  1  0.75000000  0.28313000  0.35429000  1.0
  C  C173  1  0.75000000  0.36258000  0.28313000  1.0
  C  C174  1  0.25000000  0.36258000  0.35429000  1.0
  C  C175  1  0.24999000  0.35429000  0.28313000  1.0
  C  C176  1  0.25000000  0.28313000  0.36258000  1.0
  C  C177  1  0.75000000  0.63742000  0.64571000  1.0
  C  C178  1  0.75000000  0.64571000  0.71687000  1.0
  C  C179  1  0.75000000  0.71687000  0.63742000  1.0
  O  O180  1  0.09511000  0.94206000  0.48865000  1.0
  O  O181  1  0.09511000  0.56929000  0.94206000  1.0
  O  O182  1  0.09510000  0.48865000  0.56929000  1.0
  O  O183  1  0.59510000  0.05794000  0.51135000  1.0
  O  O184  1  0.59510000  0.43071000  0.05794000  1.0
  O  O185  1  0.59511000  0.51135000  0.43071000  1.0
  O  O186  1  0.40490000  0.51135000  0.05794000  1.0
  O  O187  1  0.40491000  0.05794000  0.43071000  1.0
  O  O188  1  0.40489000  0.43071000  0.51135000  1.0
  O  O189  1  0.90489000  0.48865000  0.94206000  1.0
  O  O190  1  0.90489000  0.94206000  0.56929000  1.0
  O  O191  1  0.90490000  0.56929000  0.48865000  1.0
  O  O192  1  0.90489000  0.05794000  0.51135000  1.0
  O  O193  1  0.90489000  0.43071000  0.05794000  1.0
  O  O194  1  0.90490000  0.51135000  0.43071000  1.0
  O  O195  1  0.40490000  0.94206000  0.48865000  1.0
  O  O196  1  0.40491000  0.56929000  0.94206000  1.0
  O  O197  1  0.40489000  0.48865000  0.56929000  1.0
  O  O198  1  0.59510000  0.48865000  0.94206000  1.0
  O  O199  1  0.59510000  0.94206000  0.56929000  1.0
  O  O200  1  0.59511000  0.56929000  0.48865000  1.0
  O  O201  1  0.09511000  0.51135000  0.05794000  1.0
  O  O202  1  0.09511000  0.05794000  0.43071000  1.0
  O  O203  1  0.09510000  0.43071000  0.51135000  1.0
  O  O204  1  0.25000000  0.00000000  0.53248000  1.0
  O  O205  1  0.25000000  0.46752000  0.00000000  1.0
  O  O206  1  0.25000000  0.53248000  0.46752000  1.0
  O  O207  1  0.75000000  1.00000000  0.46752000  1.0
  O  O208  1  0.75000000  0.53248000  0.00000000  1.0
  O  O209  1  0.75000000  0.46752000  0.53248000  1.0
  O  O210  1  0.25000000  0.72174000  0.56793000  1.0
  O  O211  1  0.25000000  0.71033000  0.72174000  1.0
  O  O212  1  0.25000000  0.56793000  0.71033000  1.0
  O  O213  1  0.75000000  0.27826000  0.43207000  1.0
  O  O214  1  0.75000000  0.28967000  0.27826000  1.0
  O  O215  1  0.75000000  0.43207000  0.28967000  1.0
  O  O216  1  0.25000000  0.43207000  0.27826000  1.0
  O  O217  1  0.25000000  0.27826000  0.28967000  1.0
  O  O218  1  0.25000000  0.28967000  0.43207000  1.0
  O  O219  1  0.75000000  0.56793000  0.72174000  1.0
  O  O220  1  0.75000000  0.72174000  0.71033000  1.0
  O  O221  1  0.75000000  0.71033000  0.56793000  1.0
