# generated using pymatgen
data_CoH22C31N11O5
_symmetry_space_group_name_H-M   'P 1'
_cell_length_a   12.55010000
_cell_length_b   15.30960000
_cell_length_c   21.54590000
_cell_angle_alpha   101.13000000
_cell_angle_beta   90.00740000
_cell_angle_gamma   114.17600000
_symmetry_Int_Tables_number   1
_chemical_formula_structural   CoH22C31N11O5
_chemical_formula_sum   'Co4 H88 C124 N44 O20'
_cell_volume   3691.11282088
_cell_formula_units_Z   4
loop_
 _symmetry_equiv_pos_site_id
 _symmetry_equiv_pos_as_xyz
  1  'x, y, z'
loop_
 _atom_site_type_symbol
 _atom_site_label
 _atom_site_symmetry_multiplicity
 _atom_site_fract_x
 _atom_site_fract_y
 _atom_site_fract_z
 _atom_site_occupancy
  Co  Co0  1  0.10429000  0.55785000  0.65980000  1.0
  Co  Co1  1  0.54636000  0.44222000  0.84020000  1.0
  Co  Co2  1  0.89571000  0.44215000  0.34020000  1.0
  Co  Co3  1  0.45364000  0.55777000  0.15980000  1.0
  H  H4  1  0.38427000  0.57853000  0.64065000  1.0
  H  H5  1  0.25729000  0.76576000  0.75190000  1.0
  H  H6  1  0.25452000  0.33951000  0.82238000  1.0
  H  H7  1  0.47883000  0.27562000  0.93219000  1.0
  H  H8  1  0.48902000  0.39217000  0.22200000  1.0
  H  H9  1  0.58112000  0.45737000  0.04297000  1.0
  H  H10  1  0.38603000  0.92779000  0.79365000  1.0
  H  H11  1  0.51870000  0.07449000  0.87060000  1.0
  H  H12  1  0.77849000  0.95655000  0.86347000  1.0
  H  H13  1  0.64305000  0.80795000  0.78725000  1.0
  H  H14  1  0.05708000  0.18882000  0.79449000  1.0
  H  H15  1  0.84319000  0.13290000  0.80543000  1.0
  H  H16  1  0.90494000  0.16535000  0.00679000  1.0
  H  H17  1  0.12060000  0.22372000  0.99615000  1.0
  H  H18  1  0.80810000  0.30428000  0.92791000  1.0
  H  H19  1  0.74182000  0.40937000  0.00672000  1.0
  H  H20  1  0.51993000  0.15670000  0.07792000  1.0
  H  H21  1  0.58813000  0.05161000  0.99921000  1.0
  H  H22  1  0.99714000  0.65436000  0.86851000  1.0
  H  H23  1  0.95716000  0.62717000  0.97643000  1.0
  H  H24  1  0.06539000  0.38916000  0.93775000  1.0
  H  H25  1  0.10418000  0.41842000  0.82977000  1.0
  H  H26  1  0.80569000  0.42130000  0.85921000  1.0
  H  H27  1  0.49123000  0.23434000  0.74821000  1.0
  H  H28  1  0.91497000  0.66038000  0.67752000  1.0
  H  H29  1  0.20286000  0.72420000  0.56757000  1.0
  H  H30  1  0.09623000  0.60758000  0.27807000  1.0
  H  H31  1  0.12383000  0.54269000  0.45713000  1.0
  H  H32  1  0.45787000  0.07235000  0.70618000  1.0
  H  H33  1  0.44378000  0.92537000  0.62940000  1.0
  H  H34  1  0.82143000  0.04317000  0.63637000  1.0
  H  H35  1  0.83464000  0.19183000  0.71261000  1.0
  H  H36  1  0.86835000  0.81135000  0.70546000  1.0
  H  H37  1  0.71035000  0.86729000  0.69457000  1.0
  H  H38  1  0.73906000  0.83449000  0.49318000  1.0
  H  H39  1  0.89646000  0.77614000  0.50374000  1.0
  H  H40  1  0.50361000  0.69563000  0.57204000  1.0
  H  H41  1  0.33236000  0.59056000  0.49317000  1.0
  H  H42  1  0.36322000  0.84323000  0.42187000  1.0
  H  H43  1  0.53638000  0.94828000  0.50067000  1.0
  H  H44  1  0.34251000  0.34618000  0.63164000  1.0
  H  H45  1  0.32994000  0.37317000  0.52364000  1.0
  H  H46  1  0.67621000  0.61070000  0.56223000  1.0
  H  H47  1  0.68579000  0.58161000  0.67024000  1.0
  H  H48  1  0.61573000  0.42147000  0.35935000  1.0
  H  H49  1  0.74271000  0.23424000  0.24810000  1.0
  H  H50  1  0.74548000  0.66048000  0.17762000  1.0
  H  H51  1  0.52117000  0.72438000  0.06781000  1.0
  H  H52  1  0.51099000  0.60783000  0.77801000  1.0
  H  H53  1  0.41887000  0.54262000  0.95703000  1.0
  H  H54  1  0.61397000  0.07221000  0.20635000  1.0
  H  H55  1  0.48130000  0.92551000  0.12940000  1.0
  H  H56  1  0.22150000  0.04345000  0.13652000  1.0
  H  H57  1  0.35695000  0.19205000  0.21275000  1.0
  H  H58  1  0.94292000  0.81118000  0.20551000  1.0
  H  H59  1  0.15682000  0.86710000  0.19457000  1.0
  H  H60  1  0.09506000  0.83466000  0.99321000  1.0
  H  H61  1  0.87940000  0.77628000  0.00385000  1.0
  H  H62  1  0.19190000  0.69572000  0.07209000  1.0
  H  H63  1  0.25818000  0.59063000  0.99329000  1.0
  H  H64  1  0.48007000  0.84330000  0.92208000  1.0
  H  H65  1  0.41187000  0.94838000  0.00079000  1.0
  H  H66  1  0.00287000  0.34565000  0.13149000  1.0
  H  H67  1  0.04284000  0.37283000  0.02357000  1.0
  H  H68  1  0.93461000  0.61084000  0.06225000  1.0
  H  H69  1  0.89582000  0.58159000  0.17023000  1.0
  H  H70  1  0.19430000  0.57870000  0.14079000  1.0
  H  H71  1  0.50877000  0.76566000  0.25179000  1.0
  H  H72  1  0.08503000  0.33962000  0.32249000  1.0
  H  H73  1  0.79714000  0.27579000  0.43243000  1.0
  H  H74  1  0.90378000  0.39243000  0.72193000  1.0
  H  H75  1  0.87616000  0.45732000  0.54287000  1.0
  H  H76  1  0.54213000  0.92764000  0.29382000  1.0
  H  H77  1  0.55622000  0.07462000  0.37060000  1.0
  H  H78  1  0.17857000  0.95683000  0.36363000  1.0
  H  H79  1  0.16536000  0.80817000  0.28739000  1.0
  H  H80  1  0.13166000  0.18865000  0.29454000  1.0
  H  H81  1  0.28966000  0.13271000  0.30543000  1.0
  H  H82  1  0.26095000  0.16551000  0.50682000  1.0
  H  H83  1  0.10354000  0.22386000  0.49627000  1.0
  H  H84  1  0.49639000  0.30437000  0.42796000  1.0
  H  H85  1  0.66763000  0.40945000  0.50683000  1.0
  H  H86  1  0.63678000  0.15678000  0.57813000  1.0
  H  H87  1  0.46362000  0.05173000  0.49933000  1.0
  H  H88  1  0.65750000  0.65382000  0.36836000  1.0
  H  H89  1  0.67006000  0.62683000  0.47636000  1.0
  H  H90  1  0.32379000  0.38930000  0.43777000  1.0
  H  H91  1  0.31421000  0.41840000  0.32976000  1.0
  C  C92  1  0.38124000  0.64127000  0.67289000  1.0
  C  C93  1  0.31504000  0.73595000  0.72828000  1.0
  C  C94  1  0.28846000  0.30865000  0.85453000  1.0
  C  C95  1  0.40000000  0.27517000  0.91114000  1.0
  C  C96  1  0.52061000  0.39038000  0.17524000  1.0
  C  C97  1  0.56693000  0.42615000  0.08512000  1.0
  C  C98  1  0.50779000  0.85958000  0.78435000  1.0
  C  C99  1  0.47173000  0.93342000  0.80910000  1.0
  C  C100  1  0.54670000  0.01648000  0.85248000  1.0
  C  C101  1  0.65947000  0.02728000  0.87152000  1.0
  C  C102  1  0.69310000  0.95085000  0.84748000  1.0
  C  C103  1  0.61831000  0.86808000  0.80442000  1.0
  C  C104  1  0.10045000  0.20897000  0.89501000  1.0
  C  C105  1  0.02357000  0.18362000  0.84095000  1.0
  C  C106  1  0.90398000  0.15194000  0.84693000  1.0
  C  C107  1  0.86083000  0.14485000  0.90662000  1.0
  C  C108  1  0.93884000  0.17016000  0.96042000  1.0
  C  C109  1  0.05858000  0.20213000  0.95483000  1.0
  C  C110  1  0.69991000  0.17117000  0.95759000  1.0
  C  C111  1  0.74373000  0.27208000  0.96014000  1.0
  C  C112  1  0.70652000  0.33077000  0.00398000  1.0
  C  C113  1  0.62512000  0.28825000  0.04554000  1.0
  C  C114  1  0.58146000  0.18766000  0.04407000  1.0
  C  C115  1  0.61938000  0.12962000  0.00024000  1.0
  C  C116  1  0.07871000  0.55449000  0.77682000  1.0
  C  C117  1  0.05666000  0.53997000  0.84277000  1.0
  C  C118  1  0.01411000  0.59773000  0.88469000  1.0
  C  C119  1  0.99151000  0.58162000  0.94561000  1.0
  C  C120  1  0.01031000  0.50735000  0.96718000  1.0
  C  C121  1  0.05031000  0.44808000  0.92383000  1.0
  C  C122  1  0.07347000  0.46447000  0.86307000  1.0
  C  C123  1  0.73986000  0.35862000  0.82698000  1.0
  C  C124  1  0.57885000  0.26407000  0.77172000  1.0
  C  C125  1  0.97968000  0.69123000  0.64533000  1.0
  C  C126  1  0.12451000  0.72463000  0.58864000  1.0
  C  C127  1  0.12980000  0.60945000  0.32481000  1.0
  C  C128  1  0.14067000  0.57387000  0.41496000  1.0
  C  C129  1  0.64784000  0.14037000  0.71547000  1.0
  C  C130  1  0.53789000  0.06661000  0.69073000  1.0
  C  C131  1  0.52975000  0.98343000  0.64744000  1.0
  C  C132  1  0.63173000  0.97259000  0.62840000  1.0
  C  C133  1  0.74179000  0.04898000  0.65235000  1.0
  C  C134  1  0.74980000  0.13175000  0.69541000  1.0
  C  C135  1  0.89122000  0.79096000  0.60489000  1.0
  C  C136  1  0.83989000  0.81648000  0.65900000  1.0
  C  C137  1  0.75200000  0.84817000  0.65305000  1.0
  C  C138  1  0.71565000  0.85506000  0.59337000  1.0
  C  C139  1  0.76821000  0.82966000  0.53954000  1.0
  C  C140  1  0.85602000  0.79770000  0.54507000  1.0
  C  C141  1  0.52850000  0.82871000  0.54234000  1.0
  C  C142  1  0.47150000  0.72783000  0.53978000  1.0
  C  C143  1  0.37570000  0.66915000  0.49589000  1.0
  C  C144  1  0.33681000  0.71169000  0.45432000  1.0
  C  C145  1  0.39377000  0.81225000  0.45573000  1.0
  C  C146  1  0.48964000  0.87025000  0.49962000  1.0
  C  C147  1  0.52426000  0.44577000  0.72325000  1.0
  C  C148  1  0.51661000  0.46027000  0.65733000  1.0
  C  C149  1  0.41625000  0.40265000  0.61544000  1.0
  C  C150  1  0.40984000  0.41863000  0.55446000  1.0
  C  C151  1  0.50295000  0.49274000  0.53285000  1.0
  C  C152  1  0.60219000  0.55194000  0.57620000  1.0
  C  C153  1  0.60898000  0.53563000  0.63699000  1.0
  C  C154  1  0.61876000  0.35874000  0.32711000  1.0
  C  C155  1  0.68496000  0.26405000  0.27172000  1.0
  C  C156  1  0.71154000  0.69135000  0.14547000  1.0
  C  C157  1  0.60000000  0.72482000  0.08885000  1.0
  C  C158  1  0.47940000  0.60962000  0.82476000  1.0
  C  C159  1  0.43307000  0.57385000  0.91488000  1.0
  C  C160  1  0.49221000  0.14041000  0.21565000  1.0
  C  C161  1  0.52827000  0.06658000  0.19090000  1.0
  C  C162  1  0.45330000  0.98351000  0.14751000  1.0
  C  C163  1  0.34053000  0.97273000  0.12847000  1.0
  C  C164  1  0.30690000  0.04916000  0.15252000  1.0
  C  C165  1  0.38170000  0.13192000  0.19558000  1.0
  C  C166  1  0.89955000  0.79103000  0.10499000  1.0
  C  C167  1  0.97643000  0.81638000  0.15905000  1.0
  C  C168  1  0.09602000  0.84807000  0.15307000  1.0
  C  C169  1  0.13917000  0.85515000  0.09338000  1.0
  C  C170  1  0.06116000  0.82984000  0.03959000  1.0
  C  C171  1  0.94142000  0.79787000  0.04517000  1.0
  C  C172  1  0.30009000  0.82883000  0.04241000  1.0
  C  C173  1  0.25627000  0.72793000  0.03986000  1.0
  C  C174  1  0.29348000  0.66923000  0.99602000  1.0
  C  C175  1  0.37488000  0.71175000  0.95446000  1.0
  C  C176  1  0.41854000  0.81234000  0.95593000  1.0
  C  C177  1  0.38062000  0.87038000  0.99976000  1.0
  C  C178  1  0.92129000  0.44551000  0.22317000  1.0
  C  C179  1  0.94334000  0.46003000  0.15723000  1.0
  C  C180  1  0.98589000  0.40228000  0.11531000  1.0
  C  C181  1  0.00849000  0.41838000  0.05438000  1.0
  C  C182  1  0.98969000  0.49265000  0.03282000  1.0
  C  C183  1  0.94969000  0.55192000  0.07617000  1.0
  C  C184  1  0.92652000  0.53553000  0.13693000  1.0
  C  C185  1  0.26013000  0.64138000  0.17301000  1.0
  C  C186  1  0.42115000  0.73592000  0.22828000  1.0
  C  C187  1  0.02033000  0.30877000  0.35467000  1.0
  C  C188  1  0.87549000  0.27536000  0.41136000  1.0
  C  C189  1  0.87020000  0.39055000  0.67519000  1.0
  C  C190  1  0.85933000  0.42614000  0.58504000  1.0
  C  C191  1  0.35216000  0.85963000  0.28453000  1.0
  C  C192  1  0.46211000  0.93338000  0.30927000  1.0
  C  C193  1  0.47024000  0.01657000  0.35256000  1.0
  C  C194  1  0.36827000  0.02740000  0.37160000  1.0
  C  C195  1  0.25820000  0.95101000  0.34765000  1.0
  C  C196  1  0.25020000  0.86825000  0.30459000  1.0
  C  C197  1  0.10878000  0.20904000  0.39511000  1.0
  C  C198  1  0.16011000  0.18352000  0.34101000  1.0
  C  C199  1  0.24800000  0.15183000  0.34695000  1.0
  C  C200  1  0.28435000  0.14494000  0.40664000  1.0
  C  C201  1  0.23179000  0.17034000  0.46046000  1.0
  C  C202  1  0.14398000  0.20230000  0.45494000  1.0
  C  C203  1  0.47150000  0.17129000  0.45766000  1.0
  C  C204  1  0.52849000  0.27217000  0.46023000  1.0
  C  C205  1  0.62429000  0.33085000  0.50411000  1.0
  C  C206  1  0.66319000  0.28832000  0.54569000  1.0
  C  C207  1  0.60623000  0.18775000  0.54427000  1.0
  C  C208  1  0.51036000  0.12975000  0.50038000  1.0
  C  C209  1  0.47575000  0.55423000  0.27675000  1.0
  C  C210  1  0.48339000  0.53973000  0.34267000  1.0
  C  C211  1  0.58375000  0.59735000  0.38456000  1.0
  C  C212  1  0.59016000  0.58137000  0.44554000  1.0
  C  C213  1  0.49705000  0.50726000  0.46715000  1.0
  C  C214  1  0.39781000  0.44806000  0.42380000  1.0
  C  C215  1  0.39102000  0.46437000  0.36301000  1.0
  N  N216  1  0.27999000  0.65184000  0.68540000  1.0
  N  N217  1  0.43303000  0.77459000  0.74017000  1.0
  N  N218  1  0.47653000  0.71430000  0.70492000  1.0
  N  N219  1  0.40102000  0.32905000  0.86711000  1.0
  N  N220  1  0.22304000  0.24488000  0.88973000  1.0
  N  N221  1  0.29361000  0.22304000  0.92649000  1.0
  N  N222  1  0.52474000  0.45497000  0.13830000  1.0
  N  N223  1  0.55707000  0.32356000  0.14812000  1.0
  N  N224  1  0.58643000  0.34702000  0.09061000  1.0
  N  N225  1  0.73877000  0.11210000  0.91282000  1.0
  N  N226  1  0.14781000  0.45642000  0.55399000  1.0
  N  N227  1  0.62804000  0.34815000  0.81461000  1.0
  N  N228  1  0.65815000  0.22538000  0.75967000  1.0
  N  N229  1  0.76200000  0.28558000  0.79485000  1.0
  N  N230  1  0.07181000  0.67080000  0.63271000  1.0
  N  N231  1  0.97790000  0.75499000  0.61013000  1.0
  N  N232  1  0.07022000  0.77679000  0.57332000  1.0
  N  N233  1  0.06954000  0.54495000  0.36182000  1.0
  N  N234  1  0.23311000  0.67628000  0.35182000  1.0
  N  N235  1  0.23922000  0.65294000  0.40935000  1.0
  N  N236  1  0.62624000  0.88771000  0.58719000  1.0
  N  N237  1  0.69128000  0.54357000  0.94605000  1.0
  N  N238  1  0.72001000  0.34816000  0.31460000  1.0
  N  N239  1  0.56697000  0.22541000  0.25983000  1.0
  N  N240  1  0.52347000  0.28570000  0.29508000  1.0
  N  N241  1  0.59897000  0.67094000  0.13289000  1.0
  N  N242  1  0.77697000  0.75512000  0.11027000  1.0
  N  N243  1  0.70639000  0.77696000  0.07351000  1.0
  N  N244  1  0.47526000  0.54503000  0.86170000  1.0
  N  N245  1  0.44294000  0.67644000  0.85188000  1.0
  N  N246  1  0.41357000  0.65298000  0.90939000  1.0
  N  N247  1  0.26123000  0.88790000  0.08718000  1.0
  N  N248  1  0.85219000  0.54358000  0.44600000  1.0
  N  N249  1  0.37196000  0.65185000  0.18539000  1.0
  N  N250  1  0.34184000  0.77461000  0.24033000  1.0
  N  N251  1  0.23799000  0.71442000  0.20515000  1.0
  N  N252  1  0.92820000  0.32920000  0.36729000  1.0
  N  N253  1  0.02210000  0.24501000  0.38987000  1.0
  N  N254  1  0.92979000  0.22321000  0.42668000  1.0
  N  N255  1  0.93046000  0.45505000  0.63818000  1.0
  N  N256  1  0.76688000  0.32372000  0.64818000  1.0
  N  N257  1  0.76078000  0.34707000  0.59065000  1.0
  N  N258  1  0.37377000  0.11228000  0.41281000  1.0
  N  N259  1  0.30872000  0.45643000  0.05394000  1.0
  O  O260  1  0.11458000  0.49801000  0.73971000  1.0
  O  O261  1  0.05847000  0.61969000  0.75634000  1.0
  O  O262  1  0.13007000  0.53451000  0.55743000  1.0
  O  O263  1  0.15010000  0.42953000  0.60596000  1.0
  O  O264  1  0.16204000  0.41220000  0.50196000  1.0
  O  O265  1  0.61669000  0.50209000  0.76034000  1.0
  O  O266  1  0.43875000  0.38069000  0.74371000  1.0
  O  O267  1  0.59533000  0.46562000  0.94260000  1.0
  O  O268  1  0.72054000  0.57046000  0.89410000  1.0
  O  O269  1  0.74978000  0.58766000  0.99808000  1.0
  O  O270  1  0.88541000  0.50199000  0.26029000  1.0
  O  O271  1  0.94153000  0.38031000  0.24365000  1.0
  O  O272  1  0.86993000  0.46549000  0.44256000  1.0
  O  O273  1  0.84991000  0.57048000  0.39404000  1.0
  O  O274  1  0.83796000  0.58779000  0.49803000  1.0
  O  O275  1  0.38332000  0.49791000  0.23966000  1.0
  O  O276  1  0.56126000  0.61931000  0.25629000  1.0
  O  O277  1  0.40467000  0.53438000  0.05740000  1.0
  O  O278  1  0.27946000  0.42954000  0.10590000  1.0
  O  O279  1  0.25021000  0.41233000  0.00192000  1.0
