# generated using pymatgen
data_Zn2H18C32S3(N2O5)3
_symmetry_space_group_name_H-M   'P 1'
_cell_length_a   12.80390000
_cell_length_b   15.96450000
_cell_length_c   17.22140000
_cell_angle_alpha   95.43540000
_cell_angle_beta   90.51370000
_cell_angle_gamma   93.69450000
_symmetry_Int_Tables_number   1
_chemical_formula_structural   Zn2H18C32S3(N2O5)3
_chemical_formula_sum   'Zn2 H18 C32 S3 N6 O15'
_cell_volume   3496.67638514
_cell_formula_units_Z   1
loop_
 _symmetry_equiv_pos_site_id
 _symmetry_equiv_pos_as_xyz
  1  'x, y, z'
loop_
 _atom_site_type_symbol
 _atom_site_label
 _atom_site_symmetry_multiplicity
 _atom_site_fract_x
 _atom_site_fract_y
 _atom_site_fract_z
 _atom_site_occupancy
  Zn  Zn0  1  0.49733000  0.40943000  0.49738000  1.0
  Zn  Zn1  1  0.49989000  0.59066000  0.50090000  1.0
  H  H2  1  0.38101000  0.71839000  0.44155000  1.0
  H  H3  1  0.38210000  0.87649000  0.44456000  1.0
  H  H4  1  0.66887000  0.89033000  0.58124000  1.0
  H  H5  1  0.36601000  0.10700000  0.39605000  1.0
  H  H6  1  0.60657000  0.12840000  0.57624000  1.0
  H  H7  1  0.60197000  0.28615000  0.57848000  1.0
  H  H8  1  0.50454000  0.61904000  0.25825000  1.0
  H  H9  1  0.50131000  0.61328000  0.11177000  1.0
  H  H10  1  0.50593000  0.34263000  0.09905000  1.0
  H  H11  1  0.50963000  0.65743000  0.89963000  1.0
  H  H12  1  0.48460000  0.38582000  0.88507000  1.0
  H  H13  1  0.47820000  0.38131000  0.73870000  1.0
  H  H14  1  0.87396000  0.63447000  0.50402000  1.0
  H  H15  1  0.67907000  0.66631000  0.55113000  1.0
  H  H16  1  0.34188000  0.32719000  0.41866000  1.0
  H  H17  1  0.51536000  0.34848000  0.30603000  1.0
  H  H18  1  0.50769000  0.65333000  0.69273000  1.0
  H  H19  1  0.06973000  0.27439000  0.39342000  1.0
  C  C20  1  0.50846000  0.49123000  0.34699000  1.0
  C  C21  1  0.29220000  0.49396000  0.49140000  1.0
  C  C22  1  0.48957000  0.51049000  0.65100000  1.0
  C  C23  1  0.70646000  0.50332000  0.51161000  1.0
  C  C24  1  0.44354000  0.75959000  0.47079000  1.0
  C  C25  1  0.44364000  0.84604000  0.47281000  1.0
  C  C26  1  0.52647000  0.89429000  0.51371000  1.0
  C  C27  1  0.60449000  0.85428000  0.54931000  1.0
  C  C28  1  0.60107000  0.76552000  0.54132000  1.0
  C  C29  1  0.41961000  0.14461000  0.43683000  1.0
  C  C30  1  0.48597000  0.10676000  0.48513000  1.0
  C  C31  1  0.55400000  0.15702000  0.53813000  1.0
  C  C32  1  0.55106000  0.24332000  0.53961000  1.0
  C  C33  1  0.42035000  0.23315000  0.44305000  1.0
  C  C34  1  0.50791000  0.48514000  0.26092000  1.0
  C  C35  1  0.50501000  0.55913000  0.22221000  1.0
  C  C36  1  0.50312000  0.55645000  0.14188000  1.0
  C  C37  1  0.50326000  0.47721000  0.09767000  1.0
  C  C38  1  0.50601000  0.40304000  0.13426000  1.0
  C  C39  1  0.50919000  0.40589000  0.21588000  1.0
  C  C40  1  0.50309000  0.59711000  0.86407000  1.0
  C  C41  1  0.49754000  0.52230000  0.90012000  1.0
  C  C42  1  0.48879000  0.44315000  0.85542000  1.0
  C  C43  1  0.48564000  0.44113000  0.77512000  1.0
  C  C44  1  0.49188000  0.51579000  0.73700000  1.0
  C  C45  1  0.50112000  0.59503000  0.78250000  1.0
  C  C46  1  0.10175000  0.42520000  0.50695000  1.0
  C  C47  1  0.89454000  0.56990000  0.50766000  1.0
  C  C48  1  0.17675000  0.49115000  0.49959000  1.0
  C  C49  1  0.82138000  0.50313000  0.51266000  1.0
  C  C50  1  0.99687000  0.54142000  0.50676000  1.0
  C  C51  1  0.99894000  0.45369000  0.51110000  1.0
  S  S52  1  0.12141000  0.58756000  0.49993000  1.0
  S  S53  1  0.87511000  0.40637000  0.51735000  1.0
  S  S54  1  0.11952000  0.31647000  0.51011000  1.0
  N  N55  1  0.52003000  0.71938000  0.50443000  1.0
  N  N56  1  0.53714000  0.98384000  0.52193000  1.0
  N  N57  1  0.47734000  0.01722000  0.47680000  1.0
  N  N58  1  0.48605000  0.28117000  0.49301000  1.0
  N  N59  1  0.50043000  0.46561000  0.01516000  1.0
  N  N60  1  0.50119000  0.53350000  0.98257000  1.0
  O  O61  1  0.51841000  0.42257000  0.38008000  1.0
  O  O62  1  0.49895000  0.56284000  0.38448000  1.0
  O  O63  1  0.33842000  0.56715000  0.50343000  1.0
  O  O64  1  0.33649000  0.42578000  0.47299000  1.0
  O  O65  1  0.50242000  0.58060000  0.61885000  1.0
  O  O66  1  0.47560000  0.43865000  0.61245000  1.0
  O  O67  1  0.65650000  0.43239000  0.51455000  1.0
  O  O68  1  0.66448000  0.57346000  0.50606000  1.0
  O  O69  1  0.68004000  0.72804000  0.57112000  1.0
  O  O70  1  0.35501000  0.26860000  0.39749000  1.0
  O  O71  1  0.51269000  0.33248000  0.24830000  1.0
  O  O72  1  0.50804000  0.66908000  0.75055000  1.0
  O  O73  1  0.13826000  0.28597000  0.41928000  1.0
  O  O74  1  0.21401000  0.30243000  0.55019000  1.0
  O  O75  1  0.01964000  0.27871000  0.53118000  1.0
