# generated using pymatgen
data_YH7C11N3O8
_symmetry_space_group_name_H-M   'P 1'
_cell_length_a   6.92752000
_cell_length_b   8.69920000
_cell_length_c   12.37510000
_cell_angle_alpha   97.68310000
_cell_angle_beta   99.76330000
_cell_angle_gamma   107.55300000
_symmetry_Int_Tables_number   1
_chemical_formula_structural   YH7C11N3O8
_chemical_formula_sum   'Y2 H14 C22 N6 O16'
_cell_volume   687.05719146
_cell_formula_units_Z   2
loop_
 _symmetry_equiv_pos_site_id
 _symmetry_equiv_pos_as_xyz
  1  'x, y, z'
loop_
 _atom_site_type_symbol
 _atom_site_label
 _atom_site_symmetry_multiplicity
 _atom_site_fract_x
 _atom_site_fract_y
 _atom_site_fract_z
 _atom_site_occupancy
  Y  Y0  1  0.88452000  0.23805000  0.94790000  1.0
  Y  Y1  1  0.11547000  0.76195000  0.05210000  1.0
  H  H2  1  0.47619000  0.32553000  0.95228000  1.0
  H  H3  1  0.52380000  0.67447000  0.04772000  1.0
  H  H4  1  0.67507000  0.47498000  0.02443000  1.0
  H  H5  1  0.32493000  0.52502000  0.97557000  1.0
  H  H6  1  0.69705000  0.40078000  0.18539000  1.0
  H  H7  1  0.30295000  0.59922000  0.81461000  1.0
  H  H8  1  0.69303000  0.38044000  0.38365000  1.0
  H  H9  1  0.30697000  0.61956000  0.61635000  1.0
  H  H10  1  0.79121000  0.90338000  0.45485000  1.0
  H  H11  1  0.20879000  0.09662000  0.54515000  1.0
  H  H12  1  0.79143000  0.90196000  0.24962000  1.0
  H  H13  1  0.20856000  0.09804000  0.75038000  1.0
  H  H14  1  0.76066000  0.40401000  0.57860000  1.0
  H  H15  1  0.23934000  0.59599000  0.42140000  1.0
  C  C16  1  0.71864000  0.50715000  0.24941000  1.0
  C  C17  1  0.28135000  0.49285000  0.75059000  1.0
  C  C18  1  0.71891000  0.50033000  0.36034000  1.0
  C  C19  1  0.28109000  0.49967000  0.63966000  1.0
  C  C20  1  0.75130000  0.64400000  0.43824000  1.0
  C  C21  1  0.24870000  0.35600000  0.56175000  1.0
  C  C22  1  0.77196000  0.79060000  0.39771000  1.0
  C  C23  1  0.22804000  0.20940000  0.60229000  1.0
  C  C24  1  0.77220000  0.79353000  0.28677000  1.0
  C  C25  1  0.22779000  0.20647000  0.71323000  1.0
  C  C26  1  0.77178000  0.64986000  0.55748000  1.0
  C  C27  1  0.22823000  0.35014000  0.44252000  1.0
  C  C28  1  0.82219000  0.58090000  0.72395000  1.0
  C  C29  1  0.17781000  0.41909000  0.27605000  1.0
  C  C30  1  0.83442000  0.74655000  0.73555000  1.0
  C  C31  1  0.16558000  0.25345000  0.26445000  1.0
  C  C32  1  0.86819000  0.86883000  0.84016000  1.0
  C  C33  1  0.13181000  0.13117000  0.15984000  1.0
  C  C34  1  0.44423000  0.97912000  0.93723000  1.0
  C  C35  1  0.55579000  0.02089000  0.06276000  1.0
  C  C36  1  0.85716000  0.46987000  0.79959000  1.0
  C  C37  1  0.14284000  0.53013000  0.20041000  1.0
  N  N38  1  0.75182000  0.65360000  0.21527000  1.0
  N  N39  1  0.24818000  0.34640000  0.78473000  1.0
  N  N40  1  0.77978000  0.52286000  0.61080000  1.0
  N  N41  1  0.22022000  0.47714000  0.38920000  1.0
  N  N42  1  0.80300000  0.78602000  0.63214000  1.0
  N  N43  1  0.19700000  0.21399000  0.36786000  1.0
  O  O44  1  0.79025000  0.31615000  0.76099000  1.0
  O  O45  1  0.20974000  0.68385000  0.23901000  1.0
  O  O46  1  0.96106000  0.52875000  0.90019000  1.0
  O  O47  1  0.03894000  0.47125000  0.09981000  1.0
  O  O48  1  0.85646000  0.81651000  0.93094000  1.0
  O  O49  1  0.14354000  0.18349000  0.06906000  1.0
  O  O50  1  0.90162000  0.01670000  0.82977000  1.0
  O  O51  1  0.09839000  0.98330000  0.17023000  1.0
  O  O52  1  0.76354000  0.66264000  0.10947000  1.0
  O  O53  1  0.23646000  0.33736000  0.89053000  1.0
  O  O54  1  0.26155000  0.87638000  0.91073000  1.0
  O  O55  1  0.73845000  0.12362000  0.08928000  1.0
  O  O56  1  0.54322000  0.05048000  0.87112000  1.0
  O  O57  1  0.45678000  0.94951000  0.12889000  1.0
  O  O58  1  0.62800000  0.36049000  0.98124000  1.0
  O  O59  1  0.37200000  0.63951000  0.01876000  1.0
