# generated using pymatgen
data_CdH7C6SN3O5
_symmetry_space_group_name_H-M   'P 1'
_cell_length_a   8.71901000
_cell_length_b   9.39398000
_cell_length_c   11.85250000
_cell_angle_alpha   90.89430000
_cell_angle_beta   89.99990000
_cell_angle_gamma   90.00000000
_symmetry_Int_Tables_number   1
_chemical_formula_structural   CdH7C6SN3O5
_chemical_formula_sum   'Cd4 H28 C24 S4 N12 O20'
_cell_volume   970.67504922
_cell_formula_units_Z   4
loop_
 _symmetry_equiv_pos_site_id
 _symmetry_equiv_pos_as_xyz
  1  'x, y, z'
loop_
 _atom_site_type_symbol
 _atom_site_label
 _atom_site_symmetry_multiplicity
 _atom_site_fract_x
 _atom_site_fract_y
 _atom_site_fract_z
 _atom_site_occupancy
  Cd  Cd0  1  0.81070000  0.35449000  0.66328000  1.0
  Cd  Cd1  1  0.31070000  0.14551000  0.83672000  1.0
  Cd  Cd2  1  0.18930000  0.64551000  0.33672000  1.0
  Cd  Cd3  1  0.68930000  0.85449000  0.16328000  1.0
  H  H4  1  0.13842000  0.38706000  0.65219000  1.0
  H  H5  1  0.63842000  0.11294000  0.84781000  1.0
  H  H6  1  0.86158000  0.61295000  0.34781000  1.0
  H  H7  1  0.36158000  0.88706000  0.15219000  1.0
  H  H8  1  0.08320000  0.37359000  0.52530000  1.0
  H  H9  1  0.58320000  0.12640000  0.97470000  1.0
  H  H10  1  0.91680000  0.62641000  0.47470000  1.0
  H  H11  1  0.41680000  0.87360000  0.02530000  1.0
  H  H12  1  0.40426000  0.52935000  0.57094000  1.0
  H  H13  1  0.90426000  0.97065000  0.92906000  1.0
  H  H14  1  0.59574000  0.47065000  0.42906000  1.0
  H  H15  1  0.09574000  0.02935000  0.07094000  1.0
  H  H16  1  0.44102000  0.59640000  0.70854000  1.0
  H  H17  1  0.94102000  0.90360000  0.79146000  1.0
  H  H18  1  0.55898000  0.40360000  0.29147000  1.0
  H  H19  1  0.05898000  0.09640000  0.20854000  1.0
  H  H20  1  0.65153000  0.84245000  0.87764000  1.0
  H  H21  1  0.15154000  0.65755000  0.62236000  1.0
  H  H22  1  0.34847000  0.15754000  0.12236000  1.0
  H  H23  1  0.84846000  0.34245000  0.37764000  1.0
  H  H24  1  0.79871000  0.54116000  0.10886000  1.0
  H  H25  1  0.29871000  0.95884000  0.39114000  1.0
  H  H26  1  0.20129000  0.45884000  0.89115000  1.0
  H  H27  1  0.70129000  0.04116000  0.60886000  1.0
  H  H28  1  0.87361000  0.37542000  0.94812000  1.0
  H  H29  1  0.37361000  0.12458000  0.55188000  1.0
  H  H30  1  0.12639000  0.62458000  0.05188000  1.0
  H  H31  1  0.62639000  0.87542000  0.44812000  1.0
  C  C32  1  0.45001000  0.37232000  0.69105000  1.0
  C  C33  1  0.95001000  0.12767000  0.80895000  1.0
  C  C34  1  0.54999000  0.62768000  0.30895000  1.0
  C  C35  1  0.04999000  0.87233000  0.19105000  1.0
  C  C36  1  0.48106000  0.51898000  0.64422000  1.0
  C  C37  1  0.98106000  0.98102000  0.85578000  1.0
  C  C38  1  0.51894000  0.48102000  0.35578000  1.0
  C  C39  1  0.01894000  0.01898000  0.14421000  1.0
  C  C40  1  0.74755000  0.64731000  0.80572000  1.0
  C  C41  1  0.24755000  0.85269000  0.69429000  1.0
  C  C42  1  0.25245000  0.35269000  0.19429000  1.0
  C  C43  1  0.75245000  0.14731000  0.30571000  1.0
  C  C44  1  0.70405000  0.73935000  0.89350000  1.0
  C  C45  1  0.20405000  0.76065000  0.60650000  1.0
  C  C46  1  0.29596000  0.26065000  0.10650000  1.0
  C  C47  1  0.79595000  0.23935000  0.39350000  1.0
  C  C48  1  0.78434000  0.57200000  0.02130000  1.0
  C  C49  1  0.28434000  0.92800000  0.47870000  1.0
  C  C50  1  0.21566000  0.42800000  0.97870000  1.0
  C  C51  1  0.71566000  0.07200000  0.52130000  1.0
  C  C52  1  0.82585000  0.48033000  0.93255000  1.0
  C  C53  1  0.32586000  0.01967000  0.56745000  1.0
  C  C54  1  0.17415000  0.51967000  0.06745000  1.0
  C  C55  1  0.67415000  0.98033000  0.43255000  1.0
  S  S56  1  0.71125000  0.68498000  0.65846000  1.0
  S  S57  1  0.21126000  0.81503000  0.84155000  1.0
  S  S58  1  0.28875000  0.31502000  0.34154000  1.0
  S  S59  1  0.78874000  0.18497000  0.15845000  1.0
  N  N60  1  0.64098000  0.54281000  0.61023000  1.0
  N  N61  1  0.14098000  0.95719000  0.88977000  1.0
  N  N62  1  0.35902000  0.45719000  0.38977000  1.0
  N  N63  1  0.85902000  0.04281000  0.11023000  1.0
  N  N64  1  0.80580000  0.51819000  0.82543000  1.0
  N  N65  1  0.30581000  0.98181000  0.67457000  1.0
  N  N66  1  0.19420000  0.48181000  0.17457000  1.0
  N  N67  1  0.69420000  0.01819000  0.32543000  1.0
  N  N68  1  0.72287000  0.70008000  0.00121000  1.0
  N  N69  1  0.22287000  0.79992000  0.49879000  1.0
  N  N70  1  0.27713000  0.29992000  0.99879000  1.0
  N  N71  1  0.77713000  0.20008000  0.50121000  1.0
  O  O72  1  0.55414000  0.27984000  0.69698000  1.0
  O  O73  1  0.05413000  0.22017000  0.80302000  1.0
  O  O74  1  0.44586000  0.72017000  0.30302000  1.0
  O  O75  1  0.94586000  0.77983000  0.19698000  1.0
  O  O76  1  0.31226000  0.34885000  0.72418000  1.0
  O  O77  1  0.81225000  0.15114000  0.77582000  1.0
  O  O78  1  0.68774000  0.65115000  0.27582000  1.0
  O  O79  1  0.18774000  0.84886000  0.22418000  1.0
  O  O80  1  0.86160000  0.70728000  0.60661000  1.0
  O  O81  1  0.36159000  0.79272000  0.89339000  1.0
  O  O82  1  0.13840000  0.29272000  0.39339000  1.0
  O  O83  1  0.63841000  0.20729000  0.10661000  1.0
  O  O84  1  0.60779000  0.80665000  0.66157000  1.0
  O  O85  1  0.10778000  0.69335000  0.83843000  1.0
  O  O86  1  0.39221000  0.19335000  0.33843000  1.0
  O  O87  1  0.89222000  0.30665000  0.16157000  1.0
  O  O88  1  0.05447000  0.41451000  0.59994000  1.0
  O  O89  1  0.55447000  0.08549000  0.90006000  1.0
  O  O90  1  0.94553000  0.58549000  0.40006000  1.0
  O  O91  1  0.44553000  0.91451000  0.09994000  1.0
