# generated using pymatgen
data_EuH14C21NO10
_symmetry_space_group_name_H-M   'P 1'
_cell_length_a   8.84778000
_cell_length_b   14.04690000
_cell_length_c   18.15160000
_cell_angle_alpha   89.99950000
_cell_angle_beta   89.99960000
_cell_angle_gamma   75.37500000
_symmetry_Int_Tables_number   1
_chemical_formula_structural   EuH14C21NO10
_chemical_formula_sum   'Eu4 H56 C84 N4 O40'
_cell_volume   2182.85642265
_cell_formula_units_Z   4
loop_
 _symmetry_equiv_pos_site_id
 _symmetry_equiv_pos_as_xyz
  1  'x, y, z'
loop_
 _atom_site_type_symbol
 _atom_site_label
 _atom_site_symmetry_multiplicity
 _atom_site_fract_x
 _atom_site_fract_y
 _atom_site_fract_z
 _atom_site_occupancy
  Eu  Eu0  1  0.69657000  0.48636000  0.07714000  1.0
  Eu  Eu1  1  0.30343000  0.01364000  0.57714000  1.0
  Eu  Eu2  1  0.30343000  0.51364000  0.92286000  1.0
  Eu  Eu3  1  0.69657000  0.98636000  0.42286000  1.0
  H  H4  1  0.30456000  0.79690000  0.79773000  1.0
  H  H5  1  0.69544000  0.70310000  0.29773000  1.0
  H  H6  1  0.69544000  0.20310000  0.20227000  1.0
  H  H7  1  0.30456000  0.29690000  0.70227000  1.0
  H  H8  1  0.56008000  0.81371000  0.73628000  1.0
  H  H9  1  0.43992000  0.68629000  0.23628000  1.0
  H  H10  1  0.43992000  0.18629000  0.26372000  1.0
  H  H11  1  0.56008000  0.31371000  0.76372000  1.0
  H  H12  1  0.20326000  0.93035000  0.00106000  1.0
  H  H13  1  0.79674000  0.56965000  0.50106000  1.0
  H  H14  1  0.79674000  0.06965000  0.99894000  1.0
  H  H15  1  0.20326000  0.43035000  0.49894000  1.0
  H  H16  1  0.67175000  0.75353000  0.95908000  1.0
  H  H17  1  0.32825000  0.74647000  0.45908000  1.0
  H  H18  1  0.32825000  0.24647000  0.04092000  1.0
  H  H19  1  0.67175000  0.25353000  0.54092000  1.0
  H  H20  1  0.44326000  0.06242000  0.18305000  1.0
  H  H21  1  0.55674000  0.43758000  0.68305000  1.0
  H  H22  1  0.55674000  0.93758000  0.81695000  1.0
  H  H23  1  0.44326000  0.56242000  0.31695000  1.0
  H  H24  1  0.35771000  0.01783000  0.06024000  1.0
  H  H25  1  0.64229000  0.48217000  0.56024000  1.0
  H  H26  1  0.64229000  0.98217000  0.93976000  1.0
  H  H27  1  0.35771000  0.51783000  0.43976000  1.0
  H  H28  1  0.87900000  0.47853000  0.80126000  1.0
  H  H29  1  0.12100000  0.02147000  0.30126000  1.0
  H  H30  1  0.12100000  0.52147000  0.19874000  1.0
  H  H31  1  0.87900000  0.97853000  0.69874000  1.0
  H  H32  1  0.75778000  0.77515000  0.20163000  1.0
  H  H33  1  0.24222000  0.72485000  0.70163000  1.0
  H  H34  1  0.24222000  0.22485000  0.79837000  1.0
  H  H35  1  0.75778000  0.27515000  0.29837000  1.0
  H  H36  1  0.75155000  0.71650000  0.64658000  1.0
  H  H37  1  0.24845000  0.78350000  0.14658000  1.0
  H  H38  1  0.24845000  0.28350000  0.35342000  1.0
  H  H39  1  0.75155000  0.21650000  0.85342000  1.0
  H  H40  1  0.09415000  0.41495000  0.64099000  1.0
  H  H41  1  0.90585000  0.08505000  0.14099000  1.0
  H  H42  1  0.90585000  0.58505000  0.35901000  1.0
  H  H43  1  0.09415000  0.91495000  0.85901000  1.0
  H  H44  1  0.82374000  0.30400000  0.98145000  1.0
  H  H45  1  0.17625000  0.19600000  0.48145000  1.0
  H  H46  1  0.17626000  0.69600000  0.01855000  1.0
  H  H47  1  0.82374000  0.80400000  0.51855000  1.0
  H  H48  1  0.63645000  0.32892000  0.97193000  1.0
  H  H49  1  0.36355000  0.17108000  0.47193000  1.0
  H  H50  1  0.36355000  0.67108000  0.02807000  1.0
  H  H51  1  0.63645000  0.82892000  0.52807000  1.0
  H  H52  1  0.05768000  0.42691000  0.06638000  1.0
  H  H53  1  0.94232000  0.07308000  0.56638000  1.0
  H  H54  1  0.94232000  0.57308000  0.93362000  1.0
  H  H55  1  0.05768000  0.92691000  0.43362000  1.0
  H  H56  1  0.98575000  0.37028000  0.12908000  1.0
  H  H57  1  0.01425000  0.12972000  0.62908000  1.0
  H  H58  1  0.01425000  0.62972000  0.87092000  1.0
  H  H59  1  0.98575000  0.87028000  0.37092000  1.0
  C  C60  1  0.34801000  0.80799000  0.85237000  1.0
  C  C61  1  0.65199000  0.69201000  0.35237000  1.0
  C  C62  1  0.65199000  0.19201000  0.14763000  1.0
  C  C63  1  0.34801000  0.30799000  0.64763000  1.0
  C  C64  1  0.62931000  0.74001000  0.75057000  1.0
  C  C65  1  0.37069000  0.75999000  0.25057000  1.0
  C  C66  1  0.37069000  0.25999000  0.24943000  1.0
  C  C67  1  0.62931000  0.24001000  0.74943000  1.0
  C  C68  1  0.29271000  0.88444000  0.96586000  1.0
  C  C69  1  0.70729000  0.61556000  0.46586000  1.0
  C  C70  1  0.70729000  0.11556000  0.03414000  1.0
  C  C71  1  0.29271000  0.38444000  0.53414000  1.0
  C  C72  1  0.82622000  0.59239000  0.71845000  1.0
  C  C73  1  0.17377000  0.90761000  0.21845000  1.0
  C  C74  1  0.17377000  0.40761000  0.28155000  1.0
  C  C75  1  0.82623000  0.09239000  0.78155000  1.0
  C  C76  1  0.60962000  0.79901000  0.10597000  1.0
  C  C77  1  0.39038000  0.70099000  0.60597000  1.0
  C  C78  1  0.39038000  0.20099000  0.89403000  1.0
  C  C79  1  0.60962000  0.29901000  0.39403000  1.0
  C  C80  1  0.50182000  0.76245000  0.87279000  1.0
  C  C81  1  0.49818000  0.73755000  0.37279000  1.0
  C  C82  1  0.49818000  0.23755000  0.12721000  1.0
  C  C83  1  0.50182000  0.26245000  0.62721000  1.0
  C  C84  1  0.64964000  0.69112000  0.09021000  1.0
  C  C85  1  0.35036000  0.80888000  0.59021000  1.0
  C  C86  1  0.35035000  0.30888000  0.90979000  1.0
  C  C87  1  0.64964000  0.19112000  0.40979000  1.0
  C  C88  1  0.61060000  0.70065000  0.82003000  1.0
  C  C89  1  0.38941000  0.79935000  0.32003000  1.0
  C  C90  1  0.38940000  0.29935000  0.17997000  1.0
  C  C91  1  0.61059000  0.20065000  0.67997000  1.0
  C  C92  1  0.44556000  0.84430000  0.99107000  1.0
  C  C93  1  0.55444000  0.65570000  0.49107000  1.0
  C  C94  1  0.55444000  0.15570000  0.00893000  1.0
  C  C95  1  0.44556000  0.34430000  0.50893000  1.0
  C  C96  1  0.49805000  0.86823000  0.06420000  1.0
  C  C97  1  0.50195000  0.63177000  0.56420000  1.0
  C  C98  1  0.50195000  0.13177000  0.93580000  1.0
  C  C99  1  0.49805000  0.36822000  0.43580000  1.0
  C  C100  1  0.55010000  0.78297000  0.94278000  1.0
  C  C101  1  0.44990000  0.71703000  0.44278000  1.0
  C  C102  1  0.44990000  0.21703000  0.05722000  1.0
  C  C103  1  0.55010000  0.28297000  0.55722000  1.0
  C  C104  1  0.70122000  0.60558000  0.83851000  1.0
  C  C105  1  0.29878000  0.89442000  0.33851000  1.0
  C  C106  1  0.29878000  0.39442000  0.16149000  1.0
  C  C107  1  0.70122000  0.10558000  0.66149000  1.0
  C  C108  1  0.49290000  0.98975000  0.16005000  1.0
  C  C109  1  0.50710000  0.51025000  0.66005000  1.0
  C  C110  1  0.50710000  0.01025000  0.83995000  1.0
  C  C111  1  0.49290000  0.48975000  0.33995000  1.0
  C  C112  1  0.44229000  0.96369000  0.09228000  1.0
  C  C113  1  0.55771000  0.53631000  0.59228000  1.0
  C  C114  1  0.55771000  0.03631000  0.90772000  1.0
  C  C115  1  0.44229000  0.46369000  0.40772000  1.0
  C  C116  1  0.80915000  0.55217000  0.78769000  1.0
  C  C117  1  0.19085000  0.94783000  0.28769000  1.0
  C  C118  1  0.19085000  0.44783000  0.21231000  1.0
  C  C119  1  0.80915000  0.05217000  0.71231000  1.0
  C  C120  1  0.60867000  0.92276000  0.19946000  1.0
  C  C121  1  0.39133000  0.57724000  0.69946000  1.0
  C  C122  1  0.39133000  0.07724000  0.80054000  1.0
  C  C123  1  0.60867000  0.42276000  0.30054000  1.0
  C  C124  1  0.66887000  0.82825000  0.17107000  1.0
  C  C125  1  0.33113000  0.67175000  0.67107000  1.0
  C  C126  1  0.33113000  0.17175000  0.82893000  1.0
  C  C127  1  0.66887000  0.32825000  0.32893000  1.0
  C  C128  1  0.73626000  0.68653000  0.70059000  1.0
  C  C129  1  0.26374000  0.81347000  0.20059000  1.0
  C  C130  1  0.26374000  0.31347000  0.29941000  1.0
  C  C131  1  0.73626000  0.18653000  0.79941000  1.0
  C  C132  1  0.93688000  0.53767000  0.66140000  1.0
  C  C133  1  0.06312000  0.96233000  0.16140000  1.0
  C  C134  1  0.06311000  0.46233000  0.33860000  1.0
  C  C135  1  0.93688000  0.03767000  0.83860000  1.0
  C  C136  1  0.67987000  0.55948000  0.91126000  1.0
  C  C137  1  0.32013000  0.94052000  0.41126000  1.0
  C  C138  1  0.32013000  0.44052000  0.08874000  1.0
  C  C139  1  0.67987000  0.05948000  0.58874000  1.0
  C  C140  1  0.65710000  0.94998000  0.27352000  1.0
  C  C141  1  0.34290000  0.55002000  0.77352000  1.0
  C  C142  1  0.34290000  0.05002000  0.72648000  1.0
  C  C143  1  0.65710000  0.44998000  0.22648000  1.0
  N  N144  1  0.24725000  0.86658000  0.89791000  1.0
  N  N145  1  0.75275000  0.63342000  0.39791000  1.0
  N  N146  1  0.75276000  0.13342000  0.10209000  1.0
  N  N147  1  0.24725000  0.36658000  0.60209000  1.0
  O  O148  1  0.53963000  0.65310000  0.06703000  1.0
  O  O149  1  0.46037000  0.84690000  0.56703000  1.0
  O  O150  1  0.46037000  0.34690000  0.93297000  1.0
  O  O151  1  0.53963000  0.15310000  0.43297000  1.0
  O  O152  1  0.78446000  0.63629000  0.10348000  1.0
  O  O153  1  0.21554000  0.86371000  0.60348000  1.0
  O  O154  1  0.21554000  0.36371000  0.89652000  1.0
  O  O155  1  0.78446000  0.13629000  0.39652000  1.0
  O  O156  1  0.79568000  0.53468000  0.95557000  1.0
  O  O157  1  0.20431000  0.96532000  0.45557000  1.0
  O  O158  1  0.20432000  0.46532000  0.04443000  1.0
  O  O159  1  0.79569000  0.03468000  0.54443000  1.0
  O  O160  1  0.00442000  0.44531000  0.67973000  1.0
  O  O161  1  0.99558000  0.05469000  0.17973000  1.0
  O  O162  1  0.99558000  0.55469000  0.32027000  1.0
  O  O163  1  0.00442000  0.94531000  0.82027000  1.0
  O  O164  1  0.96004000  0.57661000  0.60279000  1.0
  O  O165  1  0.03996000  0.92339000  0.10279000  1.0
  O  O166  1  0.03996000  0.42339000  0.39721000  1.0
  O  O167  1  0.96004000  0.07661000  0.89721000  1.0
  O  O168  1  0.54776000  0.54608000  0.92831000  1.0
  O  O169  1  0.45224000  0.95392000  0.42831000  1.0
  O  O170  1  0.45224000  0.45392000  0.07169000  1.0
  O  O171  1  0.54776000  0.04608000  0.57169000  1.0
  O  O172  1  0.59632000  0.03570000  0.29927000  1.0
  O  O173  1  0.40368000  0.46430000  0.79927000  1.0
  O  O174  1  0.40368000  0.96430000  0.70073000  1.0
  O  O175  1  0.59632000  0.53570000  0.20073000  1.0
  O  O176  1  0.75373000  0.88575000  0.31250000  1.0
  O  O177  1  0.24627000  0.61425000  0.81250000  1.0
  O  O178  1  0.24627000  0.11425000  0.68750000  1.0
  O  O179  1  0.75373000  0.38575000  0.18750000  1.0
  O  O180  1  0.72468000  0.34041000  0.00199000  1.0
  O  O181  1  0.27532000  0.15959000  0.50199000  1.0
  O  O182  1  0.27532000  0.65959000  0.99801000  1.0
  O  O183  1  0.72468000  0.84041000  0.49801000  1.0
  O  O184  1  0.96544000  0.40011000  0.08040000  1.0
  O  O185  1  0.03456000  0.09989000  0.58040000  1.0
  O  O186  1  0.03456000  0.59989000  0.91960000  1.0
  O  O187  1  0.96544000  0.90011000  0.41960000  1.0
