# generated using pymatgen
data_CuH12C18N2(O3F2)2
_symmetry_space_group_name_H-M   'P 1'
_cell_length_a   7.43880000
_cell_length_b   11.07000000
_cell_length_c   12.79570000
_cell_angle_alpha   89.99910000
_cell_angle_beta   90.00040000
_cell_angle_gamma   89.99910000
_symmetry_Int_Tables_number   1
_chemical_formula_structural   CuH12C18N2(O3F2)2
_chemical_formula_sum   'Cu2 H24 C36 N4 O12 F8'
_cell_volume   1053.69411020
_cell_formula_units_Z   2
loop_
 _symmetry_equiv_pos_site_id
 _symmetry_equiv_pos_as_xyz
  1  'x, y, z'
loop_
 _atom_site_type_symbol
 _atom_site_label
 _atom_site_symmetry_multiplicity
 _atom_site_fract_x
 _atom_site_fract_y
 _atom_site_fract_z
 _atom_site_occupancy
  Cu  Cu0  1  0.50000000  0.68900000  0.50000000  1.0
  Cu  Cu1  1  0.00000000  0.31101000  0.00000000  1.0
  H  H2  1  0.78625000  0.66055000  0.36855000  1.0
  H  H3  1  0.21375000  0.66055000  0.63145000  1.0
  H  H4  1  0.28625000  0.33945000  0.13145000  1.0
  H  H5  1  0.71375000  0.33945000  0.86854000  1.0
  H  H6  1  0.59092000  0.63515000  0.31404000  1.0
  H  H7  1  0.40908000  0.63515000  0.68596000  1.0
  H  H8  1  0.09092000  0.36485000  0.18596000  1.0
  H  H9  1  0.90908000  0.36486000  0.81403000  1.0
  H  H10  1  0.43795000  0.87778000  0.65744000  1.0
  H  H11  1  0.56205000  0.87778000  0.34256000  1.0
  H  H12  1  0.93795000  0.12222000  0.84256000  1.0
  H  H13  1  0.06205000  0.12222000  0.15744000  1.0
  H  H14  1  0.43773000  0.10356000  0.66446000  1.0
  H  H15  1  0.56227000  0.10357000  0.33554000  1.0
  H  H16  1  0.93773000  0.89644000  0.83554000  1.0
  H  H17  1  0.06227000  0.89644000  0.16446000  1.0
  H  H18  1  0.63925000  0.27535000  0.64866000  1.0
  H  H19  1  0.36075000  0.27536000  0.35133000  1.0
  H  H20  1  0.13925000  0.72465000  0.85134000  1.0
  H  H21  1  0.86075000  0.72465000  0.14867000  1.0
  H  H22  1  0.64287000  0.50084000  0.63885000  1.0
  H  H23  1  0.35712000  0.50085000  0.36114000  1.0
  H  H24  1  0.14287000  0.49916000  0.86115000  1.0
  H  H25  1  0.85712000  0.49916000  0.13886000  1.0
  C  C26  1  0.46620000  0.93204000  0.58853000  1.0
  C  C27  1  0.53379000  0.93204000  0.41147000  1.0
  C  C28  1  0.96620000  0.06796000  0.91147000  1.0
  C  C29  1  0.03379000  0.06796000  0.08853000  1.0
  C  C30  1  0.46651000  0.05739000  0.59149000  1.0
  C  C31  1  0.53348000  0.05739000  0.40851000  1.0
  C  C32  1  0.96652000  0.94261000  0.90851000  1.0
  C  C33  1  0.03348000  0.94261000  0.09150000  1.0
  C  C34  1  0.49999000  0.12273000  0.50000000  1.0
  C  C35  1  0.00000000  0.87727000  0.00000000  1.0
  C  C36  1  0.50000000  0.25585000  0.50000000  1.0
  C  C37  1  1.00000000  0.74415000  0.00001000  1.0
  C  C38  1  0.57624000  0.32106000  0.58277000  1.0
  C  C39  1  0.42375000  0.32106000  0.41723000  1.0
  C  C40  1  0.07624000  0.67894000  0.91723000  1.0
  C  C41  1  0.92375000  0.67894000  0.08278000  1.0
  C  C42  1  0.57669000  0.44633000  0.57921000  1.0
  C  C43  1  0.42330000  0.44634000  0.42079000  1.0
  C  C44  1  0.07669000  0.55367000  0.92080000  1.0
  C  C45  1  0.92331000  0.55366000  0.07921000  1.0
  C  C46  1  0.10022000  0.69886000  0.39469000  1.0
  C  C47  1  0.89978000  0.69886000  0.60532000  1.0
  C  C48  1  0.60023000  0.30114000  0.10531000  1.0
  C  C49  1  0.39978000  0.30114000  0.89468000  1.0
  C  C50  1  0.04507000  0.81446000  0.45156000  1.0
  C  C51  1  0.95492000  0.81446000  0.54844000  1.0
  C  C52  1  0.54509000  0.18554000  0.04844000  1.0
  C  C53  1  0.45493000  0.18554000  0.95156000  1.0
  C  C54  1  0.08616000  0.92519000  0.40552000  1.0
  C  C55  1  0.91385000  0.92519000  0.59448000  1.0
  C  C56  1  0.58616000  0.07481000  0.09448000  1.0
  C  C57  1  0.41386000  0.07481000  0.90553000  1.0
  C  C58  1  0.04223000  0.03533000  0.45148000  1.0
  C  C59  1  0.95777000  0.03533000  0.54852000  1.0
  C  C60  1  0.54224000  0.96466000  0.04853000  1.0
  C  C61  1  0.45778000  0.96467000  0.95148000  1.0
  N  N62  1  0.50000000  0.87014000  0.50000000  1.0
  N  N63  1  0.00000000  0.12986000  0.00000000  1.0
  N  N64  1  0.50000000  0.50782000  0.50000000  1.0
  N  N65  1  1.00000000  0.49218000  0.00000000  1.0
  O  O66  1  0.97704000  0.62652000  0.36630000  1.0
  O  O67  1  0.02296000  0.62652000  0.63370000  1.0
  O  O68  1  0.47705000  0.37348000  0.13369000  1.0
  O  O69  1  0.52295000  0.37347000  0.86629000  1.0
  O  O70  1  0.26597000  0.68545000  0.37822000  1.0
  O  O71  1  0.73403000  0.68545000  0.62178000  1.0
  O  O72  1  0.76597000  0.31455000  0.12178000  1.0
  O  O73  1  0.23403000  0.31455000  0.87823000  1.0
  O  O74  1  0.65170000  0.68824000  0.36332000  1.0
  O  O75  1  0.34830000  0.68823000  0.63667000  1.0
  O  O76  1  0.15170000  0.31177000  0.13668000  1.0
  O  O77  1  0.84830000  0.31178000  0.86331000  1.0
  F  F78  1  0.17237000  0.92987000  0.31177000  1.0
  F  F79  1  0.82764000  0.92987000  0.68824000  1.0
  F  F80  1  0.67239000  0.07012000  0.18824000  1.0
  F  F81  1  0.32764000  0.07013000  0.81176000  1.0
  F  F82  1  0.08035000  0.14081000  0.40310000  1.0
  F  F83  1  0.91966000  0.14080000  0.59690000  1.0
  F  F84  1  0.58035000  0.85919000  0.09690000  1.0
  F  F85  1  0.41966000  0.85919000  0.90311000  1.0
