# generated using pymatgen
data_CuH16C14(N2O3)2
_symmetry_space_group_name_H-M   'P 1'
_cell_length_a   7.99802000
_cell_length_b   9.74803000
_cell_length_c   10.82820000
_cell_angle_alpha   77.29900000
_cell_angle_beta   89.99990000
_cell_angle_gamma   89.99990000
_symmetry_Int_Tables_number   1
_chemical_formula_structural   CuH16C14(N2O3)2
_chemical_formula_sum   'Cu2 H32 C28 N8 O12'
_cell_volume   823.56248585
_cell_formula_units_Z   2
loop_
 _symmetry_equiv_pos_site_id
 _symmetry_equiv_pos_as_xyz
  1  'x, y, z'
loop_
 _atom_site_type_symbol
 _atom_site_label
 _atom_site_symmetry_multiplicity
 _atom_site_fract_x
 _atom_site_fract_y
 _atom_site_fract_z
 _atom_site_occupancy
  Cu  Cu0  1  0.50000000  0.50000000  0.50000000  1.0
  Cu  Cu1  1  0.00000000  0.00000000  0.00000000  1.0
  H  H2  1  0.52932000  0.27136000  0.73756000  1.0
  H  H3  1  0.02932000  0.22864000  0.76243000  1.0
  H  H4  1  0.47068000  0.72864000  0.26244000  1.0
  H  H5  1  0.97068000  0.77136000  0.23757000  1.0
  H  H6  1  0.69482000  0.36405000  0.70720000  1.0
  H  H7  1  0.19482000  0.13595000  0.79280000  1.0
  H  H8  1  0.30518000  0.63595000  0.29280000  1.0
  H  H9  1  0.80518000  0.86405000  0.20720000  1.0
  H  H10  1  0.68606000  0.78849000  0.39506000  1.0
  H  H11  1  0.18606000  0.71152000  0.10494000  1.0
  H  H12  1  0.31394000  0.21151000  0.60494000  1.0
  H  H13  1  0.81394000  0.28848000  0.89506000  1.0
  H  H14  1  0.47262000  0.62144000  0.75232000  1.0
  H  H15  1  0.97263000  0.87856000  0.74768000  1.0
  H  H16  1  0.52738000  0.37856000  0.24768000  1.0
  H  H17  1  0.02737000  0.12144000  0.25232000  1.0
  H  H18  1  0.60247000  0.88841000  0.75101000  1.0
  H  H19  1  0.10248000  0.61159000  0.74899000  1.0
  H  H20  1  0.39752000  0.11159000  0.24899000  1.0
  H  H21  1  0.89752000  0.38841000  0.25101000  1.0
  H  H22  1  0.78189000  0.01840000  0.41106000  1.0
  H  H23  1  0.28189000  0.48160000  0.08894000  1.0
  H  H24  1  0.21811000  0.98160000  0.58894000  1.0
  H  H25  1  0.71811000  0.51839000  0.91106000  1.0
  H  H26  1  0.75173000  0.09150000  0.67628000  1.0
  H  H27  1  0.25173000  0.40850000  0.82373000  1.0
  H  H28  1  0.24827000  0.90850000  0.32372000  1.0
  H  H29  1  0.74827000  0.59150000  0.17627000  1.0
  H  H30  1  0.84241000  0.20078000  0.52887000  1.0
  H  H31  1  0.34241000  0.29922000  0.97113000  1.0
  H  H32  1  0.15759000  0.79922000  0.47113000  1.0
  H  H33  1  0.65759000  0.70078000  0.02887000  1.0
  C  C34  1  0.64488000  0.77640000  0.49191000  1.0
  C  C35  1  0.14488000  0.72361000  0.00809000  1.0
  C  C36  1  0.35512000  0.22360000  0.50809000  1.0
  C  C37  1  0.85512000  0.27640000  0.99192000  1.0
  C  C38  1  0.53566000  0.69654000  0.67843000  1.0
  C  C39  1  0.03566000  0.80346000  0.82157000  1.0
  C  C40  1  0.46434000  0.30346000  0.32157000  1.0
  C  C41  1  0.96434000  0.19654000  0.17843000  1.0
  C  C42  1  0.87903000  0.50004000  0.46257000  1.0
  C  C43  1  0.37903000  0.99996000  0.03743000  1.0
  C  C44  1  0.12096000  0.49996000  0.53743000  1.0
  C  C45  1  0.62097000  0.00004000  0.96257000  1.0
  C  C46  1  0.59940000  0.82702000  0.67914000  1.0
  C  C47  1  0.09940000  0.67298000  0.82086000  1.0
  C  C48  1  0.40060000  0.17298000  0.32086000  1.0
  C  C49  1  0.90060000  0.32702000  0.17914000  1.0
  C  C50  1  0.04479000  0.54965000  0.41040000  1.0
  C  C51  1  0.54478000  0.95035000  0.08961000  1.0
  C  C52  1  0.95521000  0.45035000  0.58961000  1.0
  C  C53  1  0.45521000  0.04965000  0.91039000  1.0
  C  C54  1  0.74849000  0.00653000  0.51045000  1.0
  C  C55  1  0.24849000  0.49347000  0.98955000  1.0
  C  C56  1  0.25151000  0.99347000  0.48955000  1.0
  C  C57  1  0.75150000  0.50653000  0.01045000  1.0
  C  C58  1  0.78101000  0.10407000  0.57619000  1.0
  C  C59  1  0.28101000  0.39592000  0.92381000  1.0
  C  C60  1  0.21899000  0.89593000  0.42381000  1.0
  C  C61  1  0.71898000  0.60407000  0.07619000  1.0
  N  N62  1  0.56516000  0.66657000  0.56110000  1.0
  N  N63  1  0.06516000  0.83344000  0.93889000  1.0
  N  N64  1  0.43484000  0.33344000  0.43889000  1.0
  N  N65  1  0.93484000  0.16656000  0.06110000  1.0
  N  N66  1  0.66876000  0.87674000  0.55998000  1.0
  N  N67  1  0.16876000  0.62326000  0.94002000  1.0
  N  N68  1  0.33124000  0.12326000  0.44002000  1.0
  N  N69  1  0.83124000  0.37673000  0.05998000  1.0
  O  O70  1  0.73766000  0.50157000  0.41144000  1.0
  O  O71  1  0.23766000  0.99843000  0.08856000  1.0
  O  O72  1  0.26234000  0.49843000  0.58856000  1.0
  O  O73  1  0.76234000  0.00157000  0.91144000  1.0
  O  O74  1  0.57121000  0.36851000  0.71367000  1.0
  O  O75  1  0.07121000  0.13149000  0.78633000  1.0
  O  O76  1  0.42879000  0.63149000  0.28633000  1.0
  O  O77  1  0.92879000  0.86851000  0.21367000  1.0
  O  O78  1  0.09387000  0.61074000  0.30208000  1.0
  O  O79  1  0.59387000  0.88926000  0.19792000  1.0
  O  O80  1  0.90613000  0.38926000  0.69792000  1.0
  O  O81  1  0.40613000  0.11074000  0.80208000  1.0
