# generated using pymatgen
data_GdH19C21NO8
_symmetry_space_group_name_H-M   'P 1'
_cell_length_a   12.18550000
_cell_length_b   12.19670000
_cell_length_c   18.23330000
_cell_angle_alpha   102.78300000
_cell_angle_beta   107.18700000
_cell_angle_gamma   103.07900000
_symmetry_Int_Tables_number   1
_chemical_formula_structural   GdH19C21NO8
_chemical_formula_sum   'Gd4 H76 C84 N4 O32'
_cell_volume   2397.79692603
_cell_formula_units_Z   4
loop_
 _symmetry_equiv_pos_site_id
 _symmetry_equiv_pos_as_xyz
  1  'x, y, z'
loop_
 _atom_site_type_symbol
 _atom_site_label
 _atom_site_symmetry_multiplicity
 _atom_site_fract_x
 _atom_site_fract_y
 _atom_site_fract_z
 _atom_site_occupancy
  Gd  Gd0  1  0.32788000  0.90085000  0.98739000  1.0
  Gd  Gd1  1  0.41356000  0.34064000  0.51262000  1.0
  Gd  Gd2  1  0.67212000  0.09915000  0.01261000  1.0
  Gd  Gd3  1  0.58643000  0.65936000  0.48738000  1.0
  H  H4  1  0.37789000  0.70900000  0.88162000  1.0
  H  H5  1  0.32694000  0.49579000  0.61834000  1.0
  H  H6  1  0.62212000  0.29100000  0.11838000  1.0
  H  H7  1  0.67306000  0.50421000  0.38165000  1.0
  H  H8  1  0.48107000  0.82658000  0.88973000  1.0
  H  H9  1  0.43641000  0.59097000  0.61026000  1.0
  H  H10  1  0.51893000  0.17341000  0.11026000  1.0
  H  H11  1  0.56358000  0.40903000  0.38974000  1.0
  H  H12  1  0.99105000  0.70327000  0.05155000  1.0
  H  H13  1  0.15164000  0.93945000  0.44817000  1.0
  H  H14  1  0.00896000  0.29672000  0.94845000  1.0
  H  H15  1  0.84836000  0.06057000  0.55183000  1.0
  H  H16  1  0.16218000  0.47529000  0.94703000  1.0
  H  H17  1  0.02850000  0.21495000  0.55313000  1.0
  H  H18  1  0.83783000  0.52470000  0.05297000  1.0
  H  H19  1  0.97150000  0.78506000  0.44688000  1.0
  H  H20  1  0.91866000  0.98082000  0.79336000  1.0
  H  H21  1  0.68750000  0.12542000  0.70650000  1.0
  H  H22  1  0.08135000  0.01918000  0.20664000  1.0
  H  H23  1  0.31249000  0.87460000  0.29349000  1.0
  H  H24  1  0.83678000  0.84832000  0.70939000  1.0
  H  H25  1  0.63903000  0.12760000  0.79057000  1.0
  H  H26  1  0.16322000  0.15168000  0.29061000  1.0
  H  H27  1  0.36097000  0.87241000  0.20943000  1.0
  H  H28  1  0.92654000  0.97409000  0.69596000  1.0
  H  H29  1  0.77831000  0.23060000  0.80386000  1.0
  H  H30  1  0.07347000  0.02591000  0.30404000  1.0
  H  H31  1  0.22169000  0.76942000  0.19613000  1.0
  H  H32  1  0.11924000  0.77383000  0.71883000  1.0
  H  H33  1  0.55485000  0.40020000  0.78123000  1.0
  H  H34  1  0.88076000  0.22617000  0.28117000  1.0
  H  H35  1  0.44514000  0.59981000  0.21878000  1.0
  H  H36  1  0.06772000  0.85822000  0.65480000  1.0
  H  H37  1  0.70338000  0.41271000  0.84520000  1.0
  H  H38  1  0.93228000  0.14178000  0.34520000  1.0
  H  H39  1  0.29661000  0.58730000  0.15481000  1.0
  H  H40  1  0.96114000  0.73245000  0.65688000  1.0
  H  H41  1  0.57554000  0.30403000  0.84311000  1.0
  H  H42  1  0.03886000  0.26755000  0.34312000  1.0
  H  H43  1  0.42445000  0.69598000  0.15689000  1.0
  H  H44  1  0.07077000  0.96309000  0.88014000  1.0
  H  H45  1  0.58316000  0.19103000  0.61979000  1.0
  H  H46  1  0.92923000  0.03691000  0.11986000  1.0
  H  H47  1  0.41683000  0.80899000  0.38021000  1.0
  H  H48  1  0.56262000  0.22592000  0.28849000  1.0
  H  H49  1  0.43712000  0.27320000  0.21163000  1.0
  H  H50  1  0.43739000  0.77408000  0.71151000  1.0
  H  H51  1  0.56288000  0.72680000  0.78838000  1.0
  H  H52  1  0.64240000  0.09757000  0.20724000  1.0
  H  H53  1  0.39036000  0.43460000  0.29276000  1.0
  H  H54  1  0.35761000  0.90244000  0.79276000  1.0
  H  H55  1  0.60964000  0.56540000  0.70724000  1.0
  H  H56  1  0.66683000  0.89049000  0.37151000  1.0
  H  H57  1  0.01902000  0.29600000  0.12838000  1.0
  H  H58  1  0.33316000  0.10950000  0.62849000  1.0
  H  H59  1  0.98099000  0.70400000  0.87163000  1.0
  H  H60  1  0.59511000  0.02539000  0.45593000  1.0
  H  H61  1  0.06913000  0.13949000  0.04400000  1.0
  H  H62  1  0.40489000  0.97460000  0.54406000  1.0
  H  H63  1  0.93087000  0.86050000  0.95600000  1.0
  H  H64  1  0.68378000  0.77662000  0.04218000  1.0
  H  H65  1  0.23339000  0.64086000  0.45771000  1.0
  H  H66  1  0.31621000  0.22338000  0.95781000  1.0
  H  H67  1  0.76661000  0.35914000  0.54229000  1.0
  H  H68  1  0.85795000  0.72090000  0.11640000  1.0
  H  H69  1  0.10338000  0.74063000  0.38347000  1.0
  H  H70  1  0.14205000  0.27910000  0.88360000  1.0
  H  H71  1  0.89663000  0.25937000  0.61653000  1.0
  H  H72  1  0.93526000  0.78450000  0.26793000  1.0
  H  H73  1  0.01626000  0.66700000  0.23192000  1.0
  H  H74  1  0.06474000  0.21550000  0.73206000  1.0
  H  H75  1  0.98375000  0.33300000  0.76808000  1.0
  H  H76  1  0.84044000  0.90324000  0.34132000  1.0
  H  H77  1  0.06237000  0.49937000  0.15861000  1.0
  H  H78  1  0.15957000  0.09676000  0.65868000  1.0
  H  H79  1  0.93763000  0.50063000  0.84139000  1.0
  C  C80  1  0.17250000  0.70344000  0.99660000  1.0
  C  C81  1  0.20704000  0.17562000  0.50339000  1.0
  C  C82  1  0.82750000  0.29654000  0.00339000  1.0
  C  C83  1  0.79295000  0.82439000  0.49661000  1.0
  C  C84  1  0.08497000  0.59835000  0.99978000  1.0
  C  C85  1  0.09868000  0.08505000  0.50020000  1.0
  C  C86  1  0.91504000  0.40163000  0.00022000  1.0
  C  C87  1  0.90131000  0.91496000  0.49981000  1.0
  C  C88  1  0.99390000  0.61362000  0.02957000  1.0
  C  C89  1  0.08402000  0.96430000  0.47030000  1.0
  C  C90  1  0.00612000  0.38636000  0.97043000  1.0
  C  C91  1  0.91597000  0.03571000  0.52971000  1.0
  C  C92  1  0.09081000  0.48430000  0.97031000  1.0
  C  C93  1  0.01413000  0.12038000  0.52979000  1.0
  C  C94  1  0.90919000  0.51568000  0.02968000  1.0
  C  C95  1  0.98586000  0.87963000  0.47021000  1.0
  C  C96  1  0.55139000  0.89026000  0.09996000  1.0
  C  C97  1  0.29012000  0.45142000  0.40005000  1.0
  C  C98  1  0.44861000  0.10973000  0.90003000  1.0
  C  C99  1  0.70988000  0.54859000  0.59995000  1.0
  C  C100  1  0.92044000  0.92365000  0.73838000  1.0
  C  C101  1  0.68538000  0.18217000  0.76152000  1.0
  C  C102  1  0.07956000  0.07635000  0.26162000  1.0
  C  C103  1  0.31462000  0.81784000  0.23848000  1.0
  C  C104  1  0.04445000  0.80619000  0.69329000  1.0
  C  C105  1  0.61285000  0.35100000  0.80670000  1.0
  C  C106  1  0.95555000  0.19380000  0.30671000  1.0
  C  C107  1  0.38714000  0.64901000  0.19330000  1.0
  C  C108  1  0.09399000  0.90463000  0.83589000  1.0
  C  C109  1  0.56895000  0.25838000  0.66409000  1.0
  C  C110  1  0.90602000  0.09536000  0.16412000  1.0
  C  C111  1  0.43104000  0.74164000  0.33591000  1.0
  C  C112  1  0.52541000  0.21164000  0.42557000  1.0
  C  C113  1  0.28554000  0.09932000  0.07449000  1.0
  C  C114  1  0.47460000  0.78836000  0.57443000  1.0
  C  C115  1  0.71446000  0.90067000  0.92551000  1.0
  C  C116  1  0.57354000  0.13408000  0.37714000  1.0
  C  C117  1  0.25661000  0.19605000  0.12288000  1.0
  C  C118  1  0.42646000  0.86591000  0.62286000  1.0
  C  C119  1  0.74339000  0.80394000  0.87712000  1.0
  C  C120  1  0.58636000  0.15261000  0.30660000  1.0
  C  C121  1  0.34578000  0.27918000  0.19345000  1.0
  C  C122  1  0.41365000  0.84739000  0.69340000  1.0
  C  C123  1  0.65422000  0.72082000  0.80655000  1.0
  C  C124  1  0.62874000  0.07873000  0.26013000  1.0
  C  C125  1  0.31858000  0.36827000  0.23985000  1.0
  C  C126  1  0.37126000  0.92127000  0.73988000  1.0
  C  C127  1  0.68143000  0.63173000  0.76015000  1.0
  C  C128  1  0.65746000  0.98279000  0.28254000  1.0
  C  C129  1  0.20028000  0.37499000  0.21736000  1.0
  C  C130  1  0.34255000  0.01721000  0.71746000  1.0
  C  C131  1  0.79972000  0.62501000  0.78264000  1.0
  C  C132  1  0.64580000  0.96523000  0.35391000  1.0
  C  C133  1  0.11130000  0.29221000  0.14597000  1.0
  C  C134  1  0.35420000  0.03476000  0.64608000  1.0
  C  C135  1  0.88871000  0.70779000  0.85404000  1.0
  C  C136  1  0.60493000  0.04010000  0.40104000  1.0
  C  C137  1  0.13885000  0.20400000  0.09889000  1.0
  C  C138  1  0.39507000  0.95989000  0.59896000  1.0
  C  C139  1  0.86115000  0.79599000  0.90111000  1.0
  C  C140  1  0.70545000  0.90546000  0.23472000  1.0
  C  C141  1  0.17083000  0.47080000  0.26521000  1.0
  C  C142  1  0.29455000  0.09454000  0.76528000  1.0
  C  C143  1  0.82917000  0.52921000  0.73479000  1.0
  C  C144  1  0.66149000  0.86833000  0.14956000  1.0
  C  C145  1  0.21849000  0.51173000  0.35038000  1.0
  C  C146  1  0.33850000  0.13167000  0.85043000  1.0
  C  C147  1  0.78152000  0.48828000  0.64962000  1.0
  C  C148  1  0.71770000  0.80324000  0.10792000  1.0
  C  C149  1  0.19459000  0.60922000  0.39198000  1.0
  C  C150  1  0.28230000  0.19676000  0.89208000  1.0
  C  C151  1  0.80542000  0.39078000  0.60802000  1.0
  C  C152  1  0.81551000  0.77196000  0.14969000  1.0
  C  C153  1  0.12147000  0.66518000  0.35020000  1.0
  C  C154  1  0.18449000  0.22804000  0.85030000  1.0
  C  C155  1  0.87854000  0.33483000  0.64980000  1.0
  C  C156  1  0.85825000  0.80683000  0.23391000  1.0
  C  C157  1  0.07257000  0.62402000  0.26598000  1.0
  C  C158  1  0.14175000  0.19317000  0.76609000  1.0
  C  C159  1  0.92744000  0.37598000  0.73402000  1.0
  C  C160  1  0.80405000  0.87314000  0.27556000  1.0
  C  C161  1  0.09767000  0.52853000  0.22436000  1.0
  C  C162  1  0.19595000  0.12686000  0.72444000  1.0
  C  C163  1  0.90233000  0.47148000  0.77564000  1.0
  N  N164  1  0.02445000  0.88099000  0.75917000  1.0
  N  N165  1  0.62188000  0.26533000  0.74078000  1.0
  N  N166  1  0.97556000  0.11901000  0.24083000  1.0
  N  N167  1  0.37810000  0.73468000  0.25922000  1.0
  O  O168  1  0.23887000  0.68782000  0.95491000  1.0
  O  O169  1  0.23310000  0.28351000  0.54521000  1.0
  O  O170  1  0.76115000  0.31217000  0.04509000  1.0
  O  O171  1  0.76690000  0.71651000  0.45479000  1.0
  O  O172  1  0.17708000  0.80723000  0.03418000  1.0
  O  O173  1  0.27336000  0.14284000  0.46577000  1.0
  O  O174  1  0.82292000  0.19276000  0.96581000  1.0
  O  O175  1  0.72663000  0.85717000  0.53423000  1.0
  O  O176  1  0.56139000  0.94981000  0.05078000  1.0
  O  O177  1  0.39890000  0.51054000  0.44913000  1.0
  O  O178  1  0.43861000  0.05020000  0.94922000  1.0
  O  O179  1  0.60110000  0.48946000  0.55087000  1.0
  O  O180  1  0.18074000  0.86453000  0.85853000  1.0
  O  O181  1  0.50632000  0.32257000  0.64153000  1.0
  O  O182  1  0.81925000  0.13546000  0.14147000  1.0
  O  O183  1  0.49366000  0.67744000  0.35848000  1.0
  O  O184  1  0.48145000  0.28777000  0.39789000  1.0
  O  O185  1  0.38937000  0.08295000  0.10215000  1.0
  O  O186  1  0.51856000  0.71223000  0.60211000  1.0
  O  O187  1  0.61063000  0.91705000  0.89785000  1.0
  O  O188  1  0.52574000  0.20221000  0.49360000  1.0
  O  O189  1  0.20801000  0.03168000  0.00652000  1.0
  O  O190  1  0.47426000  0.79778000  0.50640000  1.0
  O  O191  1  0.79199000  0.96832000  0.99348000  1.0
  O  O192  1  0.44896000  0.84538000  0.10235000  1.0
  O  O193  1  0.24294000  0.34668000  0.39768000  1.0
  O  O194  1  0.55104000  0.15462000  0.89765000  1.0
  O  O195  1  0.75706000  0.65333000  0.60232000  1.0
  O  O196  1  0.39822000  0.79364000  0.89020000  1.0
  O  O197  1  0.40305000  0.50769000  0.60973000  1.0
  O  O198  1  0.60178000  0.20636000  0.10979000  1.0
  O  O199  1  0.59694000  0.49231000  0.39026000  1.0
