# generated using pymatgen
data_AgPH10C10(NO2)2
_symmetry_space_group_name_H-M   'P 1'
_cell_length_a   8.34702000
_cell_length_b   8.46538000
_cell_length_c   18.72900000
_cell_angle_alpha   101.50700000
_cell_angle_beta   90.00000000
_cell_angle_gamma   90.00000000
_symmetry_Int_Tables_number   1
_chemical_formula_structural   AgPH10C10(NO2)2
_chemical_formula_sum   'Ag4 P4 H40 C40 N8 O16'
_cell_volume   1296.80420439
_cell_formula_units_Z   4
loop_
 _symmetry_equiv_pos_site_id
 _symmetry_equiv_pos_as_xyz
  1  'x, y, z'
loop_
 _atom_site_type_symbol
 _atom_site_label
 _atom_site_symmetry_multiplicity
 _atom_site_fract_x
 _atom_site_fract_y
 _atom_site_fract_z
 _atom_site_occupancy
  Ag  Ag0  1  0.95532000  0.18354000  0.47765000  1.0
  Ag  Ag1  1  0.95533000  0.81645000  0.02236000  1.0
  Ag  Ag2  1  0.04468000  0.81645000  0.52236000  1.0
  Ag  Ag3  1  0.04468000  0.18354000  0.97764000  1.0
  P  P4  1  0.50120000  0.24162000  0.48446000  1.0
  P  P5  1  0.50122000  0.75839000  0.01554000  1.0
  P  P6  1  0.49878000  0.75839000  0.51555000  1.0
  P  P7  1  0.49879000  0.24161000  0.98445000  1.0
  H  H8  1  0.50483000  0.45173000  0.43083000  1.0
  H  H9  1  0.50484000  0.54827000  0.06917000  1.0
  H  H10  1  0.49515000  0.54828000  0.56918000  1.0
  H  H11  1  0.49517000  0.45173000  0.93082000  1.0
  H  H12  1  0.35315000  0.02706000  0.49134000  1.0
  H  H13  1  0.35316000  0.97294000  0.00866000  1.0
  H  H14  1  0.64683000  0.97295000  0.50867000  1.0
  H  H15  1  0.64684000  0.02706000  0.99133000  1.0
  H  H16  1  0.22676000  0.39256000  0.55940000  1.0
  H  H17  1  0.22677000  0.60743000  0.94060000  1.0
  H  H18  1  0.77322000  0.60745000  0.44060000  1.0
  H  H19  1  0.77324000  0.39256000  0.05940000  1.0
  H  H20  1  0.25636000  0.62193000  0.66038000  1.0
  H  H21  1  0.25639000  0.37806000  0.83963000  1.0
  H  H22  1  0.74362000  0.37810000  0.33961000  1.0
  H  H23  1  0.74362000  0.62191000  0.16038000  1.0
  H  H24  1  0.74059000  0.60952000  0.69041000  1.0
  H  H25  1  0.74063000  0.39050000  0.80958000  1.0
  H  H26  1  0.25939000  0.39046000  0.30960000  1.0
  H  H27  1  0.25940000  0.60955000  0.19040000  1.0
  H  H28  1  0.73002000  0.38652000  0.58526000  1.0
  H  H29  1  0.73004000  0.61349000  0.91473000  1.0
  H  H30  1  0.26996000  0.61346000  0.41474000  1.0
  H  H31  1  0.26997000  0.38654000  0.08526000  1.0
  H  H32  1  0.27256000  0.75779000  0.76475000  1.0
  H  H33  1  0.27258000  0.24217000  0.73526000  1.0
  H  H34  1  0.72742000  0.24216000  0.23526000  1.0
  H  H35  1  0.72743000  0.75780000  0.26475000  1.0
  H  H36  1  0.27822000  0.97207000  0.87746000  1.0
  H  H37  1  0.27825000  0.02790000  0.62254000  1.0
  H  H38  1  0.72177000  0.02789000  0.12254000  1.0
  H  H39  1  0.72176000  0.97207000  0.37746000  1.0
  H  H40  1  0.78454000  0.01863000  0.87836000  1.0
  H  H41  1  0.78455000  0.98138000  0.62164000  1.0
  H  H42  1  0.21547000  0.98141000  0.12163000  1.0
  H  H43  1  0.21546000  0.01862000  0.37837000  1.0
  H  H44  1  0.75651000  0.81108000  0.76538000  1.0
  H  H45  1  0.75653000  0.18894000  0.73461000  1.0
  H  H46  1  0.24349000  0.18896000  0.23460000  1.0
  H  H47  1  0.24348000  0.81107000  0.26539000  1.0
  C  C48  1  0.12093000  0.44475000  0.58914000  1.0
  C  C49  1  0.12095000  0.55525000  0.91086000  1.0
  C  C50  1  0.87906000  0.55526000  0.41086000  1.0
  C  C51  1  0.87906000  0.44475000  0.08914000  1.0
  C  C52  1  0.13672000  0.57286000  0.64795000  1.0
  C  C53  1  0.13673000  0.42713000  0.85205000  1.0
  C  C54  1  0.86326000  0.42714000  0.35204000  1.0
  C  C55  1  0.86327000  0.57287000  0.14796000  1.0
  C  C56  1  0.00105000  0.63510000  0.68825000  1.0
  C  C57  1  0.00108000  0.36491000  0.81175000  1.0
  C  C58  1  0.99893000  0.36491000  0.31175000  1.0
  C  C59  1  0.99894000  0.63510000  0.18825000  1.0
  C  C60  1  0.85272000  0.56698000  0.66380000  1.0
  C  C61  1  0.85275000  0.43303000  0.83619000  1.0
  C  C62  1  0.14726000  0.43301000  0.33621000  1.0
  C  C63  1  0.14727000  0.56700000  0.16380000  1.0
  C  C64  1  0.84524000  0.44026000  0.60423000  1.0
  C  C65  1  0.84526000  0.55975000  0.89576000  1.0
  C  C66  1  0.15475000  0.55974000  0.39577000  1.0
  C  C67  1  0.15476000  0.44027000  0.10423000  1.0
  C  C68  1  0.01280000  0.76367000  0.75406000  1.0
  C  C69  1  0.01282000  0.23633000  0.74593000  1.0
  C  C70  1  0.98719000  0.23633000  0.24594000  1.0
  C  C71  1  0.98719000  0.76367000  0.25407000  1.0
  C  C72  1  0.16064000  0.81256000  0.78700000  1.0
  C  C73  1  0.16067000  0.18742000  0.71300000  1.0
  C  C74  1  0.83935000  0.18741000  0.21300000  1.0
  C  C75  1  0.83935000  0.81256000  0.28700000  1.0
  C  C76  1  0.16618000  0.93119000  0.84988000  1.0
  C  C77  1  0.16619000  0.06879000  0.65013000  1.0
  C  C78  1  0.83382000  0.06878000  0.15013000  1.0
  C  C79  1  0.83381000  0.93119000  0.34988000  1.0
  C  C80  1  0.88913000  0.95759000  0.85071000  1.0
  C  C81  1  0.88914000  0.04242000  0.64929000  1.0
  C  C82  1  0.11087000  0.04243000  0.14929000  1.0
  C  C83  1  0.11085000  0.95758000  0.35071000  1.0
  C  C84  1  0.87552000  0.84033000  0.78784000  1.0
  C  C85  1  0.87555000  0.15968000  0.71215000  1.0
  C  C86  1  0.12448000  0.15969000  0.21215000  1.0
  C  C87  1  0.12447000  0.84033000  0.28785000  1.0
  N  N88  1  0.97758000  0.37804000  0.56770000  1.0
  N  N89  1  0.97759000  0.62196000  0.93230000  1.0
  N  N90  1  0.02242000  0.62195000  0.43231000  1.0
  N  N91  1  0.02242000  0.37805000  0.06769000  1.0
  N  N92  1  0.03240000  0.00248000  0.88150000  1.0
  N  N93  1  0.03242000  0.99752000  0.61849000  1.0
  N  N94  1  0.96760000  0.99752000  0.11849000  1.0
  N  N95  1  0.96759000  0.00247000  0.38151000  1.0
  O  O96  1  0.64561000  0.12898000  0.48111000  1.0
  O  O97  1  0.64563000  0.87103000  0.01889000  1.0
  O  O98  1  0.35437000  0.87101000  0.51889000  1.0
  O  O99  1  0.35438000  0.12899000  0.98111000  1.0
  O  O100  1  0.50253000  0.32660000  0.41612000  1.0
  O  O101  1  0.50255000  0.67340000  0.08388000  1.0
  O  O102  1  0.49744000  0.67340000  0.58389000  1.0
  O  O103  1  0.49746000  0.32660000  0.91611000  1.0
  O  O104  1  0.34263000  0.13411000  0.47266000  1.0
  O  O105  1  0.34264000  0.86589000  0.02734000  1.0
  O  O106  1  0.65735000  0.86590000  0.52735000  1.0
  O  O107  1  0.65736000  0.13410000  0.97265000  1.0
  O  O108  1  0.48806000  0.36804000  0.55464000  1.0
  O  O109  1  0.48809000  0.63196000  0.94536000  1.0
  O  O110  1  0.51194000  0.63196000  0.44537000  1.0
  O  O111  1  0.51195000  0.36804000  0.05463000  1.0
