# generated using pymatgen
data_CaH10C8O7
_symmetry_space_group_name_H-M   'P 1'
_cell_length_a   6.55407000
_cell_length_b   7.05556000
_cell_length_c   21.64000000
_cell_angle_alpha   90.00000000
_cell_angle_beta   90.00000000
_cell_angle_gamma   92.21970000
_symmetry_Int_Tables_number   1
_chemical_formula_structural   CaH10C8O7
_chemical_formula_sum   'Ca4 H40 C32 O28'
_cell_volume   999.93974284
_cell_formula_units_Z   4
loop_
 _symmetry_equiv_pos_site_id
 _symmetry_equiv_pos_as_xyz
  1  'x, y, z'
loop_
 _atom_site_type_symbol
 _atom_site_label
 _atom_site_symmetry_multiplicity
 _atom_site_fract_x
 _atom_site_fract_y
 _atom_site_fract_z
 _atom_site_occupancy
  Ca  Ca0  1  0.50602000  0.33871000  0.71417000  1.0
  Ca  Ca1  1  0.99399000  0.66128000  0.21417000  1.0
  Ca  Ca2  1  0.49397000  0.66129000  0.28583000  1.0
  Ca  Ca3  1  0.00603000  0.33871000  0.78583000  1.0
  H  H4  1  0.69784000  0.33441000  0.57670000  1.0
  H  H5  1  0.80217000  0.66558000  0.07671000  1.0
  H  H6  1  0.30214000  0.66558000  0.42330000  1.0
  H  H7  1  0.19783000  0.33442000  0.92330000  1.0
  H  H8  1  0.69527000  0.32370000  0.46304000  1.0
  H  H9  1  0.80474000  0.67631000  0.96305000  1.0
  H  H10  1  0.30471000  0.67631000  0.53696000  1.0
  H  H11  1  0.19528000  0.32368000  0.03696000  1.0
  H  H12  1  0.32044000  0.15580000  0.46309000  1.0
  H  H13  1  0.17956000  0.84421000  0.96309000  1.0
  H  H14  1  0.67953000  0.84421000  0.53691000  1.0
  H  H15  1  0.82047000  0.15582000  0.03690000  1.0
  H  H16  1  0.32427000  0.17179000  0.57812000  1.0
  H  H17  1  0.17574000  0.82821000  0.07812000  1.0
  H  H18  1  0.67572000  0.82822000  0.42188000  1.0
  H  H19  1  0.82427000  0.17180000  0.92187000  1.0
  H  H20  1  0.37485000  0.62050000  0.62547000  1.0
  H  H21  1  0.12516000  0.37949000  0.12547000  1.0
  H  H22  1  0.62512000  0.37950000  0.37454000  1.0
  H  H23  1  0.87487000  0.62050000  0.87454000  1.0
  H  H24  1  0.61692000  0.63238000  0.62472000  1.0
  H  H25  1  0.88309000  0.36761000  0.12472000  1.0
  H  H26  1  0.38305000  0.36762000  0.37528000  1.0
  H  H27  1  0.11695000  0.63239000  0.87528000  1.0
  H  H28  1  0.79551000  0.68060000  0.71679000  1.0
  H  H29  1  0.70449000  0.31939000  0.21680000  1.0
  H  H30  1  0.20448000  0.31940000  0.28321000  1.0
  H  H31  1  0.29553000  0.68060000  0.78321000  1.0
  H  H32  1  0.70469000  0.67744000  0.78596000  1.0
  H  H33  1  0.79531000  0.32257000  0.28597000  1.0
  H  H34  1  0.29533000  0.32255000  0.21404000  1.0
  H  H35  1  0.20468000  0.67744000  0.71404000  1.0
  H  H36  1  0.38420000  0.94347000  0.66546000  1.0
  H  H37  1  0.11580000  0.05654000  0.16546000  1.0
  H  H38  1  0.61577000  0.05654000  0.33454000  1.0
  H  H39  1  0.88423000  0.94345000  0.83454000  1.0
  H  H40  1  0.62672000  0.94637000  0.66511000  1.0
  H  H41  1  0.87328000  0.05363000  0.16511000  1.0
  H  H42  1  0.37325000  0.05364000  0.33489000  1.0
  H  H43  1  0.12675000  0.94636000  0.83489000  1.0
  C  C44  1  0.01094000  0.25270000  0.58485000  1.0
  C  C45  1  0.48907000  0.74730000  0.08486000  1.0
  C  C46  1  0.98905000  0.74731000  0.41514000  1.0
  C  C47  1  0.51095000  0.25269000  0.91514000  1.0
  C  C48  1  0.83394000  0.29402000  0.55194000  1.0
  C  C49  1  0.66606000  0.70598000  0.05194000  1.0
  C  C50  1  0.16603000  0.70597000  0.44806000  1.0
  C  C51  1  0.33396000  0.29402000  0.94806000  1.0
  C  C52  1  0.83272000  0.28736000  0.48785000  1.0
  C  C53  1  0.66731000  0.71265000  0.98786000  1.0
  C  C54  1  0.16726000  0.71265000  0.51214000  1.0
  C  C55  1  0.33271000  0.28735000  0.01214000  1.0
  C  C56  1  0.00765000  0.23784000  0.45520000  1.0
  C  C57  1  0.49232000  0.76217000  0.95520000  1.0
  C  C58  1  0.99233000  0.76217000  0.54480000  1.0
  C  C59  1  0.50770000  0.23783000  0.04480000  1.0
  C  C60  1  0.18497000  0.19675000  0.48820000  1.0
  C  C61  1  0.31505000  0.80326000  0.98820000  1.0
  C  C62  1  0.81502000  0.80325000  0.51180000  1.0
  C  C63  1  0.68496000  0.19676000  0.01180000  1.0
  C  C64  1  0.18700000  0.20465000  0.55247000  1.0
  C  C65  1  0.31300000  0.79535000  0.05248000  1.0
  C  C66  1  0.81297000  0.79536000  0.44753000  1.0
  C  C67  1  0.68702000  0.20466000  0.94752000  1.0
  C  C68  1  0.00946000  0.26131000  0.65387000  1.0
  C  C69  1  0.49051000  0.73870000  0.15387000  1.0
  C  C70  1  0.99052000  0.73867000  0.34613000  1.0
  C  C71  1  0.50949000  0.26132000  0.84613000  1.0
  C  C72  1  0.00352000  0.23005000  0.38593000  1.0
  C  C73  1  0.49650000  0.76994000  0.88594000  1.0
  C  C74  1  0.99646000  0.76994000  0.61407000  1.0
  C  C75  1  0.50353000  0.23006000  0.11406000  1.0
  O  O76  1  0.49703000  0.54185000  0.62517000  1.0
  O  O77  1  0.00298000  0.45815000  0.12517000  1.0
  O  O78  1  0.50295000  0.45815000  0.37483000  1.0
  O  O79  1  0.99705000  0.54185000  0.87483000  1.0
  O  O80  1  0.17531000  0.24719000  0.68394000  1.0
  O  O81  1  0.32470000  0.75282000  0.18394000  1.0
  O  O82  1  0.82468000  0.75280000  0.31606000  1.0
  O  O83  1  0.67532000  0.24718000  0.81606000  1.0
  O  O84  1  0.84156000  0.28523000  0.68199000  1.0
  O  O85  1  0.65847000  0.71477000  0.18200000  1.0
  O  O86  1  0.15844000  0.71477000  0.31801000  1.0
  O  O87  1  0.34154000  0.28522000  0.81800000  1.0
  O  O88  1  0.75050000  0.59599000  0.75138000  1.0
  O  O89  1  0.74950000  0.40400000  0.25138000  1.0
  O  O90  1  0.24950000  0.40400000  0.24862000  1.0
  O  O91  1  0.25051000  0.59599000  0.74862000  1.0
  O  O92  1  0.17236000  0.21955000  0.35676000  1.0
  O  O93  1  0.32765000  0.78046000  0.85677000  1.0
  O  O94  1  0.82761000  0.78045000  0.64324000  1.0
  O  O95  1  0.67239000  0.21954000  0.14323000  1.0
  O  O96  1  0.50752000  0.01651000  0.67815000  1.0
  O  O97  1  0.99247000  0.98349000  0.17814000  1.0
  O  O98  1  0.49244000  0.98350000  0.32185000  1.0
  O  O99  1  0.00756000  0.01650000  0.82186000  1.0
  O  O100  1  0.83101000  0.23674000  0.35861000  1.0
  O  O101  1  0.66898000  0.76325000  0.85861000  1.0
  O  O102  1  0.16895000  0.76325000  0.64139000  1.0
  O  O103  1  0.33106000  0.23674000  0.14139000  1.0
