# generated using pymatgen
data_Zn4H12C27O13
_symmetry_space_group_name_H-M   'P 1'
_cell_length_a   16.10450000
_cell_length_b   16.13420000
_cell_length_c   16.13680000
_cell_angle_alpha   84.22910000
_cell_angle_beta   83.89230000
_cell_angle_gamma   89.80510000
_symmetry_Int_Tables_number   1
_chemical_formula_structural   Zn4H12C27O13
_chemical_formula_sum   'Zn4 H12 C27 O13'
_cell_volume   4147.83444739
_cell_formula_units_Z   1
loop_
 _symmetry_equiv_pos_site_id
 _symmetry_equiv_pos_as_xyz
  1  'x, y, z'
loop_
 _atom_site_type_symbol
 _atom_site_label
 _atom_site_symmetry_multiplicity
 _atom_site_fract_x
 _atom_site_fract_y
 _atom_site_fract_z
 _atom_site_occupancy
  Zn  Zn0  1  0.57131000  0.42895000  0.42996000  1.0
  Zn  Zn1  1  0.43680000  0.57757000  0.42877000  1.0
  Zn  Zn2  1  0.57154000  0.56298000  0.56423000  1.0
  Zn  Zn3  1  0.42212000  0.42910000  0.57868000  1.0
  H  H4  1  0.42773000  0.99182000  0.57207000  1.0
  H  H5  1  0.92789000  0.41079000  0.32811000  1.0
  H  H6  1  0.06782000  0.45193000  0.36973000  1.0
  H  H7  1  0.05944000  0.37083000  0.45104000  1.0
  H  H8  1  0.57177000  0.00814000  0.42843000  1.0
  H  H9  1  0.98894000  0.56073000  0.56120000  1.0
  H  H10  1  0.42777000  0.43492000  0.01537000  1.0
  H  H11  1  0.57168000  0.56442000  0.98472000  1.0
  H  H12  1  0.05907000  0.34609000  0.26164000  1.0
  H  H13  1  0.05068000  0.26391000  0.34394000  1.0
  H  H14  1  0.97305000  0.27582000  0.27344000  1.0
  H  H15  1  0.91960000  0.32944000  0.40955000  1.0
  C  C16  1  0.27530000  0.51092000  0.51080000  1.0
  C  C17  1  0.81475000  0.48431000  0.48392000  1.0
  C  C18  1  0.51776000  0.51593000  0.18443000  1.0
  C  C19  1  0.72551000  0.48911000  0.48873000  1.0
  C  C20  1  0.52498000  0.52235000  0.02079000  1.0
  C  C21  1  0.47449000  0.47701000  0.97947000  1.0
  C  C22  1  0.47964000  0.48165000  0.89185000  1.0
  C  C23  1  0.52073000  0.51856000  0.10830000  1.0
  C  C24  1  0.48286000  0.48462000  0.81570000  1.0
  C  C25  1  0.51245000  0.51126000  0.27458000  1.0
  C  C26  1  0.48780000  0.48909000  0.72600000  1.0
  C  C27  1  0.47963000  0.11025000  0.52018000  1.0
  C  C28  1  0.51241000  0.72413000  0.48757000  1.0
  C  C29  1  0.48773000  0.27533000  0.51190000  1.0
  C  C30  1  0.51781000  0.81376000  0.48232000  1.0
  C  C31  1  0.52501000  0.97672000  0.47507000  1.0
  C  C32  1  0.47450000  0.02311000  0.52539000  1.0
  C  C33  1  0.02187000  0.41478000  0.41382000  1.0
  C  C34  1  0.96505000  0.36665000  0.36526000  1.0
  C  C35  1  0.01461000  0.31006000  0.30797000  1.0
  C  C36  1  0.52077000  0.88960000  0.47935000  1.0
  C  C37  1  0.48292000  0.18610000  0.51680000  1.0
  C  C38  1  0.18558000  0.51458000  0.51485000  1.0
  C  C39  1  0.02237000  0.51952000  0.51957000  1.0
  C  C40  1  0.97835000  0.47292000  0.47248000  1.0
  C  C41  1  0.89075000  0.47976000  0.47944000  1.0
  C  C42  1  0.10953000  0.51706000  0.51721000  1.0
  O  O43  1  0.50015000  0.50036000  0.49986000  1.0
  O  O44  1  0.46248000  0.69456000  0.44154000  1.0
  O  O45  1  0.43647000  0.31067000  0.56303000  1.0
  O  O46  1  0.55779000  0.68420000  0.53772000  1.0
  O  O47  1  0.54285000  0.31049000  0.45675000  1.0
  O  O48  1  0.55791000  0.45667000  0.31002000  1.0
  O  O49  1  0.43665000  0.44302000  0.69565000  1.0
  O  O50  1  0.31549000  0.56224000  0.45565000  1.0
  O  O51  1  0.69025000  0.53885000  0.53838000  1.0
  O  O52  1  0.30517000  0.45670000  0.56233000  1.0
  O  O53  1  0.68988000  0.44304000  0.44271000  1.0
  O  O54  1  0.46246000  0.56219000  0.30916000  1.0
  O  O55  1  0.54294000  0.53880000  0.68548000  1.0
