# generated using pymatgen
data_Cd3H48C56(N2O3)4
_symmetry_space_group_name_H-M   'P 1'
_cell_length_a   8.22830000
_cell_length_b   10.94700000
_cell_length_c   15.35980000
_cell_angle_alpha   71.08560000
_cell_angle_beta   74.92490000
_cell_angle_gamma   70.75350000
_symmetry_Int_Tables_number   1
_chemical_formula_structural   Cd3H48C56(N2O3)4
_chemical_formula_sum   'Cd3 H48 C56 N8 O12'
_cell_volume   1217.35748025
_cell_formula_units_Z   1
loop_
 _symmetry_equiv_pos_site_id
 _symmetry_equiv_pos_as_xyz
  1  'x, y, z'
loop_
 _atom_site_type_symbol
 _atom_site_label
 _atom_site_symmetry_multiplicity
 _atom_site_fract_x
 _atom_site_fract_y
 _atom_site_fract_z
 _atom_site_occupancy
  Cd  Cd0  1  0.08667000  0.43380000  0.27572000  1.0
  Cd  Cd1  1  0.91333000  0.56620000  0.72428000  1.0
  Cd  Cd2  1  0.00000000  0.50000000  0.50000000  1.0
  H  H3  1  0.61110000  0.83417000  0.27471000  1.0
  H  H4  1  0.38891000  0.16583000  0.72529000  1.0
  H  H5  1  0.71979000  0.83215000  0.36052000  1.0
  H  H6  1  0.28021000  0.16785000  0.63948000  1.0
  H  H7  1  0.55241000  0.69768000  0.48508000  1.0
  H  H8  1  0.44759000  0.30232000  0.51491000  1.0
  H  H9  1  0.40572000  0.83367000  0.42089000  1.0
  H  H10  1  0.59428000  0.16633000  0.57911000  1.0
  H  H11  1  0.51219000  0.66538000  0.25429000  1.0
  H  H12  1  0.48781000  0.33463000  0.74571000  1.0
  H  H13  1  0.30639000  0.77088000  0.28494000  1.0
  H  H14  1  0.69361000  0.22912000  0.71506000  1.0
  H  H15  1  0.51155000  0.53809000  0.42370000  1.0
  H  H16  1  0.48845000  0.46191000  0.57629000  1.0
  H  H17  1  0.30143000  0.63936000  0.45407000  1.0
  H  H18  1  0.69857000  0.36064000  0.54593000  1.0
  H  H19  1  0.17311000  0.03789000  0.58945000  1.0
  H  H20  1  0.82689000  0.96210000  0.41054000  1.0
  H  H21  1  0.34015000  0.00943000  0.49234000  1.0
  H  H22  1  0.65985000  0.99057000  0.50766000  1.0
  H  H23  1  0.14029000  0.97407000  0.41512000  1.0
  H  H24  1  0.85971000  0.02593000  0.58488000  1.0
  H  H25  1  0.13702000  0.86632000  0.52867000  1.0
  H  H26  1  0.86299000  0.13368000  0.47132000  1.0
  H  H27  1  0.71062000  0.35877000  0.38492000  1.0
  H  H28  1  0.28938000  0.64123000  0.61508000  1.0
  H  H29  1  0.49155000  0.26060000  0.36197000  1.0
  H  H30  1  0.50845000  0.73940000  0.63803000  1.0
  H  H31  1  0.54047000  0.19741000  0.21233000  1.0
  H  H32  1  0.45952000  0.80259000  0.78766000  1.0
  H  H33  1  0.26116000  0.31820000  0.88699000  1.0
  H  H34  1  0.73884000  0.68180000  0.11301000  1.0
  H  H35  1  0.46510000  0.40186000  0.93310000  1.0
  H  H36  1  0.53490000  0.59814000  0.06690000  1.0
  H  H37  1  0.38566000  0.44928000  0.09283000  1.0
  H  H38  1  0.61434000  0.55072000  0.90717000  1.0
  H  H39  1  0.53047000  0.10118000  0.96293000  1.0
  H  H40  1  0.46953000  0.89882000  0.03707000  1.0
  H  H41  1  0.47376000  0.97602000  0.86935000  1.0
  H  H42  1  0.52624000  0.02398000  0.13065000  1.0
  H  H43  1  0.70764000  0.90542000  0.73845000  1.0
  H  H44  1  0.29236000  0.09458000  0.26156000  1.0
  H  H45  1  0.99263000  0.95379000  0.70896000  1.0
  H  H46  1  0.00737000  0.04621000  0.29104000  1.0
  H  H47  1  0.05199000  0.06978000  0.80616000  1.0
  H  H48  1  0.94801000  0.93022000  0.19384000  1.0
  H  H49  1  0.04098000  0.23476000  0.86422000  1.0
  H  H50  1  0.95902000  0.76524000  0.13578000  1.0
  C  C51  1  0.80080000  0.65210000  0.32070000  1.0
  C  C52  1  0.19920000  0.34790000  0.67930000  1.0
  C  C53  1  0.65728000  0.77281000  0.34042000  1.0
  C  C54  1  0.34272000  0.22719000  0.65958000  1.0
  C  C55  1  0.50621000  0.73904000  0.41758000  1.0
  C  C56  1  0.49379000  0.26096000  0.58242000  1.0
  C  C57  1  0.30306000  0.57651000  0.29223000  1.0
  C  C58  1  0.69694000  0.42349000  0.70777000  1.0
  C  C59  1  0.39125000  0.66863000  0.30604000  1.0
  C  C60  1  0.60875000  0.33137000  0.69396000  1.0
  C  C61  1  0.42499000  0.63960000  0.40474000  1.0
  C  C62  1  0.57501000  0.36041000  0.59526000  1.0
  C  C63  1  0.14703000  0.19843000  0.46411000  1.0
  C  C64  1  0.85297000  0.80157000  0.53588000  1.0
  C  C65  1  0.19880000  0.04951000  0.51382000  1.0
  C  C66  1  0.80120000  0.95049000  0.48617000  1.0
  C  C67  1  0.09904000  0.97224000  0.48945000  1.0
  C  C68  1  0.90096000  0.02776000  0.51054000  1.0
  C  C69  1  0.72582000  0.32978000  0.32109000  1.0
  C  C70  1  0.27418000  0.67022000  0.67892000  1.0
  C  C71  1  0.60505000  0.27424000  0.30833000  1.0
  C  C72  1  0.39495000  0.72576000  0.69167000  1.0
  C  C73  1  0.63095000  0.24046000  0.22545000  1.0
  C  C74  1  0.36905000  0.75955000  0.77455000  1.0
  C  C75  1  0.77603000  0.26313000  0.15611000  1.0
  C  C76  1  0.22397000  0.73688000  0.84389000  1.0
  C  C77  1  0.89217000  0.32033000  0.17473000  1.0
  C  C78  1  0.10783000  0.67967000  0.82527000  1.0
  C  C79  1  0.04714000  0.34357000  0.10661000  1.0
  C  C80  1  0.95286000  0.65642000  0.89340000  1.0
  C  C81  1  0.08229000  0.31380000  0.01874000  1.0
  C  C82  1  0.91772000  0.68620000  0.98126000  1.0
  C  C83  1  0.23377000  0.33784000  0.95532000  1.0
  C  C84  1  0.76623000  0.66216000  0.04468000  1.0
  C  C85  1  0.34547000  0.38592000  0.98058000  1.0
  C  C86  1  0.65454000  0.61408000  0.01942000  1.0
  C  C87  1  0.30274000  0.41154000  0.06883000  1.0
  C  C88  1  0.69726000  0.58846000  0.93117000  1.0
  C  C89  1  0.96311000  0.25717000  0.00327000  1.0
  C  C90  1  0.03688000  0.74283000  0.99673000  1.0
  C  C91  1  0.81675000  0.22984000  0.06891000  1.0
  C  C92  1  0.18325000  0.77016000  0.93109000  1.0
  C  C93  1  0.82697000  0.15732000  0.95232000  1.0
  C  C94  1  0.17303000  0.84268000  0.04768000  1.0
  C  C95  1  0.79368000  0.09328000  0.89157000  1.0
  C  C96  1  0.20632000  0.90672000  0.10843000  1.0
  C  C97  1  0.63084000  0.06742000  0.90740000  1.0
  C  C98  1  0.36916000  0.93258000  0.09260000  1.0
  C  C99  1  0.59903000  0.99964000  0.85349000  1.0
  C  C100  1  0.40097000  0.00036000  0.14651000  1.0
  C  C101  1  0.72908000  0.95901000  0.78147000  1.0
  C  C102  1  0.27092000  0.04099000  0.21853000  1.0
  C  C103  1  0.89052000  0.98644000  0.76441000  1.0
  C  C104  1  0.10948000  0.01356000  0.23559000  1.0
  C  C105  1  0.92374000  0.05244000  0.81894000  1.0
  C  C106  1  0.07626000  0.94756000  0.18106000  1.0
  N  N107  1  0.86422000  0.35169000  0.25655000  1.0
  N  N108  1  0.13578000  0.64831000  0.74345000  1.0
  N  N109  1  0.15855000  0.39163000  0.12904000  1.0
  N  N110  1  0.84146000  0.60837000  0.87096000  1.0
  N  N111  1  0.96727000  0.21014000  0.93009000  1.0
  N  N112  1  0.03273000  0.78986000  0.06991000  1.0
  N  N113  1  0.73364000  0.16711000  0.03669000  1.0
  N  N114  1  0.26636000  0.83289000  0.96331000  1.0
  O  O115  1  0.88757000  0.65917000  0.23813000  1.0
  O  O116  1  0.11243000  0.34083000  0.76187000  1.0
  O  O117  1  0.83261000  0.54395000  0.38612000  1.0
  O  O118  1  0.16739000  0.45605000  0.61388000  1.0
  O  O119  1  0.31780000  0.56389000  0.21134000  1.0
  O  O120  1  0.68220000  0.43612000  0.78866000  1.0
  O  O121  1  0.21117000  0.51306000  0.36328000  1.0
  O  O122  1  0.78883000  0.48694000  0.63671000  1.0
  O  O123  1  0.18657000  0.22902000  0.37526000  1.0
  O  O124  1  0.81342000  0.77098000  0.62474000  1.0
  O  O125  1  0.06536000  0.27816000  0.51553000  1.0
  O  O126  1  0.93464000  0.72184000  0.48447000  1.0
