# generated using pymatgen
data_AgH15C16N8O3
_symmetry_space_group_name_H-M   'P 1'
_cell_length_a   9.61208000
_cell_length_b   9.92975000
_cell_length_c   11.32680000
_cell_angle_alpha   103.79200000
_cell_angle_beta   98.60200000
_cell_angle_gamma   116.23400000
_symmetry_Int_Tables_number   1
_chemical_formula_structural   AgH15C16N8O3
_chemical_formula_sum   'Ag2 H30 C32 N16 O6'
_cell_volume   900.54039633
_cell_formula_units_Z   2
loop_
 _symmetry_equiv_pos_site_id
 _symmetry_equiv_pos_as_xyz
  1  'x, y, z'
loop_
 _atom_site_type_symbol
 _atom_site_label
 _atom_site_symmetry_multiplicity
 _atom_site_fract_x
 _atom_site_fract_y
 _atom_site_fract_z
 _atom_site_occupancy
  Ag  Ag0  1  0.88019000  0.62442000  0.72703000  1.0
  Ag  Ag1  1  0.11982000  0.37558000  0.27296000  1.0
  H  H2  1  0.61315000  0.65422000  0.54019000  1.0
  H  H3  1  0.38685000  0.34578000  0.45980000  1.0
  H  H4  1  0.47802000  0.77515000  0.43198000  1.0
  H  H5  1  0.52198000  0.22485000  0.56802000  1.0
  H  H6  1  0.62830000  0.05713000  0.44702000  1.0
  H  H7  1  0.37170000  0.94287000  0.55298000  1.0
  H  H8  1  0.92097000  0.23340000  0.56916000  1.0
  H  H9  1  0.07903000  0.76660000  0.43085000  1.0
  H  H10  1  0.21983000  0.31421000  0.67674000  1.0
  H  H11  1  0.78016000  0.68579000  0.32326000  1.0
  H  H12  1  0.33235000  0.24603000  0.75800000  1.0
  H  H13  1  0.66765000  0.75397000  0.24200000  1.0
  H  H14  1  0.22077000  0.28596000  0.94226000  1.0
  H  H15  1  0.77923000  0.71404000  0.05774000  1.0
  H  H16  1  0.33051000  0.46784000  0.90971000  1.0
  H  H17  1  0.66949000  0.53216000  0.09029000  1.0
  H  H18  1  0.61324000  0.34847000  0.83598000  1.0
  H  H19  1  0.38676000  0.65153000  0.16401000  1.0
  H  H20  1  0.50504000  0.12144000  0.91886000  1.0
  H  H21  1  0.49496000  0.87856000  0.08114000  1.0
  H  H22  1  0.66915000  0.99562000  0.97166000  1.0
  H  H23  1  0.33085000  0.00438000  0.02834000  1.0
  H  H24  1  0.94909000  0.10002000  0.95636000  1.0
  H  H25  1  0.05091000  0.89997000  0.04364000  1.0
  H  H26  1  0.55525000  0.14576000  0.25823000  1.0
  H  H27  1  0.44476000  0.85424000  0.74177000  1.0
  H  H28  1  0.75832000  0.17995000  0.28187000  1.0
  H  H29  1  0.24168000  0.82004000  0.71812000  1.0
  H  H30  1  0.69512000  0.28940000  0.20367000  1.0
  H  H31  1  0.30488000  0.71060000  0.79633000  1.0
  C  C32  1  0.84391000  0.87699000  0.61398000  1.0
  C  C33  1  0.15609000  0.12301000  0.38602000  1.0
  C  C34  1  0.67884000  0.77853000  0.54621000  1.0
  C  C35  1  0.32116000  0.22147000  0.45379000  1.0
  C  C36  1  0.60543000  0.84779000  0.48736000  1.0
  C  C37  1  0.39457000  0.15221000  0.51264000  1.0
  C  C38  1  0.69238000  0.00979000  0.49590000  1.0
  C  C39  1  0.30762000  0.99022000  0.50410000  1.0
  C  C40  1  0.85540000  0.10904000  0.56337000  1.0
  C  C41  1  0.14460000  0.89097000  0.43663000  1.0
  C  C42  1  0.92979000  0.03868000  0.62244000  1.0
  C  C43  1  0.07021000  0.96131000  0.37756000  1.0
  C  C44  1  0.22180000  0.25450000  0.74631000  1.0
  C  C45  1  0.77820000  0.74550000  0.25369000  1.0
  C  C46  1  0.22193000  0.34859000  0.87441000  1.0
  C  C47  1  0.77807000  0.65141000  0.12559000  1.0
  C  C48  1  0.84212000  0.35062000  0.85096000  1.0
  C  C49  1  0.15787000  0.64938000  0.14904000  1.0
  C  C50  1  0.68414000  0.29368000  0.86174000  1.0
  C  C51  1  0.31586000  0.70632000  0.13826000  1.0
  C  C52  1  0.62595000  0.16704000  0.90678000  1.0
  C  C53  1  0.37405000  0.83296000  0.09322000  1.0
  C  C54  1  0.72048000  0.09758000  0.93951000  1.0
  C  C55  1  0.27951000  0.90241000  0.06048000  1.0
  C  C56  1  0.87735000  0.15364000  0.93049000  1.0
  C  C57  1  0.12265000  0.84636000  0.06951000  1.0
  C  C58  1  0.93644000  0.28246000  0.88594000  1.0
  C  C59  1  0.06356000  0.71754000  0.11406000  1.0
  C  C60  1  0.68275000  0.23664000  0.27901000  1.0
  C  C61  1  0.31726000  0.76336000  0.72099000  1.0
  C  C62  1  0.73182000  0.36068000  0.39902000  1.0
  C  C63  1  0.26818000  0.63931000  0.60098000  1.0
  N  N64  1  0.95119000  0.84613000  0.68148000  1.0
  N  N65  1  0.04881000  0.15388000  0.31852000  1.0
  N  N66  1  0.09355000  0.97581000  0.73048000  1.0
  N  N67  1  0.90645000  0.02419000  0.26952000  1.0
  N  N68  1  0.08378000  0.09316000  0.69549000  1.0
  N  N69  1  0.91622000  0.90685000  0.30451000  1.0
  N  N70  1  0.93475000  0.47098000  0.80919000  1.0
  N  N71  1  0.06525000  0.52902000  0.19081000  1.0
  N  N72  1  0.07653000  0.48026000  0.81640000  1.0
  N  N73  1  0.92347000  0.51974000  0.18360000  1.0
  N  N74  1  0.08023000  0.36872000  0.86297000  1.0
  N  N75  1  0.91977000  0.63128000  0.13703000  1.0
  N  N76  1  0.62130000  0.66319000  0.84710000  1.0
  N  N77  1  0.37870000  0.33681000  0.15290000  1.0
  N  N78  1  0.76817000  0.45991000  0.49563000  1.0
  N  N79  1  0.23184000  0.54009000  0.50437000  1.0
  O  O80  1  0.77173000  0.76726000  0.88249000  1.0
  O  O81  1  0.22827000  0.23274000  0.11751000  1.0
  O  O82  1  0.56539000  0.53826000  0.75011000  1.0
  O  O83  1  0.43461000  0.46175000  0.24989000  1.0
  O  O84  1  0.53022000  0.68440000  0.91033000  1.0
  O  O85  1  0.46978000  0.31560000  0.08967000  1.0
