# generated using pymatgen
data_Zn4H32C65(N6O)3
_symmetry_space_group_name_H-M   'P 1'
_cell_length_a   19.16220000
_cell_length_b   19.98510000
_cell_length_c   20.09150000
_cell_angle_alpha   104.14200000
_cell_angle_beta   109.61400000
_cell_angle_gamma   112.31000000
_symmetry_Int_Tables_number   1
_chemical_formula_structural   Zn4H32C65(N6O)3
_chemical_formula_sum   'Zn4 H32 C65 N18 O3'
_cell_volume   6064.50137320
_cell_formula_units_Z   1
loop_
 _symmetry_equiv_pos_site_id
 _symmetry_equiv_pos_as_xyz
  1  'x, y, z'
loop_
 _atom_site_type_symbol
 _atom_site_label
 _atom_site_symmetry_multiplicity
 _atom_site_fract_x
 _atom_site_fract_y
 _atom_site_fract_z
 _atom_site_occupancy
  Zn  Zn0  1  0.88465000  0.88208000  0.49878000  1.0
  Zn  Zn1  1  0.10610000  0.11538000  0.49572000  1.0
  Zn  Zn2  1  0.10871000  0.00928000  0.60782000  1.0
  Zn  Zn3  1  0.88118000  0.98728000  0.39031000  1.0
  H  H4  1  0.86012000  0.88695000  0.65078000  1.0
  H  H5  1  0.25792000  0.08505000  0.45945000  1.0
  H  H6  1  0.14028000  0.89936000  0.48820000  1.0
  H  H7  1  0.89128000  0.86104000  0.26681000  1.0
  H  H8  1  0.13720000  0.06268000  0.33762000  1.0
  H  H9  1  0.90023000  0.71359000  0.45002000  1.0
  H  H10  1  0.72755000  0.83648000  0.20835000  1.0
  H  H11  1  0.31037000  0.03261000  0.66198000  1.0
  H  H12  1  0.12752000  0.47271000  0.42879000  1.0
  H  H13  1  0.15644000  0.60677000  0.43542000  1.0
  H  H14  1  0.85576000  0.38781000  0.32620000  1.0
  H  H15  1  0.61808000  0.46862000  0.11943000  1.0
  H  H16  1  0.49908000  0.34296000  0.00292000  1.0
  H  H17  1  0.51949000  0.46655000  0.85580000  1.0
  H  H18  1  0.63749000  0.59202000  0.97222000  1.0
  H  H19  1  0.85175000  0.78686000  0.86835000  1.0
  H  H20  1  0.86164000  0.78785000  0.99490000  1.0
  H  H21  1  0.12574000  0.94528000  0.98216000  1.0
  H  H22  1  0.18943000  0.14405000  0.76782000  1.0
  H  H23  1  0.82630000  0.09510000  0.47839000  1.0
  H  H24  1  0.73574000  0.90430000  0.54875000  1.0
  H  H25  1  0.13354000  0.97575000  0.77025000  1.0
  H  H26  1  0.81050000  0.71747000  0.34383000  1.0
  H  H27  1  0.12050000  0.33655000  0.61209000  1.0
  H  H28  1  0.10461000  0.38064000  0.54400000  1.0
  H  H29  1  0.20794000  0.39154000  0.59681000  1.0
  H  H30  1  0.39105000  0.27024000  0.66809000  1.0
  H  H31  1  0.40178000  0.36368000  0.71970000  1.0
  H  H32  1  0.38669000  0.33593000  0.62159000  1.0
  H  H33  1  0.79761000  0.19202000  0.28991000  1.0
  H  H34  1  0.79237000  0.20022000  0.37888000  1.0
  H  H35  1  0.70579000  0.11764000  0.28777000  1.0
  C  C36  1  0.92815000  0.91157000  0.66897000  1.0
  C  C37  1  0.96359000  0.22578000  0.41576000  1.0
  C  C38  1  0.26833000  0.23123000  0.73382000  1.0
  C  C39  1  0.75867000  0.01224000  0.52292000  1.0
  C  C40  1  0.79669000  0.75890000  0.32379000  1.0
  C  C41  1  0.25749000  0.07207000  0.50876000  1.0
  C  C42  1  0.07836000  0.86424000  0.48387000  1.0
  C  C43  1  0.95121000  0.91740000  0.29643000  1.0
  C  C44  1  0.07745000  0.02059000  0.33261000  1.0
  C  C45  1  0.95519000  0.76943000  0.46470000  1.0
  C  C46  1  0.75309000  0.81885000  0.25360000  1.0
  C  C47  1  0.03529000  0.22331000  0.46506000  1.0
  C  C48  1  0.28486000  0.04529000  0.61262000  1.0
  C  C49  1  0.75188000  0.74630000  0.24588000  1.0
  C  C50  1  0.31842000  0.06158000  0.56203000  1.0
  C  C51  1  0.02740000  0.78063000  0.45417000  1.0
  C  C52  1  0.01385000  0.94355000  0.27242000  1.0
  C  C53  1  0.70317000  0.03517000  0.53833000  1.0
  C  C54  1  0.64891000  0.04874000  0.54798000  1.0
  C  C55  1  0.58658000  0.05950000  0.55548000  1.0
  C  C56  1  0.52578000  0.06466000  0.55981000  1.0
  C  C57  1  0.45766000  0.06672000  0.56242000  1.0
  C  C58  1  0.19634000  0.16539000  0.72429000  1.0
  C  C59  1  0.39313000  0.06526000  0.56319000  1.0
  C  C60  1  0.09074000  0.55866000  0.41116000  1.0
  C  C61  1  0.02351000  0.57530000  0.38734000  1.0
  C  C62  1  0.93763000  0.51073000  0.35326000  1.0
  C  C63  1  0.92158000  0.43536000  0.34994000  1.0
  C  C64  1  0.99000000  0.42160000  0.38006000  1.0
  C  C65  1  0.07455000  0.48386000  0.40775000  1.0
  C  C66  1  0.03746000  0.65324000  0.40354000  1.0
  C  C67  1  0.97607000  0.34968000  0.38707000  1.0
  C  C68  1  0.96669000  0.29072000  0.39954000  1.0
  C  C69  1  0.81358000  0.04426000  0.49270000  1.0
  C  C70  1  0.03976000  0.71710000  0.42518000  1.0
  C  C71  1  0.52937000  0.39762000  0.99636000  1.0
  C  C72  1  0.49720000  0.39719000  0.92176000  1.0
  C  C73  1  0.54089000  0.46727000  0.91370000  1.0
  C  C74  1  0.60682000  0.53738000  0.97869000  1.0
  C  C75  1  0.63174000  0.54013000  0.05439000  1.0
  C  C76  1  0.59565000  0.46775000  0.06149000  1.0
  C  C77  1  0.41939000  0.33228000  0.85718000  1.0
  C  C78  1  0.68347000  0.61426000  0.12122000  1.0
  C  C79  1  0.71574000  0.67673000  0.17822000  1.0
  C  C80  1  0.24020000  0.22996000  0.65813000  1.0
  C  C81  1  0.34836000  0.28470000  0.80076000  1.0
  C  C82  1  0.91939000  0.82204000  0.99183000  1.0
  C  C83  1  0.99834000  0.86958000  0.06172000  1.0
  C  C84  1  0.07369000  0.91142000  0.05613000  1.0
  C  C85  1  0.06786000  0.91066000  0.98476000  1.0
  C  C86  1  0.98765000  0.86862000  0.91679000  1.0
  C  C87  1  0.91388000  0.82165000  0.92110000  1.0
  C  C88  1  0.00316000  0.88311000  0.13570000  1.0
  C  C89  1  0.98340000  0.87883000  0.84867000  1.0
  C  C90  1  0.98608000  0.89777000  0.79579000  1.0
  C  C91  1  0.76686000  0.94607000  0.52822000  1.0
  C  C92  1  0.00881000  0.90751000  0.20037000  1.0
  C  C93  1  0.89625000  0.14500000  0.38121000  1.0
  C  C94  1  0.06808000  0.95703000  0.73028000  1.0
  C  C95  1  0.99289000  0.92038000  0.73642000  1.0
  C  C96  1  0.86796000  0.52512000  0.32679000  1.0
  C  C97  1  0.13840000  0.35187000  0.56900000  1.0
  C  C98  1  0.15547000  0.95793000  0.12464000  1.0
  C  C99  1  0.37056000  0.31388000  0.66224000  1.0
  C  C100  1  0.77533000  0.15834000  0.32136000  1.0
  N  N101  1  0.96189000  0.93948000  0.62610000  1.0
  N  N102  1  0.19409000  0.06318000  0.52651000  1.0
  N  N103  1  0.03952000  0.89966000  0.51047000  1.0
  N  N104  1  0.97434000  0.97493000  0.36421000  1.0
  N  N105  1  0.05251000  0.03822000  0.38598000  1.0
  N  N106  1  0.96373000  0.84049000  0.49841000  1.0
  N  N107  1  0.79525000  0.86974000  0.32984000  1.0
  N  N108  1  0.21128000  0.04676000  0.59065000  1.0
  N  N109  1  0.01288000  0.14967000  0.45973000  1.0
  N  N110  1  0.13153000  0.12748000  0.64993000  1.0
  N  N111  1  0.84993000  0.99988000  0.48005000  1.0
  N  N112  1  0.15950000  0.16938000  0.61021000  1.0
  N  N113  1  0.82060000  0.93954000  0.50193000  1.0
  N  N114  1  0.92654000  0.10044000  0.40632000  1.0
  N  N115  1  0.04820000  0.96726000  0.66418000  1.0
  N  N116  1  0.82245000  0.83248000  0.37326000  1.0
  N  N117  1  0.81123000  0.53749000  0.30594000  1.0
  N  N118  1  0.22281000  0.99642000  0.18038000  1.0
  O  O119  1  0.11908000  0.28077000  0.50837000  1.0
  O  O120  1  0.27829000  0.27621000  0.62775000  1.0
  O  O121  1  0.81211000  0.10798000  0.32997000  1.0
