# generated using pymatgen
data_Cd2H20C22SN12O7
_symmetry_space_group_name_H-M   'P 1'
_cell_length_a   10.22340000
_cell_length_b   11.55090000
_cell_length_c   11.90800000
_cell_angle_alpha   94.71200000
_cell_angle_beta   95.23370000
_cell_angle_gamma   97.36240000
_symmetry_Int_Tables_number   1
_chemical_formula_structural   Cd2H20C22SN12O7
_chemical_formula_sum   'Cd4 H40 C44 S2 N24 O14'
_cell_volume   1382.51878002
_cell_formula_units_Z   2
loop_
 _symmetry_equiv_pos_site_id
 _symmetry_equiv_pos_as_xyz
  1  'x, y, z'
loop_
 _atom_site_type_symbol
 _atom_site_label
 _atom_site_symmetry_multiplicity
 _atom_site_fract_x
 _atom_site_fract_y
 _atom_site_fract_z
 _atom_site_occupancy
  Cd  Cd0  1  0.52290000  0.41376000  0.72411000  1.0
  Cd  Cd1  1  0.47709000  0.58625000  0.27590000  1.0
  Cd  Cd2  1  0.08939000  0.89968000  0.90260000  1.0
  Cd  Cd3  1  0.91061000  0.10031000  0.09740000  1.0
  H  H4  1  0.23647000  0.22071000  0.61149000  1.0
  H  H5  1  0.76352000  0.77929000  0.38852000  1.0
  H  H6  1  0.08156000  0.05201000  0.67620000  1.0
  H  H7  1  0.91844000  0.94799000  0.32381000  1.0
  H  H8  1  0.28504000  0.11238000  0.99714000  1.0
  H  H9  1  0.71496000  0.88762000  0.00287000  1.0
  H  H10  1  0.88493000  0.68036000  0.84945000  1.0
  H  H11  1  0.11506000  0.31963000  0.15055000  1.0
  H  H12  1  0.13954000  0.78462000  0.14204000  1.0
  H  H13  1  0.86047000  0.21538000  0.85795000  1.0
  H  H14  1  0.02674000  0.62406000  0.24394000  1.0
  H  H15  1  0.97327000  0.37594000  0.75605000  1.0
  H  H16  1  0.82769000  0.49187000  0.14080000  1.0
  H  H17  1  0.17231000  0.50814000  0.85920000  1.0
  H  H18  1  0.71406000  0.18307000  0.68756000  1.0
  H  H19  1  0.28595000  0.81695000  0.31246000  1.0
  H  H20  1  0.74774000  0.03392000  0.53247000  1.0
  H  H21  1  0.25229000  0.96610000  0.46755000  1.0
  H  H22  1  0.46573000  0.15713000  0.31626000  1.0
  H  H23  1  0.53428000  0.84286000  0.68374000  1.0
  H  H24  1  0.24714000  0.70823000  0.80686000  1.0
  H  H25  1  0.75286000  0.29178000  0.19313000  1.0
  H  H26  1  0.93256000  0.83980000  0.63939000  1.0
  H  H27  1  0.06744000  0.16020000  0.36060000  1.0
  H  H28  1  0.94447000  0.70748000  0.46258000  1.0
  H  H29  1  0.05553000  0.29252000  0.53741000  1.0
  H  H30  1  0.12269000  0.57536000  0.46099000  1.0
  H  H31  1  0.87730000  0.42464000  0.53900000  1.0
  H  H32  1  0.54603000  0.34120000  0.11780000  1.0
  H  H33  1  0.45396000  0.65880000  0.88220000  1.0
  H  H34  1  0.40846000  0.23483000  0.10209000  1.0
  H  H35  1  0.59154000  0.76517000  0.89790000  1.0
  H  H36  1  0.26406000  0.38993000  0.37057000  1.0
  H  H37  1  0.73594000  0.61006000  0.62943000  1.0
  H  H38  1  0.31819000  0.26310000  0.30913000  1.0
  H  H39  1  0.68182000  0.73689000  0.69086000  1.0
  H  H40  1  0.38057000  0.83404000  0.94059000  1.0
  H  H41  1  0.61942000  0.16596000  0.05940000  1.0
  H  H42  1  0.32716000  0.90897000  0.04160000  1.0
  H  H43  1  0.67283000  0.09103000  0.95839000  1.0
  C  C44  1  0.24661000  0.19562000  0.69798000  1.0
  C  C45  1  0.75339000  0.80438000  0.30203000  1.0
  C  C46  1  0.16288000  0.10276000  0.73209000  1.0
  C  C47  1  0.83712000  0.89725000  0.26791000  1.0
  C  C48  1  0.27582000  0.13695000  0.91100000  1.0
  C  C49  1  0.72418000  0.86305000  0.08900000  1.0
  C  C50  1  0.35974000  0.22991000  0.87655000  1.0
  C  C51  1  0.64026000  0.77008000  0.12346000  1.0
  C  C52  1  0.46917000  0.29707000  0.95374000  1.0
  C  C53  1  0.53082000  0.70294000  0.04627000  1.0
  C  C54  1  0.73437000  0.49908000  0.91635000  1.0
  C  C55  1  0.26562000  0.50093000  0.08365000  1.0
  C  C56  1  0.84518000  0.57457000  0.98630000  1.0
  C  C57  1  0.15481000  0.42542000  0.01370000  1.0
  C  C58  1  0.91456000  0.66565000  0.93666000  1.0
  C  C59  1  0.08544000  0.33434000  0.06333000  1.0
  C  C60  1  0.05527000  0.72361000  0.10100000  1.0
  C  C61  1  0.94473000  0.27639000  0.89900000  1.0
  C  C62  1  0.99117000  0.63476000  0.15684000  1.0
  C  C63  1  0.00884000  0.36524000  0.84315000  1.0
  C  C64  1  0.88334000  0.56036000  0.09981000  1.0
  C  C65  1  0.11666000  0.43965000  0.90019000  1.0
  C  C66  1  0.66074000  0.18036000  0.60369000  1.0
  C  C67  1  0.33929000  0.81966000  0.39631000  1.0
  C  C68  1  0.67790000  0.09612000  0.51669000  1.0
  C  C69  1  0.32212000  0.90389000  0.48332000  1.0
  C  C70  1  0.52225000  0.16493000  0.39946000  1.0
  C  C71  1  0.47776000  0.83508000  0.60056000  1.0
  C  C72  1  0.50379000  0.25032000  0.48572000  1.0
  C  C73  1  0.49621000  0.74969000  0.51429000  1.0
  C  C74  1  0.40627000  0.33377000  0.47138000  1.0
  C  C75  1  0.59373000  0.66623000  0.52862000  1.0
  C  C76  1  0.30465000  0.55551000  0.64057000  1.0
  C  C77  1  0.69535000  0.44449000  0.35942000  1.0
  C  C78  1  0.19875000  0.63254000  0.63379000  1.0
  C  C79  1  0.80125000  0.36746000  0.36620000  1.0
  C  C80  1  0.18271000  0.70743000  0.72866000  1.0
  C  C81  1  0.81729000  0.29258000  0.27133000  1.0
  C  C82  1  0.00661000  0.77984000  0.63457000  1.0
  C  C83  1  0.99339000  0.22017000  0.36542000  1.0
  C  C84  1  0.01484000  0.70689000  0.53678000  1.0
  C  C85  1  0.98515000  0.29311000  0.46321000  1.0
  C  C86  1  0.11204000  0.63318000  0.53565000  1.0
  C  C87  1  0.88796000  0.36682000  0.46435000  1.0
  S  S88  1  0.21360000  0.03502000  0.19018000  1.0
  S  S89  1  0.78640000  0.96497000  0.80982000  1.0
  N  N90  1  0.34364000  0.25722000  0.76874000  1.0
  N  N91  1  0.65636000  0.74277000  0.23127000  1.0
  N  N92  1  0.18009000  0.07411000  0.83876000  1.0
  N  N93  1  0.81990000  0.92589000  0.16124000  1.0
  N  N94  1  0.48640000  0.27641000  0.06539000  1.0
  N  N95  1  0.51360000  0.72359000  0.93461000  1.0
  N  N96  1  0.55209000  0.36955000  0.90684000  1.0
  N  N97  1  0.44791000  0.63044000  0.09316000  1.0
  N  N98  1  0.65532000  0.43083000  0.97508000  1.0
  N  N99  1  0.34468000  0.56916000  0.02493000  1.0
  N  N100  1  0.01568000  0.73935000  0.99296000  1.0
  N  N101  1  0.98431000  0.26064000  0.00704000  1.0
  N  N102  1  0.57539000  0.25697000  0.58789000  1.0
  N  N103  1  0.42462000  0.74304000  0.41212000  1.0
  N  N104  1  0.60945000  0.08860000  0.41454000  1.0
  N  N105  1  0.39057000  0.91141000  0.58547000  1.0
  N  N106  1  0.32668000  0.32854000  0.37449000  1.0
  N  N107  1  0.67333000  0.67145000  0.62551000  1.0
  N  N108  1  0.40137000  0.41134000  0.55810000  1.0
  N  N109  1  0.59862000  0.58867000  0.44190000  1.0
  N  N110  1  0.30580000  0.48288000  0.54708000  1.0
  N  N111  1  0.69419000  0.51711000  0.45292000  1.0
  N  N112  1  0.08971000  0.77995000  0.72932000  1.0
  N  N113  1  0.91028000  0.22005000  0.27067000  1.0
  O  O114  1  0.72318000  0.50754000  0.80888000  1.0
  O  O115  1  0.27682000  0.49247000  0.19112000  1.0
  O  O116  1  0.38235000  0.56379000  0.73298000  1.0
  O  O117  1  0.61764000  0.43620000  0.26702000  1.0
  O  O118  1  0.10750000  0.01567000  0.08852000  1.0
  O  O119  1  0.89249000  0.98433000  0.91149000  1.0
  O  O120  1  0.30704000  0.94827000  0.17294000  1.0
  O  O121  1  0.69296000  0.05173000  0.82705000  1.0
  O  O122  1  0.14927000  0.02008000  0.29463000  1.0
  O  O123  1  0.85074000  0.97992000  0.70538000  1.0
  O  O124  1  0.28361000  0.15717000  0.19040000  1.0
  O  O125  1  0.71639000  0.84283000  0.80961000  1.0
  O  O126  1  0.31820000  0.89006000  0.95716000  1.0
  O  O127  1  0.68180000  0.10993000  0.04283000  1.0
