# generated using pymatgen
data_CuH14C15N2O5
_symmetry_space_group_name_H-M   'P 1'
_cell_length_a   8.83091000
_cell_length_b   10.72130000
_cell_length_c   11.55250000
_cell_angle_alpha   100.24400000
_cell_angle_beta   104.87200000
_cell_angle_gamma   101.66400000
_symmetry_Int_Tables_number   1
_chemical_formula_structural   CuH14C15N2O5
_chemical_formula_sum   'Cu2 H28 C30 N4 O10'
_cell_volume   1004.35228197
_cell_formula_units_Z   2
loop_
 _symmetry_equiv_pos_site_id
 _symmetry_equiv_pos_as_xyz
  1  'x, y, z'
loop_
 _atom_site_type_symbol
 _atom_site_label
 _atom_site_symmetry_multiplicity
 _atom_site_fract_x
 _atom_site_fract_y
 _atom_site_fract_z
 _atom_site_occupancy
  Cu  Cu0  1  0.00000000  0.00000000  0.00000000  1.0
  Cu  Cu1  1  0.50000000  0.00000000  0.50000000  1.0
  H  H2  1  0.01878000  0.83672000  0.32720000  1.0
  H  H3  1  0.98123000  0.16328000  0.67280000  1.0
  H  H4  1  0.94519000  0.42610000  0.71765000  1.0
  H  H5  1  0.05480000  0.57389000  0.28235000  1.0
  H  H6  1  0.06938000  0.65209000  0.69741000  1.0
  H  H7  1  0.93062000  0.34790000  0.30258000  1.0
  H  H8  1  0.70655000  0.82768000  0.56138000  1.0
  H  H9  1  0.29345000  0.17231000  0.43862000  1.0
  H  H10  1  0.65184000  0.05244000  0.30319000  1.0
  H  H11  1  0.34816000  0.94756000  0.69682000  1.0
  H  H12  1  0.67898000  0.59282000  0.36394000  1.0
  H  H13  1  0.32102000  0.40718000  0.63606000  1.0
  H  H14  1  0.56006000  0.36931000  0.38427000  1.0
  H  H15  1  0.43994000  0.63069000  0.61573000  1.0
  H  H16  1  0.14388000  0.20080000  0.24659000  1.0
  H  H17  1  0.85613000  0.79921000  0.75342000  1.0
  H  H18  1  0.13573000  0.28814000  0.12943000  1.0
  H  H19  1  0.86428000  0.71186000  0.87057000  1.0
  H  H20  1  0.32734000  0.29989000  0.23780000  1.0
  H  H21  1  0.67266000  0.70011000  0.76220000  1.0
  H  H22  1  0.44714000  0.11344000  0.22003000  1.0
  H  H23  1  0.55286000  0.88656000  0.77997000  1.0
  H  H24  1  0.34373000  0.96947000  0.09604000  1.0
  H  H25  1  0.65627000  0.03054000  0.90396000  1.0
  H  H26  1  0.27104000  0.00049000  0.22607000  1.0
  H  H27  1  0.72896000  0.99951000  0.77393000  1.0
  H  H28  1  0.26816000  0.14905000  0.03419000  1.0
  H  H29  1  0.73184000  0.85095000  0.96582000  1.0
  C  C30  1  0.91975000  0.86584000  0.35613000  1.0
  C  C31  1  0.08025000  0.13416000  0.64387000  1.0
  C  C32  1  0.88840000  0.46430000  0.64091000  1.0
  C  C33  1  0.11159000  0.53570000  0.35909000  1.0
  C  C34  1  0.95727000  0.58876000  0.63033000  1.0
  C  C35  1  0.04272000  0.41124000  0.36966000  1.0
  C  C36  1  0.88183000  0.63335000  0.52964000  1.0
  C  C37  1  0.11817000  0.36665000  0.47036000  1.0
  C  C38  1  0.83555000  0.94716000  0.29929000  1.0
  C  C39  1  0.16446000  0.05285000  0.70071000  1.0
  C  C40  1  0.74609000  0.38373000  0.55166000  1.0
  C  C41  1  0.25390000  0.61627000  0.44834000  1.0
  C  C42  1  0.87482000  0.82460000  0.45308000  1.0
  C  C43  1  0.12518000  0.17540000  0.54693000  1.0
  C  C44  1  0.74835000  0.86224000  0.48906000  1.0
  C  C45  1  0.25165000  0.13776000  0.51094000  1.0
  C  C46  1  0.68077000  0.24666000  0.55987000  1.0
  C  C47  1  0.31923000  0.75333000  0.44012000  1.0
  C  C48  1  0.71409000  0.98513000  0.34269000  1.0
  C  C49  1  0.28591000  0.01487000  0.65731000  1.0
  C  C50  1  0.73695000  0.55669000  0.44170000  1.0
  C  C51  1  0.26305000  0.44331000  0.55830000  1.0
  C  C52  1  0.67081000  0.43191000  0.45321000  1.0
  C  C53  1  0.32919000  0.56809000  0.54679000  1.0
  C  C54  1  0.87053000  0.99469000  0.19128000  1.0
  C  C55  1  0.12947000  0.00532000  0.80872000  1.0
  C  C56  1  0.20746000  0.23392000  0.18332000  1.0
  C  C57  1  0.79255000  0.76608000  0.81668000  1.0
  C  C58  1  0.32841000  0.04642000  0.16504000  1.0
  C  C59  1  0.67159000  0.95358000  0.83497000  1.0
  N  N60  1  0.67095000  0.94219000  0.43488000  1.0
  N  N61  1  0.32905000  0.05781000  0.56512000  1.0
  N  N62  1  0.22231000  0.11884000  0.10026000  1.0
  N  N63  1  0.77769000  0.88116000  0.89974000  1.0
  O  O64  1  0.96293000  0.75357000  0.51877000  1.0
  O  O65  1  0.03707000  0.24643000  0.48123000  1.0
  O  O66  1  0.73956000  0.20599000  0.65216000  1.0
  O  O67  1  0.26044000  0.79401000  0.34784000  1.0
  O  O68  1  0.56147000  0.17360000  0.46402000  1.0
  O  O69  1  0.43853000  0.82639000  0.53598000  1.0
  O  O70  1  0.97092000  0.94206000  0.14758000  1.0
  O  O71  1  0.02908000  0.05795000  0.85243000  1.0
  O  O72  1  0.80292000  0.07604000  0.14967000  1.0
  O  O73  1  0.19708000  0.92397000  0.85034000  1.0
