# generated using pymatgen
data_MgH3C7NO3
_symmetry_space_group_name_H-M   'P 1'
_cell_length_a   6.87484000
_cell_length_b   25.68170000
_cell_length_c   25.68200000
_cell_angle_alpha   119.21600000
_cell_angle_beta   95.11800000
_cell_angle_gamma   95.10880000
_symmetry_Int_Tables_number   1
_chemical_formula_structural   MgH3C7NO3
_chemical_formula_sum   'Mg6 H18 C42 N6 O18'
_cell_volume   3895.62058810
_cell_formula_units_Z   6
loop_
 _symmetry_equiv_pos_site_id
 _symmetry_equiv_pos_as_xyz
  1  'x, y, z'
loop_
 _atom_site_type_symbol
 _atom_site_label
 _atom_site_symmetry_multiplicity
 _atom_site_fract_x
 _atom_site_fract_y
 _atom_site_fract_z
 _atom_site_occupancy
  Mg  Mg0  1  0.86083000  0.70445000  0.37719000  1.0
  Mg  Mg1  1  0.48361000  0.62281000  0.32728000  1.0
  Mg  Mg2  1  0.15640000  0.67275000  0.29556000  1.0
  Mg  Mg3  1  0.13917000  0.29554000  0.62280000  1.0
  Mg  Mg4  1  0.51638000  0.37719000  0.67272000  1.0
  Mg  Mg5  1  0.84359000  0.32725000  0.70444000  1.0
  H  H6  1  0.20478000  0.54161000  0.41703000  1.0
  H  H7  1  0.78787000  0.58297000  0.12460000  1.0
  H  H8  1  0.66310000  0.87540000  0.45834000  1.0
  H  H9  1  0.32021000  0.45886000  0.50423000  1.0
  H  H10  1  0.81583000  0.49578000  0.95462000  1.0
  H  H11  1  0.86137000  0.04532000  0.54113000  1.0
  H  H12  1  0.46006000  0.39957000  0.54846000  1.0
  H  H13  1  0.91151000  0.45156000  0.85112000  1.0
  H  H14  1  0.06052000  0.14886000  0.60043000  1.0
  H  H15  1  0.79522000  0.45838000  0.58297000  1.0
  H  H16  1  0.21213000  0.41703000  0.87540000  1.0
  H  H17  1  0.33690000  0.12459000  0.54166000  1.0
  H  H18  1  0.67979000  0.54114000  0.49577000  1.0
  H  H19  1  0.18417000  0.50423000  0.04537000  1.0
  H  H20  1  0.13864000  0.95468000  0.45887000  1.0
  H  H21  1  0.53994000  0.60043000  0.45154000  1.0
  H  H22  1  0.08849000  0.54844000  0.14888000  1.0
  H  H23  1  0.93948000  0.85114000  0.39957000  1.0
  C  C24  1  0.11141000  0.60549000  0.36573000  1.0
  C  C25  1  0.74562000  0.63424000  0.23978000  1.0
  C  C26  1  0.50579000  0.76023000  0.39447000  1.0
  C  C27  1  0.98571000  0.58913000  0.40075000  1.0
  C  C28  1  0.58508000  0.59919000  0.18838000  1.0
  C  C29  1  0.39656000  0.81163000  0.41079000  1.0
  C  C30  1  0.05957000  0.55508000  0.42513000  1.0
  C  C31  1  0.63457000  0.57485000  0.12995000  1.0
  C  C32  1  0.50444000  0.87005000  0.44484000  1.0
  C  C33  1  0.95338000  0.53837000  0.45975000  1.0
  C  C34  1  0.49380000  0.54023000  0.07862000  1.0
  C  C35  1  0.41500000  0.92139000  0.46155000  1.0
  C  C36  1  0.04661000  0.46163000  0.54025000  1.0
  C  C37  1  0.50620000  0.45977000  0.92138000  1.0
  C  C38  1  0.58500000  0.07861000  0.53846000  1.0
  C  C39  1  0.23721000  0.44541000  0.53109000  1.0
  C  C40  1  0.70594000  0.46895000  0.91432000  1.0
  C  C41  1  0.79183000  0.08565000  0.55465000  1.0
  C  C42  1  0.31384000  0.41261000  0.55530000  1.0
  C  C43  1  0.75842000  0.44475000  0.85732000  1.0
  C  C44  1  0.90124000  0.14265000  0.58742000  1.0
  C  C45  1  0.20559000  0.39330000  0.58888000  1.0
  C  C46  1  0.61661000  0.41117000  0.80443000  1.0
  C  C47  1  0.81231000  0.19555000  0.60673000  1.0
  C  C48  1  0.01429000  0.41086000  0.59925000  1.0
  C  C49  1  0.41491000  0.40081000  0.81162000  1.0
  C  C50  1  0.60344000  0.18837000  0.58921000  1.0
  C  C51  1  0.94043000  0.44492000  0.57487000  1.0
  C  C52  1  0.36543000  0.42515000  0.87005000  1.0
  C  C53  1  0.49556000  0.12995000  0.55516000  1.0
  C  C54  1  0.88858000  0.39451000  0.63427000  1.0
  C  C55  1  0.25438000  0.36576000  0.76022000  1.0
  C  C56  1  0.49421000  0.23976000  0.60552000  1.0
  C  C57  1  0.76279000  0.55459000  0.46891000  1.0
  C  C58  1  0.29406000  0.53105000  0.08568000  1.0
  C  C59  1  0.20817000  0.91435000  0.44535000  1.0
  C  C60  1  0.68616000  0.58739000  0.44470000  1.0
  C  C61  1  0.24158000  0.55525000  0.14268000  1.0
  C  C62  1  0.09876000  0.85735000  0.41258000  1.0
  C  C63  1  0.79441000  0.60670000  0.41112000  1.0
  C  C64  1  0.38339000  0.58883000  0.19557000  1.0
  C  C65  1  0.18769000  0.80445000  0.39327000  1.0
  N  N66  1  0.04846000  0.50641000  0.48341000  1.0
  N  N67  1  0.56509000  0.51658000  0.02299000  1.0
  N  N68  1  0.54203000  0.97699000  0.49355000  1.0
  N  N69  1  0.95153000  0.49359000  0.51659000  1.0
  N  N70  1  0.43491000  0.48342000  0.97701000  1.0
  N  N71  1  0.45798000  0.02301000  0.50645000  1.0
  O  O72  1  0.27284000  0.58475000  0.35324000  1.0
  O  O73  1  0.91956000  0.64676000  0.23157000  1.0
  O  O74  1  0.68793000  0.76844000  0.41521000  1.0
  O  O75  1  0.05459000  0.64240000  0.34882000  1.0
  O  O76  1  0.70563000  0.65117000  0.29360000  1.0
  O  O77  1  0.41200000  0.70641000  0.35761000  1.0
  O  O78  1  0.71381000  0.64058000  0.39127000  1.0
  O  O79  1  0.32262000  0.60873000  0.24930000  1.0
  O  O80  1  0.07316000  0.75072000  0.35945000  1.0
  O  O81  1  0.72716000  0.41525000  0.64676000  1.0
  O  O82  1  0.08044000  0.35324000  0.76843000  1.0
  O  O83  1  0.31207000  0.23156000  0.58479000  1.0
  O  O84  1  0.94541000  0.35759000  0.65118000  1.0
  O  O85  1  0.29437000  0.34883000  0.70640000  1.0
  O  O86  1  0.58800000  0.29359000  0.64239000  1.0
  O  O87  1  0.28618000  0.35942000  0.60873000  1.0
  O  O88  1  0.67738000  0.39127000  0.75070000  1.0
  O  O89  1  0.92684000  0.24928000  0.64055000  1.0
