# generated using pymatgen
data_CdH21C26(NO)5
_symmetry_space_group_name_H-M   'P 1'
_cell_length_a   13.61570000
_cell_length_b   14.09680000
_cell_length_c   16.41570000
_cell_angle_alpha   89.99990000
_cell_angle_beta   89.99990000
_cell_angle_gamma   89.99950000
_symmetry_Int_Tables_number   1
_chemical_formula_structural   CdH21C26(NO)5
_chemical_formula_sum   'Cd4 H84 C104 N20 O20'
_cell_volume   3150.79333939
_cell_formula_units_Z   4
loop_
 _symmetry_equiv_pos_site_id
 _symmetry_equiv_pos_as_xyz
  1  'x, y, z'
loop_
 _atom_site_type_symbol
 _atom_site_label
 _atom_site_symmetry_multiplicity
 _atom_site_fract_x
 _atom_site_fract_y
 _atom_site_fract_z
 _atom_site_occupancy
  Cd  Cd0  1  0.45944000  0.11967000  0.60495000  1.0
  Cd  Cd1  1  0.04056000  0.88034000  0.10494000  1.0
  Cd  Cd2  1  0.54056000  0.61966000  0.89506000  1.0
  Cd  Cd3  1  0.95944000  0.38034000  0.39506000  1.0
  H  H4  1  0.46112000  0.12245000  0.28042000  1.0
  H  H5  1  0.03889000  0.87756000  0.78041000  1.0
  H  H6  1  0.53888000  0.62244000  0.21958000  1.0
  H  H7  1  0.96113000  0.37756000  0.71958000  1.0
  H  H8  1  0.39665000  0.95599000  0.18068000  1.0
  H  H9  1  0.10335000  0.04400000  0.68067000  1.0
  H  H10  1  0.60335000  0.45600000  0.31933000  1.0
  H  H11  1  0.89665000  0.54400000  0.81933000  1.0
  H  H12  1  0.49320000  0.88747000  0.10532000  1.0
  H  H13  1  0.00679000  0.11251000  0.60532000  1.0
  H  H14  1  0.50679000  0.38748000  0.39468000  1.0
  H  H15  1  0.99321000  0.61252000  0.89468000  1.0
  H  H16  1  0.66139000  0.87687000  0.04608000  1.0
  H  H17  1  0.83860000  0.12312000  0.54608000  1.0
  H  H18  1  0.33860000  0.37687000  0.45392000  1.0
  H  H19  1  0.16140000  0.62313000  0.95392000  1.0
  H  H20  1  0.56996000  0.47596000  0.53527000  1.0
  H  H21  1  0.93003000  0.52405000  0.03527000  1.0
  H  H22  1  0.43004000  0.97596000  0.96473000  1.0
  H  H23  1  0.06996000  0.02404000  0.46472000  1.0
  H  H24  1  0.48815000  0.77957000  0.45147000  1.0
  H  H25  1  0.01186000  0.22044000  0.95147000  1.0
  H  H26  1  0.51185000  0.27956000  0.04853000  1.0
  H  H27  1  0.98815000  0.72043000  0.54853000  1.0
  H  H28  1  0.48694000  0.95404000  0.46690000  1.0
  H  H29  1  0.01307000  0.04597000  0.96689000  1.0
  H  H30  1  0.51306000  0.45404000  0.03311000  1.0
  H  H31  1  0.98694000  0.54596000  0.53310000  1.0
  H  H32  1  0.56168000  0.29880000  0.52892000  1.0
  H  H33  1  0.93833000  0.70121000  0.02891000  1.0
  H  H34  1  0.43833000  0.79880000  0.97108000  1.0
  H  H35  1  0.06167000  0.20120000  0.47108000  1.0
  H  H36  1  0.42927000  0.61509000  0.69300000  1.0
  H  H37  1  0.07071000  0.38492000  0.19300000  1.0
  H  H38  1  0.57073000  0.11509000  0.80700000  1.0
  H  H39  1  0.92927000  0.88491000  0.30700000  1.0
  H  H40  1  0.49699000  0.62337000  0.51309000  1.0
  H  H41  1  0.00301000  0.37664000  0.01309000  1.0
  H  H42  1  0.50300000  0.12336000  0.98691000  1.0
  H  H43  1  0.99700000  0.87663000  0.48690000  1.0
  H  H44  1  0.33694000  0.46617000  0.71399000  1.0
  H  H45  1  0.16305000  0.53384000  0.21398000  1.0
  H  H46  1  0.66306000  0.96616000  0.78601000  1.0
  H  H47  1  0.83694000  0.03384000  0.28601000  1.0
  H  H48  1  0.27077000  0.09859000  0.23697000  1.0
  H  H49  1  0.22923000  0.90141000  0.73697000  1.0
  H  H50  1  0.72923000  0.59859000  0.26303000  1.0
  H  H51  1  0.77078000  0.40140000  0.76303000  1.0
  H  H52  1  0.19163000  0.05950000  0.31532000  1.0
  H  H53  1  0.30838000  0.94051000  0.81532000  1.0
  H  H54  1  0.80837000  0.55949000  0.18468000  1.0
  H  H55  1  0.69163000  0.44050000  0.68468000  1.0
  H  H56  1  0.26905000  0.07789000  0.47844000  1.0
  H  H57  1  0.23095000  0.92211000  0.97844000  1.0
  H  H58  1  0.73095000  0.57789000  0.02156000  1.0
  H  H59  1  0.76906000  0.42211000  0.52157000  1.0
  H  H60  1  0.60949000  0.81515000  0.34137000  1.0
  H  H61  1  0.89051000  0.18484000  0.84137000  1.0
  H  H62  1  0.39051000  0.31516000  0.15863000  1.0
  H  H63  1  0.10949000  0.68484000  0.65863000  1.0
  H  H64  1  0.77899000  0.81175000  0.28193000  1.0
  H  H65  1  0.72101000  0.18826000  0.78193000  1.0
  H  H66  1  0.22100000  0.31175000  0.21807000  1.0
  H  H67  1  0.27899000  0.68825000  0.71807000  1.0
  H  H68  1  0.27458000  0.90312000  0.32106000  1.0
  H  H69  1  0.22541000  0.09689000  0.82106000  1.0
  H  H70  1  0.72542000  0.40311000  0.17894000  1.0
  H  H71  1  0.77459000  0.59688000  0.67894000  1.0
  H  H72  1  0.46200000  0.93619000  0.71741000  1.0
  H  H73  1  0.03800000  0.06381000  0.21741000  1.0
  H  H74  1  0.53800000  0.43619000  0.78259000  1.0
  H  H75  1  0.96200000  0.56381000  0.28259000  1.0
  H  H76  1  0.33642000  0.28888000  0.69753000  1.0
  H  H77  1  0.16359000  0.71112000  0.19753000  1.0
  H  H78  1  0.66359000  0.78887000  0.80246000  1.0
  H  H79  1  0.83641000  0.21112000  0.30246000  1.0
  H  H80  1  0.46589000  0.75922000  0.71472000  1.0
  H  H81  1  0.03410000  0.24078000  0.21472000  1.0
  H  H82  1  0.53410000  0.25922000  0.78528000  1.0
  H  H83  1  0.96590000  0.74078000  0.28528000  1.0
  H  H84  1  0.55541000  0.15970000  0.41227000  1.0
  H  H85  1  0.94459000  0.84031000  0.91227000  1.0
  H  H86  1  0.44459000  0.65970000  0.08773000  1.0
  H  H87  1  0.05542000  0.34031000  0.58773000  1.0
  C  C88  1  0.73040000  0.84600000  0.16065000  1.0
  C  C89  1  0.76960000  0.15399000  0.66065000  1.0
  C  C90  1  0.26960000  0.34601000  0.33935000  1.0
  C  C91  1  0.23040000  0.65399000  0.83935000  1.0
  C  C92  1  0.55557000  0.87138000  0.14480000  1.0
  C  C93  1  0.94442000  0.12861000  0.64479000  1.0
  C  C94  1  0.44442000  0.37139000  0.35521000  1.0
  C  C95  1  0.05558000  0.62861000  0.85521000  1.0
  C  C96  1  0.44391000  0.86511000  0.26974000  1.0
  C  C97  1  0.05609000  0.13487000  0.76973000  1.0
  C  C98  1  0.55609000  0.36512000  0.23027000  1.0
  C  C99  1  0.94391000  0.63488000  0.73027000  1.0
  C  C100  1  0.64924000  0.86524000  0.11095000  1.0
  C  C101  1  0.85075000  0.13476000  0.61095000  1.0
  C  C102  1  0.35074000  0.36524000  0.38905000  1.0
  C  C103  1  0.14925000  0.63476000  0.88905000  1.0
  C  C104  1  0.45165000  0.48649000  0.62396000  1.0
  C  C105  1  0.04834000  0.51352000  0.12396000  1.0
  C  C106  1  0.54835000  0.98649000  0.87604000  1.0
  C  C107  1  0.95165000  0.01351000  0.37604000  1.0
  C  C108  1  0.51537000  0.43763000  0.57105000  1.0
  C  C109  1  0.98463000  0.56238000  0.07104000  1.0
  C  C110  1  0.48463000  0.93763000  0.92895000  1.0
  C  C111  1  0.01537000  0.06237000  0.42895000  1.0
  C  C112  1  0.54119000  0.85495000  0.22825000  1.0
  C  C113  1  0.95881000  0.14504000  0.72825000  1.0
  C  C114  1  0.45881000  0.35496000  0.27175000  1.0
  C  C115  1  0.04119000  0.64504000  0.77176000  1.0
  C  C116  1  0.83313000  0.85111000  0.12690000  1.0
  C  C117  1  0.66687000  0.14889000  0.62691000  1.0
  C  C118  1  0.16687000  0.35111000  0.37309000  1.0
  C  C119  1  0.33313000  0.64889000  0.87309000  1.0
  C  C120  1  0.48510000  0.81030000  0.51238000  1.0
  C  C121  1  0.01490000  0.18971000  0.01238000  1.0
  C  C122  1  0.51490000  0.31029000  0.98762000  1.0
  C  C123  1  0.98510000  0.68970000  0.48762000  1.0
  C  C124  1  0.48305000  0.90834000  0.52036000  1.0
  C  C125  1  0.01696000  0.09166000  0.02036000  1.0
  C  C126  1  0.51695000  0.40834000  0.97964000  1.0
  C  C127  1  0.98304000  0.59166000  0.47964000  1.0
  C  C128  1  0.21082000  0.92022000  0.20102000  1.0
  C  C129  1  0.28918000  0.07979000  0.70102000  1.0
  C  C130  1  0.78917000  0.42022000  0.29898000  1.0
  C  C131  1  0.71082000  0.57979000  0.79898000  1.0
  C  C132  1  0.33700000  0.08809000  0.35482000  1.0
  C  C133  1  0.16300000  0.91191000  0.85482000  1.0
  C  C134  1  0.66300000  0.58809000  0.14518000  1.0
  C  C135  1  0.83701000  0.41191000  0.64518000  1.0
  C  C136  1  0.51103000  0.33943000  0.56693000  1.0
  C  C137  1  0.98897000  0.66058000  0.06692000  1.0
  C  C138  1  0.48897000  0.83942000  0.93307000  1.0
  C  C139  1  0.01102000  0.16057000  0.43307000  1.0
  C  C140  1  0.45314000  0.58911000  0.63339000  1.0
  C  C141  1  0.04685000  0.41089000  0.13339000  1.0
  C  C142  1  0.54687000  0.08911000  0.86661000  1.0
  C  C143  1  0.95313000  0.91089000  0.36661000  1.0
  C  C144  1  0.47849000  0.65025000  0.57373000  1.0
  C  C145  1  0.02150000  0.34975000  0.07374000  1.0
  C  C146  1  0.52151000  0.15025000  0.92627000  1.0
  C  C147  1  0.97849000  0.84975000  0.42626000  1.0
  C  C148  1  0.38624000  0.43170000  0.67078000  1.0
  C  C149  1  0.11376000  0.56831000  0.17077000  1.0
  C  C150  1  0.61376000  0.93170000  0.82922000  1.0
  C  C151  1  0.88624000  0.06830000  0.32922000  1.0
  C  C152  1  0.26694000  0.05372000  0.29189000  1.0
  C  C153  1  0.23306000  0.94628000  0.79189000  1.0
  C  C154  1  0.73306000  0.55372000  0.20812000  1.0
  C  C155  1  0.76694000  0.44628000  0.70812000  1.0
  C  C156  1  0.33031000  0.09375000  0.43847000  1.0
  C  C157  1  0.16970000  0.90625000  0.93847000  1.0
  C  C158  1  0.66970000  0.59376000  0.06153000  1.0
  C  C159  1  0.83031000  0.40624000  0.56154000  1.0
  C  C160  1  0.47838000  0.75304000  0.58223000  1.0
  C  C161  1  0.02162000  0.24697000  0.08223000  1.0
  C  C162  1  0.52162000  0.25303000  0.91777000  1.0
  C  C163  1  0.97838000  0.74696000  0.41777000  1.0
  C  C164  1  0.62173000  0.82969000  0.27691000  1.0
  C  C165  1  0.87827000  0.17030000  0.77691000  1.0
  C  C166  1  0.37826000  0.32970000  0.22309000  1.0
  C  C167  1  0.12173000  0.67030000  0.72309000  1.0
  C  C168  1  0.71557000  0.82711000  0.24370000  1.0
  C  C169  1  0.78442000  0.17289000  0.74370000  1.0
  C  C170  1  0.28442000  0.32712000  0.25630000  1.0
  C  C171  1  0.21557000  0.67289000  0.75630000  1.0
  C  C172  1  0.28477000  0.94857000  0.26748000  1.0
  C  C173  1  0.21524000  0.05143000  0.76747000  1.0
  C  C174  1  0.71523000  0.44857000  0.23253000  1.0
  C  C175  1  0.78477000  0.55142000  0.73253000  1.0
  C  C176  1  0.46866000  0.89770000  0.66011000  1.0
  C  C177  1  0.03134000  0.10230000  0.16011000  1.0
  C  C178  1  0.53134000  0.39770000  0.83989000  1.0
  C  C179  1  0.96867000  0.60230000  0.33988000  1.0
  C  C180  1  0.38568000  0.33370000  0.66190000  1.0
  C  C181  1  0.11432000  0.66630000  0.16189000  1.0
  C  C182  1  0.61432000  0.83370000  0.83810000  1.0
  C  C183  1  0.88568000  0.16630000  0.33810000  1.0
  C  C184  1  0.47041000  0.79936000  0.65804000  1.0
  C  C185  1  0.02959000  0.20064000  0.15804000  1.0
  C  C186  1  0.52959000  0.29936000  0.84196000  1.0
  C  C187  1  0.97041000  0.70063000  0.34196000  1.0
  C  C188  1  0.47940000  0.13729000  0.40765000  1.0
  C  C189  1  0.02060000  0.86272000  0.90764000  1.0
  C  C190  1  0.52060000  0.63729000  0.09235000  1.0
  C  C191  1  0.97941000  0.36272000  0.59235000  1.0
  N  N192  1  0.43223000  0.11629000  0.33709000  1.0
  N  N193  1  0.06777000  0.88372000  0.83709000  1.0
  N  N194  1  0.56777000  0.61628000  0.16291000  1.0
  N  N195  1  0.93224000  0.38372000  0.66291000  1.0
  N  N196  1  0.41884000  0.12395000  0.47006000  1.0
  N  N197  1  0.08116000  0.87606000  0.97006000  1.0
  N  N198  1  0.58116000  0.62395000  0.02994000  1.0
  N  N199  1  0.91885000  0.37605000  0.52994000  1.0
  N  N200  1  0.47489000  0.95209000  0.59275000  1.0
  N  N201  1  0.02511000  0.04792000  0.09275000  1.0
  N  N202  1  0.52512000  0.45209000  0.90725000  1.0
  N  N203  1  0.97489000  0.54791000  0.40724000  1.0
  N  N204  1  0.44695000  0.28800000  0.61114000  1.0
  N  N205  1  0.05306000  0.71200000  0.11113000  1.0
  N  N206  1  0.55305000  0.78800000  0.88886000  1.0
  N  N207  1  0.94694000  0.21199000  0.38886000  1.0
  N  N208  1  0.38418000  0.93391000  0.23877000  1.0
  N  N209  1  0.11582000  0.06609000  0.73876000  1.0
  N  N210  1  0.61581000  0.43391000  0.26124000  1.0
  N  N211  1  0.88419000  0.56609000  0.76125000  1.0
  O  O212  1  0.23852000  0.91973000  0.12774000  1.0
  O  O213  1  0.26149000  0.08028000  0.62774000  1.0
  O  O214  1  0.76148000  0.41973000  0.37226000  1.0
  O  O215  1  0.73852000  0.58027000  0.87226000  1.0
  O  O216  1  0.42262000  0.81745000  0.33100000  1.0
  O  O217  1  0.07737000  0.18253000  0.83099000  1.0
  O  O218  1  0.57737000  0.31746000  0.16901000  1.0
  O  O219  1  0.92263000  0.68254000  0.66901000  1.0
  O  O220  1  0.90096000  0.86194000  0.18090000  1.0
  O  O221  1  0.59903000  0.13807000  0.68090000  1.0
  O  O222  1  0.09903000  0.36193000  0.31910000  1.0
  O  O223  1  0.40097000  0.63807000  0.81910000  1.0
  O  O224  1  0.84824000  0.84735000  0.05127000  1.0
  O  O225  1  0.65175000  0.15266000  0.55128000  1.0
  O  O226  1  0.15175000  0.34735000  0.44872000  1.0
  O  O227  1  0.34825000  0.65265000  0.94872000  1.0
  O  O228  1  0.12405000  0.90168000  0.22623000  1.0
  O  O229  1  0.37595000  0.09833000  0.72624000  1.0
  O  O230  1  0.87594000  0.40167000  0.27378000  1.0
  O  O231  1  0.62405000  0.59833000  0.77377000  1.0
