# generated using pymatgen
data_Zn4H36C39O19
_symmetry_space_group_name_H-M   'P 1'
_cell_length_a   17.89422762
_cell_length_b   18.01740000
_cell_length_c   18.24930000
_cell_angle_alpha   61.79600000
_cell_angle_beta   61.44089773
_cell_angle_gamma   60.96023734
_symmetry_Int_Tables_number   1
_chemical_formula_structural   Zn4H36C39O19
_chemical_formula_sum   'Zn8 H72 C78 O38'
_cell_volume   4290.72062932
_cell_formula_units_Z   2
loop_
 _symmetry_equiv_pos_site_id
 _symmetry_equiv_pos_as_xyz
  1  'x, y, z'
loop_
 _atom_site_type_symbol
 _atom_site_label
 _atom_site_symmetry_multiplicity
 _atom_site_fract_x
 _atom_site_fract_y
 _atom_site_fract_z
 _atom_site_occupancy
  Zn  Zn0  1  0.03813000  0.85863000  0.07526000  1.0
  Zn  Zn1  1  0.04291000  0.02956000  0.90221000  1.0
  Zn  Zn2  1  0.04083000  0.03861000  0.07197000  1.0
  Zn  Zn3  1  0.86401000  0.03741000  0.06705000  1.0
  Zn  Zn4  1  0.44995000  0.62106000  0.49171000  1.0
  Zn  Zn5  1  0.45360000  0.44308000  0.65699000  1.0
  Zn  Zn6  1  0.62908000  0.44830000  0.49063000  1.0
  Zn  Zn7  1  0.45304000  0.44638000  0.48149000  1.0
  H  H8  1  0.85884000  0.07633000  0.60913000  1.0
  H  H9  1  0.79329000  0.05055000  0.72191000  1.0
  H  H10  1  0.82906000  0.97799000  0.66244000  1.0
  H  H11  1  0.95605000  0.01434000  0.70139000  1.0
  H  H12  1  0.99159000  0.94281000  0.64212000  1.0
  H  H13  1  0.87492000  0.91629000  0.83680000  1.0
  H  H14  1  0.90498000  0.84545000  0.77821000  1.0
  H  H15  1  0.03947000  0.88568000  0.80053000  1.0
  H  H16  1  0.06838000  0.80920000  0.74794000  1.0
  H  H17  1  0.21598000  0.60258000  0.80663000  1.0
  H  H18  1  0.38651000  0.76515000  0.66965000  1.0
  H  H19  1  0.28194000  0.85905000  0.77001000  1.0
  H  H20  1  0.46322000  0.09431000  0.90870000  1.0
  H  H21  1  0.43295000  0.06996000  0.84507000  1.0
  H  H22  1  0.53332000  0.99823000  0.87321000  1.0
  H  H23  1  0.34012000  0.02805000  0.00582000  1.0
  H  H24  1  0.43963000  0.95678000  0.03352000  1.0
  H  H25  1  0.37220000  0.93442000  0.92078000  1.0
  H  H26  1  0.47494000  0.86363000  0.94368000  1.0
  H  H27  1  0.28771000  0.89788000  0.08277000  1.0
  H  H28  1  0.39075000  0.82112000  0.10428000  1.0
  H  H29  1  0.38376000  0.61463000  0.24607000  1.0
  H  H30  1  0.19916000  0.77723000  0.41683000  1.0
  H  H31  1  0.10964000  0.87427000  0.31256000  1.0
  H  H32  1  0.55735000  0.09777000  0.50928000  1.0
  H  H33  1  0.67361000  0.07542000  0.48368000  1.0
  H  H34  1  0.62016000  0.99867000  0.57361000  1.0
  H  H35  1  0.64806000  0.04268000  0.37893000  1.0
  H  H36  1  0.59425000  0.96716000  0.46777000  1.0
  H  H37  1  0.79311000  0.94598000  0.41467000  1.0
  H  H38  1  0.73924000  0.87039000  0.50485000  1.0
  H  H39  1  0.76042000  0.91863000  0.31218000  1.0
  H  H40  1  0.70677000  0.84205000  0.40289000  1.0
  H  H41  1  0.76919000  0.62451000  0.41966000  1.0
  H  H42  1  0.61530000  0.77118000  0.24087000  1.0
  H  H43  1  0.71285000  0.86797000  0.14788000  1.0
  H  H44  1  0.98721000  0.66923000  0.46767000  1.0
  H  H45  1  0.02961000  0.72358000  0.49145000  1.0
  H  H46  1  0.93627000  0.68772000  0.57109000  1.0
  H  H47  1  0.12932000  0.56234000  0.50436000  1.0
  H  H48  1  0.03648000  0.52721000  0.58267000  1.0
  H  H49  1  0.12001000  0.62638000  0.60549000  1.0
  H  H50  1  0.02332000  0.59655000  0.68348000  1.0
  H  H51  1  0.21106000  0.46583000  0.61821000  1.0
  H  H52  1  0.11420000  0.43489000  0.69652000  1.0
  H  H53  1  0.12193000  0.28013000  0.90604000  1.0
  H  H54  1  0.27466000  0.10416000  0.74797000  1.0
  H  H55  1  0.36807000  0.20392000  0.64011000  1.0
  H  H56  1  0.42654000  0.68480000  0.90024000  1.0
  H  H57  1  0.47087000  0.73582000  0.78527000  1.0
  H  H58  1  0.53835000  0.68669000  0.85354000  1.0
  H  H59  1  0.46943000  0.58348000  0.81803000  1.0
  H  H60  1  0.53521000  0.53498000  0.88665000  1.0
  H  H61  1  0.59581000  0.63193000  0.68756000  1.0
  H  H62  1  0.66193000  0.58540000  0.75607000  1.0
  H  H63  1  0.59070000  0.48059000  0.72683000  1.0
  H  H64  1  0.65985000  0.43355000  0.79366000  1.0
  H  H65  1  0.88059000  0.27646000  0.74742000  1.0
  H  H66  1  0.71934000  0.10445000  0.89968000  1.0
  H  H67  1  0.61825000  0.20379000  0.80588000  1.0
  H  H68  1  0.90621000  0.64811000  0.04913000  1.0
  H  H69  1  0.78992000  0.71079000  0.08748000  1.0
  H  H70  1  0.83121000  0.67116000  0.99796000  1.0
  H  H71  1  0.82393000  0.55224000  0.18888000  1.0
  H  H72  1  0.86908000  0.51195000  0.10004000  1.0
  H  H73  1  0.67065000  0.62454000  0.17061000  1.0
  H  H74  1  0.71596000  0.58931000  0.07780000  1.0
  H  H75  1  0.71124000  0.46666000  0.26572000  1.0
  H  H76  1  0.76435000  0.42893000  0.17262000  1.0
  H  H77  1  0.70658000  0.28599000  0.14783000  1.0
  H  H78  1  0.88004000  0.10673000  0.30721000  1.0
  H  H79  1  0.78890000  0.19977000  0.40921000  1.0
  C  C80  1  0.84951000  0.02124000  0.67095000  1.0
  C  C81  1  0.93592000  0.96878000  0.69575000  1.0
  C  C82  1  0.92698000  0.89086000  0.78166000  1.0
  C  C83  1  0.01637000  0.83970000  0.79963000  1.0
  C  C84  1  0.07813000  0.70360000  0.90834000  1.0
  C  C85  1  0.16816000  0.71571000  0.84956000  1.0
  C  C86  1  0.22988000  0.65929000  0.79825000  1.0
  C  C87  1  0.30785000  0.67809000  0.73336000  1.0
  C  C88  1  0.32621000  0.75093000  0.72146000  1.0
  C  C89  1  0.26783000  0.80349000  0.77635000  1.0
  C  C90  1  0.18871000  0.78653000  0.84011000  1.0
  C  C91  1  0.12700000  0.84632000  0.89598000  1.0
  C  C92  1  0.36994000  0.62159000  0.67448000  1.0
  C  C93  1  0.46277000  0.03973000  0.89751000  1.0
  C  C94  1  0.40963000  0.98425000  0.98156000  1.0
  C  C95  1  0.40617000  0.90752000  0.96940000  1.0
  C  C96  1  0.35535000  0.85353000  0.05581000  1.0
  C  C97  1  0.31843000  0.71797000  0.10999000  1.0
  C  C98  1  0.27818000  0.72970000  0.19911000  1.0
  C  C99  1  0.32404000  0.67193000  0.26020000  1.0
  C  C100  1  0.29506000  0.68937000  0.33847000  1.0
  C  C101  1  0.21946000  0.76351000  0.35664000  1.0
  C  C102  1  0.17046000  0.81796000  0.29833000  1.0
  C  C103  1  0.19911000  0.80123000  0.21989000  1.0
  C  C104  1  0.14339000  0.85915000  0.15996000  1.0
  C  C105  1  0.34734000  0.62963000  0.40120000  1.0
  C  C106  1  0.62331000  0.04431000  0.50636000  1.0
  C  C107  1  0.64754000  0.99477000  0.44512000  1.0
  C  C108  1  0.73889000  0.91902000  0.43916000  1.0
  C  C109  1  0.75903000  0.87133000  0.37862000  1.0
  C  C110  1  0.86928000  0.72983000  0.34943000  1.0
  C  C111  1  0.80602000  0.73664000  0.31259000  1.0
  C  C112  1  0.75634000  0.67844000  0.36055000  1.0
  C  C113  1  0.68796000  0.69122000  0.33427000  1.0
  C  C114  1  0.67000000  0.76103000  0.25930000  1.0
  C  C115  1  0.72333000  0.81539000  0.20833000  1.0
  C  C116  1  0.79160000  0.80329000  0.23421000  1.0
  C  C117  1  0.84995000  0.86039000  0.17582000  1.0
  C  C118  1  0.63245000  0.63118000  0.38816000  1.0
  C  C119  1  0.00118000  0.67001000  0.51967000  1.0
  C  C120  1  0.06573000  0.57965000  0.55741000  1.0
  C  C121  1  0.08649000  0.57737000  0.63094000  1.0
  C  C122  1  0.14661000  0.48509000  0.66946000  1.0
  C  C123  1  0.19586000  0.40914000  0.79952000  1.0
  C  C124  1  0.22329000  0.32230000  0.78528000  1.0
  C  C125  1  0.17534000  0.26397000  0.84748000  1.0
  C  C126  1  0.19453000  0.18554000  0.83378000  1.0
  C  C127  1  0.26238000  0.16450000  0.75818000  1.0
  C  C128  1  0.31316000  0.22026000  0.69799000  1.0
  C  C129  1  0.29446000  0.29853000  0.71159000  1.0
  C  C130  1  0.35461000  0.35349000  0.65219000  1.0
  C  C131  1  0.14015000  0.12531000  0.89664000  1.0
  C  C132  1  0.48744000  0.67925000  0.84241000  1.0
  C  C133  1  0.52241000  0.58999000  0.82711000  1.0
  C  C134  1  0.60859000  0.57863000  0.74791000  1.0
  C  C135  1  0.64277000  0.48844000  0.73594000  1.0
  C  C136  1  0.78215000  0.40416000  0.64435000  1.0
  C  C137  1  0.76347000  0.31966000  0.71183000  1.0
  C  C138  1  0.82246000  0.26134000  0.76065000  1.0
  C  C139  1  0.80605000  0.18450000  0.82798000  1.0
  C  C140  1  0.73162000  0.16394000  0.84603000  1.0
  C  C141  1  0.67524000  0.21932000  0.79493000  1.0
  C  C142  1  0.69073000  0.29691000  0.72798000  1.0
  C  C143  1  0.63166000  0.35264000  0.67183000  1.0
  C  C144  1  0.86534000  0.12564000  0.88403000  1.0
  C  C145  1  0.83734000  0.65427000  0.06169000  1.0
  C  C146  1  0.81737000  0.56795000  0.12558000  1.0
  C  C147  1  0.72367000  0.57178000  0.14099000  1.0
  C  C148  1  0.71004000  0.48257000  0.20007000  1.0
  C  C149  1  0.60722000  0.41060000  0.23020000  1.0
  C  C150  1  0.67798000  0.32268000  0.25767000  1.0
  C  C151  1  0.72486000  0.26754000  0.20473000  1.0
  C  C152  1  0.79735000  0.19008000  0.22308000  1.0
  C  C153  1  0.82209000  0.16625000  0.29548000  1.0
  C  C154  1  0.77244000  0.21826000  0.35119000  1.0
  C  C155  1  0.70036000  0.29605000  0.33283000  1.0
  C  C156  1  0.64371000  0.34930000  0.39496000  1.0
  C  C157  1  0.85271000  0.13395000  0.16351000  1.0
  O  O158  1  0.99601000  0.99061000  0.03041000  1.0
  O  O159  1  0.00454000  0.76977000  0.88431000  1.0
  O  O160  1  0.06822000  0.63906000  0.97263000  1.0
  O  O161  1  0.11501000  0.92949000  0.85528000  1.0
  O  O162  1  0.09229000  0.81024000  0.97762000  1.0
  O  O163  1  0.38386000  0.53795000  0.71080000  1.0
  O  O164  1  0.40319000  0.66183000  0.59329000  1.0
  O  O165  1  0.34803000  0.78522000  0.04053000  1.0
  O  O166  1  0.32756000  0.65348000  0.09706000  1.0
  O  O167  1  0.11390000  0.94317000  0.14713000  1.0
  O  O168  1  0.13019000  0.81931000  0.12759000  1.0
  O  O169  1  0.38198000  0.54702000  0.40750000  1.0
  O  O170  1  0.35317000  0.66624000  0.44278000  1.0
  O  O171  1  0.84673000  0.80068000  0.37462000  1.0
  O  O172  1  0.93589000  0.66529000  0.36003000  1.0
  O  O173  1  0.81018000  0.94269000  0.14060000  1.0
  O  O174  1  0.93402000  0.82167000  0.16579000  1.0
  O  O175  1  0.67492000  0.54849000  0.41801000  1.0
  O  O176  1  0.54779000  0.66806000  0.39949000  1.0
  O  O177  1  0.16372000  0.48656000  0.73923000  1.0
  O  O178  1  0.19781000  0.41219000  0.86371000  1.0
  O  O179  1  0.38938000  0.36049000  0.57063000  1.0
  O  O180  1  0.36623000  0.38848000  0.69059000  1.0
  O  O181  1  0.10083000  0.12553000  0.97642000  1.0
  O  O182  1  0.13747000  0.07787000  0.86437000  1.0
  O  O183  1  0.72257000  0.48377000  0.65805000  1.0
  O  O184  1  0.85133000  0.40235000  0.58192000  1.0
  O  O185  1  0.55106000  0.35115000  0.70542000  1.0
  O  O186  1  0.66744000  0.39696000  0.59391000  1.0
  O  O187  1  0.94838000  0.12021000  0.84897000  1.0
  O  O188  1  0.82723000  0.08558000  0.96317000  1.0
  O  O189  1  0.62311000  0.48668000  0.20790000  1.0
  O  O190  1  0.54008000  0.41598000  0.22380000  1.0
  O  O191  1  0.68236000  0.35621000  0.43386000  1.0
  O  O192  1  0.56021000  0.38308000  0.40319000  1.0
  O  O193  1  0.81322000  0.12861000  0.12425000  1.0
  O  O194  1  0.93589000  0.09586000  0.15736000  1.0
  O  O195  1  0.49679000  0.48996000  0.52869000  1.0
