# generated using pymatgen
data_V6Zn2H22C30N6O17
_symmetry_space_group_name_H-M   'P 1'
_cell_length_a   9.70198000
_cell_length_b   10.16460000
_cell_length_c   11.11930000
_cell_angle_alpha   66.57170000
_cell_angle_beta   81.63760000
_cell_angle_gamma   74.41790000
_symmetry_Int_Tables_number   1
_chemical_formula_structural   V6Zn2H22C30N6O17
_chemical_formula_sum   'V6 Zn2 H22 C30 N6 O17'
_cell_volume   968.24225426
_cell_formula_units_Z   1
loop_
 _symmetry_equiv_pos_site_id
 _symmetry_equiv_pos_as_xyz
  1  'x, y, z'
loop_
 _atom_site_type_symbol
 _atom_site_label
 _atom_site_symmetry_multiplicity
 _atom_site_fract_x
 _atom_site_fract_y
 _atom_site_fract_z
 _atom_site_occupancy
  V  V0  1  0.27673000  0.67711000  0.02846000  1.0
  V  V1  1  0.99538000  0.69058000  0.87524000  1.0
  V  V2  1  0.86884000  0.38682000  0.97437000  1.0
  V  V3  1  0.54491000  0.37523000  0.13996000  1.0
  V  V4  1  0.41384000  0.97181000  0.00282000  1.0
  V  V5  1  0.73156000  0.99969000  0.81713000  1.0
  Zn  Zn6  1  0.79108000  0.33651000  0.71675000  1.0
  Zn  Zn7  1  0.49632000  0.03356000  0.24700000  1.0
  H  H8  1  0.48894000  0.32529000  0.87667000  1.0
  H  H9  1  0.23138000  0.43839000  0.82755000  1.0
  H  H10  1  0.16738000  0.60398000  0.59612000  1.0
  H  H11  1  0.36368000  0.63912000  0.42026000  1.0
  H  H12  1  0.54212000  0.65571000  0.28265000  1.0
  H  H13  1  0.76631000  0.65829000  0.14342000  1.0
  H  H14  1  0.00113000  0.52284000  0.24528000  1.0
  H  H15  1  0.18995000  0.41289000  0.35267000  1.0
  H  H16  1  0.39720000  0.25344000  0.48733000  1.0
  H  H17  1  0.35507000  0.11697000  0.72969000  1.0
  H  H18  1  0.10267000  0.15268000  0.82599000  1.0
  H  H19  1  0.17956000  0.21129000  0.14979000  1.0
  H  H20  1  0.93017000  0.23048000  0.25352000  1.0
  H  H21  1  0.89875000  0.08441000  0.49573000  1.0
  H  H22  1  0.11390000  0.93040000  0.62189000  1.0
  H  H23  1  0.30794000  0.81872000  0.72206000  1.0
  H  H24  1  0.54849000  0.68730000  0.81361000  1.0
  H  H25  1  0.76693000  0.70692000  0.66699000  1.0
  H  H26  1  0.93763000  0.72818000  0.52272000  1.0
  H  H27  1  0.12449000  0.76129000  0.33842000  1.0
  H  H28  1  0.05005000  0.93012000  0.11043000  1.0
  H  H29  1  0.79076000  0.05001000  0.07375000  1.0
  C  C30  1  0.45684000  0.39674000  0.77705000  1.0
  C  C31  1  0.31312000  0.46120000  0.74891000  1.0
  C  C32  1  0.27878000  0.55081000  0.61970000  1.0
  C  C33  1  0.38784000  0.57157000  0.52228000  1.0
  C  C34  1  0.52945000  0.50309000  0.55760000  1.0
  C  C35  1  0.65370000  0.51690000  0.46238000  1.0
  C  C36  1  0.64439000  0.59523000  0.32711000  1.0
  C  C37  1  0.77059000  0.59709000  0.24900000  1.0
  C  C38  1  0.90229000  0.52138000  0.30566000  1.0
  C  C39  1  0.90433000  0.44664000  0.44203000  1.0
  C  C40  1  0.03550000  0.36118000  0.51644000  1.0
  C  C41  1  0.17311000  0.35135000  0.45694000  1.0
  C  C42  1  0.28966000  0.26193000  0.53352000  1.0
  C  C43  1  0.26605000  0.18661000  0.66727000  1.0
  C  C44  1  0.12623000  0.20465000  0.72104000  1.0
  C  C45  1  0.16035000  0.15377000  0.25469000  1.0
  C  C46  1  0.02226000  0.16287000  0.31270000  1.0
  C  C47  1  0.00473000  0.08191000  0.44629000  1.0
  C  C48  1  0.12559000  0.99560000  0.51795000  1.0
  C  C49  1  0.26086000  0.99370000  0.45438000  1.0
  C  C50  1  0.39574000  0.90990000  0.52339000  1.0
  C  C51  1  0.40410000  0.82749000  0.65825000  1.0
  C  C52  1  0.53891000  0.75414000  0.70929000  1.0
  C  C53  1  0.66187000  0.76403000  0.62708000  1.0
  C  C54  1  0.64611000  0.84816000  0.49327000  1.0
  C  C55  1  0.76565000  0.86625000  0.39308000  1.0
  C  C56  1  0.90858000  0.79586000  0.42188000  1.0
  C  C57  1  0.01243000  0.81669000  0.31955000  1.0
  C  C58  1  0.97202000  0.90850000  0.19245000  1.0
  C  C59  1  0.82739000  0.97620000  0.17143000  1.0
  N  N60  1  0.56164000  0.41833000  0.68366000  1.0
  N  N61  1  0.78173000  0.44674000  0.51548000  1.0
  N  N62  1  0.01369000  0.28958000  0.64717000  1.0
  N  N63  1  0.27657000  0.07133000  0.32410000  1.0
  N  N64  1  0.51534000  0.91781000  0.44604000  1.0
  N  N65  1  0.72724000  0.95444000  0.26916000  1.0
  O  O66  1  0.50721000  0.36466000  0.28996000  1.0
  O  O67  1  0.74633000  0.03014000  0.66173000  1.0
  O  O68  1  0.43947000  0.54989000  0.02621000  1.0
  O  O69  1  0.86075000  0.82846000  0.90729000  1.0
  O  O70  1  0.96662000  0.51722000  0.97835000  1.0
  O  O71  1  0.30683000  0.84882000  0.00203000  1.0
  O  O72  1  0.55379000  0.97834000  0.87691000  1.0
  O  O73  1  0.79769000  0.44661000  0.82706000  1.0
  O  O74  1  0.97906000  0.22803000  0.00217000  1.0
  O  O75  1  0.31248000  0.13553000  0.97151000  1.0
  O  O76  1  0.50589000  0.23273000  0.12139000  1.0
  O  O77  1  0.48324000  0.90977000  0.15130000  1.0
  O  O78  1  0.73198000  0.37237000  0.10336000  1.0
  O  O79  1  0.76990000  0.13941000  0.84108000  1.0
  O  O80  1  0.99144000  0.71099000  0.72398000  1.0
  O  O81  1  0.16981000  0.70438000  0.89837000  1.0
  O  O82  1  0.19277000  0.61599000  0.16858000  1.0
