# generated using pymatgen
data_CoH10C12Br2(NO3)2
_symmetry_space_group_name_H-M   'P 1'
_cell_length_a   7.03927000
_cell_length_b   9.88947000
_cell_length_c   10.27280000
_cell_angle_alpha   89.99980000
_cell_angle_beta   82.66800000
_cell_angle_gamma   89.99910000
_symmetry_Int_Tables_number   1
_chemical_formula_structural   CoH10C12Br2(NO3)2
_chemical_formula_sum   'Co2 H20 C24 Br4 N4 O12'
_cell_volume   709.28992288
_cell_formula_units_Z   2
loop_
 _symmetry_equiv_pos_site_id
 _symmetry_equiv_pos_as_xyz
  1  'x, y, z'
loop_
 _atom_site_type_symbol
 _atom_site_label
 _atom_site_symmetry_multiplicity
 _atom_site_fract_x
 _atom_site_fract_y
 _atom_site_fract_z
 _atom_site_occupancy
  Co  Co0  1  0.00000000  0.00000000  0.50000000  1.0
  Co  Co1  1  0.50000000  0.50000000  0.50000000  1.0
  H  H2  1  0.21275000  0.12201000  0.66549000  1.0
  H  H3  1  0.28726000  0.62201000  0.33451000  1.0
  H  H4  1  0.78726000  0.87799000  0.33451000  1.0
  H  H5  1  0.71274000  0.37799000  0.66549000  1.0
  H  H6  1  0.03668000  0.22665000  0.65727000  1.0
  H  H7  1  0.46332000  0.72665000  0.34274000  1.0
  H  H8  1  0.96332000  0.77335000  0.34273000  1.0
  H  H9  1  0.53668000  0.27335000  0.65726000  1.0
  H  H10  1  0.10291000  0.44390000  0.10554000  1.0
  H  H11  1  0.39709000  0.94390000  0.89446000  1.0
  H  H12  1  0.89708000  0.55610000  0.89446000  1.0
  H  H13  1  0.60291000  0.05609000  0.10554000  1.0
  H  H14  1  0.09309000  0.01837000  0.20517000  1.0
  H  H15  1  0.40691000  0.51837000  0.79483000  1.0
  H  H16  1  0.90691000  0.98163000  0.79483000  1.0
  H  H17  1  0.59309000  0.48163000  0.20517000  1.0
  H  H18  1  0.87324000  0.29419000  0.48793000  1.0
  H  H19  1  0.62677000  0.79419000  0.51207000  1.0
  H  H20  1  0.12677000  0.70581000  0.51207000  1.0
  H  H21  1  0.37323000  0.20581000  0.48793000  1.0
  C  C22  1  0.93483000  0.52957000  0.34760000  1.0
  C  C23  1  0.56518000  0.02957000  0.65241000  1.0
  C  C24  1  0.06517000  0.47042000  0.65241000  1.0
  C  C25  1  0.43482000  0.97043000  0.34759000  1.0
  C  C26  1  0.98089000  0.38727000  0.30218000  1.0
  C  C27  1  0.51911000  0.88727000  0.69782000  1.0
  C  C28  1  0.01911000  0.61273000  0.69782000  1.0
  C  C29  1  0.48089000  0.11273000  0.30218000  1.0
  C  C30  1  0.06733000  0.36129000  0.17444000  1.0
  C  C31  1  0.43267000  0.86129000  0.82556000  1.0
  C  C32  1  0.93267000  0.63871000  0.82556000  1.0
  C  C33  1  0.56733000  0.13871000  0.17444000  1.0
  C  C34  1  0.10260000  0.22715000  0.13764000  1.0
  C  C35  1  0.39740000  0.72715000  0.86236000  1.0
  C  C36  1  0.89740000  0.77285000  0.86236000  1.0
  C  C37  1  0.60260000  0.27285000  0.13764000  1.0
  C  C38  1  0.06355000  0.12411000  0.22954000  1.0
  C  C39  1  0.43645000  0.62411000  0.77046000  1.0
  C  C40  1  0.93645000  0.87589000  0.77046000  1.0
  C  C41  1  0.56355000  0.37589000  0.22954000  1.0
  C  C42  1  0.94144000  0.27846000  0.38822000  1.0
  C  C43  1  0.55856000  0.77846000  0.61178000  1.0
  C  C44  1  0.05856000  0.72154000  0.61178000  1.0
  C  C45  1  0.44143000  0.22154000  0.38822000  1.0
  Br  Br46  1  0.21005000  0.18321000  0.96407000  1.0
  Br  Br47  1  0.28995000  0.68321000  0.03593000  1.0
  Br  Br48  1  0.78995000  0.81679000  0.03593000  1.0
  Br  Br49  1  0.71004000  0.31679000  0.96407000  1.0
  N  N50  1  0.98812000  0.15062000  0.35404000  1.0
  N  N51  1  0.51188000  0.65063000  0.64596000  1.0
  N  N52  1  0.01189000  0.84937000  0.64596000  1.0
  N  N53  1  0.48812000  0.34937000  0.35404000  1.0
  O  O54  1  0.05085000  0.62235000  0.30038000  1.0
  O  O55  1  0.44917000  0.12236000  0.69962000  1.0
  O  O56  1  0.94915000  0.37765000  0.69962000  1.0
  O  O57  1  0.55084000  0.87764000  0.30038000  1.0
  O  O58  1  0.78874000  0.55250000  0.42985000  1.0
  O  O59  1  0.71127000  0.05249000  0.57015000  1.0
  O  O60  1  0.21126000  0.44750000  0.57015000  1.0
  O  O61  1  0.28873000  0.94751000  0.42985000  1.0
  O  O62  1  0.08447000  0.13198000  0.63609000  1.0
  O  O63  1  0.41553000  0.63199000  0.36391000  1.0
  O  O64  1  0.91553000  0.86802000  0.36391000  1.0
  O  O65  1  0.58447000  0.36801000  0.63609000  1.0
