# generated using pymatgen
data_NaH11C10S(N2O3)2
_symmetry_space_group_name_H-M   'P 1'
_cell_length_a   7.40942000
_cell_length_b   9.62997000
_cell_length_c   10.22730000
_cell_angle_alpha   102.15800000
_cell_angle_beta   102.24900000
_cell_angle_gamma   92.39870000
_symmetry_Int_Tables_number   1
_chemical_formula_structural   NaH11C10S(N2O3)2
_chemical_formula_sum   'Na2 H22 C20 S2 N8 O12'
_cell_volume   694.26945286
_cell_formula_units_Z   2
loop_
 _symmetry_equiv_pos_site_id
 _symmetry_equiv_pos_as_xyz
  1  'x, y, z'
loop_
 _atom_site_type_symbol
 _atom_site_label
 _atom_site_symmetry_multiplicity
 _atom_site_fract_x
 _atom_site_fract_y
 _atom_site_fract_z
 _atom_site_occupancy
  Na  Na0  1  0.42662000  0.15273000  0.09941000  1.0
  Na  Na1  1  0.57338000  0.84731000  0.90059000  1.0
  H  H2  1  0.63891000  0.94221000  0.48631000  1.0
  H  H3  1  0.36106000  0.05779000  0.51367000  1.0
  H  H4  1  0.45603000  0.89588000  0.33540000  1.0
  H  H5  1  0.54398000  0.10409000  0.66458000  1.0
  H  H6  1  0.68928000  0.91161000  0.31991000  1.0
  H  H7  1  0.31074000  0.08838000  0.68009000  1.0
  H  H8  1  0.74639000  0.25415000  0.40616000  1.0
  H  H9  1  0.25364000  0.74584000  0.59384000  1.0
  H  H10  1  0.90150000  0.12355000  0.57683000  1.0
  H  H11  1  0.09850000  0.87647000  0.42321000  1.0
  H  H12  1  0.03433000  0.51875000  0.88330000  1.0
  H  H13  1  0.96564000  0.48127000  0.11670000  1.0
  H  H14  1  0.88187000  0.64806000  0.71548000  1.0
  H  H15  1  0.11813000  0.35193000  0.28448000  1.0
  H  H16  1  0.20698000  0.96465000  0.88081000  1.0
  H  H17  1  0.79304000  0.03535000  0.11920000  1.0
  H  H18  1  0.21272000  0.86682000  0.98434000  1.0
  H  H19  1  0.78727000  0.13317000  0.01565000  1.0
  H  H20  1  0.27427000  0.18409000  0.34372000  1.0
  H  H21  1  0.72574000  0.81591000  0.65627000  1.0
  H  H22  1  0.15858000  0.04777000  0.24271000  1.0
  H  H23  1  0.84141000  0.95223000  0.75730000  1.0
  C  C24  1  0.60445000  0.47564000  0.32030000  1.0
  C  C25  1  0.39555000  0.52435000  0.67969000  1.0
  C  C26  1  0.54424000  0.60315000  0.27380000  1.0
  C  C27  1  0.45581000  0.39688000  0.72619000  1.0
  C  C28  1  0.61598000  0.72490000  0.38354000  1.0
  C  C29  1  0.38405000  0.27511000  0.61648000  1.0
  C  C30  1  0.59823000  0.87710000  0.38146000  1.0
  C  C31  1  0.40178000  0.12290000  0.61854000  1.0
  C  C32  1  0.79940000  0.45932000  0.54953000  1.0
  C  C33  1  0.20058000  0.54067000  0.45046000  1.0
  C  C34  1  0.80806000  0.31121000  0.51063000  1.0
  C  C35  1  0.19193000  0.68880000  0.48936000  1.0
  C  C36  1  0.89500000  0.23824000  0.60680000  1.0
  C  C37  1  0.10500000  0.76176000  0.39321000  1.0
  C  C38  1  0.97433000  0.31099000  0.74143000  1.0
  C  C39  1  0.02566000  0.68901000  0.25858000  1.0
  C  C40  1  0.97124000  0.45925000  0.77940000  1.0
  C  C41  1  0.02875000  0.54075000  0.22059000  1.0
  C  C42  1  0.88445000  0.53321000  0.68421000  1.0
  C  C43  1  0.11555000  0.46678000  0.31579000  1.0
  S  S44  1  0.06514000  0.21397000  0.86683000  1.0
  S  S45  1  0.93484000  0.78603000  0.13317000  1.0
  N  N46  1  0.70638000  0.53394000  0.45458000  1.0
  N  N47  1  0.29359000  0.46605000  0.54541000  1.0
  N  N48  1  0.70949000  0.68186000  0.48984000  1.0
  N  N49  1  0.29048000  0.31813000  0.51019000  1.0
  N  N50  1  0.44193000  0.59961000  0.15213000  1.0
  N  N51  1  0.55819000  0.40042000  0.84786000  1.0
  N  N52  1  0.35254000  0.58994000  0.04493000  1.0
  N  N53  1  0.64743000  0.41005000  0.95511000  1.0
  O  O54  1  0.57472000  0.34859000  0.26034000  1.0
  O  O55  1  0.42531000  0.65139000  0.73967000  1.0
  O  O56  1  0.94681000  0.23660000  0.96656000  1.0
  O  O57  1  0.05316000  0.76339000  0.03343000  1.0
  O  O58  1  0.05005000  0.06309000  0.78935000  1.0
  O  O59  1  0.94992000  0.93690000  0.21065000  1.0
  O  O60  1  0.25906000  0.26892000  0.92917000  1.0
  O  O61  1  0.74093000  0.73108000  0.07083000  1.0
  O  O62  1  0.29459000  0.92607000  0.94861000  1.0
  O  O63  1  0.70541000  0.07393000  0.05140000  1.0
  O  O64  1  0.27750000  0.10708000  0.26370000  1.0
  O  O65  1  0.72248000  0.89293000  0.73629000  1.0
