# generated using pymatgen
data_ZnH11C14NO4
_symmetry_space_group_name_H-M   'P 1'
_cell_length_a   7.46362000
_cell_length_b   10.84210000
_cell_length_c   17.65020000
_cell_angle_alpha   86.56830000
_cell_angle_beta   79.87290000
_cell_angle_gamma   69.90670000
_symmetry_Int_Tables_number   1
_chemical_formula_structural   ZnH11C14NO4
_chemical_formula_sum   'Zn4 H44 C56 N4 O16'
_cell_volume   1320.44625686
_cell_formula_units_Z   4
loop_
 _symmetry_equiv_pos_site_id
 _symmetry_equiv_pos_as_xyz
  1  'x, y, z'
loop_
 _atom_site_type_symbol
 _atom_site_label
 _atom_site_symmetry_multiplicity
 _atom_site_fract_x
 _atom_site_fract_y
 _atom_site_fract_z
 _atom_site_occupancy
  Zn  Zn0  1  0.17053000  0.94924000  0.16743000  1.0
  Zn  Zn1  1  0.11836000  0.05120000  0.66763000  1.0
  Zn  Zn2  1  0.52763000  0.03696000  0.22635000  1.0
  Zn  Zn3  1  0.56343000  0.96320000  0.72619000  1.0
  H  H4  1  0.13870000  0.57902000  0.24310000  1.0
  H  H5  1  0.71649000  0.42174000  0.74325000  1.0
  H  H6  1  0.05494000  0.37723000  0.27940000  1.0
  H  H7  1  0.43106000  0.62355000  0.77941000  1.0
  H  H8  1  0.74075000  0.36520000  0.25309000  1.0
  H  H9  1  0.10514000  0.63506000  0.75294000  1.0
  H  H10  1  0.51756000  0.55507000  0.19374000  1.0
  H  H11  1  0.07214000  0.44497000  0.69358000  1.0
  H  H12  1  0.14311000  0.24263000  0.41608000  1.0
  H  H13  1  0.38429000  0.75726000  0.91558000  1.0
  H  H14  1  0.91386000  0.34193000  0.53527000  1.0
  H  H15  1  0.25486000  0.65776000  0.03468000  1.0
  H  H16  1  0.57207000  0.34280000  0.55200000  1.0
  H  H17  1  0.91404000  0.65669000  0.05162000  1.0
  H  H18  1  0.46840000  0.24182000  0.45481000  1.0
  H  H19  1  0.70916000  0.75752000  0.95460000  1.0
  H  H20  1  0.87074000  0.19862000  0.14217000  1.0
  H  H21  1  0.06847000  0.80164000  0.64247000  1.0
  H  H22  1  0.76193000  0.33782000  0.03010000  1.0
  H  H23  1  0.09800000  0.66233000  0.53045000  1.0
  H  H24  1  0.24340000  0.06434000  0.88396000  1.0
  H  H25  1  0.30605000  0.93559000  0.38412000  1.0
  H  H26  1  0.33503000  0.93837000  0.00218000  1.0
  H  H27  1  0.27261000  0.06163000  0.50234000  1.0
  H  H28  1  0.82989000  0.38619000  0.88958000  1.0
  H  H29  1  0.21341000  0.61386000  0.38994000  1.0
  H  H30  1  0.04468000  0.28351000  0.83112000  1.0
  H  H31  1  0.32587000  0.71629000  0.33140000  1.0
  H  H32  1  0.83867000  0.23558000  0.85150000  1.0
  H  H33  1  0.07197000  0.76442000  0.35184000  1.0
  H  H34  1  0.29911000  0.30128000  0.18560000  1.0
  H  H35  1  0.59894000  0.69898000  0.68544000  1.0
  H  H36  1  0.21280000  0.43549000  0.06913000  1.0
  H  H37  1  0.64678000  0.56451000  0.56900000  1.0
  H  H38  1  0.60633000  0.10404000  0.93150000  1.0
  H  H39  1  0.70976000  0.89562000  0.43131000  1.0
  H  H40  1  0.67472000  0.98462000  0.05416000  1.0
  H  H41  1  0.65873000  0.01530000  0.55396000  1.0
  H  H42  1  0.20831000  0.42808000  0.92659000  1.0
  H  H43  1  0.63581000  0.57127000  0.42641000  1.0
  H  H44  1  0.45254000  0.41573000  0.90066000  1.0
  H  H45  1  0.86756000  0.58392000  0.40064000  1.0
  H  H46  1  0.37647000  0.29273000  0.86964000  1.0
  H  H47  1  0.66871000  0.70654000  0.36944000  1.0
  C  C48  1  0.54308000  0.78455000  0.15577000  1.0
  C  C49  1  0.32700000  0.21545000  0.65586000  1.0
  C  C50  1  0.92791000  0.80222000  0.18391000  1.0
  C  C51  1  0.72915000  0.19823000  0.68411000  1.0
  C  C52  1  0.69496000  0.67636000  0.18943000  1.0
  C  C53  1  0.37063000  0.32382000  0.68946000  1.0
  C  C54  1  0.87143000  0.68309000  0.20331000  1.0
  C  C55  1  0.55360000  0.31730000  0.70346000  1.0
  C  C56  1  0.00136000  0.57289000  0.23400000  1.0
  C  C57  1  0.57313000  0.42768000  0.73414000  1.0
  C  C58  1  0.95511000  0.45995000  0.25318000  1.0
  C  C59  1  0.41402000  0.54067000  0.75323000  1.0
  C  C60  1  0.78016000  0.45308000  0.23915000  1.0
  C  C61  1  0.23243000  0.54730000  0.73906000  1.0
  C  C62  1  0.65279000  0.56023000  0.20636000  1.0
  C  C63  1  0.21241000  0.43997000  0.70625000  1.0
  C  C64  1  0.66725000  0.13601000  0.31866000  1.0
  C  C65  1  0.80218000  0.86349000  0.81838000  1.0
  C  C66  1  0.08203000  0.12143000  0.30124000  1.0
  C  C67  1  0.20187000  0.87871000  0.80107000  1.0
  C  C68  1  0.74537000  0.18503000  0.37939000  1.0
  C  C69  1  0.92894000  0.81471000  0.87919000  1.0
  C  C70  1  0.93671000  0.18591000  0.36955000  1.0
  C  C71  1  0.12108000  0.81404000  0.86928000  1.0
  C  C72  1  0.99401000  0.24426000  0.42544000  1.0
  C  C73  1  0.23682000  0.75563000  0.92502000  1.0
  C  C74  1  0.86525000  0.30045000  0.49130000  1.0
  C  C75  1  0.16460000  0.69920000  0.99082000  1.0
  C  C76  1  0.67581000  0.29942000  0.50104000  1.0
  C  C77  1  0.97425000  0.70009000  0.00066000  1.0
  C  C78  1  0.61659000  0.24204000  0.44578000  1.0
  C  C79  1  0.85749000  0.75743000  0.94551000  1.0
  C  C80  1  0.94974000  0.17367000  0.08384000  1.0
  C  C81  1  0.12223000  0.82656000  0.58411000  1.0
  C  C82  1  0.88984000  0.24961000  0.02088000  1.0
  C  C83  1  0.13773000  0.75056000  0.52117000  1.0
  C  C84  1  0.99015000  0.21114000  0.94632000  1.0
  C  C85  1  0.19927000  0.78900000  0.44658000  1.0
  C  C86  1  0.15456000  0.09783000  0.93969000  1.0
  C  C87  1  0.25079000  0.90220000  0.43989000  1.0
  C  C88  1  0.20795000  0.02681000  0.00497000  1.0
  C  C89  1  0.23365000  0.97326000  0.50514000  1.0
  C  C90  1  0.92263000  0.28429000  0.87624000  1.0
  C  C91  1  0.20456000  0.71571000  0.37654000  1.0
  C  C92  1  0.36344000  0.26234000  0.12800000  1.0
  C  C93  1  0.62451000  0.73780000  0.62784000  1.0
  C  C94  1  0.31797000  0.33629000  0.06274000  1.0
  C  C95  1  0.65291000  0.66371000  0.56261000  1.0
  C  C96  1  0.40404000  0.28171000  0.98961000  1.0
  C  C97  1  0.68458000  0.71808000  0.48945000  1.0
  C  C98  1  0.53680000  0.15327000  0.98660000  1.0
  C  C99  1  0.68913000  0.84651000  0.48640000  1.0
  C  C100  1  0.57380000  0.08490000  0.05446000  1.0
  C  C101  1  0.65795000  0.91500000  0.55428000  1.0
  C  C102  1  0.35654000  0.35782000  0.91797000  1.0
  C  C103  1  0.71361000  0.64168000  0.41783000  1.0
  N  N104  1  0.10647000  0.06285000  0.07592000  1.0
  N  N105  1  0.16837000  0.93734000  0.57613000  1.0
  N  N106  1  0.48723000  0.13773000  0.12427000  1.0
  N  N107  1  0.62395000  0.86238000  0.62409000  1.0
  O  O108  1  0.43193000  0.88107000  0.20311000  1.0
  O  O109  1  0.31212000  0.11910000  0.70323000  1.0
  O  O110  1  0.51044000  0.77421000  0.09037000  1.0
  O  O111  1  0.28433000  0.22556000  0.59041000  1.0
  O  O112  1  0.80577000  0.91019000  0.16762000  1.0
  O  O113  1  0.71503000  0.09019000  0.66772000  1.0
  O  O114  1  0.10690000  0.78650000  0.18346000  1.0
  O  O115  1  0.89237000  0.21405000  0.68372000  1.0
  O  O116  1  0.61678000  0.21137000  0.26298000  1.0
  O  O117  1  0.82761000  0.78814000  0.76259000  1.0
  O  O118  1  0.64059000  0.02450000  0.32752000  1.0
  O  O119  1  0.66381000  0.97486000  0.82733000  1.0
  O  O120  1  0.24741000  0.13429000  0.29108000  1.0
  O  O121  1  0.38027000  0.86543000  0.79065000  1.0
  O  O122  1  0.02512000  0.05625000  0.25845000  1.0
  O  O123  1  0.07953000  0.94440000  0.75858000  1.0
