# generated using pymatgen
data_InH14C24N2O5
_symmetry_space_group_name_H-M   'P 1'
_cell_length_a   7.32450000
_cell_length_b   16.87600000
_cell_length_c   17.19780000
_cell_angle_alpha   89.99990000
_cell_angle_beta   90.00010000
_cell_angle_gamma   102.54600000
_symmetry_Int_Tables_number   1
_chemical_formula_structural   InH14C24N2O5
_chemical_formula_sum   'In2 H28 C48 N4 O10'
_cell_volume   2075.03038824
_cell_formula_units_Z   2
loop_
 _symmetry_equiv_pos_site_id
 _symmetry_equiv_pos_as_xyz
  1  'x, y, z'
loop_
 _atom_site_type_symbol
 _atom_site_label
 _atom_site_symmetry_multiplicity
 _atom_site_fract_x
 _atom_site_fract_y
 _atom_site_fract_z
 _atom_site_occupancy
  In  In0  1  0.50000000  0.50000000  0.50000000  1.0
  In  In1  1  0.00000000  0.50000000  0.50000000  1.0
  H  H2  1  0.18871000  0.37754000  0.50000000  1.0
  H  H3  1  0.81129000  0.62246000  0.50000000  1.0
  H  H4  1  0.50000000  0.00000000  0.06309000  1.0
  H  H5  1  0.50000000  0.00000000  0.93691000  1.0
  H  H6  1  0.34455000  0.68889000  0.07843000  1.0
  H  H7  1  0.65544000  0.31111000  0.07843000  1.0
  H  H8  1  0.34456000  0.68889000  0.92157000  1.0
  H  H9  1  0.65544000  0.31111000  0.92157000  1.0
  H  H10  1  0.45902000  0.91809000  0.29734000  1.0
  H  H11  1  0.54099000  0.08191000  0.29734000  1.0
  H  H12  1  0.45902000  0.91809000  0.70266000  1.0
  H  H13  1  0.54098000  0.08191000  0.70266000  1.0
  H  H14  1  0.68354000  0.77999000  0.20977000  1.0
  H  H15  1  0.31645000  0.22001000  0.20977000  1.0
  H  H16  1  0.09628000  0.78007000  0.79010000  1.0
  H  H17  1  0.90372000  0.21993000  0.79010000  1.0
  H  H18  1  0.31646000  0.22001000  0.79022000  1.0
  H  H19  1  0.68355000  0.77999000  0.79022000  1.0
  H  H20  1  0.90372000  0.21993000  0.20990000  1.0
  H  H21  1  0.09628000  0.78008000  0.20990000  1.0
  H  H22  1  0.63032000  0.67530000  0.31554000  1.0
  H  H23  1  0.36968000  0.32470000  0.31555000  1.0
  H  H24  1  0.04468000  0.67537000  0.68432000  1.0
  H  H25  1  0.95532000  0.32463000  0.68432000  1.0
  H  H26  1  0.36968000  0.32470000  0.68445000  1.0
  H  H27  1  0.63032000  0.67530000  0.68445000  1.0
  H  H28  1  0.95532000  0.32463000  0.31568000  1.0
  H  H29  1  0.04468000  0.67537000  0.31568000  1.0
  C  C30  1  0.42532000  0.85081000  0.14166000  1.0
  C  C31  1  0.57467000  0.14919000  0.14166000  1.0
  C  C32  1  0.42533000  0.85081000  0.85834000  1.0
  C  C33  1  0.57467000  0.14919000  0.85834000  1.0
  C  C34  1  0.41313000  0.82592000  0.06331000  1.0
  C  C35  1  0.58686000  0.17408000  0.06331000  1.0
  C  C36  1  0.41313000  0.82592000  0.93669000  1.0
  C  C37  1  0.58686000  0.17408000  0.93669000  1.0
  C  C38  1  0.37054000  0.74084000  0.03956000  1.0
  C  C39  1  0.62945000  0.25916000  0.03956000  1.0
  C  C40  1  0.37055000  0.74084000  0.96044000  1.0
  C  C41  1  0.62945000  0.25916000  0.96044000  1.0
  C  C42  1  0.46568000  0.93140000  0.16799000  1.0
  C  C43  1  0.53432000  0.06860000  0.16800000  1.0
  C  C44  1  0.46568000  0.93140000  0.83200000  1.0
  C  C45  1  0.53432000  0.06860000  0.83200000  1.0
  C  C46  1  0.47912000  0.95828000  0.24738000  1.0
  C  C47  1  0.52089000  0.04172000  0.24738000  1.0
  C  C48  1  0.47912000  0.95828000  0.75262000  1.0
  C  C49  1  0.52088000  0.04172000  0.75262000  1.0
  C  C50  1  0.39340000  0.78702000  0.20344000  1.0
  C  C51  1  0.60660000  0.21298000  0.20344000  1.0
  C  C52  1  0.39340000  0.78702000  0.79656000  1.0
  C  C53  1  0.60660000  0.21298000  0.79656000  1.0
  C  C54  1  0.54360000  0.75712000  0.23326000  1.0
  C  C55  1  0.45640000  0.24288000  0.23326000  1.0
  C  C56  1  0.21333000  0.75715000  0.76667000  1.0
  C  C57  1  0.78667000  0.24285000  0.76667000  1.0
  C  C58  1  0.45640000  0.24288000  0.76674000  1.0
  C  C59  1  0.54360000  0.75712000  0.76674000  1.0
  C  C60  1  0.78667000  0.24285000  0.23333000  1.0
  C  C61  1  0.21333000  0.75715000  0.23333000  1.0
  C  C62  1  0.51470000  0.69901000  0.29211000  1.0
  C  C63  1  0.48530000  0.30099000  0.29211000  1.0
  C  C64  1  0.18401000  0.69903000  0.70783000  1.0
  C  C65  1  0.81599000  0.30096000  0.70783000  1.0
  C  C66  1  0.48531000  0.30099000  0.70789000  1.0
  C  C67  1  0.51469000  0.69901000  0.70789000  1.0
  C  C68  1  0.81599000  0.30096000  0.29217000  1.0
  C  C69  1  0.18401000  0.69904000  0.29217000  1.0
  C  C70  1  0.33474000  0.66979000  0.32212000  1.0
  C  C71  1  0.66526000  0.33020000  0.32212000  1.0
  C  C72  1  0.33474000  0.66979000  0.67788000  1.0
  C  C73  1  0.66526000  0.33021000  0.67788000  1.0
  C  C74  1  0.30378000  0.60773000  0.38557000  1.0
  C  C75  1  0.69622000  0.39227000  0.38557000  1.0
  C  C76  1  0.30378000  0.60773000  0.61443000  1.0
  C  C77  1  0.69622000  0.39227000  0.61443000  1.0
  N  N78  1  0.43835000  0.87646000  0.00000000  1.0
  N  N79  1  0.56165000  0.12354000  0.00000000  1.0
  N  N80  1  0.50000000  0.00000000  0.12240000  1.0
  N  N81  1  0.50000000  0.00000000  0.87760000  1.0
  O  O82  1  0.44756000  0.58413000  0.40998000  1.0
  O  O83  1  0.55244000  0.41586000  0.40998000  1.0
  O  O84  1  0.13643000  0.58418000  0.58995000  1.0
  O  O85  1  0.86357000  0.41583000  0.58995000  1.0
  O  O86  1  0.55244000  0.41586000  0.59002000  1.0
  O  O87  1  0.44756000  0.58414000  0.59002000  1.0
  O  O88  1  0.86356000  0.41582000  0.41005000  1.0
  O  O89  1  0.13644000  0.58418000  0.41005000  1.0
  O  O90  1  0.21824000  0.43636000  0.50000000  1.0
  O  O91  1  0.78176000  0.56364000  0.50000000  1.0
