# generated using pymatgen
data_CdH8C12(BrN3)2
_symmetry_space_group_name_H-M   'P 1'
_cell_length_a   8.60217000
_cell_length_b   8.60528000
_cell_length_c   11.57850000
_cell_angle_alpha   90.14240000
_cell_angle_beta   101.62100000
_cell_angle_gamma   93.65350000
_symmetry_Int_Tables_number   1
_chemical_formula_structural   CdH8C12(BrN3)2
_chemical_formula_sum   'Cd2 H16 C24 Br4 N12'
_cell_volume   837.70969465
_cell_formula_units_Z   2
loop_
 _symmetry_equiv_pos_site_id
 _symmetry_equiv_pos_as_xyz
  1  'x, y, z'
loop_
 _atom_site_type_symbol
 _atom_site_label
 _atom_site_symmetry_multiplicity
 _atom_site_fract_x
 _atom_site_fract_y
 _atom_site_fract_z
 _atom_site_occupancy
  Cd  Cd0  1  0.81566000  0.21736000  0.22209000  1.0
  Cd  Cd1  1  0.18434000  0.78263000  0.77789000  1.0
  H  H2  1  0.47727000  0.02050000  0.12038000  1.0
  H  H3  1  0.52276000  0.97944000  0.87961000  1.0
  H  H4  1  0.26455000  0.87076000  0.20079000  1.0
  H  H5  1  0.73548000  0.12920000  0.79919000  1.0
  H  H6  1  0.33001000  0.77680000  0.41100000  1.0
  H  H7  1  0.66997000  0.22319000  0.58900000  1.0
  H  H8  1  0.61096000  0.81561000  0.52210000  1.0
  H  H9  1  0.38901000  0.18439000  0.47792000  1.0
  H  H10  1  0.10157000  0.43742000  0.37350000  1.0
  H  H11  1  0.89841000  0.56263000  0.62649000  1.0
  H  H12  1  0.38584000  0.52836000  0.37925000  1.0
  H  H13  1  0.61414000  0.47167000  0.62074000  1.0
  H  H14  1  0.51307000  0.45218000  0.21093000  1.0
  H  H15  1  0.48694000  0.54782000  0.78908000  1.0
  H  H16  1  0.36226000  0.26569000  0.05801000  1.0
  H  H17  1  0.63775000  0.73431000  0.94200000  1.0
  C  C18  1  0.50146000  0.97452000  0.20952000  1.0
  C  C19  1  0.49856000  0.02543000  0.79048000  1.0
  C  C20  1  0.38285000  0.89183000  0.25530000  1.0
  C  C21  1  0.61716000  0.10815000  0.74469000  1.0
  C  C22  1  0.41991000  0.83727000  0.36992000  1.0
  C  C23  1  0.58006000  0.16271000  0.63008000  1.0
  C  C24  1  0.57586000  0.86046000  0.43350000  1.0
  C  C25  1  0.42412000  0.13951000  0.56651000  1.0
  C  C26  1  0.68756000  0.94447000  0.38154000  1.0
  C  C27  1  0.31244000  0.05551000  0.61847000  1.0
  C  C28  1  0.85362000  0.97403000  0.44508000  1.0
  C  C29  1  0.14637000  0.02598000  0.55493000  1.0
  C  C30  1  0.16482000  0.39933000  0.30653000  1.0
  C  C31  1  0.83517000  0.60072000  0.69346000  1.0
  C  C32  1  0.32194000  0.45277000  0.30743000  1.0
  C  C33  1  0.67806000  0.54728000  0.69257000  1.0
  C  C34  1  0.39282000  0.40870000  0.21552000  1.0
  C  C35  1  0.60718000  0.59133000  0.78448000  1.0
  C  C36  1  0.30890000  0.30354000  0.13008000  1.0
  C  C37  1  0.69112000  0.69647000  0.86993000  1.0
  C  C38  1  0.15696000  0.24571000  0.14065000  1.0
  C  C39  1  0.84305000  0.75431000  0.85935000  1.0
  C  C40  1  0.07248000  0.11739000  0.06393000  1.0
  C  C41  1  0.92753000  0.88263000  0.93606000  1.0
  Br  Br42  1  0.67306000  0.31455000  0.01777000  1.0
  Br  Br43  1  0.32696000  0.68549000  0.98224000  1.0
  Br  Br44  1  0.77902000  0.37942000  0.40947000  1.0
  Br  Br45  1  0.22100000  0.62050000  0.59058000  1.0
  N  N46  1  0.64916000  0.00328000  0.27182000  1.0
  N  N47  1  0.35085000  0.99669000  0.72817000  1.0
  N  N48  1  0.95979000  0.04276000  0.38642000  1.0
  N  N49  1  0.04019000  0.95724000  0.61360000  1.0
  N  N50  1  0.10834000  0.06946000  0.44144000  1.0
  N  N51  1  0.89164000  0.93054000  0.55857000  1.0
  N  N52  1  0.08421000  0.29805000  0.22495000  1.0
  N  N53  1  0.91578000  0.70199000  0.77504000  1.0
  N  N54  1  0.93768000  0.04950000  0.09035000  1.0
  N  N55  1  0.06232000  0.95053000  0.90964000  1.0
  N  N56  1  0.86350000  0.93094000  0.02608000  1.0
  N  N57  1  0.13649000  0.06908000  0.97391000  1.0
