# generated using pymatgen
data_Zr3H26C54N9O16
_symmetry_space_group_name_H-M   'P 1'
_cell_length_a   19.01600000
_cell_length_b   19.02170000
_cell_length_c   19.16170000
_cell_angle_alpha   91.02880000
_cell_angle_beta   91.44360000
_cell_angle_gamma   91.41420000
_symmetry_Int_Tables_number   1
_chemical_formula_structural   Zr3H26C54N9O16
_chemical_formula_sum   'Zr6 H52 C108 N18 O32'
_cell_volume   6925.59869184
_cell_formula_units_Z   2
loop_
 _symmetry_equiv_pos_site_id
 _symmetry_equiv_pos_as_xyz
  1  'x, y, z'
loop_
 _atom_site_type_symbol
 _atom_site_label
 _atom_site_symmetry_multiplicity
 _atom_site_fract_x
 _atom_site_fract_y
 _atom_site_fract_z
 _atom_site_occupancy
  Zr  Zr0  1  0.81496000  0.94035000  0.85592000  1.0
  Zr  Zr1  1  0.76420000  0.84286000  0.00244000  1.0
  Zr  Zr2  1  0.98513000  0.96621000  0.93104000  1.0
  Zr  Zr3  1  0.91301000  0.79403000  0.90765000  1.0
  Zr  Zr4  1  0.83648000  0.01396000  0.02636000  1.0
  Zr  Zr5  1  0.93546000  0.86774000  0.07703000  1.0
  H  H6  1  0.77057000  0.79745000  0.86067000  1.0
  H  H7  1  0.88403000  0.06971000  0.90162000  1.0
  H  H8  1  0.04093000  0.84070000  0.97790000  1.0
  H  H9  1  0.80847000  0.91343000  0.13028000  1.0
  H  H10  1  0.25627000  0.75053000  0.74159000  1.0
  H  H11  1  0.19281000  0.94789000  0.65696000  1.0
  H  H12  1  0.09310000  0.95056000  0.74020000  1.0
  H  H13  1  0.14787000  0.74591000  0.81328000  1.0
  H  H14  1  0.55272000  0.88478000  0.64098000  1.0
  H  H15  1  0.42032000  0.82365000  0.80912000  1.0
  H  H16  1  0.52428000  0.83089000  0.89263000  1.0
  H  H17  1  0.65582000  0.89469000  0.72461000  1.0
  H  H18  1  0.19379000  0.93850000  0.29460000  1.0
  H  H19  1  0.32571000  0.99428000  0.12422000  1.0
  H  H20  1  0.22107000  0.98662000  0.04158000  1.0
  H  H21  1  0.08988000  0.92811000  0.21162000  1.0
  H  H22  1  0.55554000  0.86894000  0.27570000  1.0
  H  H23  1  0.48775000  0.06128000  0.18354000  1.0
  H  H24  1  0.59431000  0.06383000  0.10934000  1.0
  H  H25  1  0.65350000  0.86362000  0.19064000  1.0
  H  H26  1  0.66211000  0.29488000  0.81885000  1.0
  H  H27  1  0.55066000  0.21210000  0.99308000  1.0
  H  H28  1  0.63095000  0.10921000  0.99533000  1.0
  H  H29  1  0.73268000  0.18553000  0.81234000  1.0
  H  H30  1  0.54930000  0.58258000  0.94216000  1.0
  H  H31  1  0.72041000  0.44829000  0.89311000  1.0
  H  H32  1  0.80474000  0.55213000  0.90068000  1.0
  H  H33  1  0.63362000  0.68562000  0.95214000  1.0
  H  H34  1  0.11895000  0.11931000  0.99210000  1.0
  H  H35  1  0.94795000  0.25047000  0.04939000  1.0
  H  H36  1  0.03162000  0.35469000  0.05830000  1.0
  H  H37  1  0.20287000  0.22289000  0.00345000  1.0
  H  H38  1  0.08502000  0.51150000  0.12177000  1.0
  H  H39  1  0.19320000  0.59044000  0.94382000  1.0
  H  H40  1  0.11056000  0.69099000  0.93839000  1.0
  H  H41  1  0.01201000  0.61930000  0.12497000  1.0
  H  H42  1  0.73931000  0.70061000  0.36453000  1.0
  H  H43  1  0.90082000  0.57714000  0.27323000  1.0
  H  H44  1  0.90013000  0.65549000  0.16933000  1.0
  H  H45  1  0.72987000  0.77087000  0.25588000  1.0
  H  H46  1  0.80581000  0.75026000  0.51384000  1.0
  H  H47  1  0.86369000  0.57934000  0.64546000  1.0
  H  H48  1  0.87102000  0.66216000  0.74852000  1.0
  H  H49  1  0.81048000  0.83287000  0.61765000  1.0
  H  H50  1  0.89026000  0.14912000  0.18122000  1.0
  H  H51  1  0.95808000  0.97859000  0.30863000  1.0
  H  H52  1  0.96589000  0.06059000  0.41277000  1.0
  H  H53  1  0.90122000  0.23174000  0.28460000  1.0
  H  H54  1  0.87889000  0.23872000  0.66266000  1.0
  H  H55  1  0.00380000  0.08695000  0.55664000  1.0
  H  H56  1  0.00591000  0.01253000  0.66249000  1.0
  H  H57  1  0.87424000  0.16099000  0.76632000  1.0
  C  C58  1  0.93428000  0.20496000  0.53693000  1.0
  C  C59  1  0.93171000  0.19680000  0.41798000  1.0
  C  C60  1  0.90774000  0.30005000  0.47270000  1.0
  C  C61  1  0.83103000  0.60019000  0.39293000  1.0
  C  C62  1  0.83619000  0.61261000  0.51147000  1.0
  C  C63  1  0.86225000  0.50837000  0.45959000  1.0
  C  C64  1  0.17926000  0.47726000  0.02623000  1.0
  C  C65  1  0.27123000  0.41097000  0.99631000  1.0
  C  C66  1  0.16883000  0.35785000  0.02767000  1.0
  C  C67  1  0.56828000  0.32799000  0.91521000  1.0
  C  C68  1  0.47768000  0.39552000  0.94657000  1.0
  C  C69  1  0.58188000  0.44724000  0.91868000  1.0
  C  C70  1  0.44830000  0.95991000  0.27068000  1.0
  C  C71  1  0.38184000  0.93165000  0.36275000  1.0
  C  C72  1  0.32893000  0.96301000  0.26070000  1.0
  C  C73  1  0.29877000  0.85597000  0.65999000  1.0
  C  C74  1  0.36646000  0.88537000  0.56918000  1.0
  C  C75  1  0.41805000  0.85581000  0.67252000  1.0
  C  C76  1  0.93047000  0.03199000  0.77935000  1.0
  C  C77  1  0.65930000  0.87511000  0.86130000  1.0
  C  C78  1  0.85095000  0.79975000  0.75225000  1.0
  C  C79  1  0.73986000  0.08593000  0.91199000  1.0
  C  C80  1  0.82173000  0.76999000  0.14950000  1.0
  C  C81  1  0.08752000  0.94077000  0.07390000  1.0
  C  C82  1  0.77212000  0.68762000  0.93960000  1.0
  C  C83  1  0.68526000  0.95636000  0.09218000  1.0
  C  C84  1  0.97999000  0.11774000  0.00263000  1.0
  C  C85  1  0.05962000  0.85412000  0.83509000  1.0
  C  C86  1  0.00381000  0.71722000  0.02291000  1.0
  C  C87  1  0.90767000  0.01078000  0.17783000  1.0
  C  C88  1  0.21826000  0.79242000  0.73911000  1.0
  C  C89  1  0.23076000  0.84942000  0.69528000  1.0
  C  C90  1  0.18302000  0.90434000  0.69196000  1.0
  C  C91  1  0.12701000  0.90526000  0.73728000  1.0
  C  C92  1  0.11499000  0.84853000  0.78162000  1.0
  C  C93  1  0.15881000  0.79049000  0.77992000  1.0
  C  C94  1  0.54707000  0.87289000  0.69600000  1.0
  C  C95  1  0.48032000  0.85389000  0.72015000  1.0
  C  C96  1  0.47254000  0.83793000  0.79109000  1.0
  C  C97  1  0.53017000  0.84230000  0.83748000  1.0
  C  C98  1  0.59619000  0.86395000  0.81367000  1.0
  C  C99  1  0.60416000  0.87832000  0.74246000  1.0
  C  C100  1  0.19915000  0.94918000  0.23928000  1.0
  C  C101  1  0.26602000  0.96634000  0.21413000  1.0
  C  C102  1  0.27346000  0.98122000  0.14292000  1.0
  C  C103  1  0.21548000  0.97663000  0.09706000  1.0
  C  C104  1  0.14959000  0.95575000  0.12173000  1.0
  C  C105  1  0.14167000  0.94345000  0.19330000  1.0
  C  C106  1  0.56393000  0.91084000  0.23849000  1.0
  C  C107  1  0.51548000  0.96503000  0.23375000  1.0
  C  C108  1  0.52633000  0.02001000  0.18705000  1.0
  C  C109  1  0.58471000  0.02068000  0.14482000  1.0
  C  C110  1  0.62926000  0.96320000  0.14487000  1.0
  C  C111  1  0.61892000  0.90850000  0.19200000  1.0
  C  C112  1  0.37685000  0.91485000  0.43510000  1.0
  C  C113  1  0.37228000  0.90191000  0.49683000  1.0
  C  C114  1  0.65353000  0.25232000  0.85520000  1.0
  C  C115  1  0.60273000  0.25986000  0.90650000  1.0
  C  C116  1  0.59119000  0.20606000  0.95432000  1.0
  C  C117  1  0.63505000  0.14862000  0.95491000  1.0
  C  C118  1  0.68672000  0.14195000  0.90443000  1.0
  C  C119  1  0.69355000  0.19220000  0.85241000  1.0
  C  C120  1  0.60515000  0.57650000  0.93299000  1.0
  C  C121  1  0.63002000  0.50932000  0.91742000  1.0
  C  C122  1  0.70199000  0.50087000  0.90481000  1.0
  C  C123  1  0.74876000  0.55836000  0.90928000  1.0
  C  C124  1  0.72419000  0.62482000  0.92764000  1.0
  C  C125  1  0.65197000  0.63352000  0.93847000  1.0
  C  C126  1  0.10065000  0.17099000  0.00746000  1.0
  C  C127  1  0.02851000  0.17915000  0.01895000  1.0
  C  C128  1  0.00386000  0.24481000  0.03995000  1.0
  C  C129  1  0.05027000  0.30252000  0.04522000  1.0
  C  C130  1  0.12194000  0.29498000  0.03078000  1.0
  C  C131  1  0.14717000  0.22824000  0.01378000  1.0
  C  C132  1  0.09231000  0.55288000  0.08386000  1.0
  C  C133  1  0.14296000  0.54466000  0.03252000  1.0
  C  C134  1  0.15279000  0.59682000  0.98265000  1.0
  C  C135  1  0.10758000  0.65315000  0.98038000  1.0
  C  C136  1  0.05622000  0.66065000  0.03112000  1.0
  C  C137  1  0.05094000  0.61210000  0.08484000  1.0
  C  C138  1  0.34355000  0.40597000  0.97824000  1.0
  C  C139  1  0.40531000  0.40136000  0.96416000  1.0
  C  C140  1  0.77219000  0.68923000  0.32019000  1.0
  C  C141  1  0.82083000  0.63512000  0.32538000  1.0
  C  C142  1  0.86407000  0.62006000  0.26906000  1.0
  C  C143  1  0.86293000  0.66300000  0.21103000  1.0
  C  C144  1  0.81521000  0.71787000  0.20663000  1.0
  C  C145  1  0.76766000  0.72886000  0.26007000  1.0
  C  C146  1  0.81896000  0.73145000  0.56580000  1.0
  C  C147  1  0.83463000  0.65995000  0.57346000  1.0
  C  C148  1  0.85208000  0.63480000  0.63993000  1.0
  C  C149  1  0.85605000  0.68079000  0.69700000  1.0
  C  C150  1  0.84168000  0.75250000  0.68918000  1.0
  C  C151  1  0.82185000  0.77732000  0.62333000  1.0
  C  C152  1  0.90759000  0.13059000  0.23210000  1.0
  C  C153  1  0.92238000  0.05893000  0.23917000  1.0
  C  C154  1  0.94598000  0.03406000  0.30380000  1.0
  C  C155  1  0.95067000  0.07962000  0.36145000  1.0
  C  C156  1  0.93345000  0.15085000  0.35499000  1.0
  C  C157  1  0.91363000  0.17638000  0.28929000  1.0
  C  C158  1  0.90645000  0.18914000  0.66320000  1.0
  C  C159  1  0.94103000  0.16697000  0.60316000  1.0
  C  C160  1  0.97755000  0.10365000  0.60374000  1.0
  C  C161  1  0.97822000  0.06207000  0.66257000  1.0
  C  C162  1  0.93977000  0.08200000  0.72064000  1.0
  C  C163  1  0.90451000  0.14590000  0.72104000  1.0
  C  C164  1  0.87905000  0.43550000  0.46499000  1.0
  C  C165  1  0.89199000  0.37329000  0.46886000  1.0
  N  N166  1  0.94560000  0.16634000  0.47913000  1.0
  N  N167  1  0.91354000  0.26462000  0.41157000  1.0
  N  N168  1  0.91476000  0.27266000  0.53699000  1.0
  N  N169  1  0.81923000  0.64042000  0.44961000  1.0
  N  N170  1  0.85653000  0.54563000  0.51959000  1.0
  N  N171  1  0.85363000  0.53363000  0.39454000  1.0
  N  N172  1  0.24486000  0.47610000  0.00140000  1.0
  N  N173  1  0.23530000  0.35020000  0.00618000  1.0
  N  N174  1  0.14073000  0.42016000  0.04298000  1.0
  N  N175  1  0.50232000  0.32989000  0.93903000  1.0
  N  N176  1  0.51530000  0.45577000  0.93951000  1.0
  N  N177  1  0.60871000  0.38479000  0.90160000  1.0
  N  N178  1  0.44696000  0.93515000  0.33605000  1.0
  N  N179  1  0.32119000  0.94206000  0.32706000  1.0
  N  N180  1  0.39147000  0.97772000  0.23252000  1.0
  N  N181  1  0.30086000  0.88047000  0.59458000  1.0
  N  N182  1  0.42663000  0.87659000  0.60620000  1.0
  N  N183  1  0.35524000  0.83968000  0.69949000  1.0
  O  O184  1  0.98061000  0.02216000  0.82240000  1.0
  O  O185  1  0.66301000  0.84939000  0.92184000  1.0
  O  O186  1  0.82468000  0.86032000  0.75564000  1.0
  O  O187  1  0.75271000  0.04504000  0.86132000  1.0
  O  O188  1  0.77014000  0.08634000  0.97284000  1.0
  O  O189  1  0.88718000  0.77161000  0.80173000  1.0
  O  O190  1  0.70853000  0.91222000  0.83350000  1.0
  O  O191  1  0.86874000  0.00303000  0.78012000  1.0
  O  O192  1  0.78768000  0.93935000  0.96023000  1.0
  O  O193  1  0.91169000  0.89936000  0.88070000  1.0
  O  O194  1  0.80012000  0.82770000  0.89097000  1.0
  O  O195  1  0.88116000  0.02204000  0.91857000  1.0
  O  O196  1  0.77045000  0.78133000  0.10828000  1.0
  O  O197  1  0.08326000  0.96598000  0.01311000  1.0
  O  O198  1  0.83322000  0.69180000  0.91484000  1.0
  O  O199  1  0.72642000  0.00793000  0.08031000  1.0
  O  O200  1  0.91845000  0.11324000  0.02650000  1.0
  O  O201  1  0.01937000  0.80199000  0.84741000  1.0
  O  O202  1  0.99158000  0.75878000  0.07324000  1.0
  O  O203  1  0.93332000  0.94990000  0.17397000  1.0
  O  O204  1  0.97510000  0.71841000  0.96137000  1.0
  O  O205  1  0.86597000  0.03714000  0.13173000  1.0
  O  O206  1  0.74378000  0.73615000  0.97656000  1.0
  O  O207  1  0.05926000  0.91469000  0.86623000  1.0
  O  O208  1  0.00703000  0.07220000  0.96124000  1.0
  O  O209  1  0.68700000  0.89495000  0.06298000  1.0
  O  O210  1  0.88263000  0.80102000  0.14953000  1.0
  O  O211  1  0.04121000  0.89938000  0.10061000  1.0
  O  O212  1  0.93050000  0.96110000  0.02315000  1.0
  O  O213  1  0.86994000  0.81748000  0.00282000  1.0
  O  O214  1  0.99314000  0.85721000  0.97491000  1.0
  O  O215  1  0.82577000  0.91045000  0.08317000  1.0
