# generated using pymatgen
data_Zn7H32C44(NO)18
_symmetry_space_group_name_H-M   'P 1'
_cell_length_a   9.76839000
_cell_length_b   11.89510000
_cell_length_c   15.19090000
_cell_angle_alpha   96.36820000
_cell_angle_beta   99.08510000
_cell_angle_gamma   112.47000000
_symmetry_Int_Tables_number   1
_chemical_formula_structural   Zn7H32C44(NO)18
_chemical_formula_sum   'Zn7 H32 C44 N18 O18'
_cell_volume   1582.02576179
_cell_formula_units_Z   1
loop_
 _symmetry_equiv_pos_site_id
 _symmetry_equiv_pos_as_xyz
  1  'x, y, z'
loop_
 _atom_site_type_symbol
 _atom_site_label
 _atom_site_symmetry_multiplicity
 _atom_site_fract_x
 _atom_site_fract_y
 _atom_site_fract_z
 _atom_site_occupancy
  Zn  Zn0  1  0.98906000  0.56465000  0.29712000  1.0
  Zn  Zn1  1  0.89347000  0.69934000  0.67386000  1.0
  Zn  Zn2  1  0.44249000  0.60672000  0.06947000  1.0
  Zn  Zn3  1  0.01094000  0.43535000  0.70288000  1.0
  Zn  Zn4  1  0.10653000  0.30066000  0.32614000  1.0
  Zn  Zn5  1  0.55751000  0.39328000  0.93053000  1.0
  Zn  Zn6  1  0.50000000  0.50000000  0.50000000  1.0
  H  H7  1  0.30738000  0.00445000  0.81890000  1.0
  H  H8  1  0.75103000  0.05002000  0.95407000  1.0
  H  H9  1  0.68210000  0.82420000  0.90184000  1.0
  H  H10  1  0.42435000  0.69122000  0.80390000  1.0
  H  H11  1  0.81312000  0.02027000  0.66582000  1.0
  H  H12  1  0.44259000  0.12763000  0.59614000  1.0
  H  H13  1  0.25953000  0.90847000  0.57353000  1.0
  H  H14  1  0.35604000  0.74254000  0.58797000  1.0
  H  H15  1  0.17299000  0.64424000  0.14300000  1.0
  H  H16  1  0.35887000  0.38817000  0.20173000  1.0
  H  H17  1  0.08952000  0.68578000  0.52272000  1.0
  H  H18  1  0.66970000  0.45539000  0.34975000  1.0
  H  H19  1  0.72588000  0.67773000  0.23894000  1.0
  H  H20  1  0.82531000  0.40886000  0.08978000  1.0
  H  H21  1  0.41687000  0.65849000  0.40418000  1.0
  H  H22  1  0.59404000  0.69486000  0.42777000  1.0
  H  H23  1  0.69262000  0.99555000  0.18110000  1.0
  H  H24  1  0.24897000  0.94998000  0.04593000  1.0
  H  H25  1  0.31791000  0.17581000  0.09817000  1.0
  H  H26  1  0.57565000  0.30878000  0.19610000  1.0
  H  H27  1  0.18688000  0.97973000  0.33418000  1.0
  H  H28  1  0.55741000  0.87237000  0.40386000  1.0
  H  H29  1  0.74048000  0.09153000  0.42648000  1.0
  H  H30  1  0.64396000  0.25746000  0.41203000  1.0
  H  H31  1  0.82700000  0.35576000  0.85700000  1.0
  H  H32  1  0.64113000  0.61183000  0.79827000  1.0
  H  H33  1  0.91048000  0.31422000  0.47728000  1.0
  H  H34  1  0.33031000  0.54461000  0.65025000  1.0
  H  H35  1  0.27411000  0.32227000  0.76106000  1.0
  H  H36  1  0.17469000  0.59114000  0.91022000  1.0
  H  H37  1  0.58313000  0.34151000  0.59582000  1.0
  H  H38  1  0.40596000  0.30514000  0.57224000  1.0
  C  C39  1  0.35005000  0.83939000  0.80619000  1.0
  C  C40  1  0.38946000  0.96509000  0.83682000  1.0
  C  C41  1  0.53420000  0.04064000  0.88912000  1.0
  C  C42  1  0.63934000  0.98952000  0.91263000  1.0
  C  C43  1  0.59997000  0.86365000  0.88305000  1.0
  C  C44  1  0.45652000  0.78920000  0.82932000  1.0
  C  C45  1  0.19652000  0.75993000  0.74807000  1.0
  C  C46  1  0.57730000  0.17606000  0.91781000  1.0
  C  C47  1  0.59003000  0.87109000  0.62749000  1.0
  C  C48  1  0.69205000  0.99569000  0.64423000  1.0
  C  C49  1  0.63991000  0.08830000  0.63147000  1.0
  C  C50  1  0.48343000  0.05564000  0.60593000  1.0
  C  C51  1  0.38108000  0.93230000  0.59221000  1.0
  C  C52  1  0.43405000  0.83972000  0.60102000  1.0
  C  C53  1  0.64974000  0.77324000  0.63710000  1.0
  C  C54  1  0.75259000  0.21932000  0.64200000  1.0
  C  C55  1  0.19421000  0.57054000  0.17062000  1.0
  C  C56  1  0.28989000  0.44123000  0.19982000  1.0
  C  C57  1  0.96888000  0.63310000  0.49578000  1.0
  C  C58  1  0.75601000  0.51627000  0.40788000  1.0
  C  C59  1  0.72398000  0.60729000  0.18626000  1.0
  C  C60  1  0.77612000  0.47238000  0.11092000  1.0
  C  C61  1  0.64995000  0.16061000  0.19381000  1.0
  C  C62  1  0.61054000  0.03491000  0.16318000  1.0
  C  C63  1  0.46580000  0.95936000  0.11088000  1.0
  C  C64  1  0.36066000  0.01049000  0.08737000  1.0
  C  C65  1  0.40003000  0.13636000  0.11696000  1.0
  C  C66  1  0.54349000  0.21081000  0.17068000  1.0
  C  C67  1  0.80349000  0.24007000  0.25193000  1.0
  C  C68  1  0.42270000  0.82394000  0.08218000  1.0
  C  C69  1  0.40997000  0.12891000  0.37251000  1.0
  C  C70  1  0.30795000  0.00431000  0.35576000  1.0
  C  C71  1  0.36009000  0.91170000  0.36853000  1.0
  C  C72  1  0.51658000  0.94436000  0.39407000  1.0
  C  C73  1  0.61892000  0.06770000  0.40779000  1.0
  C  C74  1  0.56595000  0.16028000  0.39898000  1.0
  C  C75  1  0.35026000  0.22675000  0.36290000  1.0
  C  C76  1  0.24741000  0.78068000  0.35800000  1.0
  C  C77  1  0.80578000  0.42946000  0.82938000  1.0
  C  C78  1  0.71011000  0.55878000  0.80018000  1.0
  C  C79  1  0.03113000  0.36690000  0.50422000  1.0
  C  C80  1  0.24399000  0.48373000  0.59212000  1.0
  C  C81  1  0.27602000  0.39271000  0.81374000  1.0
  C  C82  1  0.22388000  0.52761000  0.88908000  1.0
  N  N83  1  0.18386000  0.42631000  0.24805000  1.0
  N  N84  1  0.12277000  0.50942000  0.22939000  1.0
  N  N85  1  0.29986000  0.53041000  0.15002000  1.0
  N  N86  1  0.86294000  0.62112000  0.54406000  1.0
  N  N87  1  0.72555000  0.54617000  0.48725000  1.0
  N  N88  1  0.90659000  0.56890000  0.41008000  1.0
  N  N89  1  0.82219000  0.55229000  0.19091000  1.0
  N  N90  1  0.65589000  0.47770000  0.05938000  1.0
  N  N91  1  0.62182000  0.56410000  0.10781000  1.0
  N  N92  1  0.81614000  0.57369000  0.75196000  1.0
  N  N93  1  0.87723000  0.49058000  0.77061000  1.0
  N  N94  1  0.70014000  0.46959000  0.84998000  1.0
  N  N95  1  0.13706000  0.37888000  0.45594000  1.0
  N  N96  1  0.27445000  0.45383000  0.51276000  1.0
  N  N97  1  0.09341000  0.43110000  0.58992000  1.0
  N  N98  1  0.17781000  0.44771000  0.80909000  1.0
  N  N99  1  0.34410000  0.52230000  0.94062000  1.0
  N  N100  1  0.37818000  0.43589000  0.89219000  1.0
  O  O101  1  0.16516000  0.64813000  0.71638000  1.0
  O  O102  1  0.10330000  0.81231000  0.73258000  1.0
  O  O103  1  0.46956000  0.21366000  0.89565000  1.0
  O  O104  1  0.71000000  0.24819000  0.95863000  1.0
  O  O105  1  0.56181000  0.65934000  0.61092000  1.0
  O  O106  1  0.79207000  0.81327000  0.67272000  1.0
  O  O107  1  0.88692000  0.24738000  0.68814000  1.0
  O  O108  1  0.71639000  0.29758000  0.60469000  1.0
  O  O109  1  0.49757000  0.62361000  0.40567000  1.0
  O  O110  1  0.83484000  0.35187000  0.28362000  1.0
  O  O111  1  0.89671000  0.18769000  0.26742000  1.0
  O  O112  1  0.53044000  0.78634000  0.10435000  1.0
  O  O113  1  0.28999000  0.75181000  0.04137000  1.0
  O  O114  1  0.43819000  0.34066000  0.38908000  1.0
  O  O115  1  0.20793000  0.18673000  0.32728000  1.0
  O  O116  1  0.11308000  0.75262000  0.31186000  1.0
  O  O117  1  0.28362000  0.70242000  0.39531000  1.0
  O  O118  1  0.50242000  0.37639000  0.59433000  1.0
