# generated using pymatgen
data_AlH18(C9O2)3
_symmetry_space_group_name_H-M   'P 1'
_cell_length_a   3.95537000
_cell_length_b   28.99910000
_cell_length_c   28.99965002
_cell_angle_alpha   60.00188215
_cell_angle_beta   89.99350012
_cell_angle_gamma   89.99370000
_symmetry_Int_Tables_number   1
_chemical_formula_structural   AlH18(C9O2)3
_chemical_formula_sum   'Al2 H36 C54 O12'
_cell_volume   2880.73464680
_cell_formula_units_Z   2
loop_
 _symmetry_equiv_pos_site_id
 _symmetry_equiv_pos_as_xyz
  1  'x, y, z'
loop_
 _atom_site_type_symbol
 _atom_site_label
 _atom_site_symmetry_multiplicity
 _atom_site_fract_x
 _atom_site_fract_y
 _atom_site_fract_z
 _atom_site_occupancy
  Al  Al0  1  0.01964000  0.00000000  0.50000000  1.0
  Al  Al1  1  0.01934000  0.66667000  0.16666000  1.0
  H  H2  1  0.43126000  0.52081000  0.31157000  1.0
  H  H3  1  0.42823000  0.42143000  0.36298000  1.0
  H  H4  1  0.51024000  0.41958000  0.21584000  1.0
  H  H5  1  0.51027000  0.24709000  0.45082000  1.0
  H  H6  1  0.43178000  0.14585000  0.35510000  1.0
  H  H7  1  0.42868000  0.24523000  0.30369000  1.0
  H  H8  1  0.43104000  0.81158000  0.16762000  1.0
  H  H9  1  0.42804000  0.86297000  0.21560000  1.0
  H  H10  1  0.51030000  0.71584000  0.36457000  1.0
  H  H11  1  0.51017000  0.95083000  0.30209000  1.0
  H  H12  1  0.43201000  0.85510000  0.49906000  1.0
  H  H13  1  0.42884000  0.80369000  0.45109000  1.0
  H  H14  1  0.43115000  0.66762000  0.02080000  1.0
  H  H15  1  0.42816000  0.71560000  0.92142000  1.0
  H  H16  1  0.51043000  0.86459000  0.91958000  1.0
  H  H17  1  0.51011000  0.80209000  0.74708000  1.0
  H  H18  1  0.43205000  0.99907000  0.64584000  1.0
  H  H19  1  0.42900000  0.95109000  0.74523000  1.0
  H  H20  1  0.80786000  0.53242000  0.13486000  1.0
  H  H21  1  0.41845000  0.56469000  0.12866000  1.0
  H  H22  1  0.42600000  0.50128000  0.13267000  1.0
  H  H23  1  0.80786000  0.13428000  0.53182000  1.0
  H  H24  1  0.41865000  0.10198000  0.53801000  1.0
  H  H25  1  0.42577000  0.16540000  0.53399000  1.0
  H  H26  1  0.80791000  0.63486000  0.33272000  1.0
  H  H27  1  0.41857000  0.62867000  0.30664000  1.0
  H  H28  1  0.42598000  0.63267000  0.36605000  1.0
  H  H29  1  0.80780000  0.03183000  0.33389000  1.0
  H  H30  1  0.41855000  0.03800000  0.36002000  1.0
  H  H31  1  0.42572000  0.03399000  0.30062000  1.0
  H  H32  1  0.80793000  0.83273000  0.03241000  1.0
  H  H33  1  0.41855000  0.80666000  0.06468000  1.0
  H  H34  1  0.42603000  0.86605000  0.00128000  1.0
  H  H35  1  0.80763000  0.83388000  0.63427000  1.0
  H  H36  1  0.41840000  0.86002000  0.60198000  1.0
  H  H37  1  0.42554000  0.80062000  0.66539000  1.0
  C  C38  1  0.51478000  0.95925000  0.58204000  1.0
  C  C39  1  0.51476000  0.08204000  0.45871000  1.0
  C  C40  1  0.51486000  0.95872000  0.45925000  1.0
  C  C41  1  0.51455000  0.58463000  0.20796000  1.0
  C  C42  1  0.51449000  0.70797000  0.20740000  1.0
  C  C43  1  0.51453000  0.70741000  0.08462000  1.0
  C  C44  1  0.49436000  0.52556000  0.23563000  1.0
  C  C45  1  0.45452000  0.49803000  0.29112000  1.0
  C  C46  1  0.45114000  0.44285000  0.31975000  1.0
  C  C47  1  0.47518000  0.41391000  0.29267000  1.0
  C  C48  1  0.50111000  0.44212000  0.23671000  1.0
  C  C49  1  0.51585000  0.49760000  0.20752000  1.0
  C  C50  1  0.47164000  0.35764000  0.32104000  1.0
  C  C51  1  0.47171000  0.30904000  0.34561000  1.0
  C  C52  1  0.47540000  0.25276000  0.37399000  1.0
  C  C53  1  0.50125000  0.22455000  0.42995000  1.0
  C  C54  1  0.51603000  0.16907000  0.45915000  1.0
  C  C55  1  0.49463000  0.14111000  0.43104000  1.0
  C  C56  1  0.45488000  0.16865000  0.37554000  1.0
  C  C57  1  0.45151000  0.22382000  0.34691000  1.0
  C  C58  1  0.49430000  0.73564000  0.23880000  1.0
  C  C59  1  0.45436000  0.79112000  0.21086000  1.0
  C  C60  1  0.45100000  0.81975000  0.23740000  1.0
  C  C61  1  0.47511000  0.79267000  0.29342000  1.0
  C  C62  1  0.50109000  0.73672000  0.32116000  1.0
  C  C63  1  0.51584000  0.70752000  0.29487000  1.0
  C  C64  1  0.47162000  0.82105000  0.32132000  1.0
  C  C65  1  0.47171000  0.84562000  0.34535000  1.0
  C  C66  1  0.47541000  0.87400000  0.37325000  1.0
  C  C67  1  0.50121000  0.92995000  0.34550000  1.0
  C  C68  1  0.51603000  0.95916000  0.37178000  1.0
  C  C69  1  0.49477000  0.93105000  0.42785000  1.0
  C  C70  1  0.45506000  0.87554000  0.45582000  1.0
  C  C71  1  0.45163000  0.84691000  0.42928000  1.0
  C  C72  1  0.49437000  0.73881000  0.02556000  1.0
  C  C73  1  0.45446000  0.71086000  0.99801000  1.0
  C  C74  1  0.45111000  0.73741000  0.94284000  1.0
  C  C75  1  0.47523000  0.79343000  0.91390000  1.0
  C  C76  1  0.50122000  0.82117000  0.94212000  1.0
  C  C77  1  0.51593000  0.79488000  0.99760000  1.0
  C  C78  1  0.47173000  0.82133000  0.85763000  1.0
  C  C79  1  0.47179000  0.84536000  0.80902000  1.0
  C  C80  1  0.47543000  0.87326000  0.75275000  1.0
  C  C81  1  0.50115000  0.84550000  0.72454000  1.0
  C  C82  1  0.51592000  0.87179000  0.66906000  1.0
  C  C83  1  0.49467000  0.92786000  0.64110000  1.0
  C  C84  1  0.45505000  0.95582000  0.66864000  1.0
  C  C85  1  0.45168000  0.92928000  0.72381000  1.0
  C  C86  1  0.54222000  0.52560000  0.14771000  1.0
  C  C87  1  0.54226000  0.14109000  0.51895000  1.0
  C  C88  1  0.54227000  0.64772000  0.32668000  1.0
  C  C89  1  0.54220000  0.01896000  0.33996000  1.0
  C  C90  1  0.54230000  0.82669000  0.02559000  1.0
  C  C91  1  0.54205000  0.83996000  0.64108000  1.0
  O  O92  1  0.75846000  0.99122000  0.44930000  1.0
  O  O93  1  0.75843000  0.94930000  0.55948000  1.0
  O  O94  1  0.75838000  0.05948000  0.49122000  1.0
  O  O95  1  0.28917000  0.94770000  0.49488000  1.0
  O  O96  1  0.28910000  0.05743000  0.44770000  1.0
  O  O97  1  0.28907000  0.99487000  0.55743000  1.0
  O  O98  1  0.75818000  0.71736000  0.10717000  1.0
  O  O99  1  0.75825000  0.60717000  0.17546000  1.0
  O  O100  1  0.75816000  0.67546000  0.21736000  1.0
  O  O101  1  0.28891000  0.67178000  0.10924000  1.0
  O  O102  1  0.28887000  0.71898000  0.17177000  1.0
  O  O103  1  0.28891000  0.60925000  0.21897000  1.0
