# generated using pymatgen
data_LaH14(C11O4)2
_symmetry_space_group_name_H-M   'P 1'
_cell_length_a   8.75116000
_cell_length_b   14.31110000
_cell_length_c   14.35550000
_cell_angle_alpha   112.44200000
_cell_angle_beta   89.99180000
_cell_angle_gamma   107.80900000
_symmetry_Int_Tables_number   1
_chemical_formula_structural   LaH14(C11O4)2
_chemical_formula_sum   'La2 H28 C44 O16'
_cell_volume   1568.12624171
_cell_formula_units_Z   2
loop_
 _symmetry_equiv_pos_site_id
 _symmetry_equiv_pos_as_xyz
  1  'x, y, z'
loop_
 _atom_site_type_symbol
 _atom_site_label
 _atom_site_symmetry_multiplicity
 _atom_site_fract_x
 _atom_site_fract_y
 _atom_site_fract_z
 _atom_site_occupancy
  La  La0  1  0.05067000  0.55034000  0.00338000  1.0
  La  La1  1  0.50026000  0.44971000  0.99665000  1.0
  H  H2  1  0.21544000  0.67334000  0.79396000  1.0
  H  H3  1  0.54177000  0.32619000  0.20585000  1.0
  H  H4  1  0.21468000  0.69027000  0.62789000  1.0
  H  H5  1  0.52397000  0.30939000  0.37192000  1.0
  H  H6  1  0.57978000  0.53737000  0.55116000  1.0
  H  H7  1  0.04188000  0.46264000  0.44885000  1.0
  H  H8  1  0.57774000  0.52072000  0.71634000  1.0
  H  H9  1  0.05659000  0.47915000  0.28361000  1.0
  H  H10  1  0.32689000  0.76424000  0.52636000  1.0
  H  H11  1  0.56232000  0.23569000  0.47377000  1.0
  H  H12  1  0.28209000  0.75758000  0.35296000  1.0
  H  H13  1  0.52435000  0.24237000  0.64722000  1.0
  H  H14  1  0.40750000  0.47025000  0.22705000  1.0
  H  H15  1  0.93676000  0.52991000  0.77296000  1.0
  H  H16  1  0.44727000  0.47373000  0.39822000  1.0
  H  H17  1  0.97291000  0.52641000  0.60176000  1.0
  H  H18  1  0.81622000  0.22184000  0.72356000  1.0
  H  H19  1  0.59478000  0.77823000  0.27646000  1.0
  H  H20  1  0.73891000  0.06844000  0.55767000  1.0
  H  H21  1  0.67052000  0.93158000  0.44238000  1.0
  H  H22  1  0.22307000  0.05222000  0.57083000  1.0
  H  H23  1  0.17115000  0.94818000  0.42942000  1.0
  H  H24  1  0.29868000  0.20868000  0.73595000  1.0
  H  H25  1  0.09045000  0.79162000  0.26434000  1.0
  H  H26  1  0.76146000  0.65815000  0.89756000  1.0
  H  H27  1  0.10365000  0.34180000  0.10179000  1.0
  H  H28  1  0.96571000  0.85296000  0.04809000  1.0
  H  H29  1  0.11292000  0.14666000  0.95170000  1.0
  C  C30  1  0.38838000  0.58051000  0.86306000  1.0
  C  C31  1  0.80753000  0.41939000  0.13688000  1.0
  C  C32  1  0.39615000  0.59581000  0.76552000  1.0
  C  C33  1  0.79997000  0.40395000  0.23435000  1.0
  C  C34  1  0.29535000  0.64451000  0.74018000  1.0
  C  C35  1  0.65049000  0.35514000  0.25966000  1.0
  C  C36  1  0.29624000  0.65415000  0.64740000  1.0
  C  C37  1  0.64167000  0.34556000  0.35246000  1.0
  C  C38  1  0.39624000  0.61435000  0.57657000  1.0
  C  C39  1  0.78136000  0.38557000  0.42340000  1.0
  C  C40  1  0.49873000  0.56711000  0.60351000  1.0
  C  C41  1  0.93110000  0.43284000  0.39649000  1.0
  C  C42  1  0.49919000  0.55841000  0.69676000  1.0
  C  C43  1  0.94032000  0.44142000  0.30318000  1.0
  C  C44  1  0.38699000  0.61808000  0.47539000  1.0
  C  C45  1  0.76842000  0.38193000  0.52464000  1.0
  C  C46  1  0.34330000  0.69892000  0.46085000  1.0
  C  C47  1  0.64407000  0.30103000  0.53924000  1.0
  C  C48  1  0.31990000  0.69637000  0.36409000  1.0
  C  C49  1  0.62328000  0.30360000  0.63602000  1.0
  C  C50  1  0.34065000  0.61339000  0.27857000  1.0
  C  C51  1  0.72700000  0.38664000  0.72150000  1.0
  C  C52  1  0.39104000  0.53521000  0.29270000  1.0
  C  C53  1  0.85534000  0.46493000  0.70734000  1.0
  C  C54  1  0.41362000  0.53753000  0.38955000  1.0
  C  C55  1  0.87552000  0.46260000  0.61047000  1.0
  C  C56  1  0.29633000  0.60560000  0.17496000  1.0
  C  C57  1  0.69054000  0.39439000  0.82515000  1.0
  C  C58  1  0.10959000  0.32036000  0.83897000  1.0
  C  C59  1  0.79000000  0.67983000  0.16120000  1.0
  C  C60  1  0.06217000  0.22519000  0.73995000  1.0
  C  C61  1  0.83747000  0.77506000  0.26021000  1.0
  C  C62  1  0.90450000  0.18418000  0.68901000  1.0
  C  C63  1  0.72069000  0.81601000  0.31107000  1.0
  C  C64  1  0.86195000  0.09701000  0.59571000  1.0
  C  C65  1  0.76514000  0.90315000  0.40439000  1.0
  C  C66  1  0.97428000  0.04674000  0.54979000  1.0
  C  C67  1  0.92773000  0.95356000  0.45033000  1.0
  C  C68  1  0.13221000  0.08879000  0.60268000  1.0
  C  C69  1  0.04374000  0.91159000  0.39752000  1.0
  C  C70  1  0.17588000  0.17626000  0.69595000  1.0
  C  C71  1  0.00006000  0.82406000  0.30429000  1.0
  C  C72  1  0.87803000  0.71559000  0.94273000  1.0
  C  C73  1  0.16269000  0.28422000  0.05680000  1.0
  O  O74  1  0.26976000  0.59501000  0.91139000  1.0
  O  O75  1  0.67443000  0.40510000  0.08869000  1.0
  O  O76  1  0.49875000  0.55283000  0.89212000  1.0
  O  O77  1  0.94558000  0.44702000  0.10777000  1.0
  O  O78  1  0.29593000  0.52225000  0.09593000  1.0
  O  O79  1  0.77353000  0.47775000  0.90415000  1.0
  O  O80  1  0.24644000  0.67649000  0.16582000  1.0
  O  O81  1  0.56971000  0.32352000  0.83431000  1.0
  O  O82  1  0.01110000  0.37165000  0.87029000  1.0
  O  O83  1  0.64029000  0.62834000  0.12985000  1.0
  O  O84  1  0.24802000  0.34562000  0.88775000  1.0
  O  O85  1  0.90334000  0.65477000  0.11246000  1.0
  O  O86  1  0.00726000  0.69786000  0.93838000  1.0
  O  O87  1  0.30962000  0.30182000  0.06130000  1.0
  O  O88  1  0.86141000  0.80805000  0.00500000  1.0
  O  O89  1  0.05359000  0.19172000  0.99463000  1.0
