# generated using pymatgen
data_V2CuH8C7(N2O3)2
_symmetry_space_group_name_H-M   'P 1'
_cell_length_a   8.56927000
_cell_length_b   10.34357045
_cell_length_c   14.74310000
_cell_angle_alpha   90.00384704
_cell_angle_beta   90.00290000
_cell_angle_gamma   113.86223560
_symmetry_Int_Tables_number   1
_chemical_formula_structural   V2CuH8C7(N2O3)2
_chemical_formula_sum   'V8 Cu4 H32 C28 N16 O24'
_cell_volume   1195.07922147
_cell_formula_units_Z   4
loop_
 _symmetry_equiv_pos_site_id
 _symmetry_equiv_pos_as_xyz
  1  'x, y, z'
loop_
 _atom_site_type_symbol
 _atom_site_label
 _atom_site_symmetry_multiplicity
 _atom_site_fract_x
 _atom_site_fract_y
 _atom_site_fract_z
 _atom_site_occupancy
  V  V0  1  0.16465000  0.45935000  0.14797000  1.0
  V  V1  1  0.33537000  0.04066000  0.64795000  1.0
  V  V2  1  0.83534000  0.54066000  0.85205000  1.0
  V  V3  1  0.66463000  0.95935000  0.35204000  1.0
  V  V4  1  0.05112000  0.23241000  0.31408000  1.0
  V  V5  1  0.44889000  0.26761000  0.81406000  1.0
  V  V6  1  0.94890000  0.76760000  0.68593000  1.0
  V  V7  1  0.55113000  0.73239000  0.18594000  1.0
  Cu  Cu8  1  0.83402000  0.57558000  0.11829000  1.0
  Cu  Cu9  1  0.66600000  0.92442000  0.61829000  1.0
  Cu  Cu10  1  0.16599000  0.42440000  0.88169000  1.0
  Cu  Cu11  1  0.33400000  0.07556000  0.38171000  1.0
  H  H12  1  0.34206000  0.95721000  0.95404000  1.0
  H  H13  1  0.15792000  0.54278000  0.45403000  1.0
  H  H14  1  0.65795000  0.04281000  0.04595000  1.0
  H  H15  1  0.84209000  0.45724000  0.54597000  1.0
  H  H16  1  0.15468000  0.67111000  0.99486000  1.0
  H  H17  1  0.34533000  0.82888000  0.49486000  1.0
  H  H18  1  0.84536000  0.32890000  0.00513000  1.0
  H  H19  1  0.65471000  0.17113000  0.50514000  1.0
  H  H20  1  0.97856000  0.91983000  0.15886000  1.0
  H  H21  1  0.52145000  0.58018000  0.65886000  1.0
  H  H22  1  0.02145000  0.08018000  0.84114000  1.0
  H  H23  1  0.47856000  0.41982000  0.34114000  1.0
  H  H24  1  0.14211000  0.15830000  0.09801000  1.0
  H  H25  1  0.35789000  0.34172000  0.59801000  1.0
  H  H26  1  0.85788000  0.84170000  0.90198000  1.0
  H  H27  1  0.64210000  0.65828000  0.40199000  1.0
  H  H28  1  0.23943000  0.17178000  0.98845000  1.0
  H  H29  1  0.26053000  0.32820000  0.48845000  1.0
  H  H30  1  0.76056000  0.82824000  0.01155000  1.0
  H  H31  1  0.73946000  0.67181000  0.51155000  1.0
  H  H32  1  0.73264000  0.27859000  0.23026000  1.0
  H  H33  1  0.76738000  0.22142000  0.73026000  1.0
  H  H34  1  0.26735000  0.72140000  0.76973000  1.0
  H  H35  1  0.23260000  0.77856000  0.26974000  1.0
  H  H36  1  0.43128000  0.05251000  0.18887000  1.0
  H  H37  1  0.06873000  0.44751000  0.68887000  1.0
  H  H38  1  0.56870000  0.94748000  0.81113000  1.0
  H  H39  1  0.93126000  0.55248000  0.31113000  1.0
  H  H40  1  0.47020000  0.40432000  0.02908000  1.0
  H  H41  1  0.02979000  0.09566000  0.52907000  1.0
  H  H42  1  0.52978000  0.59566000  0.97091000  1.0
  H  H43  1  0.97017000  0.90432000  0.47093000  1.0
  C  C44  1  0.24127000  0.90413000  0.00267000  1.0
  C  C45  1  0.25872000  0.59587000  0.50267000  1.0
  C  C46  1  0.75874000  0.09588000  0.99733000  1.0
  C  C47  1  0.74128000  0.40413000  0.49734000  1.0
  C  C48  1  0.14661000  0.76493000  0.02293000  1.0
  C  C49  1  0.35338000  0.73506000  0.52293000  1.0
  C  C50  1  0.85341000  0.23507000  0.97706000  1.0
  C  C51  1  0.64664000  0.26493000  0.47707000  1.0
  C  C52  1  0.05105000  0.88824000  0.10995000  1.0
  C  C53  1  0.44895000  0.61177000  0.60995000  1.0
  C  C54  1  0.94896000  0.11177000  0.89003000  1.0
  C  C55  1  0.55106000  0.38823000  0.39006000  1.0
  C  C56  1  0.23379000  0.13254000  0.05806000  1.0
  C  C57  1  0.26619000  0.36746000  0.55805000  1.0
  C  C58  1  0.76620000  0.86746000  0.94194000  1.0
  C  C59  1  0.73380000  0.63253000  0.44195000  1.0
  C  C60  1  0.63265000  0.27320000  0.18366000  1.0
  C  C61  1  0.86737000  0.22681000  0.68366000  1.0
  C  C62  1  0.36736000  0.72679000  0.81634000  1.0
  C  C63  1  0.13262000  0.77317000  0.31634000  1.0
  C  C64  1  0.48230000  0.16024000  0.16415000  1.0
  C  C65  1  0.01772000  0.33978000  0.66414000  1.0
  C  C66  1  0.51769000  0.83976000  0.83585000  1.0
  C  C67  1  0.98228000  0.66023000  0.33586000  1.0
  C  C68  1  0.50397000  0.34350000  0.07888000  1.0
  C  C69  1  0.99602000  0.15649000  0.57888000  1.0
  C  C70  1  0.49602000  0.65648000  0.92111000  1.0
  C  C71  1  0.00395000  0.84348000  0.42113000  1.0
  N  N72  1  0.02813000  0.75673000  0.08897000  1.0
  N  N73  1  0.47188000  0.74327000  0.58898000  1.0
  N  N74  1  0.97188000  0.24326000  0.91101000  1.0
  N  N75  1  0.52814000  0.25672000  0.41102000  1.0
  N  N76  1  0.17975000  0.98095000  0.05831000  1.0
  N  N77  1  0.32024000  0.51905000  0.55831000  1.0
  N  N78  1  0.82023000  0.01904000  0.94169000  1.0
  N  N79  1  0.67974000  0.48093000  0.44169000  1.0
  N  N80  1  0.40378000  0.20663000  0.09744000  1.0
  N  N81  1  0.09620000  0.29337000  0.59744000  1.0
  N  N82  1  0.59621000  0.79338000  0.90256000  1.0
  N  N83  1  0.90379000  0.70664000  0.40257000  1.0
  N  N84  1  0.64368000  0.38674000  0.13046000  1.0
  N  N85  1  0.85635000  0.11327000  0.63045000  1.0
  N  N86  1  0.35633000  0.61325000  0.86953000  1.0
  N  N87  1  0.14365000  0.88673000  0.36955000  1.0
  O  O88  1  0.03588000  0.36139000  0.37170000  1.0
  O  O89  1  0.46403000  0.13864000  0.87175000  1.0
  O  O90  1  0.96408000  0.63862000  0.62827000  1.0
  O  O91  1  0.53593000  0.86138000  0.12828000  1.0
  O  O92  1  0.84231000  0.09455000  0.29804000  1.0
  O  O93  1  0.65766000  0.40545000  0.79804000  1.0
  O  O94  1  0.15770000  0.90546000  0.70196000  1.0
  O  O95  1  0.34234000  0.59457000  0.20198000  1.0
  O  O96  1  0.20719000  0.44955000  0.04018000  1.0
  O  O97  1  0.29283000  0.05047000  0.54016000  1.0
  O  O98  1  0.79284000  0.55046000  0.95985000  1.0
  O  O99  1  0.70719000  0.94955000  0.45981000  1.0
  O  O100  1  0.18178000  0.17334000  0.37026000  1.0
  O  O101  1  0.31823000  0.32669000  0.87027000  1.0
  O  O102  1  0.81824000  0.82668000  0.62975000  1.0
  O  O103  1  0.68175000  0.67331000  0.12973000  1.0
  O  O104  1  0.13369000  0.29393000  0.20238000  1.0
  O  O105  1  0.36629000  0.20608000  0.70235000  1.0
  O  O106  1  0.86636000  0.70608000  0.79763000  1.0
  O  O107  1  0.63376000  0.79393000  0.29764000  1.0
  O  O108  1  0.98973000  0.49398000  0.15861000  1.0
  O  O109  1  0.51028000  0.00604000  0.65860000  1.0
  O  O110  1  0.01026000  0.50601000  0.84140000  1.0
  O  O111  1  0.48968000  0.99393000  0.34139000  1.0
