# generated using pymatgen
data_CoH25C26N5O8
_symmetry_space_group_name_H-M   'P 1'
_cell_length_a   9.27786000
_cell_length_b   10.20310000
_cell_length_c   14.33580000
_cell_angle_alpha   93.79610000
_cell_angle_beta   90.16720000
_cell_angle_gamma   105.57550000
_symmetry_Int_Tables_number   1
_chemical_formula_structural   CoH25C26N5O8
_chemical_formula_sum   'Co2 H50 C52 N10 O16'
_cell_volume   1304.06339464
_cell_formula_units_Z   2
loop_
 _symmetry_equiv_pos_site_id
 _symmetry_equiv_pos_as_xyz
  1  'x, y, z'
loop_
 _atom_site_type_symbol
 _atom_site_label
 _atom_site_symmetry_multiplicity
 _atom_site_fract_x
 _atom_site_fract_y
 _atom_site_fract_z
 _atom_site_occupancy
  Co  Co0  1  0.85451000  0.12047000  0.03486000  1.0
  Co  Co1  1  0.14549000  0.87953000  0.96513000  1.0
  H  H2  1  0.57470000  0.96194000  0.93511000  1.0
  H  H3  1  0.42530000  0.03805000  0.06488000  1.0
  H  H4  1  0.46000000  0.92117000  0.77641000  1.0
  H  H5  1  0.53999000  0.07883000  0.22359000  1.0
  H  H6  1  0.91952000  0.39361000  0.74316000  1.0
  H  H7  1  0.08048000  0.60639000  0.25684000  1.0
  H  H8  1  0.60680000  0.04287000  0.64328000  1.0
  H  H9  1  0.39319000  0.95714000  0.35673000  1.0
  H  H10  1  0.80355000  0.01414000  0.50515000  1.0
  H  H11  1  0.19645000  0.98586000  0.49485000  1.0
  H  H12  1  0.96369000  0.22378000  0.84411000  1.0
  H  H13  1  0.03631000  0.77622000  0.15589000  1.0
  H  H14  1  0.03136000  0.38014000  0.54983000  1.0
  H  H15  1  0.96864000  0.61987000  0.45017000  1.0
  H  H16  1  0.97348000  0.51984000  0.60119000  1.0
  H  H17  1  0.02653000  0.48017000  0.39882000  1.0
  H  H18  1  0.25373000  0.43654000  0.65845000  1.0
  H  H19  1  0.74628000  0.56345000  0.34156000  1.0
  H  H20  1  0.19657000  0.57546000  0.71228000  1.0
  H  H21  1  0.80344000  0.42455000  0.28772000  1.0
  H  H22  1  0.25671000  0.54676000  0.50216000  1.0
  H  H23  1  0.74330000  0.45325000  0.49785000  1.0
  H  H24  1  0.21520000  0.68753000  0.56234000  1.0
  H  H25  1  0.78480000  0.31247000  0.43766000  1.0
  H  H26  1  0.49593000  0.58803000  0.58779000  1.0
  H  H27  1  0.50408000  0.41197000  0.41222000  1.0
  H  H28  1  0.45769000  0.72000000  0.65987000  1.0
  H  H29  1  0.54232000  0.28000000  0.34013000  1.0
  H  H30  1  0.47233000  0.72973000  0.44592000  1.0
  H  H31  1  0.52767000  0.27028000  0.55408000  1.0
  H  H32  1  0.46829000  0.86470000  0.52899000  1.0
  H  H33  1  0.53171000  0.13531000  0.47101000  1.0
  H  H34  1  0.71544000  0.84129000  0.59745000  1.0
  H  H35  1  0.28456000  0.15872000  0.40255000  1.0
  H  H36  1  0.71702000  0.72009000  0.50286000  1.0
  H  H37  1  0.28298000  0.27991000  0.49714000  1.0
  H  H38  1  0.73964000  0.94564000  0.19743000  1.0
  H  H39  1  0.26037000  0.05435000  0.80257000  1.0
  H  H40  1  0.00039000  0.13380000  0.44329000  1.0
  H  H41  1  0.99962000  0.86620000  0.55671000  1.0
  H  H42  1  0.14567000  0.31367000  0.34242000  1.0
  H  H43  1  0.85432000  0.68634000  0.65758000  1.0
  H  H44  1  0.07690000  0.30110000  0.17339000  1.0
  H  H45  1  0.92310000  0.69889000  0.82661000  1.0
  H  H46  1  0.88402000  0.58376000  0.02013000  1.0
  H  H47  1  0.11597000  0.41624000  0.97987000  1.0
  H  H48  1  0.53348000  0.76250000  0.11616000  1.0
  H  H49  1  0.46651000  0.23750000  0.88383000  1.0
  H  H50  1  0.49587000  0.33735000  0.15044000  1.0
  H  H51  1  0.50414000  0.66264000  0.84955000  1.0
  C  C52  1  0.63564000  0.01188000  0.87683000  1.0
  C  C53  1  0.36435000  0.98811000  0.12317000  1.0
  C  C54  1  0.57222000  0.98914000  0.78707000  1.0
  C  C55  1  0.42777000  0.01087000  0.21293000  1.0
  C  C56  1  0.65331000  0.05523000  0.71425000  1.0
  C  C57  1  0.34669000  0.94477000  0.28575000  1.0
  C  C58  1  0.79570000  0.14293000  0.73417000  1.0
  C  C59  1  0.20430000  0.85708000  0.26584000  1.0
  C  C60  1  0.85226000  0.15818000  0.82583000  1.0
  C  C61  1  0.14774000  0.84182000  0.17417000  1.0
  C  C62  1  0.88271000  0.22006000  0.65860000  1.0
  C  C63  1  0.11729000  0.77994000  0.34140000  1.0
  C  C64  1  0.03348000  0.44335000  0.61509000  1.0
  C  C65  1  0.96653000  0.55666000  0.38492000  1.0
  C  C66  1  0.19465000  0.51421000  0.64572000  1.0
  C  C67  1  0.80536000  0.48579000  0.35429000  1.0
  C  C68  1  0.27148000  0.60632000  0.57038000  1.0
  C  C69  1  0.72853000  0.39368000  0.42962000  1.0
  C  C70  1  0.43839000  0.66972000  0.58869000  1.0
  C  C71  1  0.56161000  0.33028000  0.41131000  1.0
  C  C72  1  0.50797000  0.77232000  0.51746000  1.0
  C  C73  1  0.49203000  0.22768000  0.48255000  1.0
  C  C74  1  0.67870000  0.81063000  0.52446000  1.0
  C  C75  1  0.32131000  0.18937000  0.47554000  1.0
  C  C76  1  0.76680000  0.90397000  0.37563000  1.0
  C  C77  1  0.23320000  0.09603000  0.62437000  1.0
  C  C78  1  0.82830000  0.02653000  0.23184000  1.0
  C  C79  1  0.17170000  0.97347000  0.76816000  1.0
  C  C80  1  0.85755000  0.02445000  0.32720000  1.0
  C  C81  1  0.14246000  0.97555000  0.67280000  1.0
  C  C82  1  0.97277000  0.13004000  0.36914000  1.0
  C  C83  1  0.02723000  0.86996000  0.63086000  1.0
  C  C84  1  0.05320000  0.23080000  0.31369000  1.0
  C  C85  1  0.94680000  0.76920000  0.68631000  1.0
  C  C86  1  0.01682000  0.22455000  0.21904000  1.0
  C  C87  1  0.98318000  0.77545000  0.78096000  1.0
  C  C88  1  0.69490000  0.44768000  0.08242000  1.0
  C  C89  1  0.30509000  0.55231000  0.91757000  1.0
  C  C90  1  0.77623000  0.57447000  0.05323000  1.0
  C  C91  1  0.22376000  0.42552000  0.94677000  1.0
  C  C92  1  0.71864000  0.68815000  0.06499000  1.0
  C  C93  1  0.28136000  0.31184000  0.93501000  1.0
  C  C94  1  0.58010000  0.67556000  0.10723000  1.0
  C  C95  1  0.41989000  0.32444000  0.89277000  1.0
  C  C96  1  0.50517000  0.54993000  0.13916000  1.0
  C  C97  1  0.49483000  0.45007000  0.86084000  1.0
  C  C98  1  0.55906000  0.43519000  0.12711000  1.0
  C  C99  1  0.44093000  0.56481000  0.87289000  1.0
  C  C100  1  0.75232000  0.32487000  0.06628000  1.0
  C  C101  1  0.24768000  0.67512000  0.93371000  1.0
  C  C102  1  0.80517000  0.82450000  0.03460000  1.0
  C  C103  1  0.19483000  0.17549000  0.96539000  1.0
  N  N104  1  0.77424000  0.09410000  0.89596000  1.0
  N  N105  1  0.22574000  0.90590000  0.10404000  1.0
  N  N106  1  0.90525000  0.12377000  0.17827000  1.0
  N  N107  1  0.09475000  0.87623000  0.82173000  1.0
  N  N108  1  0.94944000  0.35280000  0.68179000  1.0
  N  N109  1  0.05056000  0.64720000  0.31821000  1.0
  N  N110  1  0.75431000  0.92225000  0.46918000  1.0
  N  N111  1  0.24569000  0.07775000  0.53083000  1.0
  N  N112  1  0.36389000  0.53612000  0.18704000  1.0
  N  N113  1  0.63611000  0.46387000  0.81297000  1.0
  O  O114  1  0.66321000  0.20571000  0.06954000  1.0
  O  O115  1  0.33678000  0.79429000  0.93045000  1.0
  O  O116  1  0.89045000  0.34070000  0.04972000  1.0
  O  O117  1  0.10954000  0.65928000  0.95027000  1.0
  O  O118  1  0.32769000  0.44659000  0.24390000  1.0
  O  O119  1  0.67232000  0.55339000  0.75611000  1.0
  O  O120  1  0.28637000  0.61358000  0.16802000  1.0
  O  O121  1  0.71363000  0.38641000  0.83200000  1.0
  O  O122  1  0.93536000  0.83729000  0.00336000  1.0
  O  O123  1  0.06464000  0.16271000  0.99664000  1.0
  O  O124  1  0.74159000  0.92089000  0.04324000  1.0
  O  O125  1  0.25840000  0.07910000  0.95676000  1.0
  O  O126  1  0.89062000  0.16390000  0.57918000  1.0
  O  O127  1  0.10938000  0.83610000  0.42082000  1.0
  O  O128  1  0.70784000  0.79420000  0.32987000  1.0
  O  O129  1  0.29217000  0.20580000  0.67013000  1.0
