# generated using pymatgen
data_ZnH5C25N3(ClO)4
_symmetry_space_group_name_H-M   'P 1'
_cell_length_a   14.39020000
_cell_length_b   15.27060000
_cell_length_c   16.05070000
_cell_angle_alpha   87.95020000
_cell_angle_beta   89.73610000
_cell_angle_gamma   89.73990000
_symmetry_Int_Tables_number   1
_chemical_formula_structural   ZnH5C25N3(ClO)4
_chemical_formula_sum   'Zn2 H10 C50 N6 Cl8 O8'
_cell_volume   3524.76488723
_cell_formula_units_Z   2
loop_
 _symmetry_equiv_pos_site_id
 _symmetry_equiv_pos_as_xyz
  1  'x, y, z'
loop_
 _atom_site_type_symbol
 _atom_site_label
 _atom_site_symmetry_multiplicity
 _atom_site_fract_x
 _atom_site_fract_y
 _atom_site_fract_z
 _atom_site_occupancy
  Zn  Zn0  1  0.39761000  0.50029000  0.50135000  1.0
  Zn  Zn1  1  0.60238000  0.49970000  0.49865000  1.0
  H  H2  1  0.37880000  0.40228000  0.95038000  1.0
  H  H3  1  0.53610000  0.92750000  0.28977000  1.0
  H  H4  1  0.62121000  0.59773000  0.04962000  1.0
  H  H5  1  0.65238000  0.44834000  0.95173000  1.0
  H  H6  1  0.34763000  0.55167000  0.04827000  1.0
  H  H7  1  0.47231000  0.77354000  0.63227000  1.0
  H  H8  1  0.52769000  0.22646000  0.36774000  1.0
  H  H9  1  0.46309000  0.91060000  0.70943000  1.0
  H  H10  1  0.53691000  0.08940000  0.29057000  1.0
  H  H11  1  0.46390000  0.07250000  0.71023000  1.0
  C  C12  1  0.50255000  0.32988000  0.49951000  1.0
  C  C13  1  0.50028000  0.04657000  0.50019000  1.0
  C  C14  1  0.51340000  0.91001000  0.42343000  1.0
  C  C15  1  0.48660000  0.08999000  0.57657000  1.0
  C  C16  1  0.47304000  0.94917000  0.65153000  1.0
  C  C17  1  0.52696000  0.05083000  0.34847000  1.0
  C  C18  1  0.47347000  0.03868000  0.65202000  1.0
  C  C19  1  0.52653000  0.96132000  0.34798000  1.0
  C  C20  1  0.19681000  0.54762000  0.44248000  1.0
  C  C21  1  0.80319000  0.45239000  0.55753000  1.0
  C  C22  1  0.19684000  0.45304000  0.55945000  1.0
  C  C23  1  0.49747000  0.67012000  0.50049000  1.0
  C  C24  1  0.80316000  0.54697000  0.44055000  1.0
  C  C25  1  0.09905000  0.46148000  0.56983000  1.0
  C  C26  1  0.90095000  0.53854000  0.43018000  1.0
  C  C27  1  0.50023000  0.49823000  0.33950000  1.0
  C  C28  1  0.49974000  0.50177000  0.66049000  1.0
  C  C29  1  0.04969000  0.50006000  0.50053000  1.0
  C  C30  1  0.95031000  0.49995000  0.49948000  1.0
  C  C31  1  0.09943000  0.53926000  0.43225000  1.0
  C  C32  1  0.90057000  0.46075000  0.56776000  1.0
  C  C33  1  0.04694000  0.43608000  0.64343000  1.0
  C  C34  1  0.49818000  0.76869000  0.50050000  1.0
  C  C35  1  0.95306000  0.56394000  0.35658000  1.0
  C  C36  1  0.95030000  0.43413000  0.64232000  1.0
  C  C37  1  0.04970000  0.56589000  0.35769000  1.0
  C  C38  1  0.43205000  0.44625000  0.97286000  1.0
  C  C39  1  0.56795000  0.55376000  0.02714000  1.0
  C  C40  1  0.51543000  0.41790000  0.02969000  1.0
  C  C41  1  0.48458000  0.58210000  0.97031000  1.0
  C  C42  1  0.49884000  0.49723000  0.24979000  1.0
  C  C43  1  0.50114000  0.50278000  0.75020000  1.0
  C  C44  1  0.41501000  0.52820000  0.02650000  1.0
  C  C45  1  0.50182000  0.23131000  0.49950000  1.0
  C  C46  1  0.58499000  0.47180000  0.97349000  1.0
  C  C47  1  0.49824000  0.50050000  0.08600000  1.0
  C  C48  1  0.50177000  0.49951000  0.91400000  1.0
  C  C49  1  0.49798000  0.49902000  0.17394000  1.0
  C  C50  1  0.50202000  0.50100000  0.82607000  1.0
  C  C51  1  0.51363000  0.81701000  0.42522000  1.0
  C  C52  1  0.48638000  0.18299000  0.57478000  1.0
  C  C53  1  0.90360000  0.41490000  0.71938000  1.0
  C  C54  1  0.09641000  0.58514000  0.28064000  1.0
  C  C55  1  0.52996000  0.77179000  0.35037000  1.0
  C  C56  1  0.48410000  0.81172000  0.57443000  1.0
  C  C57  1  0.47005000  0.22821000  0.64963000  1.0
  C  C58  1  0.51590000  0.18828000  0.42558000  1.0
  C  C59  1  0.48558000  0.90366000  0.57588000  1.0
  C  C60  1  0.51442000  0.09634000  0.42413000  1.0
  C  C61  1  0.49973000  0.95343000  0.49982000  1.0
  N  N62  1  0.24371000  0.50037000  0.50088000  1.0
  N  N63  1  0.75629000  0.49964000  0.49913000  1.0
  N  N64  1  0.87032000  0.40166000  0.78516000  1.0
  N  N65  1  0.12969000  0.59841000  0.21487000  1.0
  N  N66  1  0.54438000  0.73493000  0.28893000  1.0
  N  N67  1  0.45563000  0.26507000  0.71107000  1.0
  Cl  Cl68  1  0.53490000  0.31175000  0.06861000  1.0
  Cl  Cl69  1  0.46510000  0.68826000  0.93139000  1.0
  Cl  Cl70  1  0.10050000  0.41797000  0.73733000  1.0
  Cl  Cl71  1  0.89951000  0.58207000  0.26268000  1.0
  Cl  Cl72  1  0.25745000  0.62035000  0.38196000  1.0
  Cl  Cl73  1  0.74255000  0.37968000  0.61806000  1.0
  Cl  Cl74  1  0.25932000  0.37835000  0.61633000  1.0
  Cl  Cl75  1  0.74067000  0.62163000  0.38366000  1.0
  O  O76  1  0.42356000  0.36683000  0.50138000  1.0
  O  O77  1  0.57645000  0.63318000  0.49861000  1.0
  O  O78  1  0.58194000  0.36543000  0.49791000  1.0
  O  O79  1  0.41807000  0.63456000  0.50210000  1.0
  O  O80  1  0.42149000  0.49970000  0.37621000  1.0
  O  O81  1  0.57847000  0.50031000  0.62379000  1.0
  O  O82  1  0.58004000  0.49756000  0.37359000  1.0
  O  O83  1  0.41991000  0.50242000  0.62641000  1.0
