# generated using pymatgen
data_Cd3H12C14(NO6)2
_symmetry_space_group_name_H-M   'P 1'
_cell_length_a   6.70482000
_cell_length_b   10.68460000
_cell_length_c   13.09290000
_cell_angle_alpha   102.52200000
_cell_angle_beta   90.02150000
_cell_angle_gamma   108.27700000
_symmetry_Int_Tables_number   1
_chemical_formula_structural   Cd3H12C14(NO6)2
_chemical_formula_sum   'Cd6 H24 C28 N4 O24'
_cell_volume   867.08106858
_cell_formula_units_Z   2
loop_
 _symmetry_equiv_pos_site_id
 _symmetry_equiv_pos_as_xyz
  1  'x, y, z'
loop_
 _atom_site_type_symbol
 _atom_site_label
 _atom_site_symmetry_multiplicity
 _atom_site_fract_x
 _atom_site_fract_y
 _atom_site_fract_z
 _atom_site_occupancy
  Cd  Cd0  1  0.33708000  0.83808000  0.95299000  1.0
  Cd  Cd1  1  0.49917000  0.16201000  0.54698000  1.0
  Cd  Cd2  1  0.66292000  0.16192000  0.04701000  1.0
  Cd  Cd3  1  0.50083000  0.83798000  0.45302000  1.0
  Cd  Cd4  1  0.64390000  0.00023000  0.75006000  1.0
  Cd  Cd5  1  0.35610000  0.99977000  0.24994000  1.0
  H  H6  1  0.74601000  0.47514000  0.83402000  1.0
  H  H7  1  0.27148000  0.52511000  0.66583000  1.0
  H  H8  1  0.25400000  0.52486000  0.16598000  1.0
  H  H9  1  0.72851000  0.47489000  0.33417000  1.0
  H  H10  1  0.06238000  0.53052000  0.91840000  1.0
  H  H11  1  0.53225000  0.46968000  0.58176000  1.0
  H  H12  1  0.93763000  0.46948000  0.08160000  1.0
  H  H13  1  0.46775000  0.53032000  0.41824000  1.0
  H  H14  1  0.69429000  0.70301000  0.87936000  1.0
  H  H15  1  0.99214000  0.29727000  0.62046000  1.0
  H  H16  1  0.30572000  0.29700000  0.12064000  1.0
  H  H17  1  0.00786000  0.70273000  0.37954000  1.0
  H  H18  1  0.77460000  0.95143000  0.92894000  1.0
  H  H19  1  0.82317000  0.04859000  0.57111000  1.0
  H  H20  1  0.22540000  0.04857000  0.07106000  1.0
  H  H21  1  0.17683000  0.95141000  0.42889000  1.0
  H  H22  1  0.99211000  0.87486000  0.81600000  1.0
  H  H23  1  0.11759000  0.12523000  0.68395000  1.0
  H  H24  1  0.00788000  0.12514000  0.18400000  1.0
  H  H25  1  0.88241000  0.87477000  0.31605000  1.0
  H  H26  1  0.15724000  0.00599000  0.88584000  1.0
  H  H27  1  0.15156000  0.99407000  0.61416000  1.0
  H  H28  1  0.84276000  0.99400000  0.11416000  1.0
  H  H29  1  0.84844000  0.00593000  0.38584000  1.0
  C  C30  1  0.59129000  0.48379000  0.85091000  1.0
  C  C31  1  0.10804000  0.51649000  0.64908000  1.0
  C  C32  1  0.40872000  0.51621000  0.14909000  1.0
  C  C33  1  0.89195000  0.48350000  0.35092000  1.0
  C  C34  1  0.21035000  0.51393000  0.89674000  1.0
  C  C35  1  0.69687000  0.48627000  0.60338000  1.0
  C  C36  1  0.78965000  0.48607000  0.10326000  1.0
  C  C37  1  0.30312000  0.51373000  0.39662000  1.0
  C  C38  1  0.22462000  0.38348000  0.87296000  1.0
  C  C39  1  0.84149000  0.61676000  0.62719000  1.0
  C  C40  1  0.77538000  0.61652000  0.12704000  1.0
  C  C41  1  0.15851000  0.38324000  0.37281000  1.0
  C  C42  1  0.56329000  0.61037000  0.87565000  1.0
  C  C43  1  0.95360000  0.38988000  0.62427000  1.0
  C  C44  1  0.43672000  0.38963000  0.12435000  1.0
  C  C45  1  0.04639000  0.61012000  0.37573000  1.0
  C  C46  1  0.42074000  0.36750000  0.85059000  1.0
  C  C47  1  0.05367000  0.63281000  0.64956000  1.0
  C  C48  1  0.57926000  0.63250000  0.14941000  1.0
  C  C49  1  0.94632000  0.36719000  0.35044000  1.0
  C  C50  1  0.44949000  0.23016000  0.83477000  1.0
  C  C51  1  0.21985000  0.77012000  0.66533000  1.0
  C  C52  1  0.55051000  0.76984000  0.16523000  1.0
  C  C53  1  0.78014000  0.22987000  0.33467000  1.0
  C  C54  1  0.02923000  0.26616000  0.87344000  1.0
  C  C55  1  0.76322000  0.73400000  0.62661000  1.0
  C  C56  1  0.97078000  0.73384000  0.12656000  1.0
  C  C57  1  0.23677000  0.26600000  0.37339000  1.0
  N  N58  1  0.37514000  0.62527000  0.89858000  1.0
  N  N59  1  0.75045000  0.37492000  0.60144000  1.0
  N  N60  1  0.62487000  0.37474000  0.10142000  1.0
  N  N61  1  0.24955000  0.62508000  0.39856000  1.0
  O  O62  1  0.64934000  0.97673000  0.91741000  1.0
  O  O63  1  0.67263000  0.02332000  0.58265000  1.0
  O  O64  1  0.35067000  0.02327000  0.08259000  1.0
  O  O65  1  0.32737000  0.97668000  0.41735000  1.0
  O  O66  1  0.06459000  0.91376000  0.88777000  1.0
  O  O67  1  0.15103000  0.08628000  0.61220000  1.0
  O  O68  1  0.93540000  0.08624000  0.11223000  1.0
  O  O69  1  0.84897000  0.91372000  0.38780000  1.0
  O  O70  1  0.54899000  0.19576000  0.75667000  1.0
  O  O71  1  0.35396000  0.80448000  0.74339000  1.0
  O  O72  1  0.45102000  0.80424000  0.24333000  1.0
  O  O73  1  0.64603000  0.19552000  0.25661000  1.0
  O  O74  1  0.98981000  0.16480000  0.79549000  1.0
  O  O75  1  0.82499000  0.83539000  0.70453000  1.0
  O  O76  1  0.01019000  0.83520000  0.20451000  1.0
  O  O77  1  0.17501000  0.16461000  0.29547000  1.0
  O  O78  1  0.91895000  0.28242000  0.95024000  1.0
  O  O79  1  0.63672000  0.71760000  0.54971000  1.0
  O  O80  1  0.08106000  0.71758000  0.04976000  1.0
  O  O81  1  0.36327000  0.28240000  0.45030000  1.0
  O  O82  1  0.37717000  0.16151000  0.90175000  1.0
  O  O83  1  0.21605000  0.83875000  0.59834000  1.0
  O  O84  1  0.62283000  0.83849000  0.09825000  1.0
  O  O85  1  0.78394000  0.16125000  0.40166000  1.0
