# generated using pymatgen
data_ZnH15C11NO8
_symmetry_space_group_name_H-M   'P 1'
_cell_length_a   8.82466000
_cell_length_b   8.97945000
_cell_length_c   9.70082000
_cell_angle_alpha   81.72990000
_cell_angle_beta   86.41420000
_cell_angle_gamma   71.74510000
_symmetry_Int_Tables_number   1
_chemical_formula_structural   ZnH15C11NO8
_chemical_formula_sum   'Zn2 H30 C22 N2 O16'
_cell_volume   722.29546153
_cell_formula_units_Z   2
loop_
 _symmetry_equiv_pos_site_id
 _symmetry_equiv_pos_as_xyz
  1  'x, y, z'
loop_
 _atom_site_type_symbol
 _atom_site_label
 _atom_site_symmetry_multiplicity
 _atom_site_fract_x
 _atom_site_fract_y
 _atom_site_fract_z
 _atom_site_occupancy
  Zn  Zn0  1  0.38166000  0.83754000  0.32259000  1.0
  Zn  Zn1  1  0.64649000  0.18143000  0.58090000  1.0
  H  H2  1  0.17744000  0.98696000  0.47140000  1.0
  H  H3  1  0.34524000  0.95935000  0.54312000  1.0
  H  H4  1  0.17312000  0.71638000  0.23714000  1.0
  H  H5  1  0.27540000  0.60255000  0.36753000  1.0
  H  H6  1  0.68199000  0.66091000  0.39685000  1.0
  H  H7  1  0.60088000  0.64148000  0.54294000  1.0
  H  H8  1  0.74211000  0.98164000  0.41323000  1.0
  H  H9  1  0.89374000  0.03889000  0.43255000  1.0
  H  H10  1  0.78315000  0.38353000  0.65344000  1.0
  H  H11  1  0.90334000  0.27640000  0.54605000  1.0
  H  H12  1  0.53575000  0.19114000  0.34738000  1.0
  H  H13  1  0.44636000  0.35164000  0.41660000  1.0
  H  H14  1  0.58808000  0.74391000  0.98487000  1.0
  H  H15  1  0.76634000  0.92121000  0.90640000  1.0
  H  H16  1  0.14948000  0.18864000  0.97842000  1.0
  H  H17  1  0.97521000  0.38512000  0.80093000  1.0
  H  H18  1  0.62644000  0.54043000  0.12495000  1.0
  H  H19  1  0.79962000  0.34716000  0.29765000  1.0
  H  H20  1  0.42355000  0.77605000  0.72281000  1.0
  H  H21  1  0.26997000  0.84235000  0.94405000  1.0
  H  H22  1  0.23151000  0.00765000  0.81129000  1.0
  H  H23  1  0.35875000  0.99232000  0.95268000  1.0
  H  H24  1  0.80028000  0.04136000  0.16380000  1.0
  H  H25  1  0.68511000  0.22087000  0.94544000  1.0
  H  H26  1  0.55196000  0.24995000  0.09193000  1.0
  H  H27  1  0.52241000  0.14342000  0.95897000  1.0
  H  H28  1  0.21109000  0.54891000  0.08685000  1.0
  H  H29  1  0.38561000  0.39812000  0.90900000  1.0
  H  H30  1  0.07853000  0.69245000  0.58457000  1.0
  H  H31  1  0.90998000  0.84817000  0.75537000  1.0
  C  C32  1  0.09046000  0.13152000  0.25451000  1.0
  C  C33  1  0.98747000  0.25547000  0.14947000  1.0
  C  C34  1  0.03474000  0.26661000  0.00873000  1.0
  C  C35  1  0.93690000  0.37578000  0.90980000  1.0
  C  C36  1  0.78992000  0.47741000  0.94998000  1.0
  C  C37  1  0.74256000  0.46722000  0.09116000  1.0
  C  C38  1  0.84073000  0.35744000  0.18976000  1.0
  C  C39  1  0.68579000  0.59082000  0.84123000  1.0
  C  C40  1  0.46488000  0.83745000  0.79556000  1.0
  C  C41  1  0.32236000  0.92592000  0.88146000  1.0
  C  C42  1  0.53158000  0.96077000  0.71012000  1.0
  C  C43  1  0.61060000  0.94087000  0.19711000  1.0
  C  C44  1  0.71766000  0.01384000  0.09880000  1.0
  C  C45  1  0.61192000  0.16672000  0.01878000  1.0
  C  C46  1  0.95134000  0.80105000  0.04363000  1.0
  C  C47  1  0.04796000  0.70850000  0.93495000  1.0
  C  C48  1  0.18271000  0.58067000  0.97677000  1.0
  C  C49  1  0.27989000  0.49613000  0.87807000  1.0
  C  C50  1  0.24295000  0.53468000  0.73630000  1.0
  C  C51  1  0.10732000  0.66079000  0.69449000  1.0
  C  C52  1  0.01175000  0.74825000  0.79267000  1.0
  C  C53  1  0.35007000  0.44033000  0.63263000  1.0
  N  N54  1  0.58173000  0.72040000  0.88523000  1.0
  N  N55  1  0.81180000  0.90905000  0.00408000  1.0
  O  O56  1  0.22142000  0.04223000  0.21089000  1.0
  O  O57  1  0.03844000  0.12235000  0.38153000  1.0
  O  O58  1  0.69486000  0.56488000  0.71562000  1.0
  O  O59  1  0.64945000  0.99394000  0.75281000  1.0
  O  O60  1  0.45990000  0.03571000  0.59991000  1.0
  O  O61  1  0.57215000  0.99198000  0.31403000  1.0
  O  O62  1  0.55428000  0.83805000  0.15989000  1.0
  O  O63  1  0.99735000  0.78247000  0.16714000  1.0
  O  O64  1  0.30531000  0.46001000  0.50708000  1.0
  O  O65  1  0.48125000  0.34368000  0.68071000  1.0
  O  O66  1  0.27778000  0.90141000  0.50543000  1.0
  O  O67  1  0.28137000  0.67571000  0.28124000  1.0
  O  O68  1  0.58273000  0.65257000  0.44167000  1.0
  O  O69  1  0.81021000  0.99787000  0.48351000  1.0
  O  O70  1  0.82376000  0.27675000  0.62085000  1.0
  O  O71  1  0.55269000  0.28236000  0.38317000  1.0
