# generated using pymatgen
data_MgH16C16(N5O3)2
_symmetry_space_group_name_H-M   'P 1'
_cell_length_a   4.59021000
_cell_length_b   15.09240000
_cell_length_c   16.12488299
_cell_angle_alpha   117.22053593
_cell_angle_beta   98.20151790
_cell_angle_gamma   89.97860000
_symmetry_Int_Tables_number   1
_chemical_formula_structural   MgH16C16(N5O3)2
_chemical_formula_sum   'Mg2 H32 C32 N20 O12'
_cell_volume   980.53875174
_cell_formula_units_Z   2
loop_
 _symmetry_equiv_pos_site_id
 _symmetry_equiv_pos_as_xyz
  1  'x, y, z'
loop_
 _atom_site_type_symbol
 _atom_site_label
 _atom_site_symmetry_multiplicity
 _atom_site_fract_x
 _atom_site_fract_y
 _atom_site_fract_z
 _atom_site_occupancy
  Mg  Mg0  1  0.50000000  0.50000000  0.00000000  1.0
  Mg  Mg1  1  0.50000000  0.00000000  0.00000000  1.0
  H  H2  1  0.17488000  0.47880000  0.10328000  1.0
  H  H3  1  0.07149000  0.02125000  0.89668000  1.0
  H  H4  1  0.82512000  0.52120000  0.89672000  1.0
  H  H5  1  0.92851000  0.97875000  0.10332000  1.0
  H  H6  1  0.49093000  0.51308000  0.17359000  1.0
  H  H7  1  0.31739000  0.98697000  0.82641000  1.0
  H  H8  1  0.50907000  0.48692000  0.82641000  1.0
  H  H9  1  0.68261000  0.01303000  0.17359000  1.0
  H  H10  1  0.27078000  0.98258000  0.52401000  1.0
  H  H11  1  0.74686000  0.51739000  0.47600000  1.0
  H  H12  1  0.72923000  0.01742000  0.47599000  1.0
  H  H13  1  0.25314000  0.48261000  0.52400000  1.0
  H  H14  1  0.61560000  0.84581000  0.47031000  1.0
  H  H15  1  0.14537000  0.65407000  0.52967000  1.0
  H  H16  1  0.38441000  0.15419000  0.52969000  1.0
  H  H17  1  0.85463000  0.34593000  0.47033000  1.0
  H  H18  1  0.84158000  0.78574000  0.58649000  1.0
  H  H19  1  0.25465000  0.71420000  0.41353000  1.0
  H  H20  1  0.15842000  0.21426000  0.41351000  1.0
  H  H21  1  0.74534000  0.28580000  0.58647000  1.0
  H  H22  1  0.72217000  0.86846000  0.75007000  1.0
  H  H23  1  0.97144000  0.63158000  0.24998000  1.0
  H  H24  1  0.27783000  0.13154000  0.24993000  1.0
  H  H25  1  0.02855000  0.36842000  0.75002000  1.0
  H  H26  1  0.71503000  0.21466000  0.90729000  1.0
  H  H27  1  0.80764000  0.28532000  0.09263000  1.0
  H  H28  1  0.28497000  0.78534000  0.09271000  1.0
  H  H29  1  0.19236000  0.71468000  0.90737000  1.0
  H  H30  1  0.55762000  0.27994000  0.84590000  1.0
  H  H31  1  0.71183000  0.22003000  0.15401000  1.0
  H  H32  1  0.44239000  0.72006000  0.15410000  1.0
  H  H33  1  0.28817000  0.77997000  0.84599000  1.0
  C  C34  1  0.33155000  0.99991000  0.66610000  1.0
  C  C35  1  0.66522000  0.50009000  0.33392000  1.0
  C  C36  1  0.66844000  0.00009000  0.33390000  1.0
  C  C37  1  0.33478000  0.49991000  0.66608000  1.0
  C  C38  1  0.38092000  0.95676000  0.57241000  1.0
  C  C39  1  0.80834000  0.54323000  0.42761000  1.0
  C  C40  1  0.61909000  0.04324000  0.42759000  1.0
  C  C41  1  0.19167000  0.45677000  0.57239000  1.0
  C  C42  1  0.56852000  0.87928000  0.54255000  1.0
  C  C43  1  0.02587000  0.62064000  0.45745000  1.0
  C  C44  1  0.43148000  0.12071000  0.45745000  1.0
  C  C45  1  0.97413000  0.37936000  0.54255000  1.0
  C  C46  1  0.69572000  0.84640000  0.60645000  1.0
  C  C47  1  0.08889000  0.65355000  0.39357000  1.0
  C  C48  1  0.30428000  0.15360000  0.39355000  1.0
  C  C49  1  0.91110000  0.34645000  0.60643000  1.0
  C  C50  1  0.62996000  0.89249000  0.69815000  1.0
  C  C51  1  0.93129000  0.60752000  0.30189000  1.0
  C  C52  1  0.37005000  0.10751000  0.30185000  1.0
  C  C53  1  0.06871000  0.39248000  0.69811000  1.0
  C  C54  1  0.14029000  0.08235000  0.70206000  1.0
  C  C55  1  0.43811000  0.41764000  0.29792000  1.0
  C  C56  1  0.85970000  0.91765000  0.29794000  1.0
  C  C57  1  0.56189000  0.58237000  0.70209000  1.0
  C  C58  1  0.76547000  0.25749000  0.87080000  1.0
  C  C59  1  0.89470000  0.24248000  0.12912000  1.0
  C  C60  1  0.23453000  0.74251000  0.12920000  1.0
  C  C61  1  0.10530000  0.75752000  0.87088000  1.0
  C  C62  1  0.95843000  0.35298000  0.93992000  1.0
  C  C63  1  0.01867000  0.14699000  0.06003000  1.0
  C  C64  1  0.04157000  0.64703000  0.06008000  1.0
  C  C65  1  0.98133000  0.85301000  0.93997000  1.0
  N  N66  1  0.07971000  0.12474000  0.79062000  1.0
  N  N67  1  0.28898000  0.37524000  0.20934000  1.0
  N  N68  1  0.92029000  0.87526000  0.20938000  1.0
  N  N69  1  0.71102000  0.62475000  0.79066000  1.0
  N  N70  1  0.89460000  0.19164000  0.78931000  1.0
  N  N71  1  0.10532000  0.30832000  0.21062000  1.0
  N  N72  1  0.10540000  0.80836000  0.21069000  1.0
  N  N73  1  0.89468000  0.69168000  0.78938000  1.0
  N  N74  1  0.84063000  0.19308000  0.70604000  1.0
  N  N75  1  0.13468000  0.30691000  0.29390000  1.0
  N  N76  1  0.15936000  0.80692000  0.29396000  1.0
  N  N77  1  0.86532000  0.69309000  0.70610000  1.0
  N  N78  1  0.99632000  0.12395000  0.65002000  1.0
  N  N79  1  0.34631000  0.37603000  0.34994000  1.0
  N  N80  1  0.00369000  0.87605000  0.34998000  1.0
  N  N81  1  0.65369000  0.62397000  0.65006000  1.0
  N  N82  1  0.45323000  0.96776000  0.72776000  1.0
  N  N83  1  0.72505000  0.53226000  0.27228000  1.0
  N  N84  1  0.54678000  0.03224000  0.27224000  1.0
  N  N85  1  0.27495000  0.46774000  0.72772000  1.0
  O  O86  1  0.84543000  0.40863000  0.01300000  1.0
  O  O87  1  0.83256000  0.09129000  0.98697000  1.0
  O  O88  1  0.15456000  0.59136000  0.98699000  1.0
  O  O89  1  0.16744000  0.90871000  0.01303000  1.0
  O  O90  1  0.20258000  0.37020000  0.92107000  1.0
  O  O91  1  0.28179000  0.12981000  0.07890000  1.0
  O  O92  1  0.79742000  0.62980000  0.07893000  1.0
  O  O93  1  0.71820000  0.87020000  0.92111000  1.0
  O  O94  1  0.36056000  0.52086000  0.12160000  1.0
  O  O95  1  0.23899000  0.97922000  0.87839000  1.0
  O  O96  1  0.63944000  0.47914000  0.87840000  1.0
  O  O97  1  0.76101000  0.02078000  0.12161000  1.0
