# generated using pymatgen
data_Mo2H3C2(NO2)3
_symmetry_space_group_name_H-M   'P 1'
_cell_length_a   3.92067000
_cell_length_b   13.44890000
_cell_length_c   13.97690000
_cell_angle_alpha   90.00000000
_cell_angle_beta   90.00030000
_cell_angle_gamma   89.99710000
_symmetry_Int_Tables_number   1
_chemical_formula_structural   Mo2H3C2(NO2)3
_chemical_formula_sum   'Mo8 H12 C8 N12 O24'
_cell_volume   736.98374879
_cell_formula_units_Z   4
loop_
 _symmetry_equiv_pos_site_id
 _symmetry_equiv_pos_as_xyz
  1  'x, y, z'
loop_
 _atom_site_type_symbol
 _atom_site_label
 _atom_site_symmetry_multiplicity
 _atom_site_fract_x
 _atom_site_fract_y
 _atom_site_fract_z
 _atom_site_occupancy
  Mo  Mo0  1  0.32107000  0.11296000  0.32861000  1.0
  Mo  Mo1  1  0.67936000  0.61321000  0.67140000  1.0
  Mo  Mo2  1  0.32176000  0.88644000  0.17061000  1.0
  Mo  Mo3  1  0.67862000  0.38667000  0.82933000  1.0
  Mo  Mo4  1  0.67862000  0.88667000  0.67067000  1.0
  Mo  Mo5  1  0.32176000  0.38644000  0.32939000  1.0
  Mo  Mo6  1  0.67936000  0.11321000  0.82859000  1.0
  Mo  Mo7  1  0.32107000  0.61296000  0.17139000  1.0
  H  H8  1  0.12469000  0.09260000  0.07114000  1.0
  H  H9  1  0.87541000  0.59276000  0.92886000  1.0
  H  H10  1  0.12516000  0.90777000  0.42797000  1.0
  H  H11  1  0.87370000  0.40794000  0.57184000  1.0
  H  H12  1  0.87367000  0.90794000  0.92816000  1.0
  H  H13  1  0.12515000  0.40777000  0.07202000  1.0
  H  H14  1  0.87539000  0.09276000  0.57114000  1.0
  H  H15  1  0.12467000  0.59260000  0.42886000  1.0
  H  H16  1  0.99107000  0.25039000  0.97093000  1.0
  H  H17  1  0.00810000  0.75047000  0.02917000  1.0
  H  H18  1  0.99105000  0.75039000  0.52907000  1.0
  H  H19  1  0.00811000  0.25047000  0.47083000  1.0
  C  C20  1  0.14935000  0.16898000  0.09549000  1.0
  C  C21  1  0.85058000  0.66914000  0.90455000  1.0
  C  C22  1  0.14946000  0.83121000  0.40409000  1.0
  C  C23  1  0.84980000  0.33139000  0.59577000  1.0
  C  C24  1  0.84979000  0.83138000  0.90423000  1.0
  C  C25  1  0.14946000  0.33121000  0.09591000  1.0
  C  C26  1  0.85058000  0.16914000  0.59545000  1.0
  C  C27  1  0.14933000  0.66898000  0.40452000  1.0
  N  N28  1  0.24352000  0.19876000  0.18169000  1.0
  N  N29  1  0.75678000  0.69896000  0.81833000  1.0
  N  N30  1  0.24369000  0.80096000  0.31803000  1.0
  N  N31  1  0.75623000  0.30117000  0.68189000  1.0
  N  N32  1  0.75622000  0.80117000  0.81811000  1.0
  N  N33  1  0.24368000  0.30096000  0.18197000  1.0
  N  N34  1  0.75677000  0.19896000  0.68167000  1.0
  N  N35  1  0.24352000  0.69876000  0.31831000  1.0
  N  N36  1  0.08898000  0.25026000  0.04036000  1.0
  N  N37  1  0.91029000  0.75041000  0.95975000  1.0
  N  N38  1  0.08897000  0.75026000  0.45964000  1.0
  N  N39  1  0.91031000  0.25041000  0.54024000  1.0
  O  O40  1  0.76557000  0.12121000  0.31443000  1.0
  O  O41  1  0.23487000  0.62153000  0.68558000  1.0
  O  O42  1  0.76615000  0.87825000  0.18481000  1.0
  O  O43  1  0.23423000  0.37853000  0.81507000  1.0
  O  O44  1  0.23423000  0.87853000  0.68493000  1.0
  O  O45  1  0.76615000  0.37825000  0.31519000  1.0
  O  O46  1  0.23487000  0.12153000  0.81441000  1.0
  O  O47  1  0.76557000  0.62121000  0.18557000  1.0
  O  O48  1  0.26782000  0.06254000  0.44010000  1.0
  O  O49  1  0.73250000  0.56279000  0.55991000  1.0
  O  O50  1  0.26879000  0.93646000  0.05893000  1.0
  O  O51  1  0.73146000  0.43667000  0.94103000  1.0
  O  O52  1  0.73146000  0.93667000  0.55897000  1.0
  O  O53  1  0.26879000  0.43646000  0.44107000  1.0
  O  O54  1  0.73250000  0.06279000  0.94009000  1.0
  O  O55  1  0.26782000  0.56254000  0.05991000  1.0
  O  O56  1  0.25024000  0.24963000  0.36779000  1.0
  O  O57  1  0.75026000  0.74990000  0.63223000  1.0
  O  O58  1  0.25024000  0.74963000  0.13221000  1.0
  O  O59  1  0.75027000  0.24990000  0.86777000  1.0
  O  O60  1  0.25502000  0.99988000  0.24937000  1.0
  O  O61  1  0.74555000  0.50015000  0.75060000  1.0
  O  O62  1  0.74553000  0.00015000  0.74940000  1.0
  O  O63  1  0.25501000  0.49988000  0.25063000  1.0
