# generated using pymatgen
data_GdH13C15(NO2)4
_symmetry_space_group_name_H-M   'P 1'
_cell_length_a   8.90020000
_cell_length_b   9.68570000
_cell_length_c   12.92930000
_cell_angle_alpha   99.81200000
_cell_angle_beta   93.70070000
_cell_angle_gamma   107.23800000
_symmetry_Int_Tables_number   1
_chemical_formula_structural   GdH13C15(NO2)4
_chemical_formula_sum   'Gd2 H26 C30 N8 O16'
_cell_volume   1041.06368997
_cell_formula_units_Z   2
loop_
 _symmetry_equiv_pos_site_id
 _symmetry_equiv_pos_as_xyz
  1  'x, y, z'
loop_
 _atom_site_type_symbol
 _atom_site_label
 _atom_site_symmetry_multiplicity
 _atom_site_fract_x
 _atom_site_fract_y
 _atom_site_fract_z
 _atom_site_occupancy
  Gd  Gd0  1  0.20668000  0.44742000  0.00936000  1.0
  Gd  Gd1  1  0.79332000  0.55258000  0.99064000  1.0
  H  H2  1  0.44886000  0.52532000  0.19992000  1.0
  H  H3  1  0.55114000  0.47469000  0.80009000  1.0
  H  H4  1  0.50599000  0.62744000  0.11257000  1.0
  H  H5  1  0.49403000  0.37257000  0.88744000  1.0
  H  H6  1  0.22193000  0.46051000  0.77060000  1.0
  H  H7  1  0.77806000  0.53948000  0.22940000  1.0
  H  H8  1  0.04145000  0.38163000  0.79102000  1.0
  H  H9  1  0.95854000  0.61836000  0.20898000  1.0
  H  H10  1  0.22459000  0.35968000  0.24231000  1.0
  H  H11  1  0.77540000  0.64032000  0.75769000  1.0
  H  H12  1  0.08902000  0.25158000  0.15537000  1.0
  H  H13  1  0.91098000  0.74841000  0.84463000  1.0
  H  H14  1  0.24774000  0.28387000  0.50257000  1.0
  H  H15  1  0.75227000  0.71612000  0.49743000  1.0
  H  H16  1  0.19434000  0.14767000  0.65141000  1.0
  H  H17  1  0.80565000  0.85234000  0.34858000  1.0
  H  H18  1  0.64768000  0.07428000  0.64239000  1.0
  H  H19  1  0.35232000  0.92572000  0.35760000  1.0
  H  H20  1  0.70400000  0.21637000  0.49950000  1.0
  H  H21  1  0.29602000  0.78364000  0.50049000  1.0
  H  H22  1  0.34015000  0.79571000  0.81904000  1.0
  H  H23  1  0.65986000  0.20428000  0.18096000  1.0
  H  H24  1  0.79913000  0.95203000  0.00636000  1.0
  H  H25  1  0.20089000  0.04799000  0.99364000  1.0
  H  H26  1  0.65654000  0.22687000  0.81543000  1.0
  H  H27  1  0.34347000  0.77314000  0.18458000  1.0
  C  C28  1  0.51771000  0.33988000  0.40599000  1.0
  C  C29  1  0.48228000  0.66012000  0.59401000  1.0
  C  C30  1  0.47949000  0.25847000  0.49096000  1.0
  C  C31  1  0.52054000  0.74153000  0.50904000  1.0
  C  C32  1  0.33448000  0.23673000  0.53285000  1.0
  C  C33  1  0.66552000  0.76327000  0.46715000  1.0
  C  C34  1  0.30428000  0.16154000  0.61585000  1.0
  C  C35  1  0.69573000  0.83846000  0.38416000  1.0
  C  C36  1  0.41797000  0.10520000  0.65618000  1.0
  C  C37  1  0.58203000  0.89481000  0.34381000  1.0
  C  C38  1  0.56196000  0.12378000  0.61429000  1.0
  C  C39  1  0.43804000  0.87623000  0.38571000  1.0
  C  C40  1  0.59247000  0.20149000  0.53311000  1.0
  C  C41  1  0.40753000  0.79852000  0.46689000  1.0
  C  C42  1  0.48996000  0.01016000  0.80500000  1.0
  C  C43  1  0.51004000  0.98984000  0.19501000  1.0
  C  C44  1  0.45368000  0.88098000  0.84510000  1.0
  C  C45  1  0.54631000  0.11902000  0.15490000  1.0
  C  C46  1  0.56489000  0.86099000  0.91811000  1.0
  C  C47  1  0.43511000  0.13901000  0.08190000  1.0
  C  C48  1  0.52236000  0.72349000  0.96193000  1.0
  C  C49  1  0.47764000  0.27650000  0.03808000  1.0
  C  C50  1  0.71206000  0.96950000  0.95121000  1.0
  C  C51  1  0.28793000  0.03050000  0.04880000  1.0
  C  C52  1  0.74307000  0.10183000  0.91433000  1.0
  C  C53  1  0.25694000  0.89816000  0.08568000  1.0
  C  C54  1  0.89370000  0.22287000  0.95209000  1.0
  C  C55  1  0.10628000  0.77711000  0.04791000  1.0
  C  C56  1  0.63251000  0.12250000  0.84165000  1.0
  C  C57  1  0.36749000  0.87750000  0.15836000  1.0
  N  N58  1  0.66791000  0.39312000  0.38272000  1.0
  N  N59  1  0.33210000  0.60688000  0.61727000  1.0
  N  N60  1  0.65479000  0.46068000  0.30284000  1.0
  N  N61  1  0.34522000  0.53932000  0.69716000  1.0
  N  N62  1  0.50456000  0.44922000  0.27842000  1.0
  N  N63  1  0.49544000  0.55078000  0.72157000  1.0
  N  N64  1  0.41378000  0.37367000  0.34090000  1.0
  N  N65  1  0.58621000  0.62632000  0.65910000  1.0
  O  O66  1  0.41030000  0.57627000  0.14237000  1.0
  O  O67  1  0.58970000  0.42373000  0.85763000  1.0
  O  O68  1  0.90270000  0.35846000  0.94715000  1.0
  O  O69  1  0.09729000  0.64153000  0.05284000  1.0
  O  O70  1  0.01581000  0.19618000  0.98742000  1.0
  O  O71  1  0.98418000  0.80382000  0.01258000  1.0
  O  O72  1  0.15097000  0.40582000  0.82138000  1.0
  O  O73  1  0.84902000  0.59420000  0.17862000  1.0
  O  O74  1  0.63175000  0.69826000  0.01948000  1.0
  O  O75  1  0.36824000  0.30173000  0.98053000  1.0
  O  O76  1  0.15419000  0.35448000  0.17781000  1.0
  O  O77  1  0.84582000  0.64550000  0.82218000  1.0
  O  O78  1  0.38094000  0.63869000  0.94345000  1.0
  O  O79  1  0.61904000  0.36130000  0.05655000  1.0
  O  O80  1  0.37519000  0.02424000  0.73452000  1.0
  O  O81  1  0.62481000  0.97575000  0.26548000  1.0
