# generated using pymatgen
data_NiH8(C5N7)2
_symmetry_space_group_name_H-M   'P 1'
_cell_length_a   8.10703000
_cell_length_b   8.14434000
_cell_length_c   11.79290000
_cell_angle_alpha   109.78600000
_cell_angle_beta   90.80700000
_cell_angle_gamma   98.12870000
_symmetry_Int_Tables_number   1
_chemical_formula_structural   NiH8(C5N7)2
_chemical_formula_sum   'Ni2 H16 C20 N28'
_cell_volume   723.70758999
_cell_formula_units_Z   2
loop_
 _symmetry_equiv_pos_site_id
 _symmetry_equiv_pos_as_xyz
  1  'x, y, z'
loop_
 _atom_site_type_symbol
 _atom_site_label
 _atom_site_symmetry_multiplicity
 _atom_site_fract_x
 _atom_site_fract_y
 _atom_site_fract_z
 _atom_site_occupancy
  Ni  Ni0  1  0.29911000  0.48771000  0.51743000  1.0
  Ni  Ni1  1  0.70090000  0.51229000  0.48257000  1.0
  H  H2  1  0.33672000  0.64622000  0.78891000  1.0
  H  H3  1  0.66327000  0.35378000  0.21109000  1.0
  H  H4  1  0.35724000  0.54500000  0.96417000  1.0
  H  H5  1  0.64275000  0.45499000  0.03584000  1.0
  H  H6  1  0.29954000  0.00917000  0.71051000  1.0
  H  H7  1  0.70047000  0.99083000  0.28949000  1.0
  H  H8  1  0.28652000  0.13628000  0.54547000  1.0
  H  H9  1  0.71350000  0.86373000  0.45453000  1.0
  H  H10  1  0.29485000  0.83920000  0.49413000  1.0
  H  H11  1  0.70515000  0.16081000  0.50587000  1.0
  H  H12  1  0.18026000  0.96189000  0.34717000  1.0
  H  H13  1  0.81974000  0.03811000  0.65283000  1.0
  H  H14  1  0.10778000  0.43134000  0.08556000  1.0
  H  H15  1  0.89221000  0.56867000  0.91445000  1.0
  H  H16  1  0.21944000  0.33197000  0.24499000  1.0
  H  H17  1  0.78055000  0.66804000  0.75501000  1.0
  C  C18  1  0.33225000  0.50666000  0.77475000  1.0
  C  C19  1  0.66775000  0.49334000  0.22525000  1.0
  C  C20  1  0.34251000  0.44990000  0.87265000  1.0
  C  C21  1  0.65749000  0.55009000  0.12735000  1.0
  C  C22  1  0.33228000  0.26869000  0.85157000  1.0
  C  C23  1  0.66772000  0.73131000  0.14843000  1.0
  C  C24  1  0.31021000  0.15146000  0.73166000  1.0
  C  C25  1  0.68980000  0.84854000  0.26833000  1.0
  C  C26  1  0.30281000  0.22138000  0.63979000  1.0
  C  C27  1  0.69720000  0.77862000  0.36021000  1.0
  C  C28  1  0.25156000  0.75418000  0.40248000  1.0
  C  C29  1  0.74844000  0.24583000  0.59752000  1.0
  C  C30  1  0.18925000  0.82177000  0.32051000  1.0
  C  C31  1  0.81074000  0.17823000  0.67949000  1.0
  C  C32  1  0.13687000  0.70453000  0.20369000  1.0
  C  C33  1  0.86312000  0.29547000  0.79631000  1.0
  C  C34  1  0.14913000  0.52567000  0.17505000  1.0
  C  C35  1  0.85086000  0.47433000  0.82495000  1.0
  C  C36  1  0.21132000  0.47070000  0.26404000  1.0
  C  C37  1  0.78868000  0.52930000  0.73596000  1.0
  N  N38  1  0.47656000  0.32885000  0.42650000  1.0
  N  N39  1  0.52344000  0.67115000  0.57350000  1.0
  N  N40  1  0.44704000  0.21388000  0.32917000  1.0
  N  N41  1  0.55297000  0.78612000  0.67083000  1.0
  N  N42  1  0.41745000  0.10034000  0.23553000  1.0
  N  N43  1  0.58255000  0.89966000  0.76447000  1.0
  N  N44  1  0.31395000  0.39550000  0.65946000  1.0
  N  N45  1  0.68605000  0.60450000  0.34054000  1.0
  N  N46  1  0.34280000  0.21832000  0.95365000  1.0
  N  N47  1  0.65720000  0.78168000  0.04635000  1.0
  N  N48  1  0.32917000  0.06059000  0.94315000  1.0
  N  N49  1  0.67083000  0.93940000  0.05685000  1.0
  N  N50  1  0.31740000  0.92287000  0.95031000  1.0
  N  N51  1  0.68260000  0.07712000  0.04969000  1.0
  N  N52  1  0.26022000  0.58139000  0.37695000  1.0
  N  N53  1  0.73978000  0.41861000  0.62305000  1.0
  N  N54  1  0.07113000  0.75506000  0.11202000  1.0
  N  N55  1  0.92887000  0.24494000  0.88798000  1.0
  N  N56  1  0.05832000  0.91150000  0.13257000  1.0
  N  N57  1  0.94168000  0.08851000  0.86742000  1.0
  N  N58  1  0.03704000  0.04979000  0.13732000  1.0
  N  N59  1  0.96297000  0.95021000  0.86267000  1.0
  N  N60  1  0.10423000  0.28205000  0.43832000  1.0
  N  N61  1  0.89578000  0.71796000  0.56168000  1.0
  N  N62  1  0.83932000  0.32748000  0.37651000  1.0
  N  N63  1  0.16068000  0.67252000  0.62349000  1.0
  N  N64  1  0.97222000  0.30789000  0.40887000  1.0
  N  N65  1  0.02778000  0.69211000  0.59114000  1.0
