# generated using pymatgen
data_Zn5H12(C10O11)2
_symmetry_space_group_name_H-M   'P 1'
_cell_length_a   7.37666000
_cell_length_b   11.95230000
_cell_length_c   15.90700000
_cell_angle_alpha   90.00000000
_cell_angle_beta   90.00000000
_cell_angle_gamma   107.27700000
_symmetry_Int_Tables_number   1
_chemical_formula_structural   Zn5H12(C10O11)2
_chemical_formula_sum   'Zn10 H24 C40 O44'
_cell_volume   1339.20904567
_cell_formula_units_Z   2
loop_
 _symmetry_equiv_pos_site_id
 _symmetry_equiv_pos_as_xyz
  1  'x, y, z'
loop_
 _atom_site_type_symbol
 _atom_site_label
 _atom_site_symmetry_multiplicity
 _atom_site_fract_x
 _atom_site_fract_y
 _atom_site_fract_z
 _atom_site_occupancy
  Zn  Zn0  1  0.00001000  0.00000000  0.00001000  1.0
  Zn  Zn1  1  0.00000000  0.50000000  0.50000000  1.0
  Zn  Zn2  1  0.74149000  0.98474000  0.18742000  1.0
  Zn  Zn3  1  0.25852000  0.51526000  0.68743000  1.0
  Zn  Zn4  1  0.25855000  0.01526000  0.81257000  1.0
  Zn  Zn5  1  0.74149000  0.48474000  0.31257000  1.0
  Zn  Zn6  1  0.00499000  0.82330000  0.16994000  1.0
  Zn  Zn7  1  0.99501000  0.67669000  0.66994000  1.0
  Zn  Zn8  1  0.99501000  0.17671000  0.83006000  1.0
  Zn  Zn9  1  0.00499000  0.32330000  0.33005000  1.0
  H  H10  1  0.35280000  0.57046000  0.13553000  1.0
  H  H11  1  0.64718000  0.92954000  0.63553000  1.0
  H  H12  1  0.64719000  0.42954000  0.86447000  1.0
  H  H13  1  0.35274000  0.07045000  0.36447000  1.0
  H  H14  1  0.26209000  0.40901000  0.03341000  1.0
  H  H15  1  0.73789000  0.09099000  0.53340000  1.0
  H  H16  1  0.73791000  0.59099000  0.96659000  1.0
  H  H17  1  0.26202000  0.90900000  0.46659000  1.0
  H  H18  1  0.18310000  0.22025000  0.99351000  1.0
  H  H19  1  0.81694000  0.27975000  0.49350000  1.0
  H  H20  1  0.81693000  0.77976000  0.00650000  1.0
  H  H21  1  0.18309000  0.72025000  0.50650000  1.0
  H  H22  1  0.32703000  0.14955000  0.98338000  1.0
  H  H23  1  0.67299000  0.35044000  0.48337000  1.0
  H  H24  1  0.67299000  0.85045000  0.01662000  1.0
  H  H25  1  0.32702000  0.64956000  0.51663000  1.0
  H  H26  1  0.46937000  0.06998000  0.21688000  1.0
  H  H27  1  0.53063000  0.43004000  0.71690000  1.0
  H  H28  1  0.53065000  0.93004000  0.78311000  1.0
  H  H29  1  0.46937000  0.56996000  0.28311000  1.0
  H  H30  1  0.39361000  0.93238000  0.22828000  1.0
  H  H31  1  0.60640000  0.56764000  0.72830000  1.0
  H  H32  1  0.60640000  0.06764000  0.77171000  1.0
  H  H33  1  0.39361000  0.43236000  0.27171000  1.0
  C  C34  1  0.30912000  0.58703000  0.07243000  1.0
  C  C35  1  0.69085000  0.91297000  0.57242000  1.0
  C  C36  1  0.69088000  0.41298000  0.92757000  1.0
  C  C37  1  0.30907000  0.08702000  0.42757000  1.0
  C  C38  1  0.30278000  0.69830000  0.04901000  1.0
  C  C39  1  0.69720000  0.80170000  0.54901000  1.0
  C  C40  1  0.69723000  0.30171000  0.95099000  1.0
  C  C41  1  0.30277000  0.19830000  0.45099000  1.0
  C  C42  1  0.25141000  0.71755000  0.96634000  1.0
  C  C43  1  0.74857000  0.78245000  0.46634000  1.0
  C  C44  1  0.74860000  0.28245000  0.03366000  1.0
  C  C45  1  0.25143000  0.21755000  0.53367000  1.0
  C  C46  1  0.20980000  0.62716000  0.90650000  1.0
  C  C47  1  0.79018000  0.87283000  0.40649000  1.0
  C  C48  1  0.79021000  0.37284000  0.09350000  1.0
  C  C49  1  0.20979000  0.12716000  0.59351000  1.0
  C  C50  1  0.21230000  0.51400000  0.93079000  1.0
  C  C51  1  0.78768000  0.98599000  0.43079000  1.0
  C  C52  1  0.78771000  0.48600000  0.06921000  1.0
  C  C53  1  0.21227000  0.01400000  0.56922000  1.0
  C  C54  1  0.26141000  0.49617000  0.01388000  1.0
  C  C55  1  0.73857000  0.00383000  0.51388000  1.0
  C  C56  1  0.73860000  0.50384000  0.98612000  1.0
  C  C57  1  0.26136000  0.99616000  0.48612000  1.0
  C  C58  1  0.37228000  0.79998000  0.10889000  1.0
  C  C59  1  0.62771000  0.70002000  0.60889000  1.0
  C  C60  1  0.62773000  0.20002000  0.89111000  1.0
  C  C61  1  0.37227000  0.29998000  0.39111000  1.0
  C  C62  1  0.23460000  0.83525000  0.94333000  1.0
  C  C63  1  0.76540000  0.66474000  0.44332000  1.0
  C  C64  1  0.76543000  0.16475000  0.05666000  1.0
  C  C65  1  0.23462000  0.33526000  0.55668000  1.0
  C  C66  1  0.16663000  0.65108000  0.81638000  1.0
  C  C67  1  0.83336000  0.84891000  0.31638000  1.0
  C  C68  1  0.83339000  0.34892000  0.18362000  1.0
  C  C69  1  0.16663000  0.15108000  0.68363000  1.0
  C  C70  1  0.15089000  0.41123000  0.87240000  1.0
  C  C71  1  0.84911000  0.08876000  0.37240000  1.0
  C  C72  1  0.84913000  0.58877000  0.12760000  1.0
  C  C73  1  0.15086000  0.91123000  0.62761000  1.0
  O  O74  1  0.27259000  0.81153000  0.17235000  1.0
  O  O75  1  0.72740000  0.68848000  0.67235000  1.0
  O  O76  1  0.72741000  0.18847000  0.82764000  1.0
  O  O77  1  0.27260000  0.31153000  0.32765000  1.0
  O  O78  1  0.53749000  0.86738000  0.09488000  1.0
  O  O79  1  0.46250000  0.63262000  0.59489000  1.0
  O  O80  1  0.46251000  0.13262000  0.90511000  1.0
  O  O81  1  0.53750000  0.36737000  0.40512000  1.0
  O  O82  1  0.18288000  0.89240000  0.00116000  1.0
  O  O83  1  0.81712000  0.60761000  0.50115000  1.0
  O  O84  1  0.81716000  0.10761000  0.99883000  1.0
  O  O85  1  0.18291000  0.39240000  0.49885000  1.0
  O  O86  1  0.27197000  0.86632000  0.86752000  1.0
  O  O87  1  0.72801000  0.63367000  0.36752000  1.0
  O  O88  1  0.72806000  0.13368000  0.13247000  1.0
  O  O89  1  0.27198000  0.36632000  0.63248000  1.0
  O  O90  1  0.00099000  0.65336000  0.79680000  1.0
  O  O91  1  0.99900000  0.84664000  0.29679000  1.0
  O  O92  1  0.99902000  0.34664000  0.20321000  1.0
  O  O93  1  0.00099000  0.15336000  0.70322000  1.0
  O  O94  1  0.30248000  0.66381000  0.76401000  1.0
  O  O95  1  0.69750000  0.83618000  0.26401000  1.0
  O  O96  1  0.69753000  0.33619000  0.23598000  1.0
  O  O97  1  0.30250000  0.16381000  0.73599000  1.0
  O  O98  1  0.95485000  0.96009000  0.12207000  1.0
  O  O99  1  0.04516000  0.53991000  0.62208000  1.0
  O  O100  1  0.04517000  0.03991000  0.87793000  1.0
  O  O101  1  0.95485000  0.46010000  0.37792000  1.0
  O  O102  1  0.10765000  0.42110000  0.79662000  1.0
  O  O103  1  0.89235000  0.07890000  0.29661000  1.0
  O  O104  1  0.89235000  0.57890000  0.20338000  1.0
  O  O105  1  0.10766000  0.92110000  0.70339000  1.0
  O  O106  1  0.13429000  0.30944000  0.90496000  1.0
  O  O107  1  0.86572000  0.19056000  0.40497000  1.0
  O  O108  1  0.86573000  0.69057000  0.09504000  1.0
  O  O109  1  0.13426000  0.80944000  0.59504000  1.0
  O  O110  1  0.22329000  0.15783000  0.02183000  1.0
  O  O111  1  0.77675000  0.34217000  0.52182000  1.0
  O  O112  1  0.77673000  0.84217000  0.97818000  1.0
  O  O113  1  0.22326000  0.65783000  0.47818000  1.0
  O  O114  1  0.49014000  0.00510000  0.24894000  1.0
  O  O115  1  0.50986000  0.49491000  0.74895000  1.0
  O  O116  1  0.50987000  0.99491000  0.75105000  1.0
  O  O117  1  0.49013000  0.50509000  0.25105000  1.0
