# generated using pymatgen
data_TbH12C16O11
_symmetry_space_group_name_H-M   'P 1'
_cell_length_a   5.89365000
_cell_length_b   9.89870000
_cell_length_c   14.75450000
_cell_angle_alpha   85.46750000
_cell_angle_beta   88.88840000
_cell_angle_gamma   74.48450000
_symmetry_Int_Tables_number   1
_chemical_formula_structural   TbH12C16O11
_chemical_formula_sum   'Tb2 H24 C32 O22'
_cell_volume   826.80652354
_cell_formula_units_Z   2
loop_
 _symmetry_equiv_pos_site_id
 _symmetry_equiv_pos_as_xyz
  1  'x, y, z'
loop_
 _atom_site_type_symbol
 _atom_site_label
 _atom_site_symmetry_multiplicity
 _atom_site_fract_x
 _atom_site_fract_y
 _atom_site_fract_z
 _atom_site_occupancy
  Tb  Tb0  1  0.82973000  0.70739000  0.95877000  1.0
  Tb  Tb1  1  0.17021000  0.29265000  0.04123000  1.0
  H  H2  1  0.37542000  0.10598000  0.48084000  1.0
  H  H3  1  0.62460000  0.89403000  0.51915000  1.0
  H  H4  1  0.04308000  0.84488000  0.79994000  1.0
  H  H5  1  0.95691000  0.15514000  0.20006000  1.0
  H  H6  1  0.20062000  0.84915000  0.88662000  1.0
  H  H7  1  0.79935000  0.15087000  0.11339000  1.0
  H  H8  1  0.27056000  0.60553000  0.06888000  1.0
  H  H9  1  0.72938000  0.39450000  0.93112000  1.0
  H  H10  1  0.20294000  0.77094000  0.07516000  1.0
  H  H11  1  0.79702000  0.22909000  0.92483000  1.0
  H  H12  1  0.39738000  0.31981000  0.35775000  1.0
  H  H13  1  0.60260000  0.68018000  0.64223000  1.0
  H  H14  1  0.63103000  0.38519000  0.47815000  1.0
  H  H15  1  0.36899000  0.61476000  0.52184000  1.0
  H  H16  1  0.89854000  0.53991000  0.43506000  1.0
  H  H17  1  0.10156000  0.46000000  0.56493000  1.0
  H  H18  1  0.28214000  0.70843000  0.36281000  1.0
  H  H19  1  0.71787000  0.29156000  0.63720000  1.0
  H  H20  1  0.86787000  0.14016000  0.36330000  1.0
  H  H21  1  0.13215000  0.85984000  0.63671000  1.0
  H  H22  1  0.55652000  0.08429000  0.27216000  1.0
  H  H23  1  0.44351000  0.91570000  0.72785000  1.0
  H  H24  1  0.60861000  0.83851000  0.22828000  1.0
  H  H25  1  0.39139000  0.16149000  0.77173000  1.0
  C  C26  1  0.81938000  0.55160000  0.29285000  1.0
  C  C27  1  0.18068000  0.44835000  0.70715000  1.0
  C  C28  1  0.69180000  0.51385000  0.22461000  1.0
  C  C29  1  0.30824000  0.48614000  0.77539000  1.0
  C  C30  1  0.53894000  0.42958000  0.24914000  1.0
  C  C31  1  0.46108000  0.57041000  0.75085000  1.0
  C  C32  1  0.51720000  0.38486000  0.34059000  1.0
  C  C33  1  0.48283000  0.61510000  0.65939000  1.0
  C  C34  1  0.64640000  0.42305000  0.40761000  1.0
  C  C35  1  0.35364000  0.57689000  0.59238000  1.0
  C  C36  1  0.79676000  0.50771000  0.38398000  1.0
  C  C37  1  0.20332000  0.49221000  0.61602000  1.0
  C  C38  1  0.72486000  0.56981000  0.12901000  1.0
  C  C39  1  0.27511000  0.43021000  0.87101000  1.0
  C  C40  1  0.40041000  0.38581000  0.17884000  1.0
  C  C41  1  0.59955000  0.61422000  0.82115000  1.0
  C  C42  1  0.94653000  0.76065000  0.29407000  1.0
  C  C43  1  0.05348000  0.23933000  0.70595000  1.0
  C  C44  1  0.12335000  0.79080000  0.34354000  1.0
  C  C45  1  0.87667000  0.20918000  0.65647000  1.0
  C  C46  1  0.09365000  0.92823000  0.36851000  1.0
  C  C47  1  0.90636000  0.07175000  0.63149000  1.0
  C  C48  1  0.88969000  0.03417000  0.34261000  1.0
  C  C49  1  0.11034000  0.96583000  0.65740000  1.0
  C  C50  1  0.71477000  0.00196000  0.29271000  1.0
  C  C51  1  0.28525000  0.99803000  0.70729000  1.0
  C  C52  1  0.74171000  0.86512000  0.26837000  1.0
  C  C53  1  0.25830000  0.13487000  0.73164000  1.0
  C  C54  1  0.27416000  0.95790000  0.42658000  1.0
  C  C55  1  0.72585000  0.04210000  0.57342000  1.0
  C  C56  1  0.60120000  0.01314000  0.02744000  1.0
  C  C57  1  0.39876000  0.98691000  0.97255000  1.0
  O  O58  1  0.98448000  0.62494000  0.26702000  1.0
  O  O59  1  0.01555000  0.37505000  0.73298000  1.0
  O  O60  1  0.61062000  0.69383000  0.10276000  1.0
  O  O61  1  0.38937000  0.30620000  0.89727000  1.0
  O  O62  1  0.88027000  0.49751000  0.07769000  1.0
  O  O63  1  0.11966000  0.50252000  0.92229000  1.0
  O  O64  1  0.40837000  0.43515000  0.09564000  1.0
  O  O65  1  0.59158000  0.56489000  0.90436000  1.0
  O  O66  1  0.28026000  0.29897000  0.20024000  1.0
  O  O67  1  0.71960000  0.70111000  0.79976000  1.0
  O  O68  1  0.24476000  0.09213000  0.43900000  1.0
  O  O69  1  0.75527000  0.90787000  0.56100000  1.0
  O  O70  1  0.43882000  0.86115000  0.46123000  1.0
  O  O71  1  0.56123000  0.13885000  0.53876000  1.0
  O  O72  1  0.79648000  0.92317000  0.02779000  1.0
  O  O73  1  0.20349000  0.07688000  0.97220000  1.0
  O  O74  1  0.55213000  0.12646000  0.06839000  1.0
  O  O75  1  0.44784000  0.87358000  0.93162000  1.0
  O  O76  1  0.05785000  0.82375000  0.86539000  1.0
  O  O77  1  0.94214000  0.17626000  0.13461000  1.0
  O  O78  1  0.14728000  0.69485000  0.05452000  1.0
  O  O79  1  0.85268000  0.30517000  0.94547000  1.0
