# generated using pymatgen
data_AlH10C12NO5
_symmetry_space_group_name_H-M   'P 1'
_cell_length_a   6.65356000
_cell_length_b   11.09439695
_cell_length_c   14.87716811
_cell_angle_alpha   69.22622168
_cell_angle_beta   86.30541491
_cell_angle_gamma   72.56881054
_symmetry_Int_Tables_number   1
_chemical_formula_structural   AlH10C12NO5
_chemical_formula_sum   'Al2 H20 C24 N2 O10'
_cell_volume   978.56617858
_cell_formula_units_Z   2
loop_
 _symmetry_equiv_pos_site_id
 _symmetry_equiv_pos_as_xyz
  1  'x, y, z'
loop_
 _atom_site_type_symbol
 _atom_site_label
 _atom_site_symmetry_multiplicity
 _atom_site_fract_x
 _atom_site_fract_y
 _atom_site_fract_z
 _atom_site_occupancy
  Al  Al0  1  0.49551000  0.00213000  0.49961000  1.0
  Al  Al1  1  0.99526000  0.00208000  0.50015000  1.0
  H  H2  1  0.73375000  0.98581000  0.62053000  1.0
  H  H3  1  0.25615000  0.01758000  0.37932000  1.0
  H  H4  1  0.64039000  0.60488000  0.54739000  1.0
  H  H5  1  0.35385000  0.39545000  0.45994000  1.0
  H  H6  1  0.79330000  0.51385000  0.07097000  1.0
  H  H7  1  0.25994000  0.45901000  0.91428000  1.0
  H  H8  1  0.56094000  0.83988000  0.79391000  1.0
  H  H9  1  0.66404000  0.67592000  0.95755000  1.0
  H  H10  1  0.39363000  0.18763000  0.21416000  1.0
  H  H11  1  0.28202000  0.35742000  0.05347000  1.0
  H  H12  1  0.73716000  0.26047000  0.56033000  1.0
  H  H13  1  0.55969000  0.40136000  0.57676000  1.0
  H  H14  1  0.25052000  0.74422000  0.44332000  1.0
  H  H15  1  0.42491000  0.60838000  0.41883000  1.0
  H  H16  1  0.99998000  0.44356000  0.20084000  1.0
  H  H17  1  0.89157000  0.37706000  0.31385000  1.0
  H  H18  1  0.07492000  0.26699000  0.26727000  1.0
  H  H19  1  0.94631000  0.69709000  0.73009000  1.0
  H  H20  1  0.15313000  0.62322000  0.66889000  1.0
  H  H21  1  0.07333000  0.52025000  0.77850000  1.0
  C  C22  1  0.29228000  0.85353000  0.66586000  1.0
  C  C23  1  0.13852000  0.22337000  0.51311000  1.0
  C  C24  1  0.69932000  0.15035000  0.33342000  1.0
  C  C25  1  0.85334000  0.77924000  0.48951000  1.0
  C  C26  1  0.05935000  0.36454000  0.50975000  1.0
  C  C27  1  0.93553000  0.63589000  0.49814000  1.0
  C  C28  1  0.85214000  0.42118000  0.53665000  1.0
  C  C29  1  0.14553000  0.57758000  0.47497000  1.0
  C  C30  1  0.79780000  0.55691000  0.52898000  1.0
  C  C31  1  0.19773000  0.44329000  0.47977000  1.0
  C  C32  1  0.65105000  0.25483000  0.23525000  1.0
  C  C33  1  0.34465000  0.74804000  0.76347000  1.0
  C  C34  1  0.76477000  0.34964000  0.19471000  1.0
  C  C35  1  0.70231000  0.44299000  0.10171000  1.0
  C  C36  1  0.25553000  0.63990000  0.79811000  1.0
  C  C37  1  0.32339000  0.54460000  0.88996000  1.0
  C  C38  1  0.49361000  0.75621000  0.82205000  1.0
  C  C39  1  0.55279000  0.66257000  0.91400000  1.0
  C  C40  1  0.48026000  0.26040000  0.18166000  1.0
  C  C41  1  0.41934000  0.35568000  0.09049000  1.0
  C  C42  1  0.53087000  0.44992000  0.04761000  1.0
  C  C43  1  0.46903000  0.55293000  0.95023000  1.0
  C  C44  1  0.94234000  0.35985000  0.24652000  1.0
  C  C45  1  0.09910000  0.61883000  0.74093000  1.0
  N  N46  1  0.71061000  0.34899000  0.57153000  1.0
  N  N47  1  0.29611000  0.64457000  0.45221000  1.0
  O  O48  1  0.43045000  0.91360000  0.62902000  1.0
  O  O49  1  0.00654000  0.15477000  0.52928000  1.0
  O  O50  1  0.87632000  0.12448000  0.37549000  1.0
  O  O51  1  0.65689000  0.82675000  0.49965000  1.0
  O  O52  1  0.55969000  0.09134000  0.37008000  1.0
  O  O53  1  0.98386000  0.84922000  0.47101000  1.0
  O  O54  1  0.11417000  0.87909000  0.62489000  1.0
  O  O55  1  0.33390000  0.17690000  0.50022000  1.0
  O  O56  1  0.72805000  0.02282000  0.55078000  1.0
  O  O57  1  0.26255000  0.98092000  0.44905000  1.0
