# generated using pymatgen
data_Ag2H4C6N2O5
_symmetry_space_group_name_H-M   'P 1'
_cell_length_a   7.38595000
_cell_length_b   7.49627000
_cell_length_c   16.14180000
_cell_angle_alpha   89.99900000
_cell_angle_beta   89.99940000
_cell_angle_gamma   65.23500000
_symmetry_Int_Tables_number   1
_chemical_formula_structural   Ag2H4C6N2O5
_chemical_formula_sum   'Ag8 H16 C24 N8 O20'
_cell_volume   811.53159953
_cell_formula_units_Z   4
loop_
 _symmetry_equiv_pos_site_id
 _symmetry_equiv_pos_as_xyz
  1  'x, y, z'
loop_
 _atom_site_type_symbol
 _atom_site_label
 _atom_site_symmetry_multiplicity
 _atom_site_fract_x
 _atom_site_fract_y
 _atom_site_fract_z
 _atom_site_occupancy
  Ag  Ag0  1  0.96807000  0.45676000  0.89039000  1.0
  Ag  Ag1  1  0.03193000  0.04323000  0.39039000  1.0
  Ag  Ag2  1  0.03193000  0.54323000  0.10961000  1.0
  Ag  Ag3  1  0.96807000  0.95677000  0.60961000  1.0
  Ag  Ag4  1  0.73987000  0.86385000  0.39698000  1.0
  Ag  Ag5  1  0.26012000  0.63614000  0.89698000  1.0
  Ag  Ag6  1  0.26013000  0.13615000  0.60302000  1.0
  Ag  Ag7  1  0.73987000  0.36386000  0.10301000  1.0
  H  H8  1  0.54749000  0.83529000  0.89518000  1.0
  H  H9  1  0.45250000  0.66471000  0.39518000  1.0
  H  H10  1  0.45251000  0.16471000  0.10482000  1.0
  H  H11  1  0.54750000  0.33529000  0.60482000  1.0
  H  H12  1  0.29574000  0.06297000  0.79285000  1.0
  H  H13  1  0.70426000  0.43703000  0.29285000  1.0
  H  H14  1  0.70427000  0.93702000  0.20715000  1.0
  H  H15  1  0.29573000  0.56298000  0.70715000  1.0
  H  H16  1  0.15564000  0.14699000  0.00569000  1.0
  H  H17  1  0.84435000  0.35302000  0.50568000  1.0
  H  H18  1  0.84436000  0.85301000  0.99431000  1.0
  H  H19  1  0.15566000  0.64698000  0.49432000  1.0
  H  H20  1  0.32630000  0.20854000  0.97563000  1.0
  H  H21  1  0.67369000  0.29145000  0.47563000  1.0
  H  H22  1  0.67370000  0.79145000  0.02436000  1.0
  H  H23  1  0.32631000  0.70855000  0.52437000  1.0
  C  C24  1  0.64953000  0.74951000  0.56987000  1.0
  C  C25  1  0.35049000  0.75050000  0.06987000  1.0
  C  C26  1  0.35047000  0.25049000  0.43013000  1.0
  C  C27  1  0.64951000  0.24950000  0.93013000  1.0
  C  C28  1  0.62840000  0.76587000  0.66319000  1.0
  C  C29  1  0.37161000  0.73414000  0.16319000  1.0
  C  C30  1  0.37161000  0.23414000  0.33681000  1.0
  C  C31  1  0.62838000  0.26587000  0.83681000  1.0
  C  C32  1  0.57065000  0.81456000  0.82858000  1.0
  C  C33  1  0.42934000  0.68544000  0.32858000  1.0
  C  C34  1  0.42935000  0.18544000  0.17142000  1.0
  C  C35  1  0.57065000  0.31457000  0.67142000  1.0
  C  C36  1  0.76829000  0.63864000  0.71966000  1.0
  C  C37  1  0.23172000  0.86135000  0.21966000  1.0
  C  C38  1  0.23171000  0.36135000  0.28034000  1.0
  C  C39  1  0.76828000  0.13864000  0.78034000  1.0
  C  C40  1  0.43137000  0.93983000  0.77276000  1.0
  C  C41  1  0.56863000  0.56016000  0.27277000  1.0
  C  C42  1  0.56863000  0.06016000  0.22724000  1.0
  C  C43  1  0.43136000  0.43984000  0.72723000  1.0
  C  C44  1  0.95294000  0.46407000  0.69056000  1.0
  C  C45  1  0.04706000  0.03593000  0.19055000  1.0
  C  C46  1  0.04706000  0.53593000  0.30945000  1.0
  C  C47  1  0.95293000  0.96407000  0.80945000  1.0
  N  N48  1  0.73838000  0.66691000  0.80168000  1.0
  N  N49  1  0.26162000  0.83309000  0.30167000  1.0
  N  N50  1  0.26162000  0.33309000  0.19833000  1.0
  N  N51  1  0.73838000  0.16692000  0.69832000  1.0
  N  N52  1  0.46176000  0.91671000  0.69077000  1.0
  N  N53  1  0.53825000  0.58328000  0.19077000  1.0
  N  N54  1  0.53824000  0.08329000  0.30923000  1.0
  N  N55  1  0.46175000  0.41672000  0.80923000  1.0
  O  O56  1  0.56907000  0.65448000  0.53212000  1.0
  O  O57  1  0.43095000  0.84551000  0.03212000  1.0
  O  O58  1  0.43093000  0.34552000  0.46789000  1.0
  O  O59  1  0.56906000  0.15447000  0.96789000  1.0
  O  O60  1  0.73610000  0.84752000  0.53750000  1.0
  O  O61  1  0.26390000  0.65249000  0.03750000  1.0
  O  O62  1  0.26389000  0.15248000  0.46250000  1.0
  O  O63  1  0.73609000  0.34752000  0.96250000  1.0
  O  O64  1  0.97676000  0.44421000  0.61245000  1.0
  O  O65  1  0.02326000  0.05579000  0.11245000  1.0
  O  O66  1  0.02325000  0.55579000  0.38755000  1.0
  O  O67  1  0.97674000  0.94421000  0.88755000  1.0
  O  O68  1  0.06686000  0.34976000  0.74443000  1.0
  O  O69  1  0.93315000  0.15023000  0.24442000  1.0
  O  O70  1  0.93314000  0.65024000  0.25557000  1.0
  O  O71  1  0.06685000  0.84976000  0.75557000  1.0
  O  O72  1  0.18036000  0.25901000  0.98685000  1.0
  O  O73  1  0.81963000  0.24099000  0.48684000  1.0
  O  O74  1  0.81964000  0.74099000  0.01316000  1.0
  O  O75  1  0.18037000  0.75901000  0.51316000  1.0
