# generated using pymatgen
data_TbH15C24(NO)6
_symmetry_space_group_name_H-M   'P 1'
_cell_length_a   14.61250000
_cell_length_b   19.77940000
_cell_length_c   30.76810000
_cell_angle_alpha   90.00000000
_cell_angle_beta   102.34200000
_cell_angle_gamma   90.00000000
_symmetry_Int_Tables_number   1
_chemical_formula_structural   TbH15C24(NO)6
_chemical_formula_sum   'Tb8 H120 C192 N48 O48'
_cell_volume   8687.27567069
_cell_formula_units_Z   8
loop_
 _symmetry_equiv_pos_site_id
 _symmetry_equiv_pos_as_xyz
  1  'x, y, z'
loop_
 _atom_site_type_symbol
 _atom_site_label
 _atom_site_symmetry_multiplicity
 _atom_site_fract_x
 _atom_site_fract_y
 _atom_site_fract_z
 _atom_site_occupancy
  Tb  Tb0  1  0.32018000  0.75554000  0.23762000  1.0
  Tb  Tb1  1  0.17982000  0.25554000  0.76238000  1.0
  Tb  Tb2  1  0.67982000  0.24446000  0.76238000  1.0
  Tb  Tb3  1  0.82018000  0.74446000  0.23762000  1.0
  Tb  Tb4  1  0.09009000  0.73839000  0.26676000  1.0
  Tb  Tb5  1  0.40991000  0.23839000  0.73324000  1.0
  Tb  Tb6  1  0.90991000  0.26161000  0.73324000  1.0
  Tb  Tb7  1  0.59009000  0.76161000  0.26676000  1.0
  H  H8  1  0.17548000  0.08899000  0.86134000  1.0
  H  H9  1  0.32452000  0.58899000  0.13866000  1.0
  H  H10  1  0.82452000  0.91101000  0.13866000  1.0
  H  H11  1  0.67548000  0.41101000  0.86134000  1.0
  H  H12  1  0.14583000  0.01187000  0.92084000  1.0
  H  H13  1  0.35417000  0.51187000  0.07917000  1.0
  H  H14  1  0.85417000  0.98813000  0.07916000  1.0
  H  H15  1  0.64583000  0.48813000  0.92083000  1.0
  H  H16  1  0.85246000  0.00534000  0.85739000  1.0
  H  H17  1  0.64754000  0.50534000  0.14261000  1.0
  H  H18  1  0.14754000  0.99466000  0.14261000  1.0
  H  H19  1  0.35246000  0.49466000  0.85739000  1.0
  H  H20  1  0.88313000  0.08314000  0.79903000  1.0
  H  H21  1  0.61687000  0.58314000  0.20097000  1.0
  H  H22  1  0.11687000  0.91686000  0.20097000  1.0
  H  H23  1  0.38313000  0.41686000  0.79903000  1.0
  H  H24  1  0.04469000  0.85661000  0.02679000  1.0
  H  H25  1  0.45531000  0.35661000  0.97321000  1.0
  H  H26  1  0.95531000  0.14339000  0.97321000  1.0
  H  H27  1  0.54469000  0.64339000  0.02679000  1.0
  H  H28  1  0.17565000  0.82668000  0.08990000  1.0
  H  H29  1  0.32435000  0.32668000  0.91010000  1.0
  H  H30  1  0.82435000  0.17332000  0.91010000  1.0
  H  H31  1  0.67565000  0.67332000  0.08990000  1.0
  H  H32  1  0.98216000  0.72230000  0.15381000  1.0
  H  H33  1  0.51784000  0.22230000  0.84619000  1.0
  H  H34  1  0.01784000  0.27770000  0.84619000  1.0
  H  H35  1  0.48216000  0.77770000  0.15381000  1.0
  H  H36  1  0.85271000  0.75094000  0.09182000  1.0
  H  H37  1  0.64729000  0.25094000  0.90818000  1.0
  H  H38  1  0.14729000  0.24906000  0.90818000  1.0
  H  H39  1  0.35271000  0.74906000  0.09182000  1.0
  H  H40  1  0.66870000  0.13893000  0.84849000  1.0
  H  H41  1  0.83130000  0.63893000  0.15151000  1.0
  H  H42  1  0.33130000  0.86107000  0.15151000  1.0
  H  H43  1  0.16870000  0.36107000  0.84849000  1.0
  H  H44  1  0.73517000  0.04884000  0.90140000  1.0
  H  H45  1  0.76483000  0.54884000  0.09860000  1.0
  H  H46  1  0.26483000  0.95116000  0.09860000  1.0
  H  H47  1  0.23517000  0.45116000  0.90140000  1.0
  H  H48  1  0.51663000  0.91299000  0.83751000  1.0
  H  H49  1  0.98337000  0.41300000  0.16249000  1.0
  H  H50  1  0.48337000  0.08700000  0.16249000  1.0
  H  H51  1  0.01663000  0.58700000  0.83751000  1.0
  H  H52  1  0.44942000  0.00475000  0.78445000  1.0
  H  H53  1  0.05058000  0.50475000  0.21555000  1.0
  H  H54  1  0.55058000  0.99525000  0.21555000  1.0
  H  H55  1  0.94942000  0.49525000  0.78445000  1.0
  H  H56  1  0.82687000  0.13092000  0.65414000  1.0
  H  H57  1  0.67313000  0.63092000  0.34586000  1.0
  H  H58  1  0.17313000  0.86908000  0.34586000  1.0
  H  H59  1  0.32687000  0.36908000  0.65414000  1.0
  H  H60  1  0.83554000  0.03605000  0.60280000  1.0
  H  H61  1  0.66446000  0.53605000  0.39720000  1.0
  H  H62  1  0.16446000  0.96395000  0.39720000  1.0
  H  H63  1  0.33554000  0.46395000  0.60280000  1.0
  H  H64  1  0.69936000  0.90573000  0.68202000  1.0
  H  H65  1  0.80064000  0.40573000  0.31798000  1.0
  H  H66  1  0.30064000  0.09427000  0.31798000  1.0
  H  H67  1  0.19936000  0.59427000  0.68202000  1.0
  H  H68  1  0.68878000  0.00245000  0.73292000  1.0
  H  H69  1  0.81122000  0.50245000  0.26708000  1.0
  H  H70  1  0.31122000  0.99755000  0.26708000  1.0
  H  H71  1  0.18878000  0.49755000  0.73292000  1.0
  H  H72  1  0.77466000  0.71878000  0.42460000  1.0
  H  H73  1  0.72534000  0.21878000  0.57540000  1.0
  H  H74  1  0.22534000  0.28122000  0.57540000  1.0
  H  H75  1  0.27466000  0.78122000  0.42460000  1.0
  H  H76  1  0.83300000  0.70059000  0.35600000  1.0
  H  H77  1  0.66701000  0.20059000  0.64400000  1.0
  H  H78  1  0.16700000  0.29940000  0.64400000  1.0
  H  H79  1  0.33300000  0.79940000  0.35600000  1.0
  H  H80  1  0.06444000  0.83384000  0.40469000  1.0
  H  H81  1  0.43556000  0.33384000  0.59531000  1.0
  H  H82  1  0.93556000  0.16616000  0.59531000  1.0
  H  H83  1  0.56444000  0.66616000  0.40469000  1.0
  H  H84  1  0.00710000  0.85205000  0.47414000  1.0
  H  H85  1  0.49290000  0.35205000  0.52586000  1.0
  H  H86  1  0.99290000  0.14795000  0.52586000  1.0
  H  H87  1  0.50710000  0.64795000  0.47414000  1.0
  H  H88  1  0.20237000  0.01708000  0.55825000  1.0
  H  H89  1  0.29763000  0.51708000  0.44175000  1.0
  H  H90  1  0.79763000  0.98292000  0.44175000  1.0
  H  H91  1  0.70237000  0.48292000  0.55825000  1.0
  H  H92  1  0.29288000  0.10368000  0.60870000  1.0
  H  H93  1  0.20712000  0.60368000  0.39130000  1.0
  H  H94  1  0.70712000  0.89632000  0.39130000  1.0
  H  H95  1  0.79288000  0.39632000  0.60870000  1.0
  H  H96  1  0.09609000  0.09003000  0.69387000  1.0
  H  H97  1  0.40391000  0.59003000  0.30613000  1.0
  H  H98  1  0.90391000  0.90997000  0.30613000  1.0
  H  H99  1  0.59609000  0.40997000  0.69387000  1.0
  H  H100  1  0.00470000  0.00333000  0.64399000  1.0
  H  H101  1  0.49530000  0.50333000  0.35601000  1.0
  H  H102  1  0.99530000  0.99667000  0.35601000  1.0
  H  H103  1  0.50470000  0.49667000  0.64399000  1.0
  H  H104  1  0.04557000  0.94992000  0.95062000  1.0
  H  H105  1  0.45443000  0.44992000  0.04938000  1.0
  H  H106  1  0.95443000  0.05008000  0.04938000  1.0
  H  H107  1  0.54557000  0.55008000  0.95062000  1.0
  H  H108  1  0.79940000  0.80388000  0.02588000  1.0
  H  H109  1  0.70060000  0.30388000  0.97412000  1.0
  H  H110  1  0.20060000  0.19612000  0.97412000  1.0
  H  H111  1  0.29940000  0.69612000  0.02588000  1.0
  H  H112  1  0.61605000  0.89084000  0.91183000  1.0
  H  H113  1  0.88395000  0.39084000  0.08817000  1.0
  H  H114  1  0.38395000  0.10916000  0.08817000  1.0
  H  H115  1  0.11605000  0.60916000  0.91183000  1.0
  H  H116  1  0.71766000  0.87537000  0.60637000  1.0
  H  H117  1  0.78233000  0.37537000  0.39363000  1.0
  H  H118  1  0.28233000  0.12463000  0.39363000  1.0
  H  H119  1  0.21767000  0.62463000  0.60637000  1.0
  H  H120  1  0.08647000  0.94228000  0.54380000  1.0
  H  H121  1  0.41353000  0.44229000  0.45620000  1.0
  H  H122  1  0.91353000  0.05771000  0.45620000  1.0
  H  H123  1  0.58647000  0.55771000  0.54380000  1.0
  H  H124  1  0.78345000  0.77723000  0.49021000  1.0
  H  H125  1  0.71655000  0.27723000  0.50979000  1.0
  H  H126  1  0.21655000  0.22276000  0.50979000  1.0
  H  H127  1  0.28345000  0.72276000  0.49021000  1.0
  C  C128  1  0.04730000  0.14197000  0.79327000  1.0
  C  C129  1  0.45270000  0.64197000  0.20673000  1.0
  C  C130  1  0.95270000  0.85803000  0.20673000  1.0
  C  C131  1  0.54730000  0.35803000  0.79327000  1.0
  C  C132  1  0.03118000  0.09116000  0.82635000  1.0
  C  C133  1  0.46882000  0.59116000  0.17365000  1.0
  C  C134  1  0.96882000  0.90884000  0.17365000  1.0
  C  C135  1  0.53118000  0.40884000  0.82635000  1.0
  C  C136  1  0.10516000  0.07006000  0.86070000  1.0
  C  C137  1  0.39484000  0.57007000  0.13930000  1.0
  C  C138  1  0.89484000  0.92993000  0.13930000  1.0
  C  C139  1  0.60516000  0.42993000  0.86070000  1.0
  C  C140  1  0.08823000  0.02714000  0.89374000  1.0
  C  C141  1  0.41177000  0.52714000  0.10626000  1.0
  C  C142  1  0.91177000  0.97286000  0.10626000  1.0
  C  C143  1  0.58823000  0.47287000  0.89374000  1.0
  C  C144  1  0.99677000  0.00393000  0.89319000  1.0
  C  C145  1  0.50323000  0.50393000  0.10681000  1.0
  C  C146  1  0.00322000  0.99607000  0.10681000  1.0
  C  C147  1  0.49678000  0.49607000  0.89319000  1.0
  C  C148  1  0.92292000  0.02335000  0.85818000  1.0
  C  C149  1  0.57707000  0.52335000  0.14182000  1.0
  C  C150  1  0.07707000  0.97665000  0.14182000  1.0
  C  C151  1  0.42292000  0.47665000  0.85818000  1.0
  C  C152  1  0.94086000  0.06675000  0.82550000  1.0
  C  C153  1  0.55914000  0.56675000  0.17450000  1.0
  C  C154  1  0.05914000  0.93325000  0.17450000  1.0
  C  C155  1  0.44086000  0.43324000  0.82550000  1.0
  C  C156  1  0.90820000  0.93387000  0.93917000  1.0
  C  C157  1  0.59180000  0.43387000  0.06083000  1.0
  C  C158  1  0.09180000  0.06613000  0.06083000  1.0
  C  C159  1  0.40820000  0.56613000  0.93917000  1.0
  C  C160  1  0.75323000  0.91375000  0.92782000  1.0
  C  C161  1  0.74677000  0.41375000  0.07218000  1.0
  C  C162  1  0.24677000  0.08625000  0.07218000  1.0
  C  C163  1  0.25323000  0.58625000  0.92782000  1.0
  C  C164  1  0.85218000  0.86386000  0.98532000  1.0
  C  C165  1  0.64782000  0.36386000  0.01468000  1.0
  C  C166  1  0.14782000  0.13614000  0.01468000  1.0
  C  C167  1  0.35218000  0.63614000  0.98532000  1.0
  C  C168  1  0.94005000  0.80563000  0.05471000  1.0
  C  C169  1  0.55995000  0.30564000  0.94529000  1.0
  C  C170  1  0.05995000  0.19437000  0.94529000  1.0
  C  C171  1  0.44005000  0.69436000  0.05471000  1.0
  C  C172  1  0.03214000  0.82633000  0.05429000  1.0
  C  C173  1  0.46787000  0.32633000  0.94571000  1.0
  C  C174  1  0.96787000  0.17367000  0.94571000  1.0
  C  C175  1  0.53214000  0.67367000  0.05429000  1.0
  C  C176  1  0.10469000  0.80937000  0.08958000  1.0
  C  C177  1  0.39531000  0.30937000  0.91042000  1.0
  C  C178  1  0.89531000  0.19063000  0.91042000  1.0
  C  C179  1  0.60470000  0.69063000  0.08958000  1.0
  C  C180  1  0.08847000  0.77211000  0.12600000  1.0
  C  C181  1  0.41153000  0.27211000  0.87400000  1.0
  C  C182  1  0.91153000  0.22789000  0.87400000  1.0
  C  C183  1  0.58847000  0.72789000  0.12600000  1.0
  C  C184  1  0.99697000  0.75050000  0.12580000  1.0
  C  C185  1  0.50304000  0.25050000  0.87420000  1.0
  C  C186  1  0.00303000  0.24950000  0.87420000  1.0
  C  C187  1  0.49697000  0.74950000  0.12580000  1.0
  C  C188  1  0.92383000  0.76669000  0.09065000  1.0
  C  C189  1  0.57617000  0.26669000  0.90935000  1.0
  C  C190  1  0.07617000  0.23331000  0.90935000  1.0
  C  C191  1  0.42383000  0.73331000  0.09065000  1.0
  C  C192  1  0.16700000  0.76040000  0.16412000  1.0
  C  C193  1  0.33300000  0.26040000  0.83588000  1.0
  C  C194  1  0.83300000  0.23961000  0.83588000  1.0
  C  C195  1  0.66700000  0.73961000  0.16412000  1.0
  C  C196  1  0.51288000  0.13201000  0.78210000  1.0
  C  C197  1  0.98712000  0.63201000  0.21789000  1.0
  C  C198  1  0.48711000  0.86799000  0.21789000  1.0
  C  C199  1  0.01288000  0.36799000  0.78211000  1.0
  C  C200  1  0.55467000  0.07763000  0.81296000  1.0
  C  C201  1  0.94533000  0.57763000  0.18703000  1.0
  C  C202  1  0.44532000  0.92237000  0.18703000  1.0
  C  C203  1  0.05467000  0.42237000  0.81297000  1.0
  C  C204  1  0.63519000  0.08951000  0.84608000  1.0
  C  C205  1  0.86481000  0.58952000  0.15392000  1.0
  C  C206  1  0.36481000  0.91049000  0.15392000  1.0
  C  C207  1  0.13519000  0.41048000  0.84608000  1.0
  C  C208  1  0.67280000  0.03902000  0.87587000  1.0
  C  C209  1  0.82720000  0.53902000  0.12413000  1.0
  C  C210  1  0.32720000  0.96098000  0.12413000  1.0
  C  C211  1  0.17280000  0.46098000  0.87587000  1.0
  C  C212  1  0.63033000  0.97495000  0.87314000  1.0
  C  C213  1  0.86967000  0.47495000  0.12686000  1.0
  C  C214  1  0.36967000  0.02505000  0.12686000  1.0
  C  C215  1  0.13033000  0.52505000  0.87314000  1.0
  C  C216  1  0.54948000  0.96282000  0.83996000  1.0
  C  C217  1  0.95052000  0.46282000  0.16004000  1.0
  C  C218  1  0.45052000  0.03718000  0.16004000  1.0
  C  C219  1  0.04948000  0.53718000  0.83996000  1.0
  C  C220  1  0.51206000  0.01372000  0.81026000  1.0
  C  C221  1  0.98794000  0.51372000  0.18974000  1.0
  C  C222  1  0.48794000  0.98628000  0.18974000  1.0
  C  C223  1  0.01206000  0.48628000  0.81026000  1.0
  C  C224  1  0.74862000  0.13034000  0.72586000  1.0
  C  C225  1  0.75138000  0.63034000  0.27414000  1.0
  C  C226  1  0.25138000  0.86966000  0.27414000  1.0
  C  C227  1  0.24862000  0.36966000  0.72586000  1.0
  C  C228  1  0.75715000  0.07259000  0.69670000  1.0
  C  C229  1  0.74285000  0.57259000  0.30330000  1.0
  C  C230  1  0.24285000  0.92741000  0.30330000  1.0
  C  C231  1  0.25715000  0.42741000  0.69670000  1.0
  C  C232  1  0.79833000  0.08167000  0.65991000  1.0
  C  C233  1  0.70167000  0.58167000  0.34009000  1.0
  C  C234  1  0.20167000  0.91833000  0.34009000  1.0
  C  C235  1  0.29833000  0.41833000  0.65991000  1.0
  C  C236  1  0.80360000  0.02850000  0.63121000  1.0
  C  C237  1  0.69640000  0.52851000  0.36879000  1.0
  C  C238  1  0.19640000  0.97150000  0.36879000  1.0
  C  C239  1  0.30360000  0.47150000  0.63121000  1.0
  C  C240  1  0.76822000  0.96454000  0.63899000  1.0
  C  C241  1  0.73179000  0.46454000  0.36101000  1.0
  C  C242  1  0.23179000  0.03546000  0.36101000  1.0
  C  C243  1  0.26821000  0.53546000  0.63899000  1.0
  C  C244  1  0.72650000  0.95540000  0.67577000  1.0
  C  C245  1  0.77350000  0.45540000  0.32423000  1.0
  C  C246  1  0.27350000  0.04461000  0.32423000  1.0
  C  C247  1  0.22650000  0.54460000  0.67577000  1.0
  C  C248  1  0.72091000  0.00901000  0.70432000  1.0
  C  C249  1  0.77909000  0.50902000  0.29568000  1.0
  C  C250  1  0.27909000  0.99098000  0.29568000  1.0
  C  C251  1  0.22091000  0.49098000  0.70432000  1.0
  C  C252  1  0.83272000  0.89903000  0.58326000  1.0
  C  C253  1  0.66728000  0.39903000  0.41674000  1.0
  C  C254  1  0.16728000  0.10097000  0.41674000  1.0
  C  C255  1  0.33272000  0.60097000  0.58326000  1.0
  C  C256  1  0.87142000  0.84473000  0.52517000  1.0
  C  C257  1  0.62858000  0.34473000  0.47483000  1.0
  C  C258  1  0.12858000  0.15527000  0.47483000  1.0
  C  C259  1  0.37143000  0.65527000  0.52517000  1.0
  C  C260  1  0.88662000  0.78747000  0.45410000  1.0
  C  C261  1  0.61338000  0.28747000  0.54590000  1.0
  C  C262  1  0.11337000  0.21253000  0.54590000  1.0
  C  C263  1  0.38662000  0.71253000  0.45410000  1.0
  C  C264  1  0.83932000  0.74345000  0.42072000  1.0
  C  C265  1  0.66068000  0.24345000  0.57928000  1.0
  C  C266  1  0.16067000  0.25655000  0.57928000  1.0
  C  C267  1  0.33932000  0.75655000  0.42072000  1.0
  C  C268  1  0.87199000  0.73317000  0.38199000  1.0
  C  C269  1  0.62801000  0.23317000  0.61801000  1.0
  C  C270  1  0.12801000  0.26683000  0.61801000  1.0
  C  C271  1  0.37199000  0.76683000  0.38199000  1.0
  C  C272  1  0.95297000  0.76648000  0.37570000  1.0
  C  C273  1  0.54704000  0.26648000  0.62430000  1.0
  C  C274  1  0.04703000  0.23352000  0.62430000  1.0
  C  C275  1  0.45297000  0.73352000  0.37570000  1.0
  C  C276  1  0.00166000  0.80809000  0.40977000  1.0
  C  C277  1  0.49834000  0.30809000  0.59023000  1.0
  C  C278  1  0.99833000  0.19191000  0.59023000  1.0
  C  C279  1  0.50167000  0.69191000  0.40977000  1.0
  C  C280  1  0.97008000  0.81859000  0.44849000  1.0
  C  C281  1  0.52992000  0.31859000  0.55151000  1.0
  C  C282  1  0.02992000  0.18141000  0.55151000  1.0
  C  C283  1  0.47008000  0.68141000  0.44849000  1.0
  C  C284  1  0.98812000  0.76289000  0.33431000  1.0
  C  C285  1  0.51188000  0.26289000  0.66569000  1.0
  C  C286  1  0.01187000  0.23711000  0.66569000  1.0
  C  C287  1  0.48812000  0.73711000  0.33431000  1.0
  C  C288  1  0.96896000  0.92291000  0.56381000  1.0
  C  C289  1  0.53104000  0.42291000  0.43619000  1.0
  C  C290  1  0.03104000  0.07709000  0.43619000  1.0
  C  C291  1  0.46896000  0.57709000  0.56381000  1.0
  C  C292  1  0.09767000  0.00463000  0.59798000  1.0
  C  C293  1  0.40233000  0.50463000  0.40202000  1.0
  C  C294  1  0.90233000  0.99537000  0.40202000  1.0
  C  C295  1  0.59767000  0.49537000  0.59798000  1.0
  C  C296  1  0.17935000  0.03308000  0.58820000  1.0
  C  C297  1  0.32065000  0.53308000  0.41180000  1.0
  C  C298  1  0.82065000  0.96692000  0.41180000  1.0
  C  C299  1  0.67935000  0.46692000  0.58820000  1.0
  C  C300  1  0.22974000  0.08126000  0.61601000  1.0
  C  C301  1  0.27026000  0.58126000  0.38399000  1.0
  C  C302  1  0.77026000  0.91874000  0.38399000  1.0
  C  C303  1  0.72974000  0.41874000  0.61601000  1.0
  C  C304  1  0.20004000  0.10230000  0.65433000  1.0
  C  C305  1  0.29996000  0.60230000  0.34567000  1.0
  C  C306  1  0.79996000  0.89770000  0.34567000  1.0
  C  C307  1  0.70004000  0.39770000  0.65433000  1.0
  C  C308  1  0.11913000  0.07369000  0.66410000  1.0
  C  C309  1  0.38087000  0.57369000  0.33590000  1.0
  C  C310  1  0.88087000  0.92631000  0.33590000  1.0
  C  C311  1  0.61913000  0.42631000  0.66410000  1.0
  C  C312  1  0.06766000  0.02518000  0.63641000  1.0
  C  C313  1  0.43234000  0.52518000  0.36359000  1.0
  C  C314  1  0.93234000  0.97482000  0.36359000  1.0
  C  C315  1  0.56766000  0.47482000  0.63641000  1.0
  C  C316  1  0.25538000  0.15433000  0.68317000  1.0
  C  C317  1  0.24462000  0.65433000  0.31683000  1.0
  C  C318  1  0.74462000  0.84567000  0.31683000  1.0
  C  C319  1  0.75538000  0.34567000  0.68317000  1.0
  N  N320  1  0.98589000  0.96220000  0.92843000  1.0
  N  N321  1  0.51411000  0.46220000  0.07157000  1.0
  N  N322  1  0.01411000  0.03780000  0.07157000  1.0
  N  N323  1  0.48589000  0.53780000  0.92843000  1.0
  N  N324  1  0.82303000  0.94665000  0.91443000  1.0
  N  N325  1  0.67696000  0.44665000  0.08557000  1.0
  N  N326  1  0.17697000  0.05335000  0.08557000  1.0
  N  N327  1  0.32303000  0.55335000  0.91443000  1.0
  N  N328  1  0.76269000  0.87069000  0.96229000  1.0
  N  N329  1  0.73731000  0.37069000  0.03771000  1.0
  N  N330  1  0.23731000  0.12931000  0.03771000  1.0
  N  N331  1  0.26269000  0.62931000  0.96229000  1.0
  N  N332  1  0.92752000  0.89395000  0.97571000  1.0
  N  N333  1  0.57248000  0.39395000  0.02429000  1.0
  N  N334  1  0.07248000  0.10605000  0.02429000  1.0
  N  N335  1  0.42752000  0.60605000  0.97571000  1.0
  N  N336  1  0.86194000  0.82217000  0.02165000  1.0
  N  N337  1  0.63806000  0.32217000  0.97835000  1.0
  N  N338  1  0.13806000  0.17783000  0.97835000  1.0
  N  N339  1  0.36194000  0.67783000  0.02165000  1.0
  N  N340  1  0.66356000  0.92352000  0.90397000  1.0
  N  N341  1  0.83644000  0.42352000  0.09603000  1.0
  N  N342  1  0.33644000  0.07648000  0.09603000  1.0
  N  N343  1  0.16356000  0.57648000  0.90397000  1.0
  N  N344  1  0.77004000  0.90998000  0.60996000  1.0
  N  N345  1  0.72996000  0.40998000  0.39004000  1.0
  N  N346  1  0.22996000  0.09002000  0.39004000  1.0
  N  N347  1  0.27004000  0.59002000  0.60996000  1.0
  N  N348  1  0.80863000  0.85162000  0.55151000  1.0
  N  N349  1  0.69137000  0.35162000  0.44849000  1.0
  N  N350  1  0.19137000  0.14838000  0.44849000  1.0
  N  N351  1  0.30863000  0.64838000  0.55151000  1.0
  N  N352  1  0.95234000  0.87835000  0.52981000  1.0
  N  N353  1  0.54766000  0.37835000  0.47019000  1.0
  N  N354  1  0.04766000  0.12165000  0.47019000  1.0
  N  N355  1  0.45234000  0.62165000  0.52981000  1.0
  N  N356  1  0.91203000  0.93603000  0.59142000  1.0
  N  N357  1  0.58797000  0.43603000  0.40858000  1.0
  N  N358  1  0.08797000  0.06397000  0.40858000  1.0
  N  N359  1  0.41203000  0.56397000  0.59142000  1.0
  N  N360  1  0.05239000  0.95614000  0.56791000  1.0
  N  N361  1  0.44761000  0.45614000  0.43209000  1.0
  N  N362  1  0.94761000  0.04386000  0.43209000  1.0
  N  N363  1  0.55239000  0.54386000  0.56791000  1.0
  N  N364  1  0.84645000  0.79943000  0.49081000  1.0
  N  N365  1  0.65355000  0.29943000  0.50919000  1.0
  N  N366  1  0.15355000  0.20057000  0.50919000  1.0
  N  N367  1  0.34645000  0.70057000  0.49081000  1.0
  O  O368  1  0.97665000  0.16439000  0.76500000  1.0
  O  O369  1  0.52334000  0.66439000  0.23500000  1.0
  O  O370  1  0.02334000  0.83561000  0.23500000  1.0
  O  O371  1  0.47665000  0.33561000  0.76500000  1.0
  O  O372  1  0.15272000  0.73780000  0.20186000  1.0
  O  O373  1  0.34728000  0.23780000  0.79814000  1.0
  O  O374  1  0.84728000  0.26220000  0.79814000  1.0
  O  O375  1  0.65272000  0.76220000  0.20186000  1.0
  O  O376  1  0.77807000  0.18962000  0.71642000  1.0
  O  O377  1  0.72193000  0.68962000  0.28358000  1.0
  O  O378  1  0.22193000  0.81038000  0.28358000  1.0
  O  O379  1  0.27807000  0.31038000  0.71642000  1.0
  O  O380  1  0.32882000  0.17720000  0.67245000  1.0
  O  O381  1  0.17118000  0.67720000  0.32755000  1.0
  O  O382  1  0.67118000  0.82280000  0.32755000  1.0
  O  O383  1  0.82882000  0.32280000  0.67245000  1.0
  O  O384  1  0.06374000  0.79257000  0.33206000  1.0
  O  O385  1  0.43626000  0.29257000  0.66794000  1.0
  O  O386  1  0.93626000  0.20743000  0.66794000  1.0
  O  O387  1  0.56374000  0.70743000  0.33206000  1.0
  O  O388  1  0.43728000  0.12252000  0.75384000  1.0
  O  O389  1  0.06272000  0.62252000  0.24616000  1.0
  O  O390  1  0.56272000  0.87748000  0.24616000  1.0
  O  O391  1  0.93728000  0.37748000  0.75384000  1.0
  O  O392  1  0.55146000  0.19201000  0.78536000  1.0
  O  O393  1  0.94854000  0.69202000  0.21464000  1.0
  O  O394  1  0.44853000  0.80798000  0.21464000  1.0
  O  O395  1  0.05146000  0.30798000  0.78536000  1.0
  O  O396  1  0.13074000  0.16249000  0.79495000  1.0
  O  O397  1  0.36926000  0.66249000  0.20506000  1.0
  O  O398  1  0.86926000  0.83751000  0.20505000  1.0
  O  O399  1  0.63074000  0.33751000  0.79495000  1.0
  O  O400  1  0.94357000  0.72928000  0.29968000  1.0
  O  O401  1  0.55643000  0.22928000  0.70032000  1.0
  O  O402  1  0.05643000  0.27072000  0.70032000  1.0
  O  O403  1  0.44357000  0.77072000  0.29968000  1.0
  O  O404  1  0.70856000  0.12455000  0.75842000  1.0
  O  O405  1  0.79144000  0.62455000  0.24158000  1.0
  O  O406  1  0.29144000  0.87545000  0.24158000  1.0
  O  O407  1  0.20856000  0.37545000  0.75842000  1.0
  O  O408  1  0.22931000  0.17479000  0.71844000  1.0
  O  O409  1  0.27069000  0.67479000  0.28156000  1.0
  O  O410  1  0.77069000  0.82521000  0.28156000  1.0
  O  O411  1  0.72931000  0.32521000  0.71844000  1.0
  O  O412  1  0.25049000  0.77371000  0.16094000  1.0
  O  O413  1  0.24951000  0.27371000  0.83906000  1.0
  O  O414  1  0.74951000  0.22629000  0.83906000  1.0
  O  O415  1  0.75049000  0.72629000  0.16094000  1.0
