# generated using pymatgen
data_CaH8C7N2O9
_symmetry_space_group_name_H-M   'P 1'
_cell_length_a   7.91212000
_cell_length_b   11.06830000
_cell_length_c   13.40000000
_cell_angle_alpha   90.00000000
_cell_angle_beta   90.00000000
_cell_angle_gamma   98.55340000
_symmetry_Int_Tables_number   1
_chemical_formula_structural   CaH8C7N2O9
_chemical_formula_sum   'Ca4 H32 C28 N8 O36'
_cell_volume   1160.43590510
_cell_formula_units_Z   4
loop_
 _symmetry_equiv_pos_site_id
 _symmetry_equiv_pos_as_xyz
  1  'x, y, z'
loop_
 _atom_site_type_symbol
 _atom_site_label
 _atom_site_symmetry_multiplicity
 _atom_site_fract_x
 _atom_site_fract_y
 _atom_site_fract_z
 _atom_site_occupancy
  Ca  Ca0  1  0.80621000  0.54791000  0.21320000  1.0
  Ca  Ca1  1  0.69380000  0.95209000  0.71320000  1.0
  Ca  Ca2  1  0.19379000  0.45209000  0.78680000  1.0
  Ca  Ca3  1  0.30620000  0.04792000  0.28680000  1.0
  H  H4  1  0.51429000  0.28846000  0.54908000  1.0
  H  H5  1  0.98571000  0.21154000  0.04909000  1.0
  H  H6  1  0.48571000  0.71154000  0.45092000  1.0
  H  H7  1  0.01429000  0.78846000  0.95092000  1.0
  H  H8  1  0.67010000  0.42260000  0.68301000  1.0
  H  H9  1  0.82991000  0.07740000  0.18302000  1.0
  H  H10  1  0.32991000  0.57740000  0.31699000  1.0
  H  H11  1  0.17009000  0.92260000  0.81699000  1.0
  H  H12  1  0.87151000  0.60885000  0.62855000  1.0
  H  H13  1  0.62849000  0.89115000  0.12855000  1.0
  H  H14  1  0.12849000  0.39115000  0.37145000  1.0
  H  H15  1  0.37152000  0.10885000  0.87145000  1.0
  H  H16  1  0.53804000  0.28571000  0.20596000  1.0
  H  H17  1  0.96196000  0.21429000  0.70596000  1.0
  H  H18  1  0.46196000  0.71429000  0.79404000  1.0
  H  H19  1  0.03804000  0.78571000  0.29404000  1.0
  H  H20  1  0.53663000  0.72191000  0.22687000  1.0
  H  H21  1  0.96337000  0.77809000  0.72687000  1.0
  H  H22  1  0.46336000  0.27809000  0.77313000  1.0
  H  H23  1  0.03663000  0.22191000  0.27313000  1.0
  H  H24  1  0.54288000  0.67107000  0.11905000  1.0
  H  H25  1  0.95712000  0.82893000  0.61905000  1.0
  H  H26  1  0.45712000  0.32893000  0.88095000  1.0
  H  H27  1  0.04287000  0.17107000  0.38095000  1.0
  H  H28  1  0.64086000  0.38920000  0.04181000  1.0
  H  H29  1  0.85915000  0.11080000  0.54181000  1.0
  H  H30  1  0.35914000  0.61080000  0.95819000  1.0
  H  H31  1  0.14086000  0.88920000  0.45819000  1.0
  H  H32  1  0.79083000  0.47896000  0.99369000  1.0
  H  H33  1  0.70917000  0.02104000  0.49369000  1.0
  H  H34  1  0.20916000  0.52104000  0.00631000  1.0
  H  H35  1  0.29084000  0.97896000  0.50631000  1.0
  C  C36  1  0.63465000  0.40148000  0.43082000  1.0
  C  C37  1  0.86535000  0.09852000  0.93082000  1.0
  C  C38  1  0.36536000  0.59851000  0.56918000  1.0
  C  C39  1  0.13464000  0.90148000  0.06918000  1.0
  C  C40  1  0.60456000  0.36952000  0.53085000  1.0
  C  C41  1  0.89544000  0.13048000  0.03086000  1.0
  C  C42  1  0.39544000  0.63048000  0.46915000  1.0
  C  C43  1  0.10455000  0.86952000  0.96915000  1.0
  C  C44  1  0.69027000  0.44433000  0.60411000  1.0
  C  C45  1  0.80973000  0.05567000  0.10412000  1.0
  C  C46  1  0.30973000  0.55567000  0.39589000  1.0
  C  C47  1  0.19027000  0.94433000  0.89589000  1.0
  C  C48  1  0.80061000  0.54821000  0.57439000  1.0
  C  C49  1  0.69939000  0.95179000  0.07439000  1.0
  C  C50  1  0.19939000  0.45179000  0.42561000  1.0
  C  C51  1  0.30061000  0.04821000  0.92561000  1.0
  C  C52  1  0.82254000  0.57312000  0.47261000  1.0
  C  C53  1  0.67746000  0.92687000  0.97261000  1.0
  C  C54  1  0.17746000  0.42687000  0.52738000  1.0
  C  C55  1  0.32254000  0.07312000  0.02739000  1.0
  C  C56  1  0.54665000  0.32311000  0.34992000  1.0
  C  C57  1  0.95335000  0.17690000  0.84992000  1.0
  C  C58  1  0.45335000  0.67689000  0.65008000  1.0
  C  C59  1  0.04665000  0.82310000  0.15008000  1.0
  C  C60  1  0.94109000  0.68309000  0.43572000  1.0
  C  C61  1  0.55891000  0.81691000  0.93572000  1.0
  C  C62  1  0.05891000  0.31691000  0.56428000  1.0
  C  C63  1  0.44109000  0.18309000  0.06428000  1.0
  N  N64  1  0.74215000  0.50049000  0.40164000  1.0
  N  N65  1  0.75785000  0.99951000  0.90164000  1.0
  N  N66  1  0.25785000  0.49951000  0.59836000  1.0
  N  N67  1  0.24215000  0.00049000  0.09836000  1.0
  N  N68  1  0.08880000  0.40651000  0.16340000  1.0
  N  N69  1  0.41120000  0.09349000  0.66340000  1.0
  N  N70  1  0.91120000  0.59349000  0.83660000  1.0
  N  N71  1  0.58880000  0.90652000  0.33660000  1.0
  O  O72  1  0.44108000  0.23211000  0.37009000  1.0
  O  O73  1  0.05892000  0.26790000  0.87010000  1.0
  O  O74  1  0.55891000  0.76790000  0.62991000  1.0
  O  O75  1  0.94109000  0.73210000  0.12991000  1.0
  O  O76  1  0.59221000  0.35893000  0.25859000  1.0
  O  O77  1  0.90780000  0.14107000  0.75859000  1.0
  O  O78  1  0.40780000  0.64106000  0.74141000  1.0
  O  O79  1  0.09220000  0.85894000  0.24141000  1.0
  O  O80  1  0.00525000  0.76357000  0.49597000  1.0
  O  O81  1  0.49475000  0.73643000  0.99597000  1.0
  O  O82  1  0.99475000  0.23642000  0.50403000  1.0
  O  O83  1  0.50525000  0.26357000  0.00402000  1.0
  O  O84  1  0.96868000  0.68364000  0.34073000  1.0
  O  O85  1  0.53133000  0.81636000  0.84073000  1.0
  O  O86  1  0.03133000  0.31636000  0.65927000  1.0
  O  O87  1  0.46868000  0.18364000  0.15927000  1.0
  O  O88  1  0.56253000  0.65009000  0.18930000  1.0
  O  O89  1  0.93747000  0.84991000  0.68930000  1.0
  O  O90  1  0.43747000  0.34991000  0.81070000  1.0
  O  O91  1  0.06253000  0.15009000  0.31070000  1.0
  O  O92  1  0.72908000  0.46082000  0.05700000  1.0
  O  O93  1  0.77092000  0.03918000  0.55700000  1.0
  O  O94  1  0.27091000  0.53918000  0.94300000  1.0
  O  O95  1  0.22909000  0.96082000  0.44300000  1.0
  O  O96  1  0.09121000  0.51475000  0.13021000  1.0
  O  O97  1  0.40879000  0.98525000  0.63021000  1.0
  O  O98  1  0.90879000  0.48525000  0.86979000  1.0
  O  O99  1  0.59121000  0.01475000  0.36979000  1.0
  O  O100  1  0.97439000  0.36905000  0.22976000  1.0
  O  O101  1  0.52561000  0.13095000  0.72976000  1.0
  O  O102  1  0.02561000  0.63095000  0.77024000  1.0
  O  O103  1  0.47439000  0.86905000  0.27024000  1.0
  O  O104  1  0.18981000  0.33874000  0.13350000  1.0
  O  O105  1  0.31019000  0.16126000  0.63351000  1.0
  O  O106  1  0.81019000  0.66126000  0.86649000  1.0
  O  O107  1  0.68981000  0.83874000  0.36650000  1.0
