# generated using pymatgen
data_CuH9C17N3O4
_symmetry_space_group_name_H-M   'P 1'
_cell_length_a   17.82270000
_cell_length_b   22.77331336
_cell_length_c   22.77306007
_cell_angle_alpha   64.67260223
_cell_angle_beta   66.98220439
_cell_angle_gamma   66.98228916
_symmetry_Int_Tables_number   1
_chemical_formula_structural   CuH9C17N3O4
_chemical_formula_sum   'Cu8 H72 C136 N24 O32'
_cell_volume   7406.20472134
_cell_formula_units_Z   8
loop_
 _symmetry_equiv_pos_site_id
 _symmetry_equiv_pos_as_xyz
  1  'x, y, z'
loop_
 _atom_site_type_symbol
 _atom_site_label
 _atom_site_symmetry_multiplicity
 _atom_site_fract_x
 _atom_site_fract_y
 _atom_site_fract_z
 _atom_site_occupancy
  Cu  Cu0  1  0.52328000  0.63984000  0.28712000  1.0
  Cu  Cu1  1  0.95031000  0.86018000  0.21283000  1.0
  Cu  Cu2  1  0.47675000  0.71286000  0.36015000  1.0
  Cu  Cu3  1  0.04969000  0.78716000  0.13983000  1.0
  Cu  Cu4  1  0.47674000  0.36015000  0.71285000  1.0
  Cu  Cu5  1  0.04970000  0.13981000  0.78716000  1.0
  Cu  Cu6  1  0.52326000  0.28716000  0.63984000  1.0
  Cu  Cu7  1  0.95030000  0.21285000  0.86021000  1.0
  H  H8  1  0.70731000  0.97138000  0.97140000  1.0
  H  H9  1  0.15018000  0.52858000  0.52857000  1.0
  H  H10  1  0.29272000  0.02860000  0.02862000  1.0
  H  H11  1  0.84980000  0.47146000  0.47144000  1.0
  H  H12  1  0.96286000  0.99030000  0.99030000  1.0
  H  H13  1  0.44350000  0.50980000  0.50975000  1.0
  H  H14  1  0.03714000  0.00971000  0.00972000  1.0
  H  H15  1  0.55654000  0.49022000  0.49017000  1.0
  H  H16  1  0.66251000  0.75944000  0.10354000  1.0
  H  H17  1  0.02570000  0.74053000  0.39642000  1.0
  H  H18  1  0.33751000  0.89644000  0.24057000  1.0
  H  H19  1  0.97431000  0.60358000  0.25947000  1.0
  H  H20  1  0.33748000  0.24056000  0.89647000  1.0
  H  H21  1  0.97428000  0.25946000  0.60357000  1.0
  H  H22  1  0.66252000  0.10351000  0.75945000  1.0
  H  H23  1  0.02571000  0.39643000  0.74055000  1.0
  H  H24  1  0.74454000  0.83974000  0.01294000  1.0
  H  H25  1  0.09743000  0.66022000  0.48701000  1.0
  H  H26  1  0.25549000  0.98706000  0.16027000  1.0
  H  H27  1  0.90257000  0.51300000  0.33979000  1.0
  H  H28  1  0.25546000  0.16025000  0.98709000  1.0
  H  H29  1  0.90256000  0.33977000  0.51298000  1.0
  H  H30  1  0.74455000  0.01291000  0.83976000  1.0
  H  H31  1  0.09743000  0.48702000  0.66023000  1.0
  H  H32  1  0.66601000  0.82582000  0.25239000  1.0
  H  H33  1  0.24419000  0.67409000  0.24758000  1.0
  H  H34  1  0.33399000  0.74761000  0.17418000  1.0
  H  H35  1  0.75581000  0.75242000  0.32590000  1.0
  H  H36  1  0.33399000  0.17417000  0.74763000  1.0
  H  H37  1  0.75579000  0.32592000  0.75241000  1.0
  H  H38  1  0.66601000  0.25237000  0.82582000  1.0
  H  H39  1  0.24419000  0.24759000  0.67409000  1.0
  H  H40  1  0.75100000  0.90414000  0.16284000  1.0
  H  H41  1  0.31797000  0.59574000  0.33711000  1.0
  H  H42  1  0.24899000  0.83717000  0.09587000  1.0
  H  H43  1  0.68203000  0.66290000  0.40425000  1.0
  H  H44  1  0.24900000  0.09584000  0.83719000  1.0
  H  H45  1  0.68203000  0.40424000  0.66289000  1.0
  H  H46  1  0.75100000  0.16282000  0.90415000  1.0
  H  H47  1  0.31796000  0.33712000  0.59574000  1.0
  H  H48  1  0.68489000  0.54739000  0.22466000  1.0
  H  H49  1  0.95709000  0.95270000  0.27507000  1.0
  H  H50  1  0.31513000  0.77534000  0.45258000  1.0
  H  H51  1  0.04293000  0.72493000  0.04729000  1.0
  H  H52  1  0.31514000  0.45258000  0.77535000  1.0
  H  H53  1  0.04290000  0.04732000  0.72489000  1.0
  H  H54  1  0.68487000  0.22463000  0.54742000  1.0
  H  H55  1  0.95707000  0.27510000  0.95272000  1.0
  H  H56  1  0.72798000  0.46330000  0.16578000  1.0
  H  H57  1  0.85715000  0.03662000  0.33413000  1.0
  H  H58  1  0.27202000  0.83422000  0.53666000  1.0
  H  H59  1  0.14285000  0.66587000  0.96337000  1.0
  H  H60  1  0.27204000  0.53669000  0.83421000  1.0
  H  H61  1  0.14280000  0.96342000  0.66581000  1.0
  H  H62  1  0.72793000  0.16578000  0.46333000  1.0
  H  H63  1  0.85716000  0.33419000  0.03661000  1.0
  H  H64  1  0.43257000  0.59091000  0.23650000  1.0
  H  H65  1  0.76026000  0.90887000  0.26335000  1.0
  H  H66  1  0.56745000  0.76346000  0.40910000  1.0
  H  H67  1  0.23976000  0.73665000  0.09111000  1.0
  H  H68  1  0.56745000  0.40909000  0.76350000  1.0
  H  H69  1  0.23970000  0.09113000  0.73665000  1.0
  H  H70  1  0.43255000  0.23649000  0.59093000  1.0
  H  H71  1  0.76027000  0.26335000  0.90889000  1.0
  H  H72  1  0.46359000  0.50634000  0.18084000  1.0
  H  H73  1  0.65101000  0.99329000  0.31914000  1.0
  H  H74  1  0.53642000  0.81912000  0.49367000  1.0
  H  H75  1  0.34899000  0.68086000  0.00669000  1.0
  H  H76  1  0.53642000  0.49368000  0.81913000  1.0
  H  H77  1  0.34896000  0.00673000  0.68083000  1.0
  H  H78  1  0.46355000  0.18084000  0.50637000  1.0
  H  H79  1  0.65102000  0.31917000  0.99329000  1.0
  C  C80  1  0.87054000  0.93434000  0.03426000  1.0
  C  C81  1  0.33923000  0.56567000  0.46574000  1.0
  C  C82  1  0.12948000  0.96573000  0.06567000  1.0
  C  C83  1  0.66078000  0.53426000  0.43432000  1.0
  C  C84  1  0.12949000  0.06563000  0.96577000  1.0
  C  C85  1  0.66077000  0.43434000  0.53424000  1.0
  C  C86  1  0.87053000  0.03423000  0.93437000  1.0
  C  C87  1  0.33923000  0.46576000  0.56566000  1.0
  C  C88  1  0.65972000  0.78765000  0.18344000  1.0
  C  C89  1  0.13091000  0.71230000  0.31653000  1.0
  C  C90  1  0.34028000  0.81656000  0.21235000  1.0
  C  C91  1  0.86909000  0.68348000  0.28769000  1.0
  C  C92  1  0.34028000  0.21235000  0.81657000  1.0
  C  C93  1  0.86906000  0.28771000  0.68347000  1.0
  C  C94  1  0.65971000  0.18342000  0.78766000  1.0
  C  C95  1  0.13091000  0.31655000  0.71230000  1.0
  C  C96  1  0.91363000  0.88887000  0.08937000  1.0
  C  C97  1  0.39192000  0.61117000  0.41058000  1.0
  C  C98  1  0.08642000  0.91061000  0.11112000  1.0
  C  C99  1  0.60808000  0.58943000  0.38883000  1.0
  C  C100  1  0.08642000  0.11109000  0.91065000  1.0
  C  C101  1  0.60807000  0.38885000  0.58941000  1.0
  C  C102  1  0.91359000  0.08935000  0.88891000  1.0
  C  C103  1  0.39193000  0.41060000  0.61116000  1.0
  C  C104  1  0.60631000  0.74270000  0.23690000  1.0
  C  C105  1  0.08604000  0.75728000  0.26306000  1.0
  C  C106  1  0.39369000  0.76309000  0.25731000  1.0
  C  C107  1  0.91396000  0.73694000  0.24271000  1.0
  C  C108  1  0.39369000  0.25732000  0.76309000  1.0
  C  C109  1  0.91395000  0.24273000  0.73692000  1.0
  C  C110  1  0.60629000  0.23690000  0.74270000  1.0
  C  C111  1  0.08606000  0.26308000  0.75728000  1.0
  C  C112  1  0.76507000  0.97452000  0.97455000  1.0
  C  C113  1  0.21423000  0.52544000  0.52543000  1.0
  C  C114  1  0.23498000  0.02544000  0.02547000  1.0
  C  C115  1  0.78575000  0.47460000  0.47459000  1.0
  C  C116  1  0.90614000  0.98647000  0.98650000  1.0
  C  C117  1  0.37916000  0.51358000  0.51357000  1.0
  C  C118  1  0.09388000  0.01350000  0.01353000  1.0
  C  C119  1  0.62085000  0.48643000  0.48641000  1.0
  C  C120  1  0.68224000  0.79150000  0.11583000  1.0
  C  C121  1  0.08974000  0.70846000  0.38413000  1.0
  C  C122  1  0.31779000  0.88416000  0.20850000  1.0
  C  C123  1  0.91026000  0.61588000  0.29154000  1.0
  C  C124  1  0.31778000  0.20848000  0.88418000  1.0
  C  C125  1  0.91024000  0.29153000  0.61587000  1.0
  C  C126  1  0.68223000  0.11581000  0.79152000  1.0
  C  C127  1  0.08975000  0.38414000  0.70847000  1.0
  C  C128  1  0.72777000  0.83645000  0.06554000  1.0
  C  C129  1  0.12995000  0.66352000  0.43441000  1.0
  C  C130  1  0.27224000  0.93446000  0.16356000  1.0
  C  C131  1  0.87004000  0.56560000  0.33649000  1.0
  C  C132  1  0.27224000  0.16353000  0.93448000  1.0
  C  C133  1  0.87003000  0.33648000  0.56558000  1.0
  C  C134  1  0.72777000  0.06551000  0.83647000  1.0
  C  C135  1  0.12997000  0.43443000  0.66352000  1.0
  C  C136  1  0.68494000  0.82842000  0.19992000  1.0
  C  C137  1  0.21329000  0.67150000  0.30004000  1.0
  C  C138  1  0.31505000  0.80008000  0.17159000  1.0
  C  C139  1  0.78669000  0.69997000  0.32849000  1.0
  C  C140  1  0.31507000  0.17157000  0.80009000  1.0
  C  C141  1  0.78668000  0.32850000  0.69996000  1.0
  C  C142  1  0.68492000  0.19990000  0.82843000  1.0
  C  C143  1  0.21331000  0.30005000  0.67149000  1.0
  C  C144  1  0.73206000  0.87215000  0.14986000  1.0
  C  C145  1  0.25410000  0.62776000  0.35010000  1.0
  C  C146  1  0.26794000  0.85014000  0.12786000  1.0
  C  C147  1  0.74589000  0.64991000  0.37224000  1.0
  C  C148  1  0.26797000  0.12783000  0.85015000  1.0
  C  C149  1  0.74588000  0.37225000  0.64990000  1.0
  C  C150  1  0.73204000  0.14984000  0.87217000  1.0
  C  C151  1  0.25411000  0.35011000  0.62775000  1.0
  C  C152  1  0.79828000  0.92779000  0.02896000  1.0
  C  C153  1  0.25514000  0.57216000  0.47102000  1.0
  C  C154  1  0.20176000  0.97103000  0.07221000  1.0
  C  C155  1  0.74485000  0.52900000  0.42785000  1.0
  C  C156  1  0.20176000  0.07218000  0.97106000  1.0
  C  C157  1  0.74484000  0.42786000  0.52898000  1.0
  C  C158  1  0.79826000  0.02894000  0.92782000  1.0
  C  C159  1  0.25515000  0.47103000  0.57215000  1.0
  C  C160  1  0.75345000  0.87734000  0.08181000  1.0
  C  C161  1  0.21271000  0.62259000  0.41815000  1.0
  C  C162  1  0.24657000  0.91819000  0.12267000  1.0
  C  C163  1  0.78729000  0.58186000  0.37742000  1.0
  C  C164  1  0.24658000  0.12264000  0.91821000  1.0
  C  C165  1  0.78728000  0.37742000  0.58184000  1.0
  C  C166  1  0.75343000  0.08179000  0.87736000  1.0
  C  C167  1  0.21272000  0.41816000  0.62259000  1.0
  C  C168  1  0.59865000  0.47828000  0.16845000  1.0
  C  C169  1  0.74554000  0.02152000  0.33147000  1.0
  C  C170  1  0.40135000  0.83153000  0.52172000  1.0
  C  C171  1  0.25445000  0.66853000  0.97846000  1.0
  C  C172  1  0.40137000  0.52173000  0.83152000  1.0
  C  C173  1  0.25442000  0.97849000  0.66850000  1.0
  C  C174  1  0.59860000  0.16845000  0.47830000  1.0
  C  C175  1  0.74556000  0.33150000  0.02152000  1.0
  C  C176  1  0.61647000  0.43221000  0.13334000  1.0
  C  C177  1  0.68214000  0.06758000  0.36657000  1.0
  C  C178  1  0.38355000  0.86664000  0.56779000  1.0
  C  C179  1  0.31783000  0.63345000  0.93239000  1.0
  C  C180  1  0.38354000  0.56782000  0.86663000  1.0
  C  C181  1  0.31783000  0.93242000  0.63341000  1.0
  C  C182  1  0.61643000  0.13334000  0.43221000  1.0
  C  C183  1  0.68218000  0.36659000  0.06758000  1.0
  C  C184  1  0.63812000  0.53724000  0.21317000  1.0
  C  C185  1  0.88870000  0.96274000  0.28664000  1.0
  C  C186  1  0.36189000  0.78681000  0.46275000  1.0
  C  C187  1  0.11131000  0.71336000  0.03725000  1.0
  C  C188  1  0.36190000  0.46275000  0.78682000  1.0
  C  C189  1  0.11128000  0.03727000  0.71332000  1.0
  C  C190  1  0.63810000  0.21316000  0.53726000  1.0
  C  C191  1  0.88869000  0.28668000  0.96276000  1.0
  C  C192  1  0.66160000  0.49018000  0.18110000  1.0
  C  C193  1  0.83302000  0.00971000  0.31880000  1.0
  C  C194  1  0.33840000  0.81889000  0.50981000  1.0
  C  C195  1  0.16697000  0.68120000  0.99028000  1.0
  C  C196  1  0.33842000  0.50982000  0.81888000  1.0
  C  C197  1  0.16695000  0.99031000  0.68114000  1.0
  C  C198  1  0.66156000  0.18109000  0.49020000  1.0
  C  C199  1  0.83303000  0.31885000  0.00971000  1.0
  C  C200  1  0.49697000  0.56083000  0.22055000  1.0
  C  C201  1  0.77858000  0.93898000  0.27932000  1.0
  C  C202  1  0.50306000  0.77941000  0.43917000  1.0
  C  C203  1  0.22144000  0.72068000  0.06100000  1.0
  C  C204  1  0.50305000  0.43916000  0.77944000  1.0
  C  C205  1  0.22141000  0.06100000  0.72067000  1.0
  C  C206  1  0.49694000  0.22055000  0.56085000  1.0
  C  C207  1  0.77857000  0.27933000  0.93901000  1.0
  C  C208  1  0.51407000  0.51442000  0.18962000  1.0
  C  C209  1  0.71833000  0.98533000  0.31030000  1.0
  C  C210  1  0.48594000  0.81034000  0.48559000  1.0
  C  C211  1  0.28168000  0.68970000  0.01465000  1.0
  C  C212  1  0.48595000  0.48559000  0.81035000  1.0
  C  C213  1  0.28165000  0.01467000  0.68968000  1.0
  C  C214  1  0.51404000  0.18962000  0.51445000  1.0
  C  C215  1  0.71832000  0.31033000  0.98534000  1.0
  N  N216  1  0.55754000  0.57242000  0.23213000  1.0
  N  N217  1  0.86229000  0.92752000  0.26769000  1.0
  N  N218  1  0.44247000  0.76785000  0.42758000  1.0
  N  N219  1  0.13773000  0.73231000  0.07247000  1.0
  N  N220  1  0.44247000  0.42757000  0.76787000  1.0
  N  N221  1  0.13770000  0.07246000  0.73230000  1.0
  N  N222  1  0.55753000  0.23212000  0.57244000  1.0
  N  N223  1  0.86228000  0.26771000  0.92755000  1.0
  N  N224  1  0.77064000  0.40776000  0.09217000  1.0
  N  N225  1  0.77062000  0.09218000  0.40773000  1.0
  N  N226  1  0.22936000  0.90782000  0.59225000  1.0
  N  N227  1  0.22936000  0.59228000  0.90781000  1.0
  N  N228  1  0.69854000  0.40246000  0.09743000  1.0
  N  N229  1  0.69850000  0.09744000  0.40244000  1.0
  N  N230  1  0.30147000  0.90256000  0.59754000  1.0
  N  N231  1  0.30148000  0.59757000  0.90254000  1.0
  N  N232  1  0.55990000  0.41391000  0.12559000  1.0
  N  N233  1  0.59957000  0.08586000  0.37426000  1.0
  N  N234  1  0.44008000  0.87440000  0.58611000  1.0
  N  N235  1  0.40041000  0.62576000  0.91410000  1.0
  N  N236  1  0.44010000  0.58613000  0.87438000  1.0
  N  N237  1  0.40039000  0.91413000  0.62573000  1.0
  N  N238  1  0.55987000  0.12558000  0.41391000  1.0
  N  N239  1  0.59960000  0.37428000  0.08586000  1.0
  O  O240  1  0.59333000  0.70160000  0.21976000  1.0
  O  O241  1  0.01496000  0.79850000  0.28015000  1.0
  O  O242  1  0.40666000  0.78023000  0.29841000  1.0
  O  O243  1  0.98502000  0.71985000  0.20149000  1.0
  O  O244  1  0.40668000  0.29840000  0.78023000  1.0
  O  O245  1  0.98502000  0.20151000  0.71981000  1.0
  O  O246  1  0.59329000  0.21977000  0.70160000  1.0
  O  O247  1  0.01497000  0.28019000  0.79851000  1.0
  O  O248  1  0.96494000  0.83296000  0.08380000  1.0
  O  O249  1  0.38169000  0.66717000  0.41603000  1.0
  O  O250  1  0.03509000  0.91617000  0.16704000  1.0
  O  O251  1  0.61830000  0.58400000  0.33283000  1.0
  O  O252  1  0.03514000  0.16703000  0.91620000  1.0
  O  O253  1  0.61830000  0.33284000  0.58399000  1.0
  O  O254  1  0.96488000  0.08379000  0.83297000  1.0
  O  O255  1  0.38169000  0.41604000  0.66717000  1.0
  O  O256  1  0.89853000  0.91336000  0.13510000  1.0
  O  O257  1  0.44709000  0.58664000  0.36490000  1.0
  O  O258  1  0.10154000  0.86489000  0.08662000  1.0
  O  O259  1  0.55293000  0.63509000  0.41338000  1.0
  O  O260  1  0.10150000  0.08657000  0.86495000  1.0
  O  O261  1  0.55291000  0.41339000  0.63509000  1.0
  O  O262  1  0.89852000  0.13506000  0.91342000  1.0
  O  O263  1  0.44710000  0.36492000  0.58664000  1.0
  O  O264  1  0.57590000  0.74936000  0.29539000  1.0
  O  O265  1  0.12063000  0.75049000  0.20463000  1.0
  O  O266  1  0.42410000  0.70461000  0.25064000  1.0
  O  O267  1  0.87936000  0.79539000  0.24949000  1.0
  O  O268  1  0.42408000  0.25068000  0.70460000  1.0
  O  O269  1  0.87935000  0.24951000  0.79537000  1.0
  O  O270  1  0.57590000  0.29538000  0.74935000  1.0
  O  O271  1  0.12065000  0.20465000  0.75050000  1.0
