# generated using pymatgen
data_Zr3H25C26N10O17
_symmetry_space_group_name_H-M   'P 1'
_cell_length_a   14.80674359
_cell_length_b   14.85892300
_cell_length_c   14.85790000
_cell_angle_alpha   90.09588564
_cell_angle_beta   119.82144486
_cell_angle_gamma   119.87751842
_symmetry_Int_Tables_number   1
_chemical_formula_structural   Zr3H25C26N10O17
_chemical_formula_sum   'Zr6 H50 C52 N20 O34'
_cell_volume   2320.03778029
_cell_formula_units_Z   2
loop_
 _symmetry_equiv_pos_site_id
 _symmetry_equiv_pos_as_xyz
  1  'x, y, z'
loop_
 _atom_site_type_symbol
 _atom_site_label
 _atom_site_symmetry_multiplicity
 _atom_site_fract_x
 _atom_site_fract_y
 _atom_site_fract_z
 _atom_site_occupancy
  Zr  Zr0  1  0.23875000  0.12086000  0.61679000  1.0
  Zr  Zr1  1  0.76458000  0.88409000  0.38033000  1.0
  Zr  Zr2  1  0.00150000  0.88419000  0.37913000  1.0
  Zr  Zr3  1  0.00168000  0.12142000  0.61686000  1.0
  Zr  Zr4  1  0.00086000  0.88411000  0.61564000  1.0
  Zr  Zr5  1  0.00063000  0.11983000  0.37961000  1.0
  H  H6  1  0.18749000  0.90732000  0.59260000  1.0
  H  H7  1  0.81566000  0.90803000  0.59392000  1.0
  H  H8  1  0.81388000  0.90871000  0.21810000  1.0
  H  H9  1  0.18720000  0.28237000  0.59028000  1.0
  H  H10  1  0.44589000  0.02139000  0.70643000  1.0
  H  H11  1  0.60883000  0.01997000  0.87071000  1.0
  H  H12  1  0.77585000  0.01156000  0.70572000  1.0
  H  H13  1  0.77528000  0.01413000  0.87076000  1.0
  H  H14  1  0.48873000  0.84166000  0.15805000  1.0
  H  H15  1  0.34147000  0.81529000  0.08288000  1.0
  H  H16  1  0.50537000  0.19810000  0.87915000  1.0
  H  H17  1  0.65059000  0.26062000  0.00136000  1.0
  H  H18  1  0.18068000  0.81768000  0.82447000  1.0
  H  H19  1  0.23892000  0.75506000  0.90892000  1.0
  H  H20  1  0.81599000  0.16037000  0.14272000  1.0
  H  H21  1  0.75989000  0.19871000  0.03009000  1.0
  H  H22  1  0.49196000  0.64235000  0.31959000  1.0
  H  H23  1  0.34379000  0.52283000  0.25385000  1.0
  H  H24  1  0.51152000  0.32710000  0.64144000  1.0
  H  H25  1  0.66145000  0.41513000  0.67378000  1.0
  H  H26  1  0.18306000  0.36578000  0.35095000  1.0
  H  H27  1  0.24007000  0.48502000  0.32284000  1.0
  H  H28  1  0.81908000  0.67213000  0.67997000  1.0
  H  H29  1  0.76250000  0.58629000  0.74180000  1.0
  H  H30  1  0.05958000  0.19376000  0.18335000  1.0
  H  H31  1  0.10465000  0.26031000  0.10534000  1.0
  H  H32  1  0.04120000  0.85693000  0.86447000  1.0
  H  H33  1  0.06703000  0.82289000  0.97962000  1.0
  H  H34  1  0.00817000  0.17142000  0.84840000  1.0
  H  H35  1  0.97490000  0.20358000  0.93264000  1.0
  H  H36  1  0.95276000  0.81449000  0.12609000  1.0
  H  H37  1  0.92370000  0.75620000  0.00731000  1.0
  H  H38  1  0.95580000  0.63439000  0.63758000  1.0
  H  H39  1  0.92471000  0.51670000  0.66853000  1.0
  H  H40  1  0.95882000  0.32668000  0.31185000  1.0
  H  H41  1  0.92621000  0.41132000  0.24871000  1.0
  H  H42  1  0.01303000  0.35413000  0.66810000  1.0
  H  H43  1  0.05687000  0.47660000  0.73607000  1.0
  H  H44  1  0.03268000  0.67058000  0.34703000  1.0
  H  H45  1  0.06404000  0.58308000  0.31651000  1.0
  H  H46  1  0.81976000  0.63319000  0.17440000  1.0
  H  H47  1  0.76492000  0.51744000  0.08641000  1.0
  H  H48  1  0.18403333  0.33333333  0.85886333  1.0
  H  H49  1  0.23580000  0.41172000  0.97887000  1.0
  H  H50  1  0.51576000  0.36844000  0.82830000  1.0
  H  H51  1  0.66370000  0.48562000  0.91560000  1.0
  H  H52  1  0.49055000  0.66751000  0.14109000  1.0
  H  H53  1  0.34331000  0.58621000  0.02098000  1.0
  H  H54  1  0.53253000  0.93351000  0.32045000  1.0
  H  H55  1  0.22184000  0.93070000  0.31401000  1.0
  C  C56  1  0.30246000  0.00494000  0.80693000  1.0
  C  C57  1  0.69720000  0.69618000  0.49727000  1.0
  C  C58  1  0.69406000  0.00389000  0.19569000  1.0
  C  C59  1  0.30516000  0.30261000  0.49379000  1.0
  C  C60  1  0.30818000  0.00493000  0.49953000  1.0
  C  C61  1  0.30757000  0.30661000  0.80425000  1.0
  C  C62  1  0.69946000  0.00480000  0.50224000  1.0
  C  C63  1  0.69657000  0.69389000  0.19790000  1.0
  C  C64  1  0.99643000  0.69549000  0.49325000  1.0
  C  C65  1  0.00716000  0.00491000  0.19648000  1.0
  C  C66  1  0.99166000  0.30191000  0.49265000  1.0
  C  C67  1  0.01283000  0.00872000  0.80851000  1.0
  C  C68  1  0.59405000  0.00453000  0.09795000  1.0
  C  C69  1  0.40039000  0.00673000  0.90819000  1.0
  C  C70  1  0.46249000  0.91991000  0.04726000  1.0
  C  C71  1  0.53126000  0.09662000  0.96494000  1.0
  C  C72  1  0.36754000  0.91732000  0.94974000  1.0
  C  C73  1  0.62711000  0.09073000  0.05265000  1.0
  C  C74  1  0.59807000  0.59714000  0.49721000  1.0
  C  C75  1  0.40461000  0.40260000  0.49511000  1.0
  C  C76  1  0.46653000  0.54650000  0.41272000  1.0
  C  C77  1  0.53632000  0.44957000  0.57586000  1.0
  C  C78  1  0.37126000  0.45531000  0.41651000  1.0
  C  C79  1  0.63126000  0.54979000  0.58162000  1.0
  C  C80  1  0.01001000  0.00677000  0.09909000  1.0
  C  C81  1  0.01687000  0.01067000  0.90970000  1.0
  C  C82  1  0.02652000  0.09726000  0.05898000  1.0
  C  C83  1  0.01228000  0.92559000  0.95586000  1.0
  C  C84  1  0.02201000  0.09570000  0.96177000  1.0
  C  C85  1  0.99812000  0.91883000  0.04366000  1.0
  C  C86  1  0.99540000  0.59594000  0.49299000  1.0
  C  C87  1  0.99198000  0.40117000  0.49229000  1.0
  C  C88  1  0.98881000  0.54431000  0.57252000  1.0
  C  C89  1  0.98986000  0.44876000  0.40830000  1.0
  C  C90  1  0.99583000  0.45256000  0.57660000  1.0
  C  C91  1  0.00034000  0.54865000  0.41311000  1.0
  C  C92  1  0.40537000  0.99611000  0.50387000  1.0
  C  C93  1  0.51073000  0.01173000  0.60614000  1.0
  C  C94  1  0.38923000  0.96735000  0.40483000  1.0
  C  C95  1  0.51660000  0.01810000  0.70440000  1.0
  C  C96  1  0.60971000  0.01876000  0.79780000  1.0
  C  C97  1  0.59678000  0.99536000  0.50542000  1.0
  C  C98  1  0.48658000  0.96761000  0.40586000  1.0
  C  C99  1  0.60712000  0.01033000  0.60664000  1.0
  C  C100  1  0.70271000  0.01334000  0.70457000  1.0
  C  C101  1  0.70319000  0.01580000  0.79786000  1.0
  C  C102  1  0.59796000  0.59507000  0.09893000  1.0
  C  C103  1  0.40618000  0.40553000  0.90325000  1.0
  C  C104  1  0.63223000  0.54492000  0.05141000  1.0
  C  C105  1  0.37181000  0.45161000  0.95453000  1.0
  C  C106  1  0.53814000  0.45658000  0.95081000  1.0
  C  C107  1  0.46624000  0.54885000  0.04696000  1.0
  N  N108  1  0.41744000  0.83123000  0.08377000  1.0
  N  N109  1  0.57443000  0.19053000  0.93613000  1.0
  N  N110  1  0.24371000  0.82526000  0.90181000  1.0
  N  N111  1  0.75192000  0.17616000  0.09197000  1.0
  N  N112  1  0.42220000  0.58443000  0.32615000  1.0
  N  N113  1  0.58074000  0.40537000  0.65672000  1.0
  N  N114  1  0.24677000  0.42072000  0.33671000  1.0
  N  N115  1  0.75597000  0.59403000  0.67100000  1.0
  N  N116  1  0.04203000  0.18878000  0.10751000  1.0
  N  N117  1  0.01473000  0.84165000  0.91709000  1.0
  N  N118  1  0.02885000  0.18434000  0.92554000  1.0
  N  N119  1  0.97761000  0.82504000  0.07247000  1.0
  N  N120  1  0.97994000  0.58025000  0.65262000  1.0
  N  N121  1  0.98341000  0.40496000  0.32022000  1.0
  N  N122  1  0.99949000  0.41508000  0.66321000  1.0
  N  N123  1  0.00915000  0.59256000  0.33233000  1.0
  N  N124  1  0.75737000  0.58086000  0.09565000  1.0
  N  N125  1  0.24662000  0.40941000  0.91643000  1.0
  N  N126  1  0.58403000  0.42168000  0.90667000  1.0
  N  N127  1  0.42052000  0.59112000  0.08393000  1.0
  O  O128  1  0.33623000  0.08118000  0.76522000  1.0
  O  O129  1  0.66448000  0.73914000  0.42178000  1.0
  O  O130  1  0.66146000  0.92808000  0.23870000  1.0
  O  O131  1  0.33798000  0.25826000  0.56772000  1.0
  O  O132  1  0.19146000  0.93551000  0.41592000  1.0
  O  O133  1  0.18895000  0.26353000  0.76177000  1.0
  O  O134  1  0.81509000  0.07931000  0.57841000  1.0
  O  O135  1  0.81500000  0.73633000  0.24060000  1.0
  O  O136  1  0.99335000  0.73685000  0.56719000  1.0
  O  O137  1  0.00737000  0.08046000  0.23973000  1.0
  O  O138  1  0.99245000  0.25925000  0.41743000  1.0
  O  O139  1  0.00850000  0.93107000  0.76367000  1.0
  O  O140  1  0.00386000  0.92714000  0.23686000  1.0
  O  O141  1  0.99221000  0.25970000  0.56875000  1.0
  O  O142  1  0.01038000  0.08338000  0.76482000  1.0
  O  O143  1  0.00179000  0.74056000  0.41994000  1.0
  O  O144  1  0.34285000  0.07952000  0.57566000  1.0
  O  O145  1  0.66296000  0.73751000  0.23932000  1.0
  O  O146  1  0.66367000  0.93570000  0.41838000  1.0
  O  O147  1  0.34129000  0.26481000  0.76121000  1.0
  O  O148  1  0.18696000  0.26171000  0.41948000  1.0
  O  O149  1  0.18414000  0.92522000  0.75994000  1.0
  O  O150  1  0.81560000  0.73932000  0.57353000  1.0
  O  O151  1  0.81199000  0.07810000  0.23641000  1.0
  O  O152  1  0.13459000  0.20264000  0.56425000  1.0
  O  O153  1  0.86700000  0.93499000  0.29781000  1.0
  O  O154  1  0.86701000  0.93620000  0.56528000  1.0
  O  O155  1  0.13601000  0.93579000  0.56422000  1.0
  O  O156  1  0.90293000  0.85499000  0.44867000  1.0
  O  O157  1  0.09942000  0.05159000  0.64516000  1.0
  O  O158  1  0.90257000  0.05118000  0.44949000  1.0
  O  O159  1  0.09949000  0.05108000  0.44924000  1.0
  O  O160  1  0.46476000  0.94207000  0.30663000  1.0
  O  O161  1  0.28750000  0.94071000  0.30443000  1.0
