# generated using pymatgen
data_CdH20C26N4O7
_symmetry_space_group_name_H-M   'P 1'
_cell_length_a   9.88834000
_cell_length_b   11.34650000
_cell_length_c   14.85450000
_cell_angle_alpha   77.71600000
_cell_angle_beta   89.99460000
_cell_angle_gamma   64.22000000
_symmetry_Int_Tables_number   1
_chemical_formula_structural   CdH20C26N4O7
_chemical_formula_sum   'Cd2 H40 C52 N8 O14'
_cell_volume   1458.29046502
_cell_formula_units_Z   2
loop_
 _symmetry_equiv_pos_site_id
 _symmetry_equiv_pos_as_xyz
  1  'x, y, z'
loop_
 _atom_site_type_symbol
 _atom_site_label
 _atom_site_symmetry_multiplicity
 _atom_site_fract_x
 _atom_site_fract_y
 _atom_site_fract_z
 _atom_site_occupancy
  Cd  Cd0  1  0.10203000  0.00021000  0.74991000  1.0
  Cd  Cd1  1  0.89797000  0.99980000  0.25009000  1.0
  H  H2  1  0.33607000  0.87102000  0.92163000  1.0
  H  H3  1  0.20759000  0.12864000  0.57809000  1.0
  H  H4  1  0.66393000  0.12899000  0.07837000  1.0
  H  H5  1  0.79242000  0.87135000  0.42192000  1.0
  H  H6  1  0.20622000  0.08952000  0.13849000  1.0
  H  H7  1  0.29514000  0.90983000  0.36146000  1.0
  H  H8  1  0.79378000  0.91050000  0.86151000  1.0
  H  H9  1  0.70486000  0.09017000  0.63854000  1.0
  H  H10  1  0.95896000  0.23969000  0.04140000  1.0
  H  H11  1  0.19785000  0.75990000  0.45878000  1.0
  H  H12  1  0.04103000  0.76032000  0.95859000  1.0
  H  H13  1  0.80217000  0.24009000  0.54122000  1.0
  H  H14  1  0.91528000  0.19499000  0.88764000  1.0
  H  H15  1  0.10963000  0.80493000  0.61259000  1.0
  H  H16  1  0.08473000  0.80501000  0.11235000  1.0
  H  H17  1  0.89038000  0.19506000  0.38742000  1.0
  H  H18  1  0.59062000  0.48854000  0.12742000  1.0
  H  H19  1  0.07967000  0.51109000  0.37234000  1.0
  H  H20  1  0.40938000  0.51147000  0.87258000  1.0
  H  H21  1  0.92032000  0.48889000  0.62767000  1.0
  H  H22  1  0.05434000  0.36096000  0.21956000  1.0
  H  H23  1  0.41582000  0.63919000  0.28034000  1.0
  H  H24  1  0.94566000  0.63905000  0.78044000  1.0
  H  H25  1  0.58414000  0.36082000  0.71965000  1.0
  H  H26  1  0.00832000  0.60191000  0.18843000  1.0
  H  H27  1  0.61050000  0.39831000  0.31152000  1.0
  H  H28  1  0.99169000  0.39810000  0.81157000  1.0
  H  H29  1  0.38948000  0.60170000  0.68847000  1.0
  H  H30  1  0.75393000  0.78525000  0.12879000  1.0
  H  H31  1  0.53937000  0.21476000  0.37093000  1.0
  H  H32  1  0.24607000  0.21475000  0.87122000  1.0
  H  H33  1  0.46063000  0.78524000  0.62907000  1.0
  H  H34  1  0.43966000  0.71766000  0.06113000  1.0
  H  H35  1  0.15795000  0.28199000  0.43882000  1.0
  H  H36  1  0.56035000  0.28234000  0.93887000  1.0
  H  H37  1  0.84205000  0.71800000  0.56119000  1.0
  H  H38  1  0.38676000  0.03735000  0.79039000  1.0
  H  H39  1  0.42348000  0.96395000  0.70957000  1.0
  H  H40  1  0.61324000  0.96264000  0.20961000  1.0
  H  H41  1  0.57653000  0.03604000  0.29043000  1.0
  C  C42  1  0.25600000  0.94969000  0.95242000  1.0
  C  C43  1  0.20582000  0.04997000  0.54740000  1.0
  C  C44  1  0.74400000  0.05032000  0.04758000  1.0
  C  C45  1  0.79419000  0.95002000  0.45261000  1.0
  C  C46  1  0.29007000  0.96692000  0.03853000  1.0
  C  C47  1  0.25696000  0.03265000  0.46126000  1.0
  C  C48  1  0.70993000  0.03308000  0.96147000  1.0
  C  C49  1  0.74305000  0.96733000  0.53875000  1.0
  C  C50  1  0.18302000  0.07352000  0.07154000  1.0
  C  C51  1  0.25611000  0.92600000  0.42840000  1.0
  C  C52  1  0.81698000  0.92648000  0.92845000  1.0
  C  C53  1  0.74390000  0.07399000  0.57160000  1.0
  C  C54  1  0.04594000  0.15692000  0.01775000  1.0
  C  C55  1  0.20225000  0.84271000  0.48232000  1.0
  C  C56  1  0.95405000  0.84309000  0.98224000  1.0
  C  C57  1  0.79776000  0.15728000  0.51768000  1.0
  C  C58  1  0.02075000  0.13306000  0.93256000  1.0
  C  C59  1  0.15329000  0.86674000  0.56751000  1.0
  C  C60  1  0.97925000  0.86694000  0.06744000  1.0
  C  C61  1  0.84672000  0.13325000  0.43249000  1.0
  C  C62  1  0.44304000  0.88312000  0.09050000  1.0
  C  C63  1  0.32601000  0.11658000  0.40900000  1.0
  C  C64  1  0.55695000  0.11689000  0.90950000  1.0
  C  C65  1  0.67400000  0.88341000  0.59100000  1.0
  C  C66  1  0.65485000  0.65024000  0.12359000  1.0
  C  C67  1  0.30543000  0.34957000  0.37601000  1.0
  C  C68  1  0.34516000  0.34977000  0.87641000  1.0
  C  C69  1  0.69457000  0.65042000  0.62400000  1.0
  C  C70  1  0.68131000  0.51544000  0.13976000  1.0
  C  C71  1  0.19719000  0.48434000  0.35994000  1.0
  C  C72  1  0.31870000  0.48456000  0.86024000  1.0
  C  C73  1  0.80280000  0.51564000  0.64006000  1.0
  C  C74  1  0.82483000  0.41167000  0.17466000  1.0
  C  C75  1  0.23694000  0.58829000  0.32513000  1.0
  C  C76  1  0.17518000  0.58833000  0.82535000  1.0
  C  C77  1  0.76303000  0.41171000  0.67486000  1.0
  C  C78  1  0.94329000  0.44287000  0.19215000  1.0
  C  C79  1  0.38660000  0.55722000  0.30774000  1.0
  C  C80  1  0.05671000  0.55713000  0.80785000  1.0
  C  C81  1  0.61338000  0.44278000  0.69226000  1.0
  C  C82  1  0.91683000  0.57710000  0.17467000  1.0
  C  C83  1  0.49426000  0.42304000  0.32521000  1.0
  C  C84  1  0.08317000  0.42291000  0.82533000  1.0
  C  C85  1  0.50572000  0.57697000  0.67478000  1.0
  C  C86  1  0.77370000  0.68117000  0.14105000  1.0
  C  C87  1  0.45512000  0.31882000  0.35862000  1.0
  C  C88  1  0.22631000  0.31884000  0.85895000  1.0
  C  C89  1  0.54488000  0.68118000  0.64137000  1.0
  C  C90  1  0.84914000  0.26783000  0.19583000  1.0
  C  C91  1  0.11760000  0.73212000  0.30404000  1.0
  C  C92  1  0.15086000  0.73217000  0.80418000  1.0
  C  C93  1  0.88238000  0.26787000  0.69597000  1.0
  N  N94  1  0.12425000  0.03189000  0.90038000  1.0
  N  N95  1  0.15598000  0.96794000  0.59958000  1.0
  N  N96  1  0.87575000  0.96811000  0.09962000  1.0
  N  N97  1  0.84402000  0.03205000  0.40043000  1.0
  N  N98  1  0.50790000  0.75042000  0.08788000  1.0
  N  N99  1  0.25864000  0.24925000  0.41178000  1.0
  N  N100  1  0.49210000  0.24958000  0.91212000  1.0
  N  N101  1  0.74137000  0.75074000  0.58822000  1.0
  O  O102  1  0.50394000  0.93613000  0.13027000  1.0
  O  O103  1  0.43939000  0.06372000  0.36886000  1.0
  O  O104  1  0.49606000  0.06388000  0.86972000  1.0
  O  O105  1  0.56062000  0.93627000  0.63115000  1.0
  O  O106  1  0.97608000  0.17645000  0.23873000  1.0
  O  O107  1  0.15311000  0.82356000  0.26100000  1.0
  O  O108  1  0.02393000  0.82356000  0.76128000  1.0
  O  O109  1  0.84687000  0.17643000  0.73900000  1.0
  O  O110  1  0.74262000  0.24308000  0.17176000  1.0
  O  O111  1  0.98649000  0.75681000  0.32836000  1.0
  O  O112  1  0.25738000  0.75692000  0.82825000  1.0
  O  O113  1  0.01348000  0.24318000  0.67164000  1.0
  O  O114  1  0.34449000  0.00102000  0.74976000  1.0
  O  O115  1  0.65551000  0.99898000  0.25023000  1.0
