# generated using pymatgen
data_ZnH9C12SNO4
_symmetry_space_group_name_H-M   'P 1'
_cell_length_a   8.43866000
_cell_length_b   9.66386000
_cell_length_c   15.36680000
_cell_angle_alpha   90.00010000
_cell_angle_beta   90.00010000
_cell_angle_gamma   83.98760000
_symmetry_Int_Tables_number   1
_chemical_formula_structural   ZnH9C12SNO4
_chemical_formula_sum   'Zn4 H36 C48 S4 N4 O16'
_cell_volume   1246.26964663
_cell_formula_units_Z   4
loop_
 _symmetry_equiv_pos_site_id
 _symmetry_equiv_pos_as_xyz
  1  'x, y, z'
loop_
 _atom_site_type_symbol
 _atom_site_label
 _atom_site_symmetry_multiplicity
 _atom_site_fract_x
 _atom_site_fract_y
 _atom_site_fract_z
 _atom_site_occupancy
  Zn  Zn0  1  0.96862000  0.57919000  0.92199000  1.0
  Zn  Zn1  1  0.53138000  0.42081000  0.42200000  1.0
  Zn  Zn2  1  0.03138000  0.42081000  0.07800000  1.0
  Zn  Zn3  1  0.46862000  0.57919000  0.57801000  1.0
  H  H4  1  0.23841000  0.73059000  0.23958000  1.0
  H  H5  1  0.26159000  0.26941000  0.73958000  1.0
  H  H6  1  0.76158000  0.26941000  0.76042000  1.0
  H  H7  1  0.73841000  0.73059000  0.26042000  1.0
  H  H8  1  0.39278000  0.91574000  0.29708000  1.0
  H  H9  1  0.10721000  0.08426000  0.79708000  1.0
  H  H10  1  0.60721000  0.08426000  0.70292000  1.0
  H  H11  1  0.89278000  0.91574000  0.20292000  1.0
  H  H12  1  0.32649000  0.13652000  0.05338000  1.0
  H  H13  1  0.17351000  0.86348000  0.55338000  1.0
  H  H14  1  0.67352000  0.86348000  0.94662000  1.0
  H  H15  1  0.82649000  0.13652000  0.44662000  1.0
  H  H16  1  0.17738000  0.94729000  0.99598000  1.0
  H  H17  1  0.32263000  0.05271000  0.49598000  1.0
  H  H18  1  0.82263000  0.05271000  0.00402000  1.0
  H  H19  1  0.67738000  0.94729000  0.50402000  1.0
  H  H20  1  0.41871000  0.14384000  0.35481000  1.0
  H  H21  1  0.08129000  0.85615000  0.85481000  1.0
  H  H22  1  0.58129000  0.85615000  0.64519000  1.0
  H  H23  1  0.91871000  0.14385000  0.14519000  1.0
  H  H24  1  0.67189000  0.44107000  0.23074000  1.0
  H  H25  1  0.82811000  0.55893000  0.73074000  1.0
  H  H26  1  0.32811000  0.55893000  0.76926000  1.0
  H  H27  1  0.17190000  0.44107000  0.26926000  1.0
  H  H28  1  0.52274000  0.75689000  0.06966000  1.0
  H  H29  1  0.97726000  0.24311000  0.56966000  1.0
  H  H30  1  0.47726000  0.24311000  0.93034000  1.0
  H  H31  1  0.02274000  0.75689000  0.43034000  1.0
  H  H32  1  0.54238000  0.64086000  0.16080000  1.0
  H  H33  1  0.95763000  0.35914000  0.66080000  1.0
  H  H34  1  0.45763000  0.35914000  0.83920000  1.0
  H  H35  1  0.04238000  0.64086000  0.33920000  1.0
  H  H36  1  0.45931000  0.58838000  0.06174000  1.0
  H  H37  1  0.04068000  0.41162000  0.56174000  1.0
  H  H38  1  0.54068000  0.41162000  0.93826000  1.0
  H  H39  1  0.95931000  0.58838000  0.43826000  1.0
  C  C40  1  0.11777000  0.70966000  0.07666000  1.0
  C  C41  1  0.38223000  0.29034000  0.57667000  1.0
  C  C42  1  0.88223000  0.29035000  0.92333000  1.0
  C  C43  1  0.61777000  0.70965000  0.42334000  1.0
  C  C44  1  0.19843000  0.82719000  0.11405000  1.0
  C  C45  1  0.30158000  0.17282000  0.61405000  1.0
  C  C46  1  0.80157000  0.17282000  0.88595000  1.0
  C  C47  1  0.69843000  0.82718000  0.38595000  1.0
  C  C48  1  0.25703000  0.82055000  0.19956000  1.0
  C  C49  1  0.24296000  0.17945000  0.69957000  1.0
  C  C50  1  0.74296000  0.17945000  0.80043000  1.0
  C  C51  1  0.75704000  0.82055000  0.30044000  1.0
  C  C52  1  0.34345000  0.92431000  0.23152000  1.0
  C  C53  1  0.15655000  0.07569000  0.73152000  1.0
  C  C54  1  0.65655000  0.07568000  0.76848000  1.0
  C  C55  1  0.84345000  0.92431000  0.26848000  1.0
  C  C56  1  0.37276000  0.03804000  0.17868000  1.0
  C  C57  1  0.12724000  0.96196000  0.67868000  1.0
  C  C58  1  0.62724000  0.96196000  0.82132000  1.0
  C  C59  1  0.87276000  0.03804000  0.32132000  1.0
  C  C60  1  0.31170000  0.04546000  0.09338000  1.0
  C  C61  1  0.18830000  0.95454000  0.59338000  1.0
  C  C62  1  0.68830000  0.95454000  0.90662000  1.0
  C  C63  1  0.81170000  0.04546000  0.40662000  1.0
  C  C64  1  0.22536000  0.94142000  0.06183000  1.0
  C  C65  1  0.27464000  0.05859000  0.56183000  1.0
  C  C66  1  0.77464000  0.05859000  0.93817000  1.0
  C  C67  1  0.72536000  0.94141000  0.43817000  1.0
  C  C68  1  0.45904000  0.14915000  0.21330000  1.0
  C  C69  1  0.04096000  0.85085000  0.71330000  1.0
  C  C70  1  0.54096000  0.85085000  0.78670000  1.0
  C  C71  1  0.95904000  0.14915000  0.28671000  1.0
  C  C72  1  0.47020000  0.19064000  0.29867000  1.0
  C  C73  1  0.02980000  0.80936000  0.79867000  1.0
  C  C74  1  0.52980000  0.80936000  0.70133000  1.0
  C  C75  1  0.97020000  0.19065000  0.20133000  1.0
  C  C76  1  0.60430000  0.35184000  0.23660000  1.0
  C  C77  1  0.89570000  0.64816000  0.73660000  1.0
  C  C78  1  0.39570000  0.64816000  0.76340000  1.0
  C  C79  1  0.10430000  0.35184000  0.26340000  1.0
  C  C80  1  0.71287000  0.59120000  0.05689000  1.0
  C  C81  1  0.78713000  0.40880000  0.55690000  1.0
  C  C82  1  0.28713000  0.40880000  0.94310000  1.0
  C  C83  1  0.21287000  0.59120000  0.44311000  1.0
  C  C84  1  0.55056000  0.64840000  0.08992000  1.0
  C  C85  1  0.94944000  0.35161000  0.58992000  1.0
  C  C86  1  0.44944000  0.35161000  0.91008000  1.0
  C  C87  1  0.05056000  0.64839000  0.41008000  1.0
  S  S88  1  0.55701000  0.25928000  0.14786000  1.0
  S  S89  1  0.94300000  0.74072000  0.64786000  1.0
  S  S90  1  0.44299000  0.74072000  0.85214000  1.0
  S  S91  1  0.05700000  0.25928000  0.35215000  1.0
  N  N92  1  0.55022000  0.30548000  0.31072000  1.0
  N  N93  1  0.94978000  0.69453000  0.81072000  1.0
  N  N94  1  0.44978000  0.69452000  0.68928000  1.0
  N  N95  1  0.05022000  0.30548000  0.18928000  1.0
  O  O96  1  0.06610000  0.72452000  0.99890000  1.0
  O  O97  1  0.43391000  0.27548000  0.49891000  1.0
  O  O98  1  0.93391000  0.27548000  0.00109000  1.0
  O  O99  1  0.56610000  0.72452000  0.50110000  1.0
  O  O100  1  0.10994000  0.60279000  0.12448000  1.0
  O  O101  1  0.39007000  0.39720000  0.62449000  1.0
  O  O102  1  0.89007000  0.39720000  0.87551000  1.0
  O  O103  1  0.60994000  0.60280000  0.37552000  1.0
  O  O104  1  0.75190000  0.62970000  0.98120000  1.0
  O  O105  1  0.74810000  0.37030000  0.48121000  1.0
  O  O106  1  0.24810000  0.37030000  0.01879000  1.0
  O  O107  1  0.25190000  0.62970000  0.51880000  1.0
  O  O108  1  0.79853000  0.50760000  0.10596000  1.0
  O  O109  1  0.70147000  0.49241000  0.60596000  1.0
  O  O110  1  0.20147000  0.49241000  0.89404000  1.0
  O  O111  1  0.29853000  0.50760000  0.39404000  1.0
