# generated using pymatgen
data_Al2H3C24S6(NO6)3
_symmetry_space_group_name_H-M   'P 1'
_cell_length_a   4.07500000
_cell_length_b   20.09790000
_cell_length_c   20.09895008
_cell_angle_alpha   119.99481559
_cell_angle_beta   89.99439898
_cell_angle_gamma   89.99300000
_symmetry_Int_Tables_number   1
_chemical_formula_structural   Al2H3C24S6(NO6)3
_chemical_formula_sum   'Al2 H3 C24 S6 N3 O18'
_cell_volume   1425.62391682
_cell_formula_units_Z   1
loop_
 _symmetry_equiv_pos_site_id
 _symmetry_equiv_pos_as_xyz
  1  'x, y, z'
loop_
 _atom_site_type_symbol
 _atom_site_label
 _atom_site_symmetry_multiplicity
 _atom_site_fract_x
 _atom_site_fract_y
 _atom_site_fract_z
 _atom_site_occupancy
  Al  Al0  1  0.06849000  1.00000000  0.50002000  1.0
  Al  Al1  1  0.99507000  0.33334000  0.16666000  1.0
  H  H2  1  0.79619000  0.55997000  0.37000000  1.0
  H  H3  1  0.79637000  0.12994000  0.18994000  1.0
  H  H4  1  0.79639000  0.31002000  0.93997000  1.0
  C  C5  1  0.56765000  0.05466000  0.61694000  1.0
  C  C6  1  0.56783000  0.88308000  0.43776000  1.0
  C  C7  1  0.56773000  0.06226000  0.44535000  1.0
  C  C8  1  0.49859000  0.45033000  0.22758000  1.0
  C  C9  1  0.49867000  0.27240000  0.22272000  1.0
  C  C10  1  0.49874000  0.27728000  0.04967000  1.0
  C  C11  1  0.42919000  0.74814000  0.32448000  1.0
  C  C12  1  0.66636000  0.58183000  0.33760000  1.0
  C  C13  1  0.57089000  0.79692000  0.39509000  1.0
  C  C14  1  0.51476000  0.53463000  0.26791000  1.0
  C  C15  1  0.62384000  0.65973000  0.35871000  1.0
  C  C16  1  0.45308000  0.66959000  0.30351000  1.0
  C  C17  1  0.42906000  0.17552000  0.42362000  1.0
  C  C18  1  0.66646000  0.16234000  0.24419000  1.0
  C  C19  1  0.57079000  0.10490000  0.40183000  1.0
  C  C20  1  0.51477000  0.23204000  0.26666000  1.0
  C  C21  1  0.62387000  0.14124000  0.30099000  1.0
  C  C22  1  0.45302000  0.19647000  0.36603000  1.0
  C  C23  1  0.42906000  0.07636000  0.75192000  1.0
  C  C24  1  0.66649000  0.25578000  0.91814000  1.0
  C  C25  1  0.57071000  0.09816000  0.70310000  1.0
  C  C26  1  0.51488000  0.23331000  0.96538000  1.0
  C  C27  1  0.62386000  0.19898000  0.84025000  1.0
  C  C28  1  0.45305000  0.13395000  0.83045000  1.0
  S  S29  1  0.73853000  0.74751000  0.43631000  1.0
  S  S30  1  0.32794000  0.58415000  0.22753000  1.0
  S  S31  1  0.73856000  0.06365000  0.31121000  1.0
  S  S32  1  0.32790000  0.27245000  0.35655000  1.0
  S  S33  1  0.73849000  0.18876000  0.75244000  1.0
  S  S34  1  0.32802000  0.14344000  0.91592000  1.0
  N  N35  1  0.26797000  0.77419000  0.27799000  1.0
  N  N36  1  0.26771000  0.22204000  0.49614000  1.0
  N  N37  1  0.26772000  0.00385000  0.72593000  1.0
  O  O38  1  0.32965000  0.01627000  0.43045000  1.0
  O  O39  1  0.32953000  0.06957000  0.58586000  1.0
  O  O40  1  0.32971000  0.91416000  0.48375000  1.0
  O  O41  1  0.80525000  0.07320000  0.49019000  1.0
  O  O42  1  0.80542000  0.91699000  0.42683000  1.0
  O  O43  1  0.80524000  0.00981000  0.58303000  1.0
  O  O44  1  0.25778000  0.26261000  0.08117000  1.0
  O  O45  1  0.25764000  0.41884000  0.18143000  1.0
  O  O46  1  0.25772000  0.31857000  0.23739000  1.0
  O  O47  1  0.72636000  0.32629000  0.08477000  1.0
  O  O48  1  0.72639000  0.25850000  0.17371000  1.0
  O  O49  1  0.72623000  0.41521000  0.24148000  1.0
  O  O50  1  0.11784000  0.72442000  0.22042000  1.0
  O  O51  1  0.28728000  0.84331000  0.29789000  1.0
  O  O52  1  0.11761000  0.27962000  0.50392000  1.0
  O  O53  1  0.28686000  0.20214000  0.54537000  1.0
  O  O54  1  0.11765000  0.99608000  0.77574000  1.0
  O  O55  1  0.28687000  0.95462000  0.65681000  1.0
