# generated using pymatgen
data_ZnH8C14NO4
_symmetry_space_group_name_H-M   'P 1'
_cell_length_a   9.60958000
_cell_length_b   11.06330000
_cell_length_c   17.93920000
_cell_angle_alpha   90.29990000
_cell_angle_beta   90.01050000
_cell_angle_gamma   89.99790000
_symmetry_Int_Tables_number   1
_chemical_formula_structural   ZnH8C14NO4
_chemical_formula_sum   'Zn2 H16 C28 N2 O8'
_cell_volume   1907.15596554
_cell_formula_units_Z   2
loop_
 _symmetry_equiv_pos_site_id
 _symmetry_equiv_pos_as_xyz
  1  'x, y, z'
loop_
 _atom_site_type_symbol
 _atom_site_label
 _atom_site_symmetry_multiplicity
 _atom_site_fract_x
 _atom_site_fract_y
 _atom_site_fract_z
 _atom_site_occupancy
  Zn  Zn0  1  0.35845000  0.50023000  0.49994000  1.0
  Zn  Zn1  1  0.64155000  0.50018000  0.50006000  1.0
  H  H2  1  0.27565000  0.49274000  0.12215000  1.0
  H  H3  1  0.27700000  0.11377000  0.49541000  1.0
  H  H4  1  0.72295000  0.11395000  0.50439000  1.0
  H  H5  1  0.27705000  0.88635000  0.49566000  1.0
  H  H6  1  0.86619000  0.36480000  0.41958000  1.0
  H  H7  1  0.13380000  0.63531000  0.58051000  1.0
  H  H8  1  0.86624000  0.63523000  0.58055000  1.0
  H  H9  1  0.13376000  0.36487000  0.41955000  1.0
  H  H10  1  0.72433000  0.49293000  0.87776000  1.0
  H  H11  1  0.27564000  0.49293000  0.87773000  1.0
  H  H12  1  0.72436000  0.49274000  0.12217000  1.0
  H  H13  1  0.27691000  0.49639000  0.26163000  1.0
  H  H14  1  0.72310000  0.49740000  0.73831000  1.0
  H  H15  1  0.27685000  0.49740000  0.73828000  1.0
  H  H16  1  0.72315000  0.49638000  0.26166000  1.0
  H  H17  1  0.72300000  0.88652000  0.50462000  1.0
  C  C18  1  0.50001000  0.73798000  0.50081000  1.0
  C  C19  1  0.49998000  0.49744000  0.35330000  1.0
  C  C20  1  0.49999000  0.12684000  0.49963000  1.0
  C  C21  1  0.50001000  0.87345000  0.50043000  1.0
  C  C22  1  0.37344000  0.49323000  0.15294000  1.0
  C  C23  1  0.62655000  0.49414000  0.84698000  1.0
  C  C24  1  0.37342000  0.49415000  0.84696000  1.0
  C  C25  1  0.62658000  0.49323000  0.15295000  1.0
  C  C26  1  0.37403000  0.49508000  0.23033000  1.0
  C  C27  1  0.62597000  0.49681000  0.76961000  1.0
  C  C28  1  0.37400000  0.49681000  0.76959000  1.0
  C  C29  1  0.50000000  0.26231000  0.49924000  1.0
  C  C30  1  0.62601000  0.49508000  0.23035000  1.0
  C  C31  1  0.50003000  0.49584000  0.26989000  1.0
  C  C32  1  0.49998000  0.49840000  0.73008000  1.0
  C  C33  1  0.92752000  0.42467000  0.45517000  1.0
  C  C34  1  0.07247000  0.57545000  0.54492000  1.0
  C  C35  1  0.92755000  0.57542000  0.54494000  1.0
  C  C36  1  0.07245000  0.42470000  0.45515000  1.0
  C  C37  1  0.50001000  0.49230000  0.11284000  1.0
  C  C38  1  0.49998000  0.49303000  0.88706000  1.0
  C  C39  1  0.50000000  0.49128000  0.03399000  1.0
  C  C40  1  0.49999000  0.49144000  0.96589000  1.0
  C  C41  1  0.62598000  0.93734000  0.50270000  1.0
  C  C42  1  0.37402000  0.06296000  0.49736000  1.0
  C  C43  1  0.62597000  0.06306000  0.50236000  1.0
  C  C44  1  0.37403000  0.93724000  0.49771000  1.0
  C  C45  1  0.50003000  0.50093000  0.64669000  1.0
  N  N46  1  0.14314000  0.50011000  0.50001000  1.0
  N  N47  1  0.85686000  0.50005000  0.50005000  1.0
  O  O48  1  0.38199000  0.68520000  0.50078000  1.0
  O  O49  1  0.61801000  0.31509000  0.49929000  1.0
  O  O50  1  0.38200000  0.31512000  0.49900000  1.0
  O  O51  1  0.61801000  0.68518000  0.50101000  1.0
  O  O52  1  0.38201000  0.50174000  0.61405000  1.0
  O  O53  1  0.61799000  0.49801000  0.38596000  1.0
  O  O54  1  0.38189000  0.49810000  0.38585000  1.0
  O  O55  1  0.61811000  0.50169000  0.61414000  1.0
