# generated using pymatgen
data_Zr3H4C25Cl11O16
_symmetry_space_group_name_H-M   'P 1'
_cell_length_a   15.00612386
_cell_length_b   15.02360710
_cell_length_c   15.02760000
_cell_angle_alpha   90.00799465
_cell_angle_beta   119.94216012
_cell_angle_gamma   119.95295770
_symmetry_Int_Tables_number   1
_chemical_formula_structural   Zr3H4C25Cl11O16
_chemical_formula_sum   'Zr6 H8 C50 Cl22 O32'
_cell_volume   2399.24325666
_cell_formula_units_Z   2
loop_
 _symmetry_equiv_pos_site_id
 _symmetry_equiv_pos_as_xyz
  1  'x, y, z'
loop_
 _atom_site_type_symbol
 _atom_site_label
 _atom_site_symmetry_multiplicity
 _atom_site_fract_x
 _atom_site_fract_y
 _atom_site_fract_z
 _atom_site_occupancy
  Zr  Zr0  1  0.23651000  0.11840000  0.61853000  1.0
  Zr  Zr1  1  0.76469000  0.88323000  0.38311000  1.0
  Zr  Zr2  1  0.00044000  0.88299000  0.38291000  1.0
  Zr  Zr3  1  0.99989000  0.11858000  0.61870000  1.0
  Zr  Zr4  1  0.00037000  0.88303000  0.61848000  1.0
  Zr  Zr5  1  0.00040000  0.11848000  0.38300000  1.0
  H  H6  1  0.18567000  0.90799000  0.59269000  1.0
  H  H7  1  0.81431000  0.90822000  0.59285000  1.0
  H  H8  1  0.81536000  0.90823000  0.22341000  1.0
  H  H9  1  0.18537000  0.27837000  0.59304000  1.0
  H  H10  1  0.61900000  0.24646000  0.66168000  1.0
  H  H11  1  0.61798000  0.16150000  0.74451000  1.0
  H  H12  1  0.78580000  0.16219000  0.74536000  1.0
  H  H13  1  0.78708000  0.24724000  0.66256000  1.0
  C  C14  1  0.30083000  0.00288000  0.80374000  1.0
  C  C15  1  0.69963000  0.69699000  0.49838000  1.0
  C  C16  1  0.69969000  0.00373000  0.20202000  1.0
  C  C17  1  0.30111000  0.29776000  0.49732000  1.0
  C  C18  1  0.30185000  0.00340000  0.49851000  1.0
  C  C19  1  0.30097000  0.29876000  0.80373000  1.0
  C  C20  1  0.69976000  0.00412000  0.49933000  1.0
  C  C21  1  0.69904000  0.69680000  0.20222000  1.0
  C  C22  1  0.99496000  0.69692000  0.49847000  1.0
  C  C23  1  0.00523000  0.00371000  0.20192000  1.0
  C  C24  1  0.99329000  0.29774000  0.49725000  1.0
  C  C25  1  0.00528000  0.00291000  0.80381000  1.0
  C  C26  1  0.59781000  0.00267000  0.09903000  1.0
  C  C27  1  0.40282000  0.00155000  0.90384000  1.0
  C  C28  1  0.46785000  0.92176000  0.04845000  1.0
  C  C29  1  0.53281000  0.08005000  0.95203000  1.0
  C  C30  1  0.37315000  0.92165000  0.95405000  1.0
  C  C31  1  0.62750000  0.08158000  0.04766000  1.0
  C  C32  1  0.59779000  0.59538000  0.49882000  1.0
  C  C33  1  0.40307000  0.39986000  0.49783000  1.0
  C  C34  1  0.46777000  0.54582000  0.41923000  1.0
  C  C35  1  0.53311000  0.44963000  0.57769000  1.0
  C  C36  1  0.37322000  0.45130000  0.41920000  1.0
  C  C37  1  0.62763000  0.54529000  0.57899000  1.0
  C  C38  1  0.00329000  0.00274000  0.09904000  1.0
  C  C39  1  0.00193000  0.00151000  0.90383000  1.0
  C  C40  1  0.00121000  0.08167000  0.04766000  1.0
  C  C41  1  0.00223000  0.92177000  0.95420000  1.0
  C  C42  1  0.99826000  0.07987000  0.95180000  1.0
  C  C43  1  0.00171000  0.92176000  0.04844000  1.0
  C  C44  1  0.99581000  0.59540000  0.49894000  1.0
  C  C45  1  0.99388000  0.39980000  0.49773000  1.0
  C  C46  1  0.99609000  0.54530000  0.57909000  1.0
  C  C47  1  0.99688000  0.45143000  0.41929000  1.0
  C  C48  1  0.99316000  0.44939000  0.57748000  1.0
  C  C49  1  0.99664000  0.54585000  0.41926000  1.0
  C  C50  1  0.39812000  0.99874000  0.49527000  1.0
  C  C51  1  0.59532000  0.99923000  0.49589000  1.0
  C  C52  1  0.52696000  0.07561000  0.57319000  1.0
  C  C53  1  0.46453000  0.91857000  0.41634000  1.0
  C  C54  1  0.62061000  0.07593000  0.57356000  1.0
  C  C55  1  0.36937000  0.91836000  0.41600000  1.0
  C  C56  1  0.62103000  0.17541000  0.67412000  1.0
  C  C57  1  0.72640000  0.17585000  0.67462000  1.0
  C  C58  1  0.59714000  0.59566000  0.09946000  1.0
  C  C59  1  0.40266000  0.40116000  0.90481000  1.0
  C  C60  1  0.62717000  0.54615000  0.04875000  1.0
  C  C61  1  0.37250000  0.45174000  0.95428000  1.0
  C  C62  1  0.53284000  0.45177000  0.95432000  1.0
  C  C63  1  0.46689000  0.54613000  0.04867000  1.0
  Cl  Cl64  1  0.41487000  0.81804000  0.09645000  1.0
  Cl  Cl65  1  0.58538000  0.17783000  0.89749000  1.0
  Cl  Cl66  1  0.22156000  0.81842000  0.90451000  1.0
  Cl  Cl67  1  0.77923000  0.18388000  0.09640000  1.0
  Cl  Cl68  1  0.41461000  0.59626000  0.31804000  1.0
  Cl  Cl69  1  0.58611000  0.39855000  0.67896000  1.0
  Cl  Cl70  1  0.22159000  0.40422000  0.31871000  1.0
  Cl  Cl71  1  0.77933000  0.59684000  0.68383000  1.0
  Cl  Cl72  1  0.00124000  0.18437000  0.09673000  1.0
  Cl  Cl73  1  0.00194000  0.81895000  0.90507000  1.0
  Cl  Cl74  1  0.98766000  0.17695000  0.89661000  1.0
  Cl  Cl75  1  0.99837000  0.81775000  0.09614000  1.0
  Cl  Cl76  1  0.00157000  0.59719000  0.68435000  1.0
  Cl  Cl77  1  0.00169000  0.40471000  0.31915000  1.0
  Cl  Cl78  1  0.98916000  0.39770000  0.67815000  1.0
  Cl  Cl79  1  0.99894000  0.59627000  0.31803000  1.0
  Cl  Cl80  1  0.77899000  0.59658000  0.09664000  1.0
  Cl  Cl81  1  0.22044000  0.40360000  0.90375000  1.0
  Cl  Cl82  1  0.58629000  0.40367000  0.90382000  1.0
  Cl  Cl83  1  0.41335000  0.59660000  0.09651000  1.0
  Cl  Cl84  1  0.41274000  0.81499000  0.31563000  1.0
  Cl  Cl85  1  0.21714000  0.81477000  0.31490000  1.0
  O  O86  1  0.33515000  0.07847000  0.76464000  1.0
  O  O87  1  0.66531000  0.73753000  0.42415000  1.0
  O  O88  1  0.66533000  0.92919000  0.24219000  1.0
  O  O89  1  0.33542000  0.25767000  0.57199000  1.0
  O  O90  1  0.18562000  0.93177000  0.42444000  1.0
  O  O91  1  0.18617000  0.25874000  0.76348000  1.0
  O  O92  1  0.81301000  0.07989000  0.57784000  1.0
  O  O93  1  0.81387000  0.73694000  0.24240000  1.0
  O  O94  1  0.99510000  0.73717000  0.57310000  1.0
  O  O95  1  0.00559000  0.07849000  0.24230000  1.0
  O  O96  1  0.99398000  0.25800000  0.42302000  1.0
  O  O97  1  0.00460000  0.92795000  0.76339000  1.0
  O  O98  1  0.00487000  0.92899000  0.24191000  1.0
  O  O99  1  0.99380000  0.25779000  0.57205000  1.0
  O  O100  1  0.00796000  0.07876000  0.76500000  1.0
  O  O101  1  0.99519000  0.73727000  0.42404000  1.0
  O  O102  1  0.34283000  0.07920000  0.57698000  1.0
  O  O103  1  0.66457000  0.73701000  0.24239000  1.0
  O  O104  1  0.67041000  0.93263000  0.42516000  1.0
  O  O105  1  0.33545000  0.25860000  0.76354000  1.0
  O  O106  1  0.18648000  0.25811000  0.42316000  1.0
  O  O107  1  0.18617000  0.92813000  0.76354000  1.0
  O  O108  1  0.81434000  0.73716000  0.57290000  1.0
  O  O109  1  0.81446000  0.07842000  0.24233000  1.0
  O  O110  1  0.13278000  0.19940000  0.56679000  1.0
  O  O111  1  0.86805000  0.93465000  0.30234000  1.0
  O  O112  1  0.86800000  0.93493000  0.56743000  1.0
  O  O113  1  0.13329000  0.93471000  0.56725000  1.0
  O  O114  1  0.90309000  0.85488000  0.45227000  1.0
  O  O115  1  0.09749000  0.04937000  0.64633000  1.0
  O  O116  1  0.90322000  0.04975000  0.45245000  1.0
  O  O117  1  0.09808000  0.04961000  0.45230000  1.0
