# generated using pymatgen
data_CdCu2H72C56N4(ClO6)2
_symmetry_space_group_name_H-M   'P 1'
_cell_length_a   7.82389000
_cell_length_b   15.45240000
_cell_length_c   15.45240000
_cell_angle_alpha   90.41620000
_cell_angle_beta   101.11800000
_cell_angle_gamma   101.11800000
_symmetry_Int_Tables_number   1
_chemical_formula_structural   CdCu2H72C56N4(ClO6)2
_chemical_formula_sum   'Cd1 Cu2 H72 C56 N4 Cl2 O12'
_cell_volume   1796.77990897
_cell_formula_units_Z   1
loop_
 _symmetry_equiv_pos_site_id
 _symmetry_equiv_pos_as_xyz
  1  'x, y, z'
loop_
 _atom_site_type_symbol
 _atom_site_label
 _atom_site_symmetry_multiplicity
 _atom_site_fract_x
 _atom_site_fract_y
 _atom_site_fract_z
 _atom_site_occupancy
  Cd  Cd0  1  0.00000000  0.00000000  0.00000000  1.0
  Cu  Cu1  1  0.00000000  0.50000000  0.00000000  1.0
  Cu  Cu2  1  0.00000000  0.00000000  0.50000000  1.0
  H  H3  1  0.14073000  0.67182000  0.79230000  1.0
  H  H4  1  0.85928000  0.20770000  0.32818000  1.0
  H  H5  1  0.85927000  0.32818000  0.20770000  1.0
  H  H6  1  0.14073000  0.79230000  0.67182000  1.0
  H  H7  1  0.37434000  0.71071000  0.83514000  1.0
  H  H8  1  0.62565000  0.16486000  0.28929000  1.0
  H  H9  1  0.62566000  0.28929000  0.16486000  1.0
  H  H10  1  0.37435000  0.83514000  0.71071000  1.0
  H  H11  1  0.21528000  0.76257000  0.87089000  1.0
  H  H12  1  0.78472000  0.12911000  0.23743000  1.0
  H  H13  1  0.78472000  0.23743000  0.12911000  1.0
  H  H14  1  0.21528000  0.87089000  0.76257000  1.0
  H  H15  1  0.56055000  0.61822000  0.17262000  1.0
  H  H16  1  0.43946000  0.82738000  0.38178000  1.0
  H  H17  1  0.43945000  0.38178000  0.82738000  1.0
  H  H18  1  0.56054000  0.17262000  0.61822000  1.0
  H  H19  1  0.66630000  0.57718000  0.09411000  1.0
  H  H20  1  0.33370000  0.90589000  0.42282000  1.0
  H  H21  1  0.33370000  0.42282000  0.90589000  1.0
  H  H22  1  0.66630000  0.09411000  0.57718000  1.0
  H  H23  1  0.53181000  0.50189000  0.15342000  1.0
  H  H24  1  0.46820000  0.84658000  0.49811000  1.0
  H  H25  1  0.46818000  0.49811000  0.84658000  1.0
  H  H26  1  0.53180000  0.15342000  0.50189000  1.0
  H  H27  1  0.38288000  0.80045000  0.04473000  1.0
  H  H28  1  0.61712000  0.95527000  0.19954000  1.0
  H  H29  1  0.61711000  0.19954000  0.95527000  1.0
  H  H30  1  0.38288000  0.04473000  0.80046000  1.0
  H  H31  1  0.63120000  0.93107000  0.05164000  1.0
  H  H32  1  0.36880000  0.94836000  0.06893000  1.0
  H  H33  1  0.36879000  0.06893000  0.94836000  1.0
  H  H34  1  0.63120000  0.05164000  0.93107000  1.0
  H  H35  1  0.94289000  0.78179000  0.95550000  1.0
  H  H36  1  0.05711000  0.04450000  0.21821000  1.0
  H  H37  1  0.05712000  0.21821000  0.04450000  1.0
  H  H38  1  0.94289000  0.95550000  0.78179000  1.0
  H  H39  1  0.71496000  0.64240000  0.95032000  1.0
  H  H40  1  0.28504000  0.04968000  0.35760000  1.0
  H  H41  1  0.28504000  0.35760000  0.04969000  1.0
  H  H42  1  0.71496000  0.95032000  0.64240000  1.0
  H  H43  1  0.92834000  0.59840000  0.24725000  1.0
  H  H44  1  0.07167000  0.75275000  0.40160000  1.0
  H  H45  1  0.07167000  0.40160000  0.75275000  1.0
  H  H46  1  0.92833000  0.24725000  0.59840000  1.0
  H  H47  1  0.03890000  0.51670000  0.21235000  1.0
  H  H48  1  0.96110000  0.78765000  0.48330000  1.0
  H  H49  1  0.96110000  0.48330000  0.78765000  1.0
  H  H50  1  0.03890000  0.21235000  0.51670000  1.0
  H  H51  1  0.32565000  0.60635000  0.27118000  1.0
  H  H52  1  0.67435000  0.72882000  0.39365000  1.0
  H  H53  1  0.67435000  0.39365000  0.72882000  1.0
  H  H54  1  0.32565000  0.27118000  0.60635000  1.0
  H  H55  1  0.20906000  0.65910000  0.33649000  1.0
  H  H56  1  0.79095000  0.66351000  0.34091000  1.0
  H  H57  1  0.79095000  0.34091000  0.66351000  1.0
  H  H58  1  0.20905000  0.33649000  0.65909000  1.0
  H  H59  1  0.25784000  0.78742000  0.25206000  1.0
  H  H60  1  0.74216000  0.74794000  0.21258000  1.0
  H  H61  1  0.74216000  0.21258000  0.74794000  1.0
  H  H62  1  0.25784000  0.25205000  0.78742000  1.0
  H  H63  1  0.37309000  0.73142000  0.18920000  1.0
  H  H64  1  0.62691000  0.81080000  0.26858000  1.0
  H  H65  1  0.62691000  0.26858000  0.81080000  1.0
  H  H66  1  0.37309000  0.18920000  0.73142000  1.0
  H  H67  1  0.98605000  0.74704000  0.14962000  1.0
  H  H68  1  0.01395000  0.85038000  0.25296000  1.0
  H  H69  1  0.01395000  0.25296000  0.85038000  1.0
  H  H70  1  0.98606000  0.14962000  0.74704000  1.0
  H  H71  1  0.12253000  0.73091000  0.07324000  1.0
  H  H72  1  0.87747000  0.92676000  0.26909000  1.0
  H  H73  1  0.87747000  0.26909000  0.92676000  1.0
  H  H74  1  0.12253000  0.07324000  0.73091000  1.0
  C  C75  1  0.24117000  0.69839000  0.85088000  1.0
  C  C76  1  0.75883000  0.14913000  0.30161000  1.0
  C  C77  1  0.75883000  0.30161000  0.14912000  1.0
  C  C78  1  0.24117000  0.85087000  0.69839000  1.0
  C  C79  1  0.22581000  0.63492000  0.92373000  1.0
  C  C80  1  0.77419000  0.07627000  0.36508000  1.0
  C  C81  1  0.77419000  0.36508000  0.07627000  1.0
  C  C82  1  0.22581000  0.92373000  0.63492000  1.0
  C  C83  1  0.37558000  0.63340000  0.99197000  1.0
  C  C84  1  0.62441000  0.00803000  0.36660000  1.0
  C  C85  1  0.62442000  0.36660000  0.00803000  1.0
  C  C86  1  0.37559000  0.99197000  0.63340000  1.0
  C  C87  1  0.37894000  0.56597000  0.05344000  1.0
  C  C88  1  0.62106000  0.94656000  0.43404000  1.0
  C  C89  1  0.62106000  0.43403000  0.94656000  1.0
  C  C90  1  0.37893000  0.05344000  0.56596000  1.0
  C  C91  1  0.54530000  0.56541000  0.12185000  1.0
  C  C92  1  0.45470000  0.87815000  0.43460000  1.0
  C  C93  1  0.45470000  0.43459000  0.87815000  1.0
  C  C94  1  0.54530000  0.12185000  0.56540000  1.0
  C  C95  1  0.52826000  0.70917000  0.99874000  1.0
  C  C96  1  0.47173000  0.00126000  0.29083000  1.0
  C  C97  1  0.47174000  0.29083000  0.00126000  1.0
  C  C98  1  0.52827000  0.99874000  0.70917000  1.0
  C  C99  1  0.50740000  0.79223000  0.02727000  1.0
  C  C100  1  0.49261000  0.97273000  0.20777000  1.0
  C  C101  1  0.49260000  0.20777000  0.97273000  1.0
  C  C102  1  0.50739000  0.02727000  0.79223000  1.0
  C  C103  1  0.64335000  0.86535000  0.03041000  1.0
  C  C104  1  0.35666000  0.96959000  0.13465000  1.0
  C  C105  1  0.35665000  0.13465000  0.96959000  1.0
  C  C106  1  0.64334000  0.03041000  0.86535000  1.0
  C  C107  1  0.81820000  0.78172000  0.97729000  1.0
  C  C108  1  0.18180000  0.02271000  0.21828000  1.0
  C  C109  1  0.18180000  0.21828000  0.02271000  1.0
  C  C110  1  0.81819000  0.97729000  0.78172000  1.0
  C  C111  1  0.68975000  0.70474000  0.97367000  1.0
  C  C112  1  0.31026000  0.02633000  0.29526000  1.0
  C  C113  1  0.31025000  0.29526000  0.02633000  1.0
  C  C114  1  0.68974000  0.97367000  0.70474000  1.0
  C  C115  1  0.04099000  0.58770000  0.21757000  1.0
  C  C116  1  0.95901000  0.78243000  0.41230000  1.0
  C  C117  1  0.95901000  0.41230000  0.78243000  1.0
  C  C118  1  0.04099000  0.21757000  0.58770000  1.0
  C  C119  1  0.21754000  0.64282000  0.26831000  1.0
  C  C120  1  0.78246000  0.73170000  0.35718000  1.0
  C  C121  1  0.78246000  0.35718000  0.73169000  1.0
  C  C122  1  0.21754000  0.26830000  0.64282000  1.0
  C  C123  1  0.24926000  0.72604000  0.21382000  1.0
  C  C124  1  0.75074000  0.78619000  0.27396000  1.0
  C  C125  1  0.75074000  0.27396000  0.78618000  1.0
  C  C126  1  0.24926000  0.21382000  0.72604000  1.0
  C  C127  1  0.08879000  0.71134000  0.13686000  1.0
  C  C128  1  0.91121000  0.86314000  0.28866000  1.0
  C  C129  1  0.91121000  0.28866000  0.86314000  1.0
  C  C130  1  0.08879000  0.13686000  0.71134000  1.0
  N  N131  1  0.79729000  0.86070000  0.00607000  1.0
  N  N132  1  0.20271000  0.99392000  0.13930000  1.0
  N  N133  1  0.20271000  0.13930000  0.99393000  1.0
  N  N134  1  0.79729000  0.00607000  0.86070000  1.0
  Cl  Cl135  1  0.18481000  0.91622000  0.91622000  1.0
  Cl  Cl136  1  0.81518000  0.08378000  0.08378000  1.0
  O  O137  1  0.07224000  0.58498000  0.91684000  1.0
  O  O138  1  0.92777000  0.08316000  0.41502000  1.0
  O  O139  1  0.92776000  0.41502000  0.08316000  1.0
  O  O140  1  0.07223000  0.91684000  0.58498000  1.0
  O  O141  1  0.24777000  0.50283000  0.05719000  1.0
  O  O142  1  0.75223000  0.94281000  0.49718000  1.0
  O  O143  1  0.75223000  0.49717000  0.94281000  1.0
  O  O144  1  0.24777000  0.05719000  0.50282000  1.0
  O  O145  1  0.01890000  0.61812000  0.12926000  1.0
  O  O146  1  0.98111000  0.87074000  0.38188000  1.0
  O  O147  1  0.98111000  0.38188000  0.87074000  1.0
  O  O148  1  0.01889000  0.12926000  0.61812000  1.0
