# generated using pymatgen
data_CuH10C14SN4
_symmetry_space_group_name_H-M   'P 1'
_cell_length_a   10.15160000
_cell_length_b   18.06350000
_cell_length_c   18.79020567
_cell_angle_alpha   118.72889235
_cell_angle_beta   105.65328257
_cell_angle_gamma   89.99910000
_symmetry_Int_Tables_number   1
_chemical_formula_structural   CuH10C14SN4
_chemical_formula_sum   'Cu8 H80 C112 S8 N32'
_cell_volume   2874.90675925
_cell_formula_units_Z   8
loop_
 _symmetry_equiv_pos_site_id
 _symmetry_equiv_pos_as_xyz
  1  'x, y, z'
loop_
 _atom_site_type_symbol
 _atom_site_label
 _atom_site_symmetry_multiplicity
 _atom_site_fract_x
 _atom_site_fract_y
 _atom_site_fract_z
 _atom_site_occupancy
  Cu  Cu0  1  0.83523000  0.58318000  0.06324000  1.0
  Cu  Cu1  1  0.77159000  0.41680000  0.93668000  1.0
  Cu  Cu2  1  0.27149000  0.51987000  0.93665000  1.0
  Cu  Cu3  1  0.33531000  0.48014000  0.06329000  1.0
  Cu  Cu4  1  0.65329000  0.97587000  0.06050000  1.0
  Cu  Cu5  1  0.59267000  0.02426000  0.93939000  1.0
  Cu  Cu6  1  0.09263000  0.91512000  0.93936000  1.0
  Cu  Cu7  1  0.15326000  0.08463000  0.06048000  1.0
  H  H8  1  0.94541000  0.71614000  0.04064000  1.0
  H  H9  1  0.90502000  0.28415000  0.95964000  1.0
  H  H10  1  0.40490000  0.67545000  0.95960000  1.0
  H  H11  1  0.44552000  0.32464000  0.04066000  1.0
  H  H12  1  0.14420000  0.83337000  0.11325000  1.0
  H  H13  1  0.03094000  0.16673000  0.88693000  1.0
  H  H14  1  0.53084000  0.72017000  0.88690000  1.0
  H  H15  1  0.64425000  0.27997000  0.11327000  1.0
  H  H16  1  0.30120000  0.74192000  0.29020000  1.0
  H  H17  1  0.01071000  0.25781000  0.70966000  1.0
  H  H18  1  0.51078000  0.45183000  0.70970000  1.0
  H  H19  1  0.80131000  0.54834000  0.29030000  1.0
  H  H20  1  0.09241000  0.63114000  0.21185000  1.0
  H  H21  1  0.88029000  0.36870000  0.78800000  1.0
  H  H22  1  0.38028000  0.41926000  0.78799000  1.0
  H  H23  1  0.59259000  0.58083000  0.21197000  1.0
  H  H24  1  0.35751000  0.76754000  0.08415000  1.0
  H  H25  1  0.27303000  0.23237000  0.91576000  1.0
  H  H26  1  0.77296000  0.68344000  0.91579000  1.0
  H  H27  1  0.85753000  0.31664000  0.08418000  1.0
  H  H28  1  0.46813000  0.82212000  0.01209000  1.0
  H  H29  1  0.45578000  0.17783000  0.98778000  1.0
  H  H30  1  0.95561000  0.81002000  0.98780000  1.0
  H  H31  1  0.96811000  0.19000000  0.01210000  1.0
  H  H32  1  0.59470000  0.06186000  0.22722000  1.0
  H  H33  1  0.36730000  0.93802000  0.77268000  1.0
  H  H34  1  0.86727000  0.83460000  0.77263000  1.0
  H  H35  1  0.09465000  0.16534000  0.22721000  1.0
  H  H36  1  0.49525000  0.01709000  0.30998000  1.0
  H  H37  1  0.18496000  0.98278000  0.69001000  1.0
  H  H38  1  0.68500000  0.70715000  0.68997000  1.0
  H  H39  1  0.99528000  0.29289000  0.30999000  1.0
  H  H40  1  0.26067000  0.91806000  0.38256000  1.0
  H  H41  1  0.87799000  0.08189000  0.61747000  1.0
  H  H42  1  0.37795000  0.53550000  0.61746000  1.0
  H  H43  1  0.76073000  0.46449000  0.38259000  1.0
  H  H44  1  0.39633000  0.95990000  0.53046000  1.0
  H  H45  1  0.86590000  0.04027000  0.46961000  1.0
  H  H46  1  0.36588000  0.42926000  0.46961000  1.0
  H  H47  1  0.89640000  0.57055000  0.53048000  1.0
  H  H48  1  0.76544000  0.90242000  0.45491000  1.0
  H  H49  1  0.31043000  0.09772000  0.54512000  1.0
  H  H50  1  0.81042000  0.44739000  0.54512000  1.0
  H  H51  1  0.26549000  0.55247000  0.45493000  1.0
  H  H52  1  0.62993000  0.85996000  0.30634000  1.0
  H  H53  1  0.32338000  0.13996000  0.69365000  1.0
  H  H54  1  0.82335000  0.55369000  0.69364000  1.0
  H  H55  1  0.12996000  0.44638000  0.30635000  1.0
  H  H56  1  0.90480000  0.99527000  0.71643000  1.0
  H  H57  1  0.18846000  0.00476000  0.28358000  1.0
  H  H58  1  0.68855000  0.27882000  0.28360000  1.0
  H  H59  1  0.40484000  0.72119000  0.71649000  1.0
  H  H60  1  0.04918000  0.88859000  0.72856000  1.0
  H  H61  1  0.32054000  0.11139000  0.27129000  1.0
  H  H62  1  0.82063000  0.15991000  0.27132000  1.0
  H  H63  1  0.54917000  0.84001000  0.72861000  1.0
  H  H64  1  0.97472000  0.73276000  0.61482000  1.0
  H  H65  1  0.35970000  0.26724000  0.38493000  1.0
  H  H66  1  0.85970000  0.11767000  0.38493000  1.0
  H  H67  1  0.47470000  0.88205000  0.61483000  1.0
  H  H68  1  0.75352000  0.69270000  0.49649000  1.0
  H  H69  1  0.25715000  0.30738000  0.50345000  1.0
  H  H70  1  0.75702000  0.19598000  0.50340000  1.0
  H  H71  1  0.25355000  0.80374000  0.49648000  1.0
  H  H72  1  0.67253000  0.98670000  0.74516000  1.0
  H  H73  1  0.92793000  0.01330000  0.25481000  1.0
  H  H74  1  0.42788000  0.24151000  0.25486000  1.0
  H  H75  1  0.17254000  0.75847000  0.74510000  1.0
  H  H76  1  0.63434000  0.12298000  0.85720000  1.0
  H  H77  1  0.77790000  0.87701000  0.14280000  1.0
  H  H78  1  0.27793000  0.26577000  0.14280000  1.0
  H  H79  1  0.13418000  0.73430000  0.85716000  1.0
  H  H80  1  0.58876000  0.24481000  0.82713000  1.0
  H  H81  1  0.76202000  0.75528000  0.17300000  1.0
  H  H82  1  0.26214000  0.41768000  0.17294000  1.0
  H  H83  1  0.08844000  0.58243000  0.82713000  1.0
  H  H84  1  0.58942000  0.22174000  0.68484000  1.0
  H  H85  1  0.90446000  0.77852000  0.31543000  1.0
  H  H86  1  0.40458000  0.53688000  0.31535000  1.0
  H  H87  1  0.08926000  0.46318000  0.68492000  1.0
  C  C88  1  0.02695000  0.72419000  0.09633000  1.0
  C  C89  1  0.93064000  0.27593000  0.90382000  1.0
  C  C90  1  0.43055000  0.62786000  0.90379000  1.0
  C  C91  1  0.52705000  0.37225000  0.09637000  1.0
  C  C92  1  0.13857000  0.78889000  0.13645000  1.0
  C  C93  1  0.00202000  0.21114000  0.86367000  1.0
  C  C94  1  0.50195000  0.65251000  0.86366000  1.0
  C  C95  1  0.63863000  0.34765000  0.13648000  1.0
  C  C96  1  0.24274000  0.79687000  0.20757000  1.0
  C  C97  1  0.03489000  0.20302000  0.79244000  1.0
  C  C98  1  0.53487000  0.58938000  0.79244000  1.0
  C  C99  1  0.74282000  0.41076000  0.20760000  1.0
  C  C100  1  0.22423000  0.73932000  0.23570000  1.0
  C  C101  1  0.98827000  0.26052000  0.76424000  1.0
  C  C102  1  0.48829000  0.50369000  0.76425000  1.0
  C  C103  1  0.72435000  0.49645000  0.23576000  1.0
  C  C104  1  0.10787000  0.67717000  0.19187000  1.0
  C  C105  1  0.91575000  0.32272000  0.80807000  1.0
  C  C106  1  0.41572000  0.48531000  0.80805000  1.0
  C  C107  1  0.60799000  0.51479000  0.19194000  1.0
  C  C108  1  0.41500000  0.88822000  0.20349000  1.0
  C  C109  1  0.21118000  0.11166000  0.79649000  1.0
  C  C110  1  0.71116000  0.68481000  0.79648000  1.0
  C  C111  1  0.91502000  0.31529000  0.20351000  1.0
  C  C112  1  0.40722000  0.83374000  0.11782000  1.0
  C  C113  1  0.28903000  0.16614000  0.88212000  1.0
  C  C114  1  0.78896000  0.71600000  0.88213000  1.0
  C  C115  1  0.90722000  0.28410000  0.11784000  1.0
  C  C116  1  0.46967000  0.86378000  0.07779000  1.0
  C  C117  1  0.39154000  0.13613000  0.92211000  1.0
  C  C118  1  0.89144000  0.78603000  0.92213000  1.0
  C  C119  1  0.96967000  0.21403000  0.07780000  1.0
  C  C120  1  0.54208000  0.99683000  0.19773000  1.0
  C  C121  1  0.34412000  0.00305000  0.80219000  1.0
  C  C122  1  0.84408000  0.79910000  0.80216000  1.0
  C  C123  1  0.04205000  0.20089000  0.19772000  1.0
  C  C124  1  0.48516000  0.97187000  0.24358000  1.0
  C  C125  1  0.24127000  0.02799000  0.75639000  1.0
  C  C126  1  0.74127000  0.72834000  0.75636000  1.0
  C  C127  1  0.98519000  0.27171000  0.24359000  1.0
  C  C128  1  0.43716000  0.88697000  0.33510000  1.0
  C  C129  1  0.10187000  0.11293000  0.66490000  1.0
  C  C130  1  0.60185000  0.55192000  0.66490000  1.0
  C  C131  1  0.93723000  0.44815000  0.33514000  1.0
  C  C132  1  0.37157000  0.91564000  0.39836000  1.0
  C  C133  1  0.97309000  0.08436000  0.60167000  1.0
  C  C134  1  0.47308000  0.51725000  0.60168000  1.0
  C  C135  1  0.87163000  0.48272000  0.39839000  1.0
  C  C136  1  0.44770000  0.93829000  0.48138000  1.0
  C  C137  1  0.96627000  0.06183000  0.51867000  1.0
  C  C138  1  0.46626000  0.45677000  0.51867000  1.0
  C  C139  1  0.94777000  0.54309000  0.48141000  1.0
  C  C140  1  0.58960000  0.93385000  0.50229000  1.0
  C  C141  1  0.08728000  0.06629000  0.49776000  1.0
  C  C142  1  0.58728000  0.43144000  0.49776000  1.0
  C  C143  1  0.08967000  0.56842000  0.50230000  1.0
  C  C144  1  0.65515000  0.90639000  0.43905000  1.0
  C  C145  1  0.21601000  0.09366000  0.56097000  1.0
  C  C146  1  0.71599000  0.46728000  0.56097000  1.0
  C  C147  1  0.15521000  0.53265000  0.43907000  1.0
  C  C148  1  0.57912000  0.88245000  0.35576000  1.0
  C  C149  1  0.22320000  0.11746000  0.64424000  1.0
  C  C150  1  0.72318000  0.52675000  0.64423000  1.0
  C  C151  1  0.07917000  0.47330000  0.35577000  1.0
  C  C152  1  0.75164000  0.89880000  0.59966000  1.0
  C  C153  1  0.15205000  0.10132000  0.40037000  1.0
  C  C154  1  0.65204000  0.29902000  0.40035000  1.0
  C  C155  1  0.25169000  0.70084000  0.59967000  1.0
  C  C156  1  0.87356000  0.92769000  0.66908000  1.0
  C  C157  1  0.20447000  0.07236000  0.33087000  1.0
  C  C158  1  0.70453000  0.25851000  0.33088000  1.0
  C  C159  1  0.37360000  0.74140000  0.66912000  1.0
  C  C160  1  0.95435000  0.86758000  0.67518000  1.0
  C  C161  1  0.27908000  0.13243000  0.32469000  1.0
  C  C162  1  0.77916000  0.19226000  0.32472000  1.0
  C  C163  1  0.45435000  0.80762000  0.67522000  1.0
  C  C164  1  0.91325000  0.78139000  0.61279000  1.0
  C  C165  1  0.30033000  0.21864000  0.38705000  1.0
  C  C166  1  0.80035000  0.16839000  0.38706000  1.0
  C  C167  1  0.41325000  0.83138000  0.61280000  1.0
  C  C168  1  0.79045000  0.75934000  0.54670000  1.0
  C  C169  1  0.24379000  0.24074000  0.45323000  1.0
  C  C170  1  0.74371000  0.21243000  0.45320000  1.0
  C  C171  1  0.29048000  0.78732000  0.54670000  1.0
  C  C172  1  0.65109000  0.03300000  0.65534000  1.0
  C  C173  1  0.99592000  0.96714000  0.34475000  1.0
  C  C174  1  0.49594000  0.37760000  0.34474000  1.0
  C  C175  1  0.15108000  0.62233000  0.65535000  1.0
  C  C176  1  0.65420000  0.03988000  0.73355000  1.0
  C  C177  1  0.92107000  0.96016000  0.26648000  1.0
  C  C178  1  0.42107000  0.30630000  0.26649000  1.0
  C  C179  1  0.15420000  0.69369000  0.73354000  1.0
  C  C180  1  0.63207000  0.11658000  0.79617000  1.0
  C  C181  1  0.83641000  0.88344000  0.20387000  1.0
  C  C182  1  0.33645000  0.32041000  0.20387000  1.0
  C  C183  1  0.13198000  0.67966000  0.79617000  1.0
  C  C184  1  0.60620000  0.18365000  0.77966000  1.0
  C  C185  1  0.82684000  0.81644000  0.22047000  1.0
  C  C186  1  0.32693000  0.40401000  0.22044000  1.0
  C  C187  1  0.10599000  0.59608000  0.77966000  1.0
  C  C188  1  0.60687000  0.17071000  0.70037000  1.0
  C  C189  1  0.90654000  0.82948000  0.29983000  1.0
  C  C190  1  0.40663000  0.47032000  0.29978000  1.0
  C  C191  1  0.10674000  0.52972000  0.70041000  1.0
  C  C192  1  0.54878000  0.61548000  0.08238000  1.0
  C  C193  1  0.46596000  0.38446000  0.91750000  1.0
  C  C194  1  0.96588000  0.53306000  0.91748000  1.0
  C  C195  1  0.04887000  0.46694000  0.08240000  1.0
  C  C196  1  0.96340000  0.97394000  0.08797000  1.0
  C  C197  1  0.87546000  0.02604000  0.91204000  1.0
  C  C198  1  0.37549000  0.88604000  0.91208000  1.0
  C  C199  1  0.46339000  0.11403000  0.08796000  1.0
  S  S200  1  0.38913000  0.61816000  0.08643000  1.0
  S  S201  1  0.30228000  0.38176000  0.91343000  1.0
  S  S202  1  0.80219000  0.53166000  0.91338000  1.0
  S  S203  1  0.88921000  0.46833000  0.08644000  1.0
  S  S204  1  0.12622000  0.97250000  0.08966000  1.0
  S  S205  1  0.03654000  0.02734000  0.91028000  1.0
  S  S206  1  0.53656000  0.88296000  0.91030000  1.0
  S  S207  1  0.62622000  0.11717000  0.08968000  1.0
  N  N208  1  0.00938000  0.66809000  0.12236000  1.0
  N  N209  1  0.88690000  0.33193000  0.87767000  1.0
  N  N210  1  0.38680000  0.54570000  0.87762000  1.0
  N  N211  1  0.50950000  0.45440000  0.12243000  1.0
  N  N212  1  0.35948000  0.85992000  0.24858000  1.0
  N  N213  1  0.11059000  0.13994000  0.75140000  1.0
  N  N214  1  0.61058000  0.61143000  0.75140000  1.0
  N  N215  1  0.85953000  0.38869000  0.24861000  1.0
  N  N216  1  0.53750000  0.94403000  0.11595000  1.0
  N  N217  1  0.42132000  0.05589000  0.88396000  1.0
  N  N218  1  0.92124000  0.82808000  0.88394000  1.0
  N  N219  1  0.03746000  0.17192000  0.11593000  1.0
  N  N220  1  0.66648000  0.95595000  0.58720000  1.0
  N  N221  1  0.07933000  0.04420000  0.41286000  1.0
  N  N222  1  0.57934000  0.36863000  0.41285000  1.0
  N  N223  1  0.16657000  0.63122000  0.58721000  1.0
  N  N224  1  0.71041000  0.81602000  0.54004000  1.0
  N  N225  1  0.17047000  0.18410000  0.45998000  1.0
  N  N226  1  0.67040000  0.27583000  0.45994000  1.0
  N  N227  1  0.21046000  0.72399000  0.54005000  1.0
  N  N228  1  0.62946000  0.09764000  0.63929000  1.0
  N  N229  1  0.99013000  0.90256000  0.36088000  1.0
  N  N230  1  0.49017000  0.45831000  0.36086000  1.0
  N  N231  1  0.12938000  0.54166000  0.63932000  1.0
  N  N232  1  0.66360000  0.61220000  0.07953000  1.0
  N  N233  1  0.58367000  0.38771000  0.92038000  1.0
  N  N234  1  0.08360000  0.53270000  0.92037000  1.0
  N  N235  1  0.16371000  0.46737000  0.07959000  1.0
  N  N236  1  0.84549000  0.97371000  0.08455000  1.0
  N  N237  1  0.76101000  0.02635000  0.91552000  1.0
  N  N238  1  0.26101000  0.88920000  0.91553000  1.0
  N  N239  1  0.34546000  0.11082000  0.08452000  1.0
