# generated using pymatgen
data_CuH20C28(NO2)2
_symmetry_space_group_name_H-M   'P 1'
_cell_length_a   5.36067000
_cell_length_b   27.72010000
_cell_length_c   27.72052169
_cell_angle_alpha   89.45383456
_cell_angle_beta   84.46612523
_cell_angle_gamma   84.45790000
_symmetry_Int_Tables_number   1
_chemical_formula_structural   CuH20C28(NO2)2
_chemical_formula_sum   'Cu4 H80 C112 N8 O16'
_cell_volume   4080.85876191
_cell_formula_units_Z   4
loop_
 _symmetry_equiv_pos_site_id
 _symmetry_equiv_pos_as_xyz
  1  'x, y, z'
loop_
 _atom_site_type_symbol
 _atom_site_label
 _atom_site_symmetry_multiplicity
 _atom_site_fract_x
 _atom_site_fract_y
 _atom_site_fract_z
 _atom_site_occupancy
  Cu  Cu0  1  0.00000000  0.00000000  0.00000000  1.0
  Cu  Cu1  1  0.50001000  0.00000000  0.50000000  1.0
  Cu  Cu2  1  1.00000000  0.50000000  0.50000000  1.0
  Cu  Cu3  1  1.00000000  0.50000000  1.00000000  1.0
  H  H4  1  0.18262000  0.82307000  0.05803000  1.0
  H  H5  1  0.50515000  0.05801000  0.67698000  1.0
  H  H6  1  0.06327000  0.67700000  0.44184000  1.0
  H  H7  1  0.24159000  0.44195000  0.82298000  1.0
  H  H8  1  0.81739000  0.17693000  0.94197000  1.0
  H  H9  1  0.49485000  0.94200000  0.32302000  1.0
  H  H10  1  0.93674000  0.32300000  0.55816000  1.0
  H  H11  1  0.75841000  0.55805000  0.17702000  1.0
  H  H12  1  0.44607000  0.53793000  0.03911000  1.0
  H  H13  1  0.48421000  0.03911000  0.96207000  1.0
  H  H14  1  0.02268000  0.96206000  0.46099000  1.0
  H  H15  1  0.48534000  0.46094000  0.53790000  1.0
  H  H16  1  0.55392000  0.46207000  0.96089000  1.0
  H  H17  1  0.51580000  0.96089000  0.03793000  1.0
  H  H18  1  0.97732000  0.03794000  0.53901000  1.0
  H  H19  1  0.51466000  0.53906000  0.46210000  1.0
  H  H20  1  0.64420000  0.61326000  0.03642000  1.0
  H  H21  1  0.75659000  0.03657000  0.88662000  1.0
  H  H22  1  0.29283000  0.88665000  0.46354000  1.0
  H  H23  1  0.68022000  0.46346000  0.61331000  1.0
  H  H24  1  0.35580000  0.38674000  0.96358000  1.0
  H  H25  1  0.24341000  0.96343000  0.11338000  1.0
  H  H26  1  0.70717000  0.11335000  0.53646000  1.0
  H  H27  1  0.31978000  0.53654000  0.38669000  1.0
  H  H28  1  0.48010000  0.79331000  0.96077000  1.0
  H  H29  1  0.77303000  0.96071000  0.70673000  1.0
  H  H30  1  0.23479000  0.70676000  0.53934000  1.0
  H  H31  1  0.44124000  0.53904000  0.79327000  1.0
  H  H32  1  0.51990000  0.20669000  0.03923000  1.0
  H  H33  1  0.22698000  0.03929000  0.29326000  1.0
  H  H34  1  0.76521000  0.29324000  0.46066000  1.0
  H  H35  1  0.55876000  0.46096000  0.20673000  1.0
  H  H36  1  0.94540000  0.58748000  0.94040000  1.0
  H  H37  1  0.03285000  0.94037000  0.91266000  1.0
  H  H38  1  0.47280000  0.91251000  0.55965000  1.0
  H  H39  1  0.88609000  0.55963000  0.58741000  1.0
  H  H40  1  0.05458000  0.41252000  0.05961000  1.0
  H  H41  1  0.96715000  0.05963000  0.08734000  1.0
  H  H42  1  0.52719000  0.08749000  0.44035000  1.0
  H  H43  1  0.11391000  0.44037000  0.41259000  1.0
  H  H44  1  0.62122000  0.87533000  0.96498000  1.0
  H  H45  1  0.99635000  0.96488000  0.62472000  1.0
  H  H46  1  0.46209000  0.62476000  0.53516000  1.0
  H  H47  1  0.58690000  0.53486000  0.87528000  1.0
  H  H48  1  0.37877000  0.12467000  0.03503000  1.0
  H  H49  1  0.00365000  0.03513000  0.37528000  1.0
  H  H50  1  0.53790000  0.37524000  0.46484000  1.0
  H  H51  1  0.41310000  0.46514000  0.12472000  1.0
  H  H52  1  0.04267000  0.73962000  0.05466000  1.0
  H  H53  1  0.28153000  0.05469000  0.76040000  1.0
  H  H54  1  0.83654000  0.76042000  0.44523000  1.0
  H  H55  1  0.09790000  0.44529000  0.73956000  1.0
  H  H56  1  0.95734000  0.26038000  0.94534000  1.0
  H  H57  1  0.71846000  0.94531000  0.23960000  1.0
  H  H58  1  0.16347000  0.23958000  0.55477000  1.0
  H  H59  1  0.90211000  0.55471000  0.26043000  1.0
  H  H60  1  0.12205000  0.66765000  0.93367000  1.0
  H  H61  1  0.28929000  0.93363000  0.83245000  1.0
  H  H62  1  0.72266000  0.83229000  0.56632000  1.0
  H  H63  1  0.05580000  0.56626000  0.66763000  1.0
  H  H64  1  0.87795000  0.33235000  0.06633000  1.0
  H  H65  1  0.71071000  0.06637000  0.16755000  1.0
  H  H66  1  0.27733000  0.16771000  0.43368000  1.0
  H  H67  1  0.94421000  0.43374000  0.33237000  1.0
  H  H68  1  0.39731000  0.72187000  0.95768000  1.0
  H  H69  1  0.61831000  0.95773000  0.77814000  1.0
  H  H70  1  0.07663000  0.77802000  0.54221000  1.0
  H  H71  1  0.35529000  0.54221000  0.72187000  1.0
  H  H72  1  0.60268000  0.27813000  0.04232000  1.0
  H  H73  1  0.38169000  0.04227000  0.22185000  1.0
  H  H74  1  0.92337000  0.22198000  0.45779000  1.0
  H  H75  1  0.64471000  0.45779000  0.27813000  1.0
  H  H76  1  0.76598000  0.68581000  0.03178000  1.0
  H  H77  1  0.95089000  0.03185000  0.81417000  1.0
  H  H78  1  0.48320000  0.81426000  0.46821000  1.0
  H  H79  1  0.79758000  0.46806000  0.68578000  1.0
  H  H80  1  0.23402000  0.31419000  0.96822000  1.0
  H  H81  1  0.04911000  0.96815000  0.18583000  1.0
  H  H82  1  0.51680000  0.18574000  0.53179000  1.0
  H  H83  1  0.20241000  0.53194000  0.31422000  1.0
  C  C84  1  0.02986000  0.81564000  0.03682000  1.0
  C  C85  1  0.34502000  0.03679000  0.68441000  1.0
  C  C86  1  0.88213000  0.68443000  0.46313000  1.0
  C  C87  1  0.06750000  0.46312000  0.81556000  1.0
  C  C88  1  0.97015000  0.18436000  0.96318000  1.0
  C  C89  1  0.65498000  0.96321000  0.31559000  1.0
  C  C90  1  0.11787000  0.31557000  0.53687000  1.0
  C  C91  1  0.93251000  0.53688000  0.18443000  1.0
  C  C92  1  0.37989000  0.56725000  0.01576000  1.0
  C  C93  1  0.44709000  0.01578000  0.93275000  1.0
  C  C94  1  0.96236000  0.93270000  0.48429000  1.0
  C  C95  1  0.39576000  0.48426000  0.56724000  1.0
  C  C96  1  0.62010000  0.43275000  0.98424000  1.0
  C  C97  1  0.55291000  0.98422000  0.06725000  1.0
  C  C98  1  0.03763000  0.06730000  0.51571000  1.0
  C  C99  1  0.60424000  0.51575000  0.43276000  1.0
  C  C100  1  0.39962000  0.64878000  0.98462000  1.0
  C  C101  1  0.54763000  0.98469000  0.85121000  1.0
  C  C102  1  0.03210000  0.85113000  0.51535000  1.0
  C  C103  1  0.38408000  0.51529000  0.64879000  1.0
  C  C104  1  0.60037000  0.35122000  0.01538000  1.0
  C  C105  1  0.45237000  0.01531000  0.14879000  1.0
  C  C106  1  0.96788000  0.14886000  0.48466000  1.0
  C  C107  1  0.61592000  0.48471000  0.35121000  1.0
  C  C108  1  0.49018000  0.61050000  0.01402000  1.0
  C  C109  1  0.60003000  0.01412000  0.88945000  1.0
  C  C110  1  0.11379000  0.88941000  0.48596000  1.0
  C  C111  1  0.50399000  0.48589000  0.61053000  1.0
  C  C112  1  0.50981000  0.38950000  0.98598000  1.0
  C  C113  1  0.39997000  0.98588000  0.11055000  1.0
  C  C114  1  0.88621000  0.11059000  0.51404000  1.0
  C  C115  1  0.49602000  0.51411000  0.38947000  1.0
  C  C116  1  0.63738000  0.79896000  0.98152000  1.0
  C  C117  1  0.93586000  0.98148000  0.70107000  1.0
  C  C118  1  0.41830000  0.70109000  0.51855000  1.0
  C  C119  1  0.61926000  0.51830000  0.79893000  1.0
  C  C120  1  0.36262000  0.20104000  0.01848000  1.0
  C  C121  1  0.06413000  0.01852000  0.29893000  1.0
  C  C122  1  0.58170000  0.29891000  0.48145000  1.0
  C  C123  1  0.38074000  0.48170000  0.20107000  1.0
  C  C124  1  0.10038000  0.59540000  0.96075000  1.0
  C  C125  1  0.19566000  0.96073000  0.90468000  1.0
  C  C126  1  0.65591000  0.90456000  0.53928000  1.0
  C  C127  1  0.06130000  0.53927000  0.59536000  1.0
  C  C128  1  0.89961000  0.40460000  0.03925000  1.0
  C  C129  1  0.80434000  0.03927000  0.09532000  1.0
  C  C130  1  0.34409000  0.09543000  0.46071000  1.0
  C  C131  1  0.93869000  0.46073000  0.40464000  1.0
  C  C132  1  0.91202000  0.85394000  0.01146000  1.0
  C  C133  1  0.26553000  0.01142000  0.64611000  1.0
  C  C134  1  0.77758000  0.64612000  0.48855000  1.0
  C  C135  1  0.92425000  0.48845000  0.85388000  1.0
  C  C136  1  0.08799000  0.14606000  0.98854000  1.0
  C  C137  1  0.73446000  0.98858000  0.35390000  1.0
  C  C138  1  0.22242000  0.35387000  0.51145000  1.0
  C  C139  1  0.07575000  0.51155000  0.14612000  1.0
  C  C140  1  0.99400000  0.90389000  0.01509000  1.0
  C  C141  1  0.39716000  0.01512000  0.59614000  1.0
  C  C142  1  0.91276000  0.59614000  0.48487000  1.0
  C  C143  1  0.00957000  0.48484000  0.90387000  1.0
  C  C144  1  0.00601000  0.09611000  0.98491000  1.0
  C  C145  1  0.60286000  0.98488000  0.40386000  1.0
  C  C146  1  0.08724000  0.40386000  0.51513000  1.0
  C  C147  1  0.99044000  0.51516000  0.09613000  1.0
  C  C148  1  0.71518000  0.84511000  0.98374000  1.0
  C  C149  1  0.05995000  0.98367000  0.65493000  1.0
  C  C150  1  0.54451000  0.65495000  0.51635000  1.0
  C  C151  1  0.69953000  0.51611000  0.84507000  1.0
  C  C152  1  0.28482000  0.15489000  0.01626000  1.0
  C  C153  1  0.94004000  0.01633000  0.34507000  1.0
  C  C154  1  0.45548000  0.34505000  0.48365000  1.0
  C  C155  1  0.30047000  0.48389000  0.15493000  1.0
  C  C156  1  0.75312000  0.76008000  0.00720000  1.0
  C  C157  1  0.01246000  0.00723000  0.73994000  1.0
  C  C158  1  0.52038000  0.73998000  0.49281000  1.0
  C  C159  1  0.76060000  0.49264000  0.76004000  1.0
  C  C160  1  0.24689000  0.23992000  0.99280000  1.0
  C  C161  1  0.98754000  0.99277000  0.26006000  1.0
  C  C162  1  0.47962000  0.26002000  0.50719000  1.0
  C  C163  1  0.23940000  0.50736000  0.23996000  1.0
  C  C164  1  0.95109000  0.76939000  0.03476000  1.0
  C  C165  1  0.21988000  0.03476000  0.73064000  1.0
  C  C166  1  0.75506000  0.73066000  0.46519000  1.0
  C  C167  1  0.98643000  0.46516000  0.76934000  1.0
  C  C168  1  0.04891000  0.23061000  0.96524000  1.0
  C  C169  1  0.78011000  0.96524000  0.26936000  1.0
  C  C170  1  0.24494000  0.26934000  0.53481000  1.0
  C  C171  1  0.01357000  0.53484000  0.23066000  1.0
  C  C172  1  0.20141000  0.63959000  0.95715000  1.0
  C  C173  1  0.34059000  0.95714000  0.86046000  1.0
  C  C174  1  0.79741000  0.86034000  0.54285000  1.0
  C  C175  1  0.15854000  0.54280000  0.63959000  1.0
  C  C176  1  0.79858000  0.36041000  0.04285000  1.0
  C  C177  1  0.65941000  0.04286000  0.13954000  1.0
  C  C178  1  0.20259000  0.13966000  0.45715000  1.0
  C  C179  1  0.84146000  0.45720000  0.36042000  1.0
  C  C180  1  0.49136000  0.69639000  0.98199000  1.0
  C  C181  1  0.68688000  0.98205000  0.80360000  1.0
  C  C182  1  0.16921000  0.80355000  0.51792000  1.0
  C  C183  1  0.47339000  0.51788000  0.69639000  1.0
  C  C184  1  0.50862000  0.30361000  0.01802000  1.0
  C  C185  1  0.31311000  0.01795000  0.19640000  1.0
  C  C186  1  0.83079000  0.19645000  0.48208000  1.0
  C  C187  1  0.52661000  0.48212000  0.30361000  1.0
  C  C188  1  0.67197000  0.71151000  0.00762000  1.0
  C  C189  1  0.88258000  0.00769000  0.78848000  1.0
  C  C190  1  0.39080000  0.78852000  0.49233000  1.0
  C  C191  1  0.67958000  0.49222000  0.71150000  1.0
  C  C192  1  0.32802000  0.28849000  0.99238000  1.0
  C  C193  1  0.11741000  0.99231000  0.21152000  1.0
  C  C194  1  0.60920000  0.21148000  0.50767000  1.0
  C  C195  1  0.32042000  0.50779000  0.28850000  1.0
  N  N196  1  0.18564000  0.55965000  0.99006000  1.0
  N  N197  1  0.24543000  0.99003000  0.94041000  1.0
  N  N198  1  0.73491000  0.94033000  0.51001000  1.0
  N  N199  1  0.17595000  0.50999000  0.55960000  1.0
  N  N200  1  0.81436000  0.44035000  0.00994000  1.0
  N  N201  1  0.75458000  0.00997000  0.05959000  1.0
  N  N202  1  0.26509000  0.05967000  0.48999000  1.0
  N  N203  1  0.82405000  0.49001000  0.44040000  1.0
  O  O204  1  0.87806000  0.93663000  0.98889000  1.0
  O  O205  1  0.31446000  0.98888000  0.56339000  1.0
  O  O206  1  0.80367000  0.56341000  0.51112000  1.0
  O  O207  1  0.86747000  0.51107000  0.93656000  1.0
  O  O208  1  0.12194000  0.06337000  0.01111000  1.0
  O  O209  1  0.68558000  0.01112000  0.43661000  1.0
  O  O210  1  0.19633000  0.43659000  0.48888000  1.0
  O  O211  1  0.13253000  0.48893000  0.06344000  1.0
  O  O212  1  0.15989000  0.91235000  0.04173000  1.0
  O  O213  1  0.57111000  0.04187000  0.58769000  1.0
  O  O214  1  0.11332000  0.58767000  0.45813000  1.0
  O  O215  1  0.20183000  0.45815000  0.91239000  1.0
  O  O216  1  0.84013000  0.08764000  0.95826000  1.0
  O  O217  1  0.42890000  0.95814000  0.41231000  1.0
  O  O218  1  0.88668000  0.41233000  0.54187000  1.0
  O  O219  1  0.79817000  0.54185000  0.08761000  1.0
