# generated using pymatgen
data_SrH12C7O5
_symmetry_space_group_name_H-M   'P 1'
_cell_length_a   4.80191000
_cell_length_b   7.61564000
_cell_length_c   13.08946994
_cell_angle_alpha   104.96537327
_cell_angle_beta   97.57994763
_cell_angle_gamma   100.18800000
_symmetry_Int_Tables_number   1
_chemical_formula_structural   SrH12C7O5
_chemical_formula_sum   'Sr2 H24 C14 O10'
_cell_volume   447.14115696
_cell_formula_units_Z   2
loop_
 _symmetry_equiv_pos_site_id
 _symmetry_equiv_pos_as_xyz
  1  'x, y, z'
loop_
 _atom_site_type_symbol
 _atom_site_label
 _atom_site_symmetry_multiplicity
 _atom_site_fract_x
 _atom_site_fract_y
 _atom_site_fract_z
 _atom_site_occupancy
  Sr  Sr0  1  0.76796000  0.26796000  0.53598000  1.0
  Sr  Sr1  1  0.23203000  0.73203000  0.46402000  1.0
  H  H2  1  0.67927000  0.25790000  0.80216000  1.0
  H  H3  1  0.12290000  0.54528000  0.80229000  1.0
  H  H4  1  0.32072000  0.74211000  0.19784000  1.0
  H  H5  1  0.87712000  0.45472000  0.19772000  1.0
  H  H6  1  0.56962000  0.02447000  0.79405000  1.0
  H  H7  1  0.22583000  0.77041000  0.79399000  1.0
  H  H8  1  0.43036000  0.97554000  0.20595000  1.0
  H  H9  1  0.77418000  0.22959000  0.20601000  1.0
  H  H10  1  0.25719000  0.32653000  0.89569000  1.0
  H  H11  1  0.63871000  0.56928000  0.89569000  1.0
  H  H12  1  0.74280000  0.67347000  0.10431000  1.0
  H  H13  1  0.36132000  0.43072000  0.10431000  1.0
  H  H14  1  0.16874000  0.09233000  0.89433000  1.0
  H  H15  1  0.72610000  0.80221000  0.89445000  1.0
  H  H16  1  0.83127000  0.90768000  0.10568000  1.0
  H  H17  1  0.27392000  0.19780000  0.10555000  1.0
  H  H18  1  0.75435000  0.35994000  0.00005000  1.0
  H  H19  1  0.24567000  0.64006000  0.99995000  1.0
  H  H20  1  0.66561000  0.12653000  1.00000000  1.0
  H  H21  1  0.33440000  0.87348000  1.00000000  1.0
  H  H22  1  0.20943000  0.29716000  0.38269000  1.0
  H  H23  1  0.17286000  0.08556000  0.38270000  1.0
  H  H24  1  0.79057000  0.70284000  0.61731000  1.0
  H  H25  1  0.82715000  0.91443000  0.61730000  1.0
  C  C26  1  0.29799000  0.12048000  0.68908000  1.0
  C  C27  1  0.39115000  0.56862000  0.68908000  1.0
  C  C28  1  0.70196000  0.87952000  0.31092000  1.0
  C  C29  1  0.60887000  0.43139000  0.31093000  1.0
  C  C30  1  0.48642000  0.15123000  0.79759000  1.0
  C  C31  1  0.31159000  0.64684000  0.79755000  1.0
  C  C32  1  0.51356000  0.84877000  0.20241000  1.0
  C  C33  1  0.68842000  0.35316000  0.20245000  1.0
  C  C34  1  0.35083000  0.20508000  0.89666000  1.0
  C  C35  1  0.54610000  0.69175000  0.89663000  1.0
  C  C36  1  0.64918000  0.79493000  0.10335000  1.0
  C  C37  1  0.45392000  0.30826000  0.10338000  1.0
  C  C38  1  0.57191000  0.24881000  0.00002000  1.0
  C  C39  1  0.42811000  0.75120000  0.99999000  1.0
  O  O40  1  0.05253000  0.16195000  0.68414000  1.0
  O  O41  1  0.63153000  0.52209000  0.68405000  1.0
  O  O42  1  0.94744000  0.83805000  0.31587000  1.0
  O  O43  1  0.36848000  0.47790000  0.31595000  1.0
  O  O44  1  0.39932000  0.05162000  0.60542000  1.0
  O  O45  1  0.20595000  0.55377000  0.60548000  1.0
  O  O46  1  0.60064000  0.94839000  0.39457000  1.0
  O  O47  1  0.79406000  0.44622000  0.39452000  1.0
  O  O48  1  0.21475000  0.21495000  0.42984000  1.0
  O  O49  1  0.78524000  0.78505000  0.57016000  1.0
