# generated using pymatgen
data_Zn3H50C48(N9O10)2
_symmetry_space_group_name_H-M   'P 1'
_cell_length_a   12.60300000
_cell_length_b   12.92450000
_cell_length_c   13.00590000
_cell_angle_alpha   78.71140000
_cell_angle_beta   61.96290000
_cell_angle_gamma   62.49310000
_symmetry_Int_Tables_number   1
_chemical_formula_structural   Zn3H50C48(N9O10)2
_chemical_formula_sum   'Zn3 H50 C48 N18 O20'
_cell_volume   1657.88214009
_cell_formula_units_Z   1
loop_
 _symmetry_equiv_pos_site_id
 _symmetry_equiv_pos_as_xyz
  1  'x, y, z'
loop_
 _atom_site_type_symbol
 _atom_site_label
 _atom_site_symmetry_multiplicity
 _atom_site_fract_x
 _atom_site_fract_y
 _atom_site_fract_z
 _atom_site_occupancy
  Zn  Zn0  1  0.34823000  0.59786000  0.86182000  1.0
  Zn  Zn1  1  0.65181000  0.40213000  0.13817000  1.0
  Zn  Zn2  1  0.99996000  0.00003000  0.00003000  1.0
  H  H3  1  0.91032000  0.12681000  0.16243000  1.0
  H  H4  1  0.02171000  0.43734000  0.81971000  1.0
  H  H5  1  0.18170000  0.39474000  0.06188000  1.0
  H  H6  1  0.31908000  0.27716000  0.88622000  1.0
  H  H7  1  0.27844000  0.32468000  0.76621000  1.0
  H  H8  1  0.04200000  0.22422000  0.03036000  1.0
  H  H9  1  0.38128000  0.41656000  0.07950000  1.0
  H  H10  1  0.65985000  0.13604000  0.04163000  1.0
  H  H11  1  0.48870000  0.21112000  0.13916000  1.0
  H  H12  1  0.73339000  0.97612000  0.91384000  1.0
  H  H13  1  0.31695000  0.16876000  0.13456000  1.0
  H  H14  1  0.09923000  0.82977000  0.22473000  1.0
  H  H15  1  0.97919000  0.80140000  0.21766000  1.0
  H  H16  1  0.22494000  0.61795000  0.25073000  1.0
  H  H17  1  0.11536000  0.58287000  0.22997000  1.0
  H  H18  1  0.06075000  0.79462000  0.62412000  1.0
  H  H19  1  0.95916000  0.73604000  0.74269000  1.0
  H  H20  1  0.15212000  0.53302000  0.67774000  1.0
  H  H21  1  0.25282000  0.59933000  0.57332000  1.0
  H  H22  1  0.74933000  0.56602000  0.54163000  1.0
  H  H23  1  0.72063000  0.58952000  0.68498000  1.0
  H  H24  1  0.60906000  0.80982000  0.65410000  1.0
  H  H25  1  0.61045000  0.77445000  0.52863000  1.0
  H  H26  1  0.59808000  0.35894000  0.71576000  1.0
  H  H27  1  0.71873000  0.03577000  0.23804000  1.0
  H  H28  1  0.08965000  0.87325000  0.83762000  1.0
  H  H29  1  0.97824000  0.56273000  0.18025000  1.0
  H  H30  1  0.81827000  0.60534000  0.93808000  1.0
  H  H31  1  0.68088000  0.72292000  0.11373000  1.0
  H  H32  1  0.72147000  0.67535000  0.23377000  1.0
  H  H33  1  0.95789000  0.77590000  0.96966000  1.0
  H  H34  1  0.61868000  0.58340000  0.92051000  1.0
  H  H35  1  0.34014000  0.86394000  0.95839000  1.0
  H  H36  1  0.51129000  0.78885000  0.86087000  1.0
  H  H37  1  0.26660000  0.02385000  0.08619000  1.0
  H  H38  1  0.68304000  0.83121000  0.86547000  1.0
  H  H39  1  0.90075000  0.17024000  0.77527000  1.0
  H  H40  1  0.02082000  0.19858000  0.78233000  1.0
  H  H41  1  0.77510000  0.38206000  0.74922000  1.0
  H  H42  1  0.88470000  0.41712000  0.76998000  1.0
  H  H43  1  0.93929000  0.20538000  0.37579000  1.0
  H  H44  1  0.04084000  0.26401000  0.25726000  1.0
  H  H45  1  0.84785000  0.46701000  0.32229000  1.0
  H  H46  1  0.74720000  0.40066000  0.42670000  1.0
  H  H47  1  0.25073000  0.43396000  0.45829000  1.0
  H  H48  1  0.27945000  0.41039000  0.31496000  1.0
  H  H49  1  0.39105000  0.19012000  0.34587000  1.0
  H  H50  1  0.38957000  0.22552000  0.47138000  1.0
  H  H51  1  0.40197000  0.64102000  0.28426000  1.0
  H  H52  1  0.28122000  0.96420000  0.76211000  1.0
  C  C53  1  0.01191000  0.46457000  0.89913000  1.0
  C  C54  1  0.11595000  0.40488000  0.93217000  1.0
  C  C55  1  0.10272000  0.44110000  0.03380000  1.0
  C  C56  1  0.24010000  0.30329000  0.85880000  1.0
  C  C57  1  0.24362000  0.04183000  0.81238000  1.0
  C  C58  1  0.11994000  0.17312000  0.95068000  1.0
  C  C59  1  0.56218000  0.34534000  0.80877000  1.0
  C  C60  1  0.45029000  0.37749000  0.99299000  1.0
  C  C61  1  0.55773000  0.17084000  0.05208000  1.0
  C  C62  1  0.52851000  0.07997000  0.02831000  1.0
  C  C63  1  0.63149000  0.98534000  0.95244000  1.0
  C  C64  1  0.39697000  0.09460000  0.07550000  1.0
  C  C65  1  0.16625000  0.74402000  0.06690000  1.0
  C  C66  1  0.08505000  0.76337000  0.19793000  1.0
  C  C67  1  0.12296000  0.64993000  0.26235000  1.0
  C  C68  1  0.07732000  0.69016000  0.45957000  1.0
  C  C69  1  0.92524000  0.64306000  0.43050000  1.0
  C  C70  1  0.88815000  0.66923000  0.62942000  1.0
  C  C71  1  0.04227000  0.71675000  0.65575000  1.0
  C  C72  1  0.16620000  0.61377000  0.65830000  1.0
  C  C73  1  0.19965000  0.63145000  0.74930000  1.0
  C  C74  1  0.73322000  0.62802000  0.59981000  1.0
  C  C75  1  0.61046000  0.74182000  0.61311000  1.0
  C  C76  1  0.48149000  0.72875000  0.69213000  1.0
  C  C77  1  0.98803000  0.53550000  0.10084000  1.0
  C  C78  1  0.88399000  0.59518000  0.06781000  1.0
  C  C79  1  0.89723000  0.55896000  0.96618000  1.0
  C  C80  1  0.75984000  0.69676000  0.14119000  1.0
  C  C81  1  0.75633000  0.95816000  0.18773000  1.0
  C  C82  1  0.87997000  0.82695000  0.04936000  1.0
  C  C83  1  0.43784000  0.65463000  0.19125000  1.0
  C  C84  1  0.54969000  0.62248000  0.00702000  1.0
  C  C85  1  0.44226000  0.82913000  0.94795000  1.0
  C  C86  1  0.47148000  0.92000000  0.97171000  1.0
  C  C87  1  0.36850000  0.01463000  0.04759000  1.0
  C  C88  1  0.60302000  0.90537000  0.92453000  1.0
  C  C89  1  0.83375000  0.25600000  0.93309000  1.0
  C  C90  1  0.91495000  0.23663000  0.80205000  1.0
  C  C91  1  0.87709000  0.35006000  0.73761000  1.0
  C  C92  1  0.92273000  0.30980000  0.54039000  1.0
  C  C93  1  0.07483000  0.35689000  0.56946000  1.0
  C  C94  1  0.11189000  0.33075000  0.37054000  1.0
  C  C95  1  0.95774000  0.28327000  0.34420000  1.0
  C  C96  1  0.83379000  0.38626000  0.34170000  1.0
  C  C97  1  0.80031000  0.36861000  0.25072000  1.0
  C  C98  1  0.26684000  0.37192000  0.40014000  1.0
  C  C99  1  0.38961000  0.25814000  0.38688000  1.0
  C  C100  1  0.51858000  0.27121000  0.30790000  1.0
  N  N101  1  0.03773000  0.66272000  0.38881000  1.0
  N  N102  1  0.85470000  0.64597000  0.55114000  1.0
  N  N103  1  0.99935000  0.69222000  0.57918000  1.0
  N  N104  1  0.46213000  0.43061000  0.89154000  1.0
  N  N105  1  0.61271000  0.24329000  0.85359000  1.0
  N  N106  1  0.54010000  0.26575000  0.97045000  1.0
  N  N107  1  0.13588000  0.07249000  0.91884000  1.0
  N  N108  1  0.29524000  0.11883000  0.77721000  1.0
  N  N109  1  0.21494000  0.20146000  0.86532000  1.0
  N  N110  1  0.96233000  0.33724000  0.61115000  1.0
  N  N111  1  0.14536000  0.35398000  0.44882000  1.0
  N  N112  1  0.00068000  0.30775000  0.42078000  1.0
  N  N113  1  0.53786000  0.56936000  0.10848000  1.0
  N  N114  1  0.38731000  0.75668000  0.14644000  1.0
  N  N115  1  0.45990000  0.73422000  0.02958000  1.0
  N  N116  1  0.86404000  0.92755000  0.08125000  1.0
  N  N117  1  0.70473000  0.88115000  0.22287000  1.0
  N  N118  1  0.78500000  0.79857000  0.13472000  1.0
  O  O119  1  0.31027000  0.55411000  0.74935000  1.0
  O  O120  1  0.12130000  0.71690000  0.82029000  1.0
  O  O121  1  0.49048000  0.64998000  0.77063000  1.0
  O  O122  1  0.37851000  0.79380000  0.67994000  1.0
  O  O123  1  0.16057000  0.82784000  0.99804000  1.0
  O  O124  1  0.24255000  0.63723000  0.03036000  1.0
  O  O125  1  0.17571000  0.70973000  0.41936000  1.0
  O  O126  1  0.89086000  0.62218000  0.36554000  1.0
  O  O127  1  0.82213000  0.66964000  0.73559000  1.0
  O  O128  1  0.96612000  0.04199000  0.14886000  1.0
  O  O129  1  0.68968000  0.44596000  0.25067000  1.0
  O  O130  1  0.87864000  0.28317000  0.17972000  1.0
  O  O131  1  0.50962000  0.34995000  0.22935000  1.0
  O  O132  1  0.62153000  0.20622000  0.32014000  1.0
  O  O133  1  0.83939000  0.17219000  0.00196000  1.0
  O  O134  1  0.75749000  0.36280000  0.96961000  1.0
  O  O135  1  0.82436000  0.29021000  0.58061000  1.0
  O  O136  1  0.10922000  0.37777000  0.63441000  1.0
  O  O137  1  0.17788000  0.33036000  0.26437000  1.0
  O  O138  1  0.03382000  0.95806000  0.85120000  1.0
