# generated using pymatgen
data_CoH14C20NO7
_symmetry_space_group_name_H-M   'P 1'
_cell_length_a   6.95573000
_cell_length_b   9.51190000
_cell_length_c   13.08890000
_cell_angle_alpha   92.95030000
_cell_angle_beta   101.17500000
_cell_angle_gamma   94.99840000
_symmetry_Int_Tables_number   1
_chemical_formula_structural   CoH14C20NO7
_chemical_formula_sum   'Co2 H28 C40 N2 O14'
_cell_volume   844.26769778
_cell_formula_units_Z   2
loop_
 _symmetry_equiv_pos_site_id
 _symmetry_equiv_pos_as_xyz
  1  'x, y, z'
loop_
 _atom_site_type_symbol
 _atom_site_label
 _atom_site_symmetry_multiplicity
 _atom_site_fract_x
 _atom_site_fract_y
 _atom_site_fract_z
 _atom_site_occupancy
  Co  Co0  1  0.68402000  0.96701000  0.60777000  1.0
  Co  Co1  1  0.31599000  0.03299000  0.39224000  1.0
  H  H2  1  0.69314000  0.51644000  0.95721000  1.0
  H  H3  1  0.30685000  0.48357000  0.04280000  1.0
  H  H4  1  0.65989000  0.56962000  0.14024000  1.0
  H  H5  1  0.34010000  0.43038000  0.85976000  1.0
  H  H6  1  0.94675000  0.19862000  0.23147000  1.0
  H  H7  1  0.05325000  0.80138000  0.76853000  1.0
  H  H8  1  0.97565000  0.14548000  0.04768000  1.0
  H  H9  1  0.02436000  0.85453000  0.95231000  1.0
  H  H10  1  0.82842000  0.65168000  0.30235000  1.0
  H  H11  1  0.17159000  0.34832000  0.69765000  1.0
  H  H12  1  0.71229000  0.50851000  0.59198000  1.0
  H  H13  1  0.28772000  0.49148000  0.40802000  1.0
  H  H14  1  0.74929000  0.20423000  0.34425000  1.0
  H  H15  1  0.25071000  0.79577000  0.65576000  1.0
  H  H16  1  0.40248000  0.12868000  0.70714000  1.0
  H  H17  1  0.59752000  0.87132000  0.29286000  1.0
  H  H18  1  0.33603000  0.15822000  0.88526000  1.0
  H  H19  1  0.66396000  0.84177000  0.11474000  1.0
  H  H20  1  0.68248000  0.80811000  0.96528000  1.0
  H  H21  1  0.31751000  0.19187000  0.03472000  1.0
  H  H22  1  0.72484000  0.78957000  0.78273000  1.0
  H  H23  1  0.27516000  0.21042000  0.21728000  1.0
  H  H24  1  0.75912000  0.33673000  0.73923000  1.0
  H  H25  1  0.24087000  0.66328000  0.26076000  1.0
  H  H26  1  0.96290000  0.09971000  0.74341000  1.0
  H  H27  1  0.03711000  0.90031000  0.25659000  1.0
  H  H28  1  0.04330000  0.07941000  0.63730000  1.0
  H  H29  1  0.95670000  0.92060000  0.36270000  1.0
  C  C30  1  0.86143000  0.29515000  0.88251000  1.0
  C  C31  1  0.13856000  0.70487000  0.11749000  1.0
  C  C32  1  0.84082000  0.32919000  0.99137000  1.0
  C  C33  1  0.15917000  0.67081000  0.00863000  1.0
  C  C34  1  0.75024000  0.44829000  0.01791000  1.0
  C  C35  1  0.24975000  0.55172000  0.98210000  1.0
  C  C36  1  0.73388000  0.47850000  0.12064000  1.0
  C  C37  1  0.26611000  0.52151000  0.87937000  1.0
  C  C38  1  0.80676000  0.39081000  0.19956000  1.0
  C  C39  1  0.19323000  0.60919000  0.80045000  1.0
  C  C40  1  0.89277000  0.26965000  0.17190000  1.0
  C  C41  1  0.10723000  0.73035000  0.82809000  1.0
  C  C42  1  0.90984000  0.23966000  0.06919000  1.0
  C  C43  1  0.09016000  0.76035000  0.93081000  1.0
  C  C44  1  0.78833000  0.42377000  0.30839000  1.0
  C  C45  1  0.21167000  0.57623000  0.69161000  1.0
  C  C46  1  0.79800000  0.56413000  0.34931000  1.0
  C  C47  1  0.20201000  0.43587000  0.65069000  1.0
  C  C48  1  0.77282000  0.59479000  0.45127000  1.0
  C  C49  1  0.22720000  0.40520000  0.54873000  1.0
  C  C50  1  0.73638000  0.48452000  0.51355000  1.0
  C  C51  1  0.26364000  0.51548000  0.48646000  1.0
  C  C52  1  0.72856000  0.34438000  0.47409000  1.0
  C  C53  1  0.27145000  0.65563000  0.52592000  1.0
  C  C54  1  0.75663000  0.31442000  0.37275000  1.0
  C  C55  1  0.24337000  0.68558000  0.62725000  1.0
  C  C56  1  0.77836000  0.74509000  0.49205000  1.0
  C  C57  1  0.22166000  0.25491000  0.50794000  1.0
  C  C58  1  0.68679000  0.22695000  0.53896000  1.0
  C  C59  1  0.31322000  0.77305000  0.46104000  1.0
  C  C60  1  0.46284000  0.06117000  0.76757000  1.0
  C  C61  1  0.53716000  0.93881000  0.23242000  1.0
  C  C62  1  0.42895000  0.07734000  0.86830000  1.0
  C  C63  1  0.57105000  0.92265000  0.13170000  1.0
  C  C64  1  0.51192000  0.99042000  0.94535000  1.0
  C  C65  1  0.48808000  0.00957000  0.05465000  1.0
  C  C66  1  0.61750000  0.88315000  0.91212000  1.0
  C  C67  1  0.38249000  0.11683000  0.08788000  1.0
  C  C68  1  0.64354000  0.87203000  0.80984000  1.0
  C  C69  1  0.35646000  0.12795000  0.19016000  1.0
  N  N70  1  0.57332000  0.96225000  0.73848000  1.0
  N  N71  1  0.42668000  0.03773000  0.26152000  1.0
  O  O72  1  0.95800000  0.19843000  0.85897000  1.0
  O  O73  1  0.04200000  0.80158000  0.14102000  1.0
  O  O74  1  0.76685000  0.37654000  0.81416000  1.0
  O  O75  1  0.23314000  0.62347000  0.18584000  1.0
  O  O76  1  0.71444000  0.76515000  0.57747000  1.0
  O  O77  1  0.28558000  0.23485000  0.42252000  1.0
  O  O78  1  0.83454000  0.84604000  0.44284000  1.0
  O  O79  1  0.16547000  0.15396000  0.55715000  1.0
  O  O80  1  0.64298000  0.10020000  0.49446000  1.0
  O  O81  1  0.35704000  0.89979000  0.50555000  1.0
  O  O82  1  0.69391000  0.24698000  0.63583000  1.0
  O  O83  1  0.30606000  0.75303000  0.36418000  1.0
  O  O84  1  0.96679000  0.02969000  0.68477000  1.0
  O  O85  1  0.03322000  0.97033000  0.31523000  1.0
