# generated using pymatgen
data_AlH6C19N(Cl3O5)2
_symmetry_space_group_name_H-M   'P 1'
_cell_length_a   6.85904000
_cell_length_b   25.19520000
_cell_length_c   28.80150000
_cell_angle_alpha   90.53560000
_cell_angle_beta   90.96730000
_cell_angle_gamma   90.14320000
_symmetry_Int_Tables_number   1
_chemical_formula_structural   AlH6C19N(Cl3O5)2
_chemical_formula_sum   'Al4 H24 C76 N4 Cl24 O40'
_cell_volume   4976.38358123
_cell_formula_units_Z   4
loop_
 _symmetry_equiv_pos_site_id
 _symmetry_equiv_pos_as_xyz
  1  'x, y, z'
loop_
 _atom_site_type_symbol
 _atom_site_label
 _atom_site_symmetry_multiplicity
 _atom_site_fract_x
 _atom_site_fract_y
 _atom_site_fract_z
 _atom_site_occupancy
  Al  Al0  1  0.77971000  0.25194000  0.25303000  1.0
  Al  Al1  1  0.21262000  0.74641000  0.74816000  1.0
  Al  Al2  1  0.27831000  0.25033000  0.25257000  1.0
  Al  Al3  1  0.71492000  0.74483000  0.74651000  1.0
  H  H4  1  0.67181000  0.89266000  0.51097000  1.0
  H  H5  1  0.24291000  0.09035000  0.47624000  1.0
  H  H6  1  0.72396000  0.09331000  0.54460000  1.0
  H  H7  1  0.23481000  0.89971000  0.45225000  1.0
  H  H8  1  0.87100000  0.81358000  0.90472000  1.0
  H  H9  1  0.13356000  0.18100000  0.09299000  1.0
  H  H10  1  0.19341000  0.97726000  0.92235000  1.0
  H  H11  1  0.93063000  0.05657000  0.07861000  1.0
  H  H12  1  0.09654000  0.91705000  0.83651000  1.0
  H  H13  1  0.91286000  0.08299000  0.16164000  1.0
  H  H14  1  0.35773000  0.33842000  0.32952000  1.0
  H  H15  1  0.65428000  0.65876000  0.66495000  1.0
  H  H16  1  0.71665000  0.30789000  0.15584000  1.0
  H  H17  1  0.28300000  0.69406000  0.84698000  1.0
  H  H18  1  0.61629000  0.36576000  0.06620000  1.0
  H  H19  1  0.39542000  0.63219000  0.93644000  1.0
  H  H20  1  0.40670000  0.45343000  0.07310000  1.0
  H  H21  1  0.56094000  0.55221000  0.88151000  1.0
  H  H22  1  0.44069000  0.41305000  0.15915000  1.0
  H  H23  1  0.65426000  0.64399000  0.81161000  1.0
  H  H24  1  0.52036000  0.31879000  0.23768000  1.0
  H  H25  1  0.45176000  0.67704000  0.73345000  1.0
  H  H26  1  0.02452000  0.18110000  0.25781000  1.0
  H  H27  1  0.96137000  0.81300000  0.76115000  1.0
  C  C28  1  0.53562000  0.18944000  0.31503000  1.0
  C  C29  1  0.45597000  0.80668000  0.68473000  1.0
  C  C30  1  0.52256000  0.18825000  0.18994000  1.0
  C  C31  1  0.47519000  0.80846000  0.80956000  1.0
  C  C32  1  0.02787000  0.31463000  0.19043000  1.0
  C  C33  1  0.97035000  0.68318000  0.81184000  1.0
  C  C34  1  0.03728000  0.31288000  0.31761000  1.0
  C  C35  1  0.96496000  0.68423000  0.68234000  1.0
  C  C36  1  0.86066000  0.36018000  0.38169000  1.0
  C  C37  1  0.16074000  0.63941000  0.62043000  1.0
  C  C38  1  0.85714000  0.40837000  0.40719000  1.0
  C  C39  1  0.17487000  0.59129000  0.59510000  1.0
  C  C40  1  0.03056000  0.42301000  0.43086000  1.0
  C  C41  1  0.00865000  0.57500000  0.56934000  1.0
  C  C42  1  0.20439000  0.39700000  0.42035000  1.0
  C  C43  1  0.82942000  0.59943000  0.57732000  1.0
  C  C44  1  0.21199000  0.37044000  0.37676000  1.0
  C  C45  1  0.81007000  0.62679000  0.62014000  1.0
  C  C46  1  0.03634000  0.34727000  0.35937000  1.0
  C  C47  1  0.97833000  0.65111000  0.64013000  1.0
  C  C48  1  0.02176000  0.53324000  0.53324000  1.0
  C  C49  1  0.02823000  0.46285000  0.46865000  1.0
  C  C50  1  0.86843000  0.35586000  0.12120000  1.0
  C  C51  1  0.13545000  0.64566000  0.88198000  1.0
  C  C52  1  0.86817000  0.39054000  0.08353000  1.0
  C  C53  1  0.13854000  0.61023000  0.91899000  1.0
  C  C54  1  0.02727000  0.42418000  0.07627000  1.0
  C  C55  1  0.98111000  0.57575000  0.92590000  1.0
  C  C56  1  0.18948000  0.42091000  0.10644000  1.0
  C  C57  1  0.81688000  0.57786000  0.89634000  1.0
  C  C58  1  0.19343000  0.38583000  0.14396000  1.0
  C  C59  1  0.80888000  0.61425000  0.85993000  1.0
  C  C60  1  0.03099000  0.35254000  0.15205000  1.0
  C  C61  1  0.97024000  0.64805000  0.85169000  1.0
  C  C62  1  0.12758000  0.45623000  0.99768000  1.0
  C  C63  1  0.88405000  0.54442000  0.00480000  1.0
  C  C64  1  0.11212000  0.49207000  0.96075000  1.0
  C  C65  1  0.89638000  0.50786000  0.04125000  1.0
  C  C66  1  0.99134000  0.53684000  0.96416000  1.0
  C  C67  1  0.01846000  0.46325000  0.03807000  1.0
  C  C68  1  0.56692000  0.83634000  0.60585000  1.0
  C  C69  1  0.39140000  0.15453000  0.38885000  1.0
  C  C70  1  0.56877000  0.87342000  0.56965000  1.0
  C  C71  1  0.37834000  0.11579000  0.42352000  1.0
  C  C72  1  0.45329000  0.91930000  0.57242000  1.0
  C  C73  1  0.51131000  0.07357000  0.42464000  1.0
  C  C74  1  0.33539000  0.92744000  0.61118000  1.0
  C  C75  1  0.65596000  0.07016000  0.39099000  1.0
  C  C76  1  0.33703000  0.89130000  0.64792000  1.0
  C  C77  1  0.66597000  0.10761000  0.35533000  1.0
  C  C78  1  0.45323000  0.84534000  0.64519000  1.0
  C  C79  1  0.53273000  0.15021000  0.35412000  1.0
  C  C80  1  0.56586000  0.00698000  0.54139000  1.0
  C  C81  1  0.39719000  0.98553000  0.45525000  1.0
  C  C82  1  0.58051000  0.04477000  0.50608000  1.0
  C  C83  1  0.37912000  0.94813000  0.49086000  1.0
  C  C84  1  0.49554000  0.03390000  0.46213000  1.0
  C  C85  1  0.46521000  0.95882000  0.53474000  1.0
  C  C86  1  0.63878000  0.84576000  0.88211000  1.0
  C  C87  1  0.37032000  0.15103000  0.11562000  1.0
  C  C88  1  0.64335000  0.88273000  0.91881000  1.0
  C  C89  1  0.37225000  0.11414000  0.07872000  1.0
  C  C90  1  0.49725000  0.92100000  0.92417000  1.0
  C  C91  1  0.52581000  0.07842000  0.07251000  1.0
  C  C92  1  0.34231000  0.92135000  0.89230000  1.0
  C  C93  1  0.68210000  0.08043000  0.10397000  1.0
  C  C94  1  0.33207000  0.88442000  0.85534000  1.0
  C  C95  1  0.68102000  0.11557000  0.14241000  1.0
  C  C96  1  0.48138000  0.84661000  0.84936000  1.0
  C  C97  1  0.52534000  0.15137000  0.14889000  1.0
  C  C98  1  0.61013000  0.00869000  0.95679000  1.0
  C  C99  1  0.41648000  0.99059000  0.04011000  1.0
  C  C100  1  0.61617000  0.04699000  0.99257000  1.0
  C  C101  1  0.41023000  0.95218000  0.00436000  1.0
  C  C102  1  0.52009000  0.03823000  0.03449000  1.0
  C  C103  1  0.50607000  0.96104000  0.96230000  1.0
  N  N104  1  0.16571000  0.50141000  0.46788000  1.0
  N  N105  1  0.89150000  0.49305000  0.53555000  1.0
  N  N106  1  0.16208000  0.53778000  0.50122000  1.0
  N  N107  1  0.89479000  0.45675000  0.50220000  1.0
  Cl  Cl108  1  0.68636000  0.31230000  0.38636000  1.0
  Cl  Cl109  1  0.33049000  0.68899000  0.61875000  1.0
  Cl  Cl110  1  0.23694000  0.48032000  0.91047000  1.0
  Cl  Cl111  1  0.76400000  0.51810000  0.09069000  1.0
  Cl  Cl112  1  0.70473000  0.77995000  0.59917000  1.0
  Cl  Cl113  1  0.23271000  0.20700000  0.39232000  1.0
  Cl  Cl114  1  0.18733000  0.98253000  0.61289000  1.0
  Cl  Cl115  1  0.82196000  0.01906000  0.39442000  1.0
  Cl  Cl116  1  0.20538000  0.90538000  0.69694000  1.0
  Cl  Cl117  1  0.83519000  0.09819000  0.31243000  1.0
  Cl  Cl118  1  0.67912000  0.02186000  0.59398000  1.0
  Cl  Cl119  1  0.29532000  0.96948000  0.40161000  1.0
  Cl  Cl120  1  0.83725000  0.88039000  0.95818000  1.0
  Cl  Cl121  1  0.17378000  0.11343000  0.04001000  1.0
  Cl  Cl122  1  0.66576000  0.45176000  0.40599000  1.0
  Cl  Cl123  1  0.36765000  0.54870000  0.59962000  1.0
  Cl  Cl124  1  0.73144000  0.01937000  0.90601000  1.0
  Cl  Cl125  1  0.29592000  0.97977000  0.09091000  1.0
  Cl  Cl126  1  0.73750000  0.10600000  0.98486000  1.0
  Cl  Cl127  1  0.29017000  0.89315000  0.01220000  1.0
  Cl  Cl128  1  0.38057000  0.38952000  0.46278000  1.0
  Cl  Cl129  1  0.65341000  0.60064000  0.53441000  1.0
  Cl  Cl130  1  0.28140000  0.40233000  0.99343000  1.0
  Cl  Cl131  1  0.73898000  0.59957000  0.01015000  1.0
  O  O132  1  0.35617000  0.20273000  0.20409000  1.0
  O  O133  1  0.63769000  0.79145000  0.79486000  1.0
  O  O134  1  0.69932000  0.20817000  0.30359000  1.0
  O  O135  1  0.29145000  0.78997000  0.69776000  1.0
  O  O136  1  0.87674000  0.30273000  0.29690000  1.0
  O  O137  1  0.12025000  0.69469000  0.70520000  1.0
  O  O138  1  0.68754000  0.20144000  0.20740000  1.0
  O  O139  1  0.30790000  0.79585000  0.79297000  1.0
  O  O140  1  0.85792000  0.29664000  0.20219000  1.0
  O  O141  1  0.13496000  0.70326000  0.79988000  1.0
  O  O142  1  0.37100000  0.19964000  0.29640000  1.0
  O  O143  1  0.62260000  0.79513000  0.70159000  1.0
  O  O144  1  0.52829000  0.28421000  0.25229000  1.0
  O  O145  1  0.46334000  0.71184000  0.74797000  1.0
  O  O146  1  0.18728000  0.30128000  0.20973000  1.0
  O  O147  1  0.80770000  0.69166000  0.78988000  1.0
  O  O148  1  0.20604000  0.29746000  0.30318000  1.0
  O  O149  1  0.79267000  0.69858000  0.69570000  1.0
  O  O150  1  0.02752000  0.21919000  0.25343000  1.0
  O  O151  1  0.96277000  0.77757000  0.74762000  1.0
  O  O152  1  0.68602000  0.86361000  0.53307000  1.0
  O  O153  1  0.23525000  0.12066000  0.45531000  1.0
  O  O154  1  0.67743000  0.09144000  0.51223000  1.0
  O  O155  1  0.28026000  0.90166000  0.48470000  1.0
  O  O156  1  0.78016000  0.80859000  0.87835000  1.0
  O  O157  1  0.22378000  0.18653000  0.11935000  1.0
  O  O158  1  0.19150000  0.95739000  0.89315000  1.0
  O  O159  1  0.83732000  0.04505000  0.10194000  1.0
  O  O160  1  0.17745000  0.88773000  0.82534000  1.0
  O  O161  1  0.83183000  0.11235000  0.17312000  1.0
  O  O162  1  0.37851000  0.36651000  0.35413000  1.0
  O  O163  1  0.63856000  0.63030000  0.64059000  1.0
  O  O164  1  0.70425000  0.32578000  0.12507000  1.0
  O  O165  1  0.29611000  0.67720000  0.87799000  1.0
  O  O166  1  0.70815000  0.39198000  0.05429000  1.0
  O  O167  1  0.29635000  0.60830000  0.94860000  1.0
  O  O168  1  0.35016000  0.45413000  0.10403000  1.0
  O  O169  1  0.66611000  0.54353000  0.90345000  1.0
  O  O170  1  0.35330000  0.38653000  0.17268000  1.0
  O  O171  1  0.64371000  0.61333000  0.83295000  1.0
