# generated using pymatgen
data_Zn4H20C44Br8O13
_symmetry_space_group_name_H-M   'P 1'
_cell_length_a   24.00872264
_cell_length_b   24.00910000
_cell_length_c   24.00740000
_cell_angle_alpha   66.87760000
_cell_angle_beta   72.32018138
_cell_angle_gamma   107.67614911
_symmetry_Int_Tables_number   1
_chemical_formula_structural   Zn4H20C44Br8O13
_chemical_formula_sum   'Zn8 H40 C88 Br16 O26'
_cell_volume   10620.00879892
_cell_formula_units_Z   2
loop_
 _symmetry_equiv_pos_site_id
 _symmetry_equiv_pos_as_xyz
  1  'x, y, z'
loop_
 _atom_site_type_symbol
 _atom_site_label
 _atom_site_symmetry_multiplicity
 _atom_site_fract_x
 _atom_site_fract_y
 _atom_site_fract_z
 _atom_site_occupancy
  Zn  Zn0  1  0.05635000  0.09909000  0.45721000  1.0
  Zn  Zn1  1  0.05636000  0.95726000  0.48643000  1.0
  Zn  Zn2  1  0.94364000  0.95720000  0.59910000  1.0
  Zn  Zn3  1  0.94365000  0.98644000  0.45725000  1.0
  Zn  Zn4  1  0.94369000  0.40090000  0.04275000  1.0
  Zn  Zn5  1  0.05631000  0.54275000  0.90090000  1.0
  Zn  Zn6  1  0.94369000  0.54279000  0.01357000  1.0
  Zn  Zn7  1  0.05630000  0.51356000  0.04280000  1.0
  H  H8  1  0.92426000  0.20928000  0.90055000  1.0
  H  H9  1  0.07572000  0.40055000  0.70926000  1.0
  H  H10  1  0.92427000  0.09944000  0.79073000  1.0
  H  H11  1  0.07567000  0.29072000  0.59942000  1.0
  H  H12  1  0.07574000  0.67521000  0.21497000  1.0
  H  H13  1  0.92428000  0.71502000  0.17516000  1.0
  H  H14  1  0.07567000  0.78495000  0.32489000  1.0
  H  H15  1  0.92427000  0.82483000  0.28501000  1.0
  H  H16  1  0.60984000  0.20929000  0.21502000  1.0
  H  H17  1  0.60984000  0.40056000  0.17515000  1.0
  H  H18  1  0.39018000  0.09944000  0.32487000  1.0
  H  H19  1  0.39018000  0.29071000  0.28505000  1.0
  H  H20  1  0.39017000  0.71505000  0.70928000  1.0
  H  H21  1  0.39015000  0.67515000  0.90058000  1.0
  H  H22  1  0.60983000  0.82486000  0.59942000  1.0
  H  H23  1  0.60981000  0.78502000  0.79072000  1.0
  H  H24  1  0.85687000  0.09988000  0.31903000  1.0
  H  H25  1  0.90863000  0.06693000  0.34128000  1.0
  H  H26  1  0.91874000  0.10011000  0.25674000  1.0
  H  H27  1  0.08111000  0.40013000  0.24299000  1.0
  H  H28  1  0.09180000  0.43307000  0.15829000  1.0
  H  H29  1  0.14316000  0.39989000  0.18136000  1.0
  H  H30  1  0.91889000  0.17590000  0.18098000  1.0
  H  H31  1  0.90820000  0.24991000  0.15873000  1.0
  H  H32  1  0.85684000  0.17548000  0.24327000  1.0
  H  H33  1  0.14314000  0.32411000  0.25698000  1.0
  H  H34  1  0.09137000  0.25009000  0.34170000  1.0
  H  H35  1  0.08126000  0.32452000  0.31864000  1.0
  H  H36  1  0.85687000  0.75700000  0.82413000  1.0
  H  H37  1  0.90864000  0.84170000  0.75011000  1.0
  H  H38  1  0.91874000  0.81862000  0.82455000  1.0
  H  H39  1  0.08111000  0.68099000  0.67587000  1.0
  H  H40  1  0.09180000  0.65874000  0.74989000  1.0
  H  H41  1  0.14316000  0.74327000  0.67545000  1.0
  H  H42  1  0.91890000  0.74299000  0.90014000  1.0
  H  H43  1  0.90821000  0.65829000  0.93308000  1.0
  H  H44  1  0.85685000  0.68136000  0.89991000  1.0
  H  H45  1  0.14313000  0.81904000  0.59984000  1.0
  H  H46  1  0.09136000  0.84128000  0.56691000  1.0
  H  H47  1  0.08126000  0.75675000  0.60009000  1.0
  C  C48  1  0.18077000  0.09038000  0.40961000  1.0
  C  C49  1  0.99999000  0.86206000  0.63794000  1.0
  C  C50  1  0.00000000  0.09036000  0.59036000  1.0
  C  C51  1  0.81924000  0.90963000  0.59037000  1.0
  C  C52  1  0.00001000  0.13795000  0.36206000  1.0
  C  C53  1  0.00000000  0.90964000  0.40963000  1.0
  C  C54  1  0.00000000  0.40962000  0.90961000  1.0
  C  C55  1  0.00001000  0.63794000  0.86206000  1.0
  C  C56  1  0.81927000  0.40964000  0.09037000  1.0
  C  C57  1  0.99999000  0.59038000  0.09039000  1.0
  C  C58  1  0.99999000  0.36206000  0.13794000  1.0
  C  C59  1  0.18072000  0.59036000  0.90965000  1.0
  C  C60  1  0.00000000  0.19563000  0.30438000  1.0
  C  C61  1  0.00000000  0.30437000  0.19562000  1.0
  C  C62  1  0.95663000  0.17973000  0.27688000  1.0
  C  C63  1  0.04339000  0.32026000  0.22310000  1.0
  C  C64  1  0.95661000  0.23351000  0.22313000  1.0
  C  C65  1  0.04337000  0.26649000  0.27689000  1.0
  C  C66  1  0.00000000  0.80438000  0.69562000  1.0
  C  C67  1  0.00001000  0.69563000  0.80436000  1.0
  C  C68  1  0.95663000  0.77689000  0.76650000  1.0
  C  C69  1  0.04339000  0.72313000  0.73350000  1.0
  C  C70  1  0.95661000  0.72310000  0.82028000  1.0
  C  C71  1  0.04337000  0.77688000  0.67972000  1.0
  C  C72  1  0.00000000  0.37207000  0.87205000  1.0
  C  C73  1  0.95773000  0.29952000  0.90657000  1.0
  C  C74  1  0.95752000  0.26468000  0.87197000  1.0
  C  C75  1  0.99999000  0.30048000  0.80047000  1.0
  C  C76  1  0.04246000  0.37197000  0.76466000  1.0
  C  C77  1  0.04226000  0.40657000  0.79950000  1.0
  C  C78  1  0.99998000  0.26522000  0.76521000  1.0
  C  C79  1  0.99997000  0.23478000  0.73477000  1.0
  C  C80  1  0.99997000  0.19951000  0.69951000  1.0
  C  C81  1  0.95752000  0.12802000  0.73532000  1.0
  C  C82  1  0.95773000  0.09342000  0.70048000  1.0
  C  C83  1  0.99998000  0.12792000  0.62793000  1.0
  C  C84  1  0.04222000  0.20048000  0.59341000  1.0
  C  C85  1  0.04242000  0.23532000  0.62801000  1.0
  C  C86  1  0.00000000  0.62796000  0.12793000  1.0
  C  C87  1  0.04227000  0.63572000  0.15820000  1.0
  C  C88  1  0.04248000  0.67053000  0.19283000  1.0
  C  C89  1  0.00001000  0.69955000  0.19950000  1.0
  C  C90  1  0.95754000  0.69288000  0.17047000  1.0
  C  C91  1  0.95775000  0.65825000  0.13567000  1.0
  C  C92  1  0.00000000  0.73480000  0.23477000  1.0
  C  C93  1  0.99998000  0.76521000  0.26523000  1.0
  C  C94  1  0.99998000  0.80047000  0.30050000  1.0
  C  C95  1  0.04243000  0.80711000  0.32955000  1.0
  C  C96  1  0.04222000  0.84174000  0.36436000  1.0
  C  C97  1  0.99998000  0.87205000  0.37209000  1.0
  C  C98  1  0.95773000  0.86431000  0.34179000  1.0
  C  C99  1  0.95752000  0.82950000  0.30716000  1.0
  C  C100  1  0.74414000  0.37207000  0.12794000  1.0
  C  C101  1  0.70610000  0.29953000  0.15823000  1.0
  C  C102  1  0.63666000  0.26468000  0.19287000  1.0
  C  C103  1  0.60097000  0.30049000  0.19952000  1.0
  C  C104  1  0.63666000  0.37198000  0.17048000  1.0
  C  C105  1  0.70610000  0.40658000  0.13567000  1.0
  C  C106  1  0.53045000  0.26523000  0.23479000  1.0
  C  C107  1  0.46957000  0.23477000  0.26525000  1.0
  C  C108  1  0.39905000  0.19952000  0.30051000  1.0
  C  C109  1  0.36336000  0.12802000  0.32954000  1.0
  C  C110  1  0.29393000  0.09343000  0.36433000  1.0
  C  C111  1  0.25589000  0.12794000  0.37207000  1.0
  C  C112  1  0.29392000  0.20047000  0.34181000  1.0
  C  C113  1  0.36336000  0.23532000  0.30718000  1.0
  C  C114  1  0.25585000  0.62793000  0.87208000  1.0
  C  C115  1  0.29391000  0.65826000  0.79952000  1.0
  C  C116  1  0.36334000  0.69289000  0.76469000  1.0
  C  C117  1  0.39903000  0.69954000  0.80049000  1.0
  C  C118  1  0.36333000  0.67049000  0.87200000  1.0
  C  C119  1  0.29389000  0.63567000  0.90660000  1.0
  C  C120  1  0.46955000  0.73480000  0.76523000  1.0
  C  C121  1  0.53042000  0.76524000  0.73478000  1.0
  C  C122  1  0.60095000  0.80050000  0.69951000  1.0
  C  C123  1  0.63665000  0.82953000  0.62801000  1.0
  C  C124  1  0.70608000  0.86432000  0.59342000  1.0
  C  C125  1  0.74411000  0.87206000  0.62794000  1.0
  C  C126  1  0.70607000  0.84178000  0.70048000  1.0
  C  C127  1  0.63664000  0.80716000  0.73531000  1.0
  C  C128  1  0.90803000  0.10735000  0.30057000  1.0
  C  C129  1  0.09209000  0.39265000  0.19931000  1.0
  C  C130  1  0.90791000  0.20860000  0.19944000  1.0
  C  C131  1  0.09197000  0.29140000  0.30068000  1.0
  C  C132  1  0.90804000  0.80068000  0.79142000  1.0
  C  C133  1  0.09209000  0.69944000  0.70858000  1.0
  C  C134  1  0.90792000  0.69931000  0.89266000  1.0
  C  C135  1  0.09196000  0.80057000  0.60733000  1.0
  Br  Br136  1  0.89606000  0.23895000  0.00328000  1.0
  Br  Br137  1  0.10394000  0.50329000  0.73891000  1.0
  Br  Br138  1  0.89606000  0.99671000  0.76107000  1.0
  Br  Br139  1  0.10387000  0.26106000  0.49668000  1.0
  Br  Br140  1  0.10397000  0.60071000  0.15707000  1.0
  Br  Br141  1  0.89608000  0.65716000  0.10062000  1.0
  Br  Br142  1  0.10388000  0.84281000  0.39942000  1.0
  Br  Br143  1  0.89605000  0.89934000  0.34290000  1.0
  Br  Br144  1  0.74223000  0.23894000  0.15715000  1.0
  Br  Br145  1  0.74224000  0.50330000  0.10061000  1.0
  Br  Br146  1  0.25779000  0.99671000  0.39938000  1.0
  Br  Br147  1  0.25778000  0.26105000  0.34293000  1.0
  Br  Br148  1  0.25778000  0.65718000  0.73893000  1.0
  Br  Br149  1  0.25774000  0.60062000  0.00332000  1.0
  Br  Br150  1  0.74224000  0.89938000  0.49669000  1.0
  Br  Br151  1  0.74220000  0.84287000  0.76107000  1.0
  O  O152  1  0.00000000  0.00000000  0.50000000  1.0
  O  O153  1  0.15154000  0.12556000  0.41537000  1.0
  O  O154  1  0.03974000  0.88615000  0.57498000  1.0
  O  O155  1  0.95914000  0.02591000  0.62558000  1.0
  O  O156  1  0.15154000  0.02598000  0.43306000  1.0
  O  O157  1  0.04086000  0.12556000  0.52593000  1.0
  O  O158  1  0.96024000  0.88527000  0.65361000  1.0
  O  O159  1  0.84846000  0.91540000  0.62556000  1.0
  O  O160  1  0.96032000  0.07498000  0.38609000  1.0
  O  O161  1  0.84847000  0.93308000  0.52597000  1.0
  O  O162  1  0.03970000  0.15360000  0.38533000  1.0
  O  O163  1  0.04085000  0.91528000  0.43323000  1.0
  O  O164  1  0.95917000  0.93325000  0.41526000  1.0
  O  O165  1  0.00000000  0.50000000  1.00000000  1.0
  O  O166  1  0.95905000  0.37445000  0.97402000  1.0
  O  O167  1  0.03894000  0.61390000  0.84639000  1.0
  O  O168  1  0.84850000  0.47407000  0.06679000  1.0
  O  O169  1  0.04096000  0.47403000  0.87443000  1.0
  O  O170  1  0.84851000  0.37443000  0.08473000  1.0
  O  O171  1  0.96108000  0.61467000  0.92502000  1.0
  O  O172  1  0.95904000  0.58461000  0.06693000  1.0
  O  O173  1  0.03890000  0.42502000  0.11469000  1.0
  O  O174  1  0.04093000  0.56691000  0.08462000  1.0
  O  O175  1  0.96109000  0.34640000  0.11388000  1.0
  O  O176  1  0.15150000  0.58472000  0.87443000  1.0
  O  O177  1  0.15149000  0.56678000  0.97408000  1.0
