# generated using pymatgen
data_Cd4P6H26C18O19
_symmetry_space_group_name_H-M   'P 1'
_cell_length_a   8.55063000
_cell_length_b   8.74539000
_cell_length_c   21.58540000
_cell_angle_alpha   86.15690000
_cell_angle_beta   86.06920000
_cell_angle_gamma   63.57550000
_symmetry_Int_Tables_number   1
_chemical_formula_structural   Cd4P6H26C18O19
_chemical_formula_sum   'Cd8 P12 H52 C36 O38'
_cell_volume   1440.87894051
_cell_formula_units_Z   2
loop_
 _symmetry_equiv_pos_site_id
 _symmetry_equiv_pos_as_xyz
  1  'x, y, z'
loop_
 _atom_site_type_symbol
 _atom_site_label
 _atom_site_symmetry_multiplicity
 _atom_site_fract_x
 _atom_site_fract_y
 _atom_site_fract_z
 _atom_site_occupancy
  Cd  Cd0  1  0.01567000  0.21724000  0.24001000  1.0
  Cd  Cd1  1  0.78417000  0.97470000  0.26180000  1.0
  Cd  Cd2  1  0.98434000  0.78275000  0.75998000  1.0
  Cd  Cd3  1  0.21583000  0.02530000  0.73819000  1.0
  Cd  Cd4  1  0.33089000  0.35386000  0.27992000  1.0
  Cd  Cd5  1  0.60730000  0.67829000  0.22578000  1.0
  Cd  Cd6  1  0.66905000  0.64619000  0.72009000  1.0
  Cd  Cd7  1  0.39267000  0.32169000  0.77422000  1.0
  P  P8  1  0.01515000  0.59315000  0.17138000  1.0
  P  P9  1  0.39114000  0.98691000  0.33228000  1.0
  P  P10  1  0.98485000  0.40684000  0.82862000  1.0
  P  P11  1  0.60885000  0.01309000  0.66773000  1.0
  P  P12  1  0.63631000  0.03323000  0.88083000  1.0
  P  P13  1  0.98589000  0.35135000  0.62479000  1.0
  P  P14  1  0.36371000  0.96675000  0.11917000  1.0
  P  P15  1  0.01408000  0.64867000  0.37522000  1.0
  P  P16  1  0.36022000  0.67883000  0.84343000  1.0
  P  P17  1  0.33690000  0.61933000  0.65937000  1.0
  P  P18  1  0.63980000  0.32114000  0.15655000  1.0
  P  P19  1  0.66309000  0.38065000  0.34062000  1.0
  H  H20  1  0.28267000  0.46482000  0.02391000  1.0
  H  H21  1  0.53194000  0.71300000  0.47624000  1.0
  H  H22  1  0.71738000  0.53520000  0.97608000  1.0
  H  H23  1  0.46805000  0.28705000  0.52376000  1.0
  H  H24  1  0.06394000  0.91801000  0.90421000  1.0
  H  H25  1  0.08193000  0.93095000  0.60221000  1.0
  H  H26  1  0.93608000  0.08198000  0.09578000  1.0
  H  H27  1  0.91806000  0.06902000  0.39780000  1.0
  H  H28  1  0.74167000  0.82202000  0.04835000  1.0
  H  H29  1  0.17698000  0.24658000  0.45745000  1.0
  H  H30  1  0.25837000  0.17799000  0.95166000  1.0
  H  H31  1  0.82296000  0.75344000  0.54256000  1.0
  H  H32  1  0.09469000  0.39161000  0.09342000  1.0
  H  H33  1  0.60911000  0.89041000  0.40559000  1.0
  H  H34  1  0.90541000  0.60841000  0.90658000  1.0
  H  H35  1  0.39089000  0.10971000  0.59443000  1.0
  H  H36  1  0.86665000  0.52182000  0.09875000  1.0
  H  H37  1  0.49052000  0.11412000  0.40463000  1.0
  H  H38  1  0.13344000  0.47811000  0.90124000  1.0
  H  H39  1  0.50933000  0.88600000  0.59537000  1.0
  H  H40  1  0.77122000  0.14842000  0.94137000  1.0
  H  H41  1  0.84942000  0.22342000  0.56950000  1.0
  H  H42  1  0.22880000  0.85157000  0.05862000  1.0
  H  H43  1  0.15056000  0.77654000  0.43054000  1.0
  H  H44  1  0.62639000  0.08757000  0.98803000  1.0
  H  H45  1  0.90847000  0.36134000  0.51939000  1.0
  H  H46  1  0.37364000  0.91241000  0.01197000  1.0
  H  H47  1  0.09139000  0.63867000  0.48063000  1.0
  H  H48  1  0.44380000  0.48508000  0.93082000  1.0
  H  H49  1  0.51845000  0.55217000  0.56623000  1.0
  H  H50  1  0.55624000  0.51491000  0.06917000  1.0
  H  H51  1  0.48153000  0.44782000  0.43376000  1.0
  H  H52  1  0.45009000  0.68069000  0.94455000  1.0
  H  H53  1  0.31444000  0.55314000  0.55716000  1.0
  H  H54  1  0.54993000  0.31931000  0.05543000  1.0
  H  H55  1  0.68552000  0.44689000  0.44283000  1.0
  H  H56  1  0.34233000  0.51645000  0.16078000  1.0
  H  H57  1  0.40269000  0.73171000  0.34012000  1.0
  H  H58  1  0.65772000  0.48355000  0.83921000  1.0
  H  H59  1  0.59732000  0.26830000  0.65989000  1.0
  H  H60  1  0.45095000  0.91878000  0.87334000  1.0
  H  H61  1  0.06415000  0.56379000  0.62866000  1.0
  H  H62  1  0.54907000  0.08120000  0.12666000  1.0
  H  H63  1  0.93580000  0.43622000  0.37135000  1.0
  H  H64  1  0.18934000  0.71641000  0.19741000  1.0
  H  H65  1  0.22080000  0.69937000  0.28347000  1.0
  H  H66  1  0.81062000  0.28356000  0.80257000  1.0
  H  H67  1  0.77923000  0.30064000  0.71654000  1.0
  H  H68  1  0.97437000  0.02471000  0.25718000  1.0
  H  H69  1  0.17397000  0.87838000  0.24664000  1.0
  H  H70  1  0.02564000  0.97527000  0.74280000  1.0
  H  H71  1  0.82614000  0.12158000  0.75335000  1.0
  C  C72  1  0.01166000  0.63437000  0.04291000  1.0
  C  C73  1  0.36527000  0.98052000  0.46031000  1.0
  C  C74  1  0.98839000  0.36563000  0.95709000  1.0
  C  C75  1  0.63468000  0.01952000  0.53970000  1.0
  C  C76  1  0.17307000  0.58562000  0.01061000  1.0
  C  C77  1  0.41249000  0.82207000  0.49164000  1.0
  C  C78  1  0.82699000  0.41439000  0.98938000  1.0
  C  C79  1  0.58748000  0.17798000  0.50837000  1.0
  C  C80  1  0.19414000  0.68553000  0.96031000  1.0
  C  C81  1  0.31358000  0.80151000  0.54318000  1.0
  C  C82  1  0.80588000  0.31449000  0.03969000  1.0
  C  C83  1  0.68640000  0.19851000  0.45682000  1.0
  C  C84  1  0.05014000  0.83667000  0.94259000  1.0
  C  C85  1  0.16267000  0.94431000  0.56283000  1.0
  C  C86  1  0.94991000  0.16334000  0.05740000  1.0
  C  C87  1  0.83729000  0.05571000  0.43718000  1.0
  C  C88  1  0.88616000  0.88529000  0.97328000  1.0
  C  C89  1  0.11469000  0.10534000  0.53276000  1.0
  C  C90  1  0.11389000  0.11472000  0.02672000  1.0
  C  C91  1  0.88527000  0.89468000  0.46725000  1.0
  C  C92  1  0.86826000  0.78405000  0.02366000  1.0
  C  C93  1  0.21608000  0.12204000  0.48144000  1.0
  C  C94  1  0.13179000  0.21596000  0.97634000  1.0
  C  C95  1  0.78386000  0.87798000  0.51858000  1.0
  C  C96  1  0.99370000  0.52429000  0.09683000  1.0
  C  C97  1  0.47628000  0.99561000  0.40529000  1.0
  C  C98  1  0.00635000  0.47569000  0.90316000  1.0
  C  C99  1  0.52367000  0.00446000  0.59471000  1.0
  C  C100  1  0.73229000  0.04505000  0.95193000  1.0
  C  C101  1  0.95536000  0.25915000  0.55583000  1.0
  C  C102  1  0.26775000  0.95493000  0.04806000  1.0
  C  C103  1  0.04458000  0.74084000  0.44419000  1.0
  C  C104  1  0.37066000  0.62519000  0.92599000  1.0
  C  C105  1  0.37693000  0.62617000  0.57551000  1.0
  C  C106  1  0.62937000  0.37480000  0.07400000  1.0
  C  C107  1  0.62305000  0.37383000  0.42449000  1.0
  O  O108  1  0.15412000  0.66553000  0.15603000  1.0
  O  O109  1  0.31112000  0.85612000  0.34566000  1.0
  O  O110  1  0.84587000  0.33447000  0.84397000  1.0
  O  O111  1  0.68889000  0.14386000  0.65435000  1.0
  O  O112  1  0.09291000  0.43635000  0.21722000  1.0
  O  O113  1  0.53505000  0.92742000  0.28002000  1.0
  O  O114  1  0.90710000  0.56363000  0.78278000  1.0
  O  O115  1  0.46497000  0.07255000  0.71999000  1.0
  O  O116  1  0.84252000  0.73393000  0.19655000  1.0
  O  O117  1  0.23981000  0.16147000  0.31516000  1.0
  O  O118  1  0.15746000  0.26604000  0.80345000  1.0
  O  O119  1  0.76018000  0.83853000  0.68485000  1.0
  O  O120  1  0.77479000  0.94297000  0.83095000  1.0
  O  O121  1  0.13808000  0.22310000  0.66073000  1.0
  O  O122  1  0.22525000  0.05699000  0.16905000  1.0
  O  O123  1  0.86191000  0.77695000  0.33928000  1.0
  O  O124  1  0.50665000  0.21824000  0.86418000  1.0
  O  O125  1  0.80819000  0.42074000  0.66239000  1.0
  O  O126  1  0.49337000  0.78172000  0.13581000  1.0
  O  O127  1  0.19179000  0.57925000  0.33765000  1.0
  O  O128  1  0.53221000  0.92359000  0.90365000  1.0
  O  O129  1  0.02345000  0.50666000  0.59811000  1.0
  O  O130  1  0.46781000  0.07638000  0.09635000  1.0
  O  O131  1  0.97648000  0.49337000  0.40190000  1.0
  O  O132  1  0.24889000  0.61044000  0.81270000  1.0
  O  O133  1  0.39307000  0.74493000  0.68863000  1.0
  O  O134  1  0.75111000  0.38954000  0.18728000  1.0
  O  O135  1  0.60689000  0.25508000  0.31137000  1.0
  O  O136  1  0.55796000  0.57817000  0.81577000  1.0
  O  O137  1  0.45016000  0.43349000  0.68367000  1.0
  O  O138  1  0.44205000  0.42179000  0.18421000  1.0
  O  O139  1  0.54984000  0.56650000  0.31633000  1.0
  O  O140  1  0.31348000  0.86766000  0.83157000  1.0
  O  O141  1  0.14185000  0.66544000  0.67047000  1.0
  O  O142  1  0.68657000  0.13231000  0.16842000  1.0
  O  O143  1  0.85815000  0.33453000  0.32953000  1.0
  O  O144  1  0.24706000  0.75409000  0.24335000  1.0
  O  O145  1  0.75299000  0.24587000  0.75665000  1.0
