# generated using pymatgen
data_LaH9C8NO9
_symmetry_space_group_name_H-M   'P 1'
_cell_length_a   7.65994000
_cell_length_b   7.87297000
_cell_length_c   9.75383000
_cell_angle_alpha   102.39900000
_cell_angle_beta   95.49870000
_cell_angle_gamma   99.23580000
_symmetry_Int_Tables_number   1
_chemical_formula_structural   LaH9C8NO9
_chemical_formula_sum   'La2 H18 C16 N2 O18'
_cell_volume   561.84932262
_cell_formula_units_Z   2
loop_
 _symmetry_equiv_pos_site_id
 _symmetry_equiv_pos_as_xyz
  1  'x, y, z'
loop_
 _atom_site_type_symbol
 _atom_site_label
 _atom_site_symmetry_multiplicity
 _atom_site_fract_x
 _atom_site_fract_y
 _atom_site_fract_z
 _atom_site_occupancy
  La  La0  1  0.71494000  0.71886000  0.63895000  1.0
  La  La1  1  0.28507000  0.28114000  0.36105000  1.0
  H  H2  1  0.76033000  0.33171000  0.49638000  1.0
  H  H3  1  0.23968000  0.66829000  0.50362000  1.0
  H  H4  1  0.94946000  0.40610000  0.59278000  1.0
  H  H5  1  0.05054000  0.59390000  0.40723000  1.0
  H  H6  1  0.01787000  0.75022000  0.88806000  1.0
  H  H7  1  0.98213000  0.24978000  0.11193000  1.0
  H  H8  1  0.98768000  0.55020000  0.80455000  1.0
  H  H9  1  0.01232000  0.44980000  0.19545000  1.0
  H  H10  1  0.10078000  0.90407000  0.73755000  1.0
  H  H11  1  0.89923000  0.09594000  0.26245000  1.0
  H  H12  1  0.10095000  0.92820000  0.58038000  1.0
  H  H13  1  0.89905000  0.07180000  0.41962000  1.0
  H  H14  1  0.58835000  0.91005000  0.20349000  1.0
  H  H15  1  0.41165000  0.08995000  0.79651000  1.0
  H  H16  1  0.31716000  0.67562000  0.19691000  1.0
  H  H17  1  0.68284000  0.32439000  0.80309000  1.0
  H  H18  1  0.18584000  0.47013000  0.96407000  1.0
  H  H19  1  0.81415000  0.52987000  0.03592000  1.0
  C  C20  1  0.75098000  0.96748000  0.97317000  1.0
  C  C21  1  0.24902000  0.03252000  0.02683000  1.0
  C  C22  1  0.59909000  0.82339000  0.98134000  1.0
  C  C23  1  0.40091000  0.17661000  0.01866000  1.0
  C  C24  1  0.52762000  0.81419000  0.10633000  1.0
  C  C25  1  0.47239000  0.18581000  0.89368000  1.0
  C  C26  1  0.37715000  0.68599000  0.10144000  1.0
  C  C27  1  0.62284000  0.31401000  0.89856000  1.0
  C  C28  1  0.30265000  0.57237000  0.97179000  1.0
  C  C29  1  0.69734000  0.42763000  0.02821000  1.0
  C  C30  1  0.38521000  0.58747000  0.85220000  1.0
  C  C31  1  0.61478000  0.41254000  0.14781000  1.0
  C  C32  1  0.31407000  0.46928000  0.70835000  1.0
  C  C33  1  0.68593000  0.53073000  0.29165000  1.0
  C  C34  1  0.58696000  0.03913000  0.47512000  1.0
  C  C35  1  0.41305000  0.96086000  0.52488000  1.0
  N  N36  1  0.53151000  0.70895000  0.85740000  1.0
  N  N37  1  0.46849000  0.29105000  0.14260000  1.0
  O  O38  1  0.79142000  0.97095000  0.85016000  1.0
  O  O39  1  0.20858000  0.02904000  0.14984000  1.0
  O  O40  1  0.82168000  0.07771000  0.08690000  1.0
  O  O41  1  0.17832000  0.92228000  0.91310000  1.0
  O  O42  1  0.42528000  0.45911000  0.61681000  1.0
  O  O43  1  0.57471000  0.54089000  0.38319000  1.0
  O  O44  1  0.15388000  0.39062000  0.68505000  1.0
  O  O45  1  0.84612000  0.60938000  0.31495000  1.0
  O  O46  1  0.72370000  0.97391000  0.50158000  1.0
  O  O47  1  0.27631000  0.02608000  0.49842000  1.0
  O  O48  1  0.57893000  0.16296000  0.41144000  1.0
  O  O49  1  0.42108000  0.83704000  0.58856000  1.0
  O  O50  1  0.82825000  0.43069000  0.57266000  1.0
  O  O51  1  0.17175000  0.56931000  0.42735000  1.0
  O  O52  1  0.92247000  0.64391000  0.84113000  1.0
  O  O53  1  0.07753000  0.35609000  0.15887000  1.0
  O  O54  1  0.03241000  0.86395000  0.64092000  1.0
  O  O55  1  0.96759000  0.13606000  0.35908000  1.0
