# generated using pymatgen
data_Co3H44C64(NO9)2
_symmetry_space_group_name_H-M   'P 1'
_cell_length_a   10.65600000
_cell_length_b   12.37310000
_cell_length_c   12.57220000
_cell_angle_alpha   75.37580000
_cell_angle_beta   73.32120000
_cell_angle_gamma   87.69570000
_symmetry_Int_Tables_number   1
_chemical_formula_structural   Co3H44C64(NO9)2
_chemical_formula_sum   'Co3 H44 C64 N2 O18'
_cell_volume   1535.50461780
_cell_formula_units_Z   1
loop_
 _symmetry_equiv_pos_site_id
 _symmetry_equiv_pos_as_xyz
  1  'x, y, z'
loop_
 _atom_site_type_symbol
 _atom_site_label
 _atom_site_symmetry_multiplicity
 _atom_site_fract_x
 _atom_site_fract_y
 _atom_site_fract_z
 _atom_site_occupancy
  Co  Co0  1  0.00000000  0.00000000  0.00000000  1.0
  Co  Co1  1  0.74247000  0.89521000  0.24417000  1.0
  Co  Co2  1  0.25753000  0.10479000  0.75583000  1.0
  H  H3  1  0.43475000  0.12325000  0.13968000  1.0
  H  H4  1  0.56525000  0.87675000  0.86031000  1.0
  H  H5  1  0.34679000  0.27438000  0.01029000  1.0
  H  H6  1  0.65321000  0.72562000  0.98971000  1.0
  H  H7  1  0.49172000  0.37361000  0.81968000  1.0
  H  H8  1  0.50828000  0.62639000  0.18032000  1.0
  H  H9  1  0.81386000  0.17197000  0.89024000  1.0
  H  H10  1  0.18614000  0.82803000  0.10976000  1.0
  H  H11  1  0.90164000  0.24513000  0.69680000  1.0
  H  H12  1  0.09836000  0.75487000  0.30320000  1.0
  H  H13  1  0.90787000  0.34276000  0.77683000  1.0
  H  H14  1  0.09213000  0.65724000  0.22317000  1.0
  H  H15  1  0.23837000  0.94047000  0.22155000  1.0
  H  H16  1  0.76163000  0.05953000  0.77845000  1.0
  H  H17  1  0.38300000  0.00562000  0.31995000  1.0
  H  H18  1  0.61700000  0.99438000  0.68005000  1.0
  H  H19  1  0.29595000  0.13285000  0.44803000  1.0
  H  H20  1  0.70405000  0.86714000  0.55197000  1.0
  H  H21  1  0.91659000  0.11287000  0.39320000  1.0
  H  H22  1  0.08341000  0.88713000  0.60680000  1.0
  H  H23  1  0.86619000  0.23470000  0.54481000  1.0
  H  H24  1  0.13381000  0.76530000  0.45520000  1.0
  H  H25  1  0.94064000  0.28415000  0.39472000  1.0
  H  H26  1  0.05936000  0.71585000  0.60528000  1.0
  H  H27  1  0.74035000  0.58101000  0.20792000  1.0
  H  H28  1  0.25965000  0.41899000  0.79208000  1.0
  H  H29  1  0.70953000  0.40363000  0.15497000  1.0
  H  H30  1  0.29047000  0.59637000  0.84503000  1.0
  H  H31  1  0.81584000  0.38620000  0.95683000  1.0
  H  H32  1  0.18416000  0.61380000  0.04317000  1.0
  H  H33  1  0.98284000  0.72066000  0.86449000  1.0
  H  H34  1  0.01716000  0.27934000  0.13551000  1.0
  H  H35  1  0.85702000  0.64807000  0.69968000  1.0
  H  H36  1  0.14299000  0.35193000  0.30032000  1.0
  H  H37  1  0.79256000  0.50946000  0.76111000  1.0
  H  H38  1  0.20744000  0.49054000  0.23889000  1.0
  H  H39  1  0.46387000  0.82020000  0.33963000  1.0
  H  H40  1  0.53613000  0.17980000  0.66037000  1.0
  H  H41  1  0.35927000  0.63269000  0.42403000  1.0
  H  H42  1  0.64073000  0.36731000  0.57597000  1.0
  H  H43  1  0.71573000  0.52304000  0.51473000  1.0
  H  H44  1  0.28427000  0.47696000  0.48527000  1.0
  H  H45  1  0.80386000  0.71578000  0.42716000  1.0
  H  H46  1  0.19614000  0.28422000  0.57284000  1.0
  C  C47  1  0.68213000  0.05106000  0.09883000  1.0
  C  C48  1  0.31788000  0.94894000  0.90117000  1.0
  C  C49  1  0.62948000  0.14046000  0.02216000  1.0
  C  C50  1  0.37053000  0.85955000  0.97784000  1.0
  C  C51  1  0.49770000  0.16760000  0.05654000  1.0
  C  C52  1  0.50230000  0.83240000  0.94346000  1.0
  C  C53  1  0.44871000  0.25175000  0.98375000  1.0
  C  C54  1  0.55129000  0.74826000  0.01625000  1.0
  C  C55  1  0.52924000  0.30765000  0.87696000  1.0
  C  C56  1  0.47076000  0.69235000  0.12304000  1.0
  C  C57  1  0.66091000  0.27939000  0.84248000  1.0
  C  C58  1  0.33909000  0.72061000  0.15752000  1.0
  C  C59  1  0.71249000  0.19679000  0.91494000  1.0
  C  C60  1  0.28751000  0.80322000  0.08506000  1.0
  C  C61  1  0.87334000  0.32932000  0.70644000  1.0
  C  C62  1  0.12666000  0.67068000  0.29355000  1.0
  C  C63  1  0.98105000  0.97772000  0.24944000  1.0
  C  C64  1  0.01894000  0.02228000  0.75056000  1.0
  C  C65  1  0.06906000  0.02251000  0.30281000  1.0
  C  C66  1  0.93094000  0.97749000  0.69720000  1.0
  C  C67  1  0.20031000  0.99215000  0.28136000  1.0
  C  C68  1  0.79969000  0.00785000  0.71864000  1.0
  C  C69  1  0.28095000  0.02955000  0.33586000  1.0
  C  C70  1  0.71905000  0.97045000  0.66414000  1.0
  C  C71  1  0.23376000  0.10156000  0.40634000  1.0
  C  C72  1  0.76624000  0.89844000  0.59367000  1.0
  C  C73  1  0.10396000  0.13547000  0.42349000  1.0
  C  C74  1  0.89604000  0.86453000  0.57652000  1.0
  C  C75  1  0.01995000  0.09353000  0.37509000  1.0
  C  C76  1  0.98005000  0.90647000  0.62491000  1.0
  C  C77  1  0.95484000  0.27645000  0.47953000  1.0
  C  C78  1  0.04516000  0.72355000  0.52048000  1.0
  C  C79  1  0.87565000  0.76909000  0.06933000  1.0
  C  C80  1  0.12435000  0.23090000  0.93067000  1.0
  C  C81  1  0.86181000  0.66133000  0.03939000  1.0
  C  C82  1  0.13819000  0.33867000  0.96061000  1.0
  C  C83  1  0.78516000  0.57193000  0.12131000  1.0
  C  C84  1  0.21484000  0.42807000  0.87869000  1.0
  C  C85  1  0.76812000  0.47370000  0.09129000  1.0
  C  C86  1  0.23189000  0.52630000  0.90871000  1.0
  C  C87  1  0.82760000  0.46359000  0.97999000  1.0
  C  C88  1  0.17240000  0.53640000  0.02001000  1.0
  C  C89  1  0.90557000  0.55241000  0.89899000  1.0
  C  C90  1  0.09444000  0.44759000  0.10101000  1.0
  C  C91  1  0.92261000  0.65128000  0.92773000  1.0
  C  C92  1  0.07739000  0.34872000  0.07227000  1.0
  C  C93  1  0.88395000  0.55979000  0.71622000  1.0
  C  C94  1  0.11605000  0.44021000  0.28377000  1.0
  C  C95  1  0.93397000  0.41797000  0.59831000  1.0
  C  C96  1  0.06603000  0.58203000  0.40169000  1.0
  C  C97  1  0.98059000  0.39090000  0.49204000  1.0
  C  C98  1  0.01941000  0.60911000  0.50796000  1.0
  C  C99  1  0.94950000  0.52807000  0.60552000  1.0
  C  C100  1  0.05051000  0.47193000  0.39448000  1.0
  C  C101  1  0.51533000  0.75186000  0.38087000  1.0
  C  C102  1  0.48467000  0.24813000  0.61913000  1.0
  C  C103  1  0.45759000  0.64567000  0.42879000  1.0
  C  C104  1  0.54241000  0.35434000  0.57121000  1.0
  C  C105  1  0.52793000  0.55748000  0.47683000  1.0
  C  C106  1  0.47207000  0.44251000  0.52317000  1.0
  C  C107  1  0.65468000  0.58503000  0.47746000  1.0
  C  C108  1  0.34532000  0.41497000  0.52254000  1.0
  C  C109  1  0.70568000  0.69321000  0.42828000  1.0
  C  C110  1  0.29432000  0.30679000  0.57172000  1.0
  N  N111  1  0.63881000  0.77629000  0.37827000  1.0
  N  N112  1  0.36119000  0.22371000  0.62173000  1.0
  O  O113  1  0.60470000  0.99288000  0.19369000  1.0
  O  O114  1  0.39530000  0.00712000  0.80631000  1.0
  O  O115  1  0.80328000  0.02885000  0.07506000  1.0
  O  O116  1  0.19672000  0.97115000  0.92494000  1.0
  O  O117  1  0.73270000  0.33773000  0.73452000  1.0
  O  O118  1  0.26730000  0.66227000  0.26548000  1.0
  O  O119  1  0.03275000  0.94385000  0.15971000  1.0
  O  O120  1  0.96725000  0.05615000  0.84029000  1.0
  O  O121  1  0.85723000  0.97230000  0.30006000  1.0
  O  O122  1  0.14276000  0.02770000  0.69994000  1.0
  O  O123  1  0.06694000  0.21021000  0.49036000  1.0
  O  O124  1  0.93306000  0.78979000  0.50964000  1.0
  O  O125  1  0.80269000  0.77620000  0.16847000  1.0
  O  O126  1  0.19731000  0.22380000  0.83152000  1.0
  O  O127  1  0.95524000  0.84343000  0.99637000  1.0
  O  O128  1  0.04476000  0.15657000  0.00363000  1.0
  O  O129  1  0.97010000  0.54131000  0.78909000  1.0
  O  O130  1  0.02990000  0.45869000  0.21091000  1.0
