# generated using pymatgen
data_TbH8(C3O5)2
_symmetry_space_group_name_H-M   'P 1'
_cell_length_a   6.02486000
_cell_length_b   7.38000000
_cell_length_c   13.08640000
_cell_angle_alpha   105.41000000
_cell_angle_beta   101.96000000
_cell_angle_gamma   90.02220000
_symmetry_Int_Tables_number   1
_chemical_formula_structural   TbH8(C3O5)2
_chemical_formula_sum   'Tb2 H16 C12 O20'
_cell_volume   547.82186091
_cell_formula_units_Z   2
loop_
 _symmetry_equiv_pos_site_id
 _symmetry_equiv_pos_as_xyz
  1  'x, y, z'
loop_
 _atom_site_type_symbol
 _atom_site_label
 _atom_site_symmetry_multiplicity
 _atom_site_fract_x
 _atom_site_fract_y
 _atom_site_fract_z
 _atom_site_occupancy
  Tb  Tb0  1  0.01193000  0.82534000  0.68164000  1.0
  Tb  Tb1  1  0.98882000  0.15363000  0.31269000  1.0
  H  H2  1  0.37667000  0.96482000  0.06128000  1.0
  H  H3  1  0.62316000  0.90182000  0.93609000  1.0
  H  H4  1  0.49778000  0.31975000  0.56553000  1.0
  H  H5  1  0.46875000  0.30569000  0.73838000  1.0
  H  H6  1  0.50509000  0.75669000  0.42985000  1.0
  H  H7  1  0.53223000  0.58539000  0.25643000  1.0
  H  H8  1  0.18976000  0.24849000  0.08030000  1.0
  H  H9  1  0.79721000  0.15964000  0.90562000  1.0
  H  H10  1  0.19185000  0.99299000  0.48568000  1.0
  H  H11  1  0.15539000  0.21041000  0.77244000  1.0
  H  H12  1  0.81173000  0.50318000  0.50768000  1.0
  H  H13  1  0.84020000  0.44824000  0.21912000  1.0
  H  H14  1  0.76574000  0.65753000  0.81806000  1.0
  H  H15  1  0.59119000  0.71823000  0.72381000  1.0
  H  H16  1  0.23397000  0.85822000  0.17752000  1.0
  H  H17  1  0.41036000  0.00857000  0.27078000  1.0
  C  C18  1  0.20276000  0.97070000  0.90429000  1.0
  C  C19  1  0.37702000  0.06072000  0.00914000  1.0
  C  C20  1  0.61651000  0.04946000  0.98328000  1.0
  C  C21  1  0.79151000  0.07312000  0.08968000  1.0
  C  C22  1  0.15093000  0.38621000  0.56731000  1.0
  C  C23  1  0.33930000  0.24691000  0.56654000  1.0
  C  C24  1  0.37177000  0.18927000  0.67344000  1.0
  C  C25  1  0.50653000  0.01283000  0.67202000  1.0
  C  C26  1  0.85177000  0.82194000  0.42827000  1.0
  C  C27  1  0.66318000  0.68263000  0.42804000  1.0
  C  C28  1  0.62916000  0.52674000  0.31994000  1.0
  C  C29  1  0.49347000  0.35121000  0.32029000  1.0
  O  O30  1  0.21703000  0.79803000  0.85808000  1.0
  O  O31  1  0.05153000  0.06851000  0.86234000  1.0
  O  O32  1  0.34097000  0.24754000  0.06206000  1.0
  O  O33  1  0.64620000  0.17796000  0.92389000  1.0
  O  O34  1  0.78617000  0.94811000  0.13967000  1.0
  O  O35  1  0.93473000  0.21666000  0.12881000  1.0
  O  O36  1  0.17369000  0.53371000  0.64394000  1.0
  O  O37  1  0.97750000  0.34132000  0.48789000  1.0
  O  O38  1  0.28489000  0.09406000  0.47055000  1.0
  O  O39  1  0.15298000  0.15816000  0.69491000  1.0
  O  O40  1  0.40638000  0.87267000  0.68699000  1.0
  O  O41  1  0.70657000  0.01738000  0.65769000  1.0
  O  O42  1  0.02730000  0.84789000  0.50639000  1.0
  O  O43  1  0.82686000  0.90130000  0.35335000  1.0
  O  O44  1  0.71726000  0.61763000  0.52314000  1.0
  O  O45  1  0.84720000  0.47547000  0.29743000  1.0
  O  O46  1  0.59444000  0.19734000  0.30599000  1.0
  O  O47  1  0.29263000  0.36834000  0.33354000  1.0
  O  O48  1  0.74185000  0.66316000  0.74328000  1.0
  O  O49  1  0.25988000  0.93497000  0.25220000  1.0
