# generated using pymatgen
data_ZnH4(C2O3)2
_symmetry_space_group_name_H-M   'P 1'
_cell_length_a   16.39180000
_cell_length_b   16.39170000
_cell_length_c   16.39170000
_cell_angle_alpha   90.00050000
_cell_angle_beta   89.99990000
_cell_angle_gamma   89.99970000
_symmetry_Int_Tables_number   1
_chemical_formula_structural   ZnH4(C2O3)2
_chemical_formula_sum   'Zn24 H96 C96 O144'
_cell_volume   4404.27715336
_cell_formula_units_Z   24
loop_
 _symmetry_equiv_pos_site_id
 _symmetry_equiv_pos_as_xyz
  1  'x, y, z'
loop_
 _atom_site_type_symbol
 _atom_site_label
 _atom_site_symmetry_multiplicity
 _atom_site_fract_x
 _atom_site_fract_y
 _atom_site_fract_z
 _atom_site_occupancy
  Zn  Zn0  1  0.50150000  0.50150000  0.75000000  1.0
  Zn  Zn1  1  0.50150000  0.99850000  0.75000000  1.0
  Zn  Zn2  1  0.99850000  0.50150000  0.75000000  1.0
  Zn  Zn3  1  0.50150000  0.75000000  0.50150000  1.0
  Zn  Zn4  1  0.99850000  0.99850000  0.75000000  1.0
  Zn  Zn5  1  0.75000000  0.99850000  0.50150000  1.0
  Zn  Zn6  1  0.99850000  0.75000000  0.50150000  1.0
  Zn  Zn7  1  0.75000000  0.50150000  0.50150000  1.0
  Zn  Zn8  1  0.99850000  0.75000000  0.99850000  1.0
  Zn  Zn9  1  0.75000000  0.99850000  0.99850000  1.0
  Zn  Zn10  1  0.50150000  0.75000000  0.99850000  1.0
  Zn  Zn11  1  0.75000000  0.50150000  0.99850000  1.0
  Zn  Zn12  1  0.49850000  0.49850000  0.25000000  1.0
  Zn  Zn13  1  0.49850000  0.00151000  0.25000000  1.0
  Zn  Zn14  1  0.00150000  0.49850000  0.25000000  1.0
  Zn  Zn15  1  0.49850000  0.25000000  0.49850000  1.0
  Zn  Zn16  1  0.00150000  0.00150000  0.25000000  1.0
  Zn  Zn17  1  0.25000000  0.00150000  0.49850000  1.0
  Zn  Zn18  1  0.00150000  0.25000000  0.49850000  1.0
  Zn  Zn19  1  0.25000000  0.49850000  0.49850000  1.0
  Zn  Zn20  1  0.00150000  0.25000000  0.00150000  1.0
  Zn  Zn21  1  0.25000000  0.00150000  0.00150000  1.0
  Zn  Zn22  1  0.49850000  0.25000000  0.00150000  1.0
  Zn  Zn23  1  0.25000000  0.49850000  0.00150000  1.0
  H  H24  1  0.40503000  0.52967000  0.62331000  1.0
  H  H25  1  0.52967000  0.09497000  0.62331000  1.0
  H  H26  1  0.09497000  0.52967000  0.87669000  1.0
  H  H27  1  0.52967000  0.62331000  0.40503000  1.0
  H  H28  1  0.09497000  0.97033000  0.62331000  1.0
  H  H29  1  0.52967000  0.40503000  0.87669000  1.0
  H  H30  1  0.62331000  0.97033000  0.40503000  1.0
  H  H31  1  0.97033000  0.40503000  0.62331000  1.0
  H  H32  1  0.40503000  0.97033000  0.87669000  1.0
  H  H33  1  0.97033000  0.87669000  0.40503000  1.0
  H  H34  1  0.97033000  0.09497000  0.87669000  1.0
  H  H35  1  0.87669000  0.52967000  0.40503000  1.0
  H  H36  1  0.97033000  0.62331000  0.09497000  1.0
  H  H37  1  0.87669000  0.97033000  0.09497000  1.0
  H  H38  1  0.52967000  0.87669000  0.09497000  1.0
  H  H39  1  0.62331000  0.52967000  0.09497000  1.0
  H  H40  1  0.62331000  0.40503000  0.52967000  1.0
  H  H41  1  0.09497000  0.62331000  0.52967000  1.0
  H  H42  1  0.40503000  0.87669000  0.52967000  1.0
  H  H43  1  0.40503000  0.62331000  0.97033000  1.0
  H  H44  1  0.87669000  0.40503000  0.97033000  1.0
  H  H45  1  0.09497000  0.87669000  0.97033000  1.0
  H  H46  1  0.62331000  0.09497000  0.97033000  1.0
  H  H47  1  0.87669000  0.09497000  0.52967000  1.0
  H  H48  1  0.59497000  0.47033000  0.37669000  1.0
  H  H49  1  0.47033000  0.90503000  0.37669000  1.0
  H  H50  1  0.90503000  0.47033000  0.12331000  1.0
  H  H51  1  0.47033000  0.37669000  0.59497000  1.0
  H  H52  1  0.90503000  0.02967000  0.37669000  1.0
  H  H53  1  0.47033000  0.59497000  0.12331000  1.0
  H  H54  1  0.37669000  0.02967000  0.59497000  1.0
  H  H55  1  0.02967000  0.59497000  0.37669000  1.0
  H  H56  1  0.59497000  0.02967000  0.12331000  1.0
  H  H57  1  0.02967000  0.12331000  0.59497000  1.0
  H  H58  1  0.02967000  0.90503000  0.12331000  1.0
  H  H59  1  0.12331000  0.47033000  0.59497000  1.0
  H  H60  1  0.02967000  0.37669000  0.90503000  1.0
  H  H61  1  0.12331000  0.02967000  0.90503000  1.0
  H  H62  1  0.47033000  0.12331000  0.90503000  1.0
  H  H63  1  0.37669000  0.47033000  0.90503000  1.0
  H  H64  1  0.37669000  0.59497000  0.47033000  1.0
  H  H65  1  0.90503000  0.37669000  0.47033000  1.0
  H  H66  1  0.59497000  0.12331000  0.47033000  1.0
  H  H67  1  0.59497000  0.37669000  0.02967000  1.0
  H  H68  1  0.12331000  0.59497000  0.02967000  1.0
  H  H69  1  0.90503000  0.12331000  0.02967000  1.0
  H  H70  1  0.37669000  0.90503000  0.02967000  1.0
  H  H71  1  0.12331000  0.90502000  0.47033000  1.0
  H  H72  1  0.48018000  0.59488000  0.62228000  1.0
  H  H73  1  0.59488000  0.01982000  0.62228000  1.0
  H  H74  1  0.01982000  0.59488000  0.87771000  1.0
  H  H75  1  0.59488000  0.62228000  0.48018000  1.0
  H  H76  1  0.01982000  0.90512000  0.62228000  1.0
  H  H77  1  0.59488000  0.48018000  0.87772000  1.0
  H  H78  1  0.62228000  0.90512000  0.48019000  1.0
  H  H79  1  0.90512000  0.48019000  0.62228000  1.0
  H  H80  1  0.48018000  0.90512000  0.87772000  1.0
  H  H81  1  0.90512000  0.87772000  0.48018000  1.0
  H  H82  1  0.90512000  0.01982000  0.87772000  1.0
  H  H83  1  0.87772000  0.59489000  0.48018000  1.0
  H  H84  1  0.90512000  0.62228000  0.01981000  1.0
  H  H85  1  0.87772000  0.90512000  0.01982000  1.0
  H  H86  1  0.59488000  0.87772000  0.01981000  1.0
  H  H87  1  0.62229000  0.59488000  0.01982000  1.0
  H  H88  1  0.62228000  0.48018000  0.59488000  1.0
  H  H89  1  0.01982000  0.62228000  0.59488000  1.0
  H  H90  1  0.48018000  0.87772000  0.59488000  1.0
  H  H91  1  0.48018000  0.62228000  0.90512000  1.0
  H  H92  1  0.87772000  0.48018000  0.90512000  1.0
  H  H93  1  0.01982000  0.87772000  0.90511000  1.0
  H  H94  1  0.62228000  0.01982000  0.90512000  1.0
  H  H95  1  0.87772000  0.01982000  0.59488000  1.0
  H  H96  1  0.51982000  0.40512000  0.37772000  1.0
  H  H97  1  0.40512000  0.98018000  0.37772000  1.0
  H  H98  1  0.98018000  0.40512000  0.12228000  1.0
  H  H99  1  0.40511000  0.37772000  0.51982000  1.0
  H  H100  1  0.98018000  0.09488000  0.37772000  1.0
  H  H101  1  0.40512000  0.51982000  0.12228000  1.0
  H  H102  1  0.37772000  0.09488000  0.51982000  1.0
  H  H103  1  0.09489000  0.51982000  0.37772000  1.0
  H  H104  1  0.51982000  0.09489000  0.12228000  1.0
  H  H105  1  0.09488000  0.12228000  0.51982000  1.0
  H  H106  1  0.09488000  0.98018000  0.12228000  1.0
  H  H107  1  0.12228000  0.40512000  0.51982000  1.0
  H  H108  1  0.09488000  0.37772000  0.98018000  1.0
  H  H109  1  0.12228000  0.09488000  0.98018000  1.0
  H  H110  1  0.40512000  0.12228000  0.98018000  1.0
  H  H111  1  0.37772000  0.40511000  0.98018000  1.0
  H  H112  1  0.37772000  0.51982000  0.40512000  1.0
  H  H113  1  0.98018000  0.37772000  0.40512000  1.0
  H  H114  1  0.51982000  0.12228000  0.40512000  1.0
  H  H115  1  0.51982000  0.37772000  0.09488000  1.0
  H  H116  1  0.12228000  0.51981000  0.09488000  1.0
  H  H117  1  0.98018000  0.12228000  0.09488000  1.0
  H  H118  1  0.37772000  0.98018000  0.09488000  1.0
  H  H119  1  0.12228000  0.98018000  0.40512000  1.0
  C  C120  1  0.51353000  0.69127000  0.77443000  1.0
  C  C121  1  0.69127000  0.98647000  0.77442000  1.0
  C  C122  1  0.98646000  0.69127000  0.72557000  1.0
  C  C123  1  0.69128000  0.77442000  0.51353000  1.0
  C  C124  1  0.98647000  0.80873000  0.77442000  1.0
  C  C125  1  0.69127000  0.51353000  0.72558000  1.0
  C  C126  1  0.77443000  0.80873000  0.51354000  1.0
  C  C127  1  0.80872000  0.51353000  0.77443000  1.0
  C  C128  1  0.51353000  0.80873000  0.72558000  1.0
  C  C129  1  0.80872000  0.72558000  0.51353000  1.0
  C  C130  1  0.80872000  0.98647000  0.72558000  1.0
  C  C131  1  0.72558000  0.69127000  0.51353000  1.0
  C  C132  1  0.80873000  0.77442000  0.98647000  1.0
  C  C133  1  0.72558000  0.80873000  0.98647000  1.0
  C  C134  1  0.69129000  0.72557000  0.98647000  1.0
  C  C135  1  0.77442000  0.69127000  0.98647000  1.0
  C  C136  1  0.77443000  0.51353000  0.69127000  1.0
  C  C137  1  0.98647000  0.77442000  0.69127000  1.0
  C  C138  1  0.51353000  0.72558000  0.69127000  1.0
  C  C139  1  0.51353000  0.77442000  0.80873000  1.0
  C  C140  1  0.72558000  0.51353000  0.80873000  1.0
  C  C141  1  0.98647000  0.72558000  0.80872000  1.0
  C  C142  1  0.77443000  0.98647000  0.80873000  1.0
  C  C143  1  0.72558000  0.98647000  0.69127000  1.0
  C  C144  1  0.48647000  0.30873000  0.22558000  1.0
  C  C145  1  0.30872000  0.01353000  0.22558000  1.0
  C  C146  1  0.01353000  0.30872000  0.27443000  1.0
  C  C147  1  0.30872000  0.22558000  0.48647000  1.0
  C  C148  1  0.01353000  0.19127000  0.22558000  1.0
  C  C149  1  0.30873000  0.48647000  0.27442000  1.0
  C  C150  1  0.22557000  0.19127000  0.48647000  1.0
  C  C151  1  0.19128000  0.48647000  0.22557000  1.0
  C  C152  1  0.48647000  0.19128000  0.27443000  1.0
  C  C153  1  0.19127000  0.27442000  0.48647000  1.0
  C  C154  1  0.19128000  0.01353000  0.27442000  1.0
  C  C155  1  0.27442000  0.30872000  0.48647000  1.0
  C  C156  1  0.19128000  0.22557000  0.01353000  1.0
  C  C157  1  0.27442000  0.19127000  0.01353000  1.0
  C  C158  1  0.30872000  0.27442000  0.01353000  1.0
  C  C159  1  0.22557000  0.30872000  0.01353000  1.0
  C  C160  1  0.22558000  0.48647000  0.30873000  1.0
  C  C161  1  0.01353000  0.22557000  0.30872000  1.0
  C  C162  1  0.48647000  0.27443000  0.30872000  1.0
  C  C163  1  0.48647000  0.22559000  0.19127000  1.0
  C  C164  1  0.27443000  0.48647000  0.19128000  1.0
  C  C165  1  0.01353000  0.27442000  0.19128000  1.0
  C  C166  1  0.22558000  0.01353000  0.19128000  1.0
  C  C167  1  0.27442000  0.01353000  0.30873000  1.0
  C  C168  1  0.30903000  0.49872000  0.77371000  1.0
  C  C169  1  0.49872000  0.19096000  0.77371000  1.0
  C  C170  1  0.19097000  0.49872000  0.72629000  1.0
  C  C171  1  0.49872000  0.77371000  0.30903000  1.0
  C  C172  1  0.19097000  0.00128000  0.77371000  1.0
  C  C173  1  0.49872000  0.30903000  0.72629000  1.0
  C  C174  1  0.77371000  0.00129000  0.30903000  1.0
  C  C175  1  0.00128000  0.30904000  0.77371000  1.0
  C  C176  1  0.30903000  0.00128000  0.72629000  1.0
  C  C177  1  0.00128000  0.72628000  0.30904000  1.0
  C  C178  1  0.00128000  0.19097000  0.72629000  1.0
  C  C179  1  0.72629000  0.49872000  0.30904000  1.0
  C  C180  1  0.00128000  0.77371000  0.19097000  1.0
  C  C181  1  0.72629000  0.00129000  0.19097000  1.0
  C  C182  1  0.49872000  0.72629000  0.19096000  1.0
  C  C183  1  0.77371000  0.49872000  0.19097000  1.0
  C  C184  1  0.77371000  0.30903000  0.49871000  1.0
  C  C185  1  0.19096000  0.77371000  0.49872000  1.0
  C  C186  1  0.30903000  0.72629000  0.49872000  1.0
  C  C187  1  0.30903000  0.77371000  0.00128000  1.0
  C  C188  1  0.72629000  0.30903000  0.00128000  1.0
  C  C189  1  0.19097000  0.72629000  0.00128000  1.0
  C  C190  1  0.77371000  0.19097000  0.00128000  1.0
  C  C191  1  0.72629000  0.19097000  0.49872000  1.0
  C  C192  1  0.69097000  0.50128000  0.22629000  1.0
  C  C193  1  0.50128000  0.80903000  0.22629000  1.0
  C  C194  1  0.80904000  0.50128000  0.27371000  1.0
  C  C195  1  0.50128000  0.22629000  0.69097000  1.0
  C  C196  1  0.80903000  0.99872000  0.22629000  1.0
  C  C197  1  0.50129000  0.69097000  0.27370000  1.0
  C  C198  1  0.22629000  0.99871000  0.69096000  1.0
  C  C199  1  0.99872000  0.69097000  0.22629000  1.0
  C  C200  1  0.69096000  0.99872000  0.27371000  1.0
  C  C201  1  0.99872000  0.27371000  0.69097000  1.0
  C  C202  1  0.99872000  0.80903000  0.27371000  1.0
  C  C203  1  0.27371000  0.50129000  0.69097000  1.0
  C  C204  1  0.99872000  0.22629000  0.80903000  1.0
  C  C205  1  0.27371000  0.99872000  0.80903000  1.0
  C  C206  1  0.50128000  0.27371000  0.80903000  1.0
  C  C207  1  0.22628000  0.50128000  0.80903000  1.0
  C  C208  1  0.22629000  0.69097000  0.50129000  1.0
  C  C209  1  0.80903000  0.22629000  0.50128000  1.0
  C  C210  1  0.69096000  0.27371000  0.50128000  1.0
  C  C211  1  0.69097000  0.22629000  0.99872000  1.0
  C  C212  1  0.27371000  0.69096000  0.99872000  1.0
  C  C213  1  0.80903000  0.27371000  0.99872000  1.0
  C  C214  1  0.22629000  0.80903000  0.99872000  1.0
  C  C215  1  0.27371000  0.80903000  0.50129000  1.0
  O  O216  1  0.46318000  0.53878000  0.63829000  1.0
  O  O217  1  0.53879000  0.03682000  0.63829000  1.0
  O  O218  1  0.03682000  0.53879000  0.86171000  1.0
  O  O219  1  0.53879000  0.63829000  0.46318000  1.0
  O  O220  1  0.03683000  0.96122000  0.63829000  1.0
  O  O221  1  0.53878000  0.46317000  0.86171000  1.0
  O  O222  1  0.63829000  0.96122000  0.46318000  1.0
  O  O223  1  0.96121000  0.46318000  0.63829000  1.0
  O  O224  1  0.46318000  0.96121000  0.86171000  1.0
  O  O225  1  0.96121000  0.86171000  0.46317000  1.0
  O  O226  1  0.96121000  0.03682000  0.86171000  1.0
  O  O227  1  0.86171000  0.53879000  0.46318000  1.0
  O  O228  1  0.96122000  0.63829000  0.03682000  1.0
  O  O229  1  0.86171000  0.96122000  0.03682000  1.0
  O  O230  1  0.53879000  0.86171000  0.03682000  1.0
  O  O231  1  0.63829000  0.53879000  0.03682000  1.0
  O  O232  1  0.63829000  0.46318000  0.53878000  1.0
  O  O233  1  0.03682000  0.63829000  0.53878000  1.0
  O  O234  1  0.46318000  0.86171000  0.53879000  1.0
  O  O235  1  0.46318000  0.63829000  0.96122000  1.0
  O  O236  1  0.86171000  0.46318000  0.96122000  1.0
  O  O237  1  0.03682000  0.86171000  0.96121000  1.0
  O  O238  1  0.63829000  0.03682000  0.96122000  1.0
  O  O239  1  0.86171000  0.03682000  0.53878000  1.0
  O  O240  1  0.53683000  0.46122000  0.36171000  1.0
  O  O241  1  0.46122000  0.96318000  0.36171000  1.0
  O  O242  1  0.96318000  0.46122000  0.13829000  1.0
  O  O243  1  0.46121000  0.36171000  0.53682000  1.0
  O  O244  1  0.96317000  0.03878000  0.36171000  1.0
  O  O245  1  0.46122000  0.53683000  0.13829000  1.0
  O  O246  1  0.36171000  0.03878000  0.53682000  1.0
  O  O247  1  0.03879000  0.53682000  0.36171000  1.0
  O  O248  1  0.53682000  0.03879000  0.13829000  1.0
  O  O249  1  0.03878000  0.13829000  0.53682000  1.0
  O  O250  1  0.03878000  0.96318000  0.13829000  1.0
  O  O251  1  0.13829000  0.46121000  0.53682000  1.0
  O  O252  1  0.03879000  0.36171000  0.96318000  1.0
  O  O253  1  0.13829000  0.03879000  0.96318000  1.0
  O  O254  1  0.46122000  0.13829000  0.96318000  1.0
  O  O255  1  0.36171000  0.46121000  0.96317000  1.0
  O  O256  1  0.36171000  0.53682000  0.46122000  1.0
  O  O257  1  0.96317000  0.36171000  0.46122000  1.0
  O  O258  1  0.53682000  0.13829000  0.46121000  1.0
  O  O259  1  0.53682000  0.36171000  0.03878000  1.0
  O  O260  1  0.13829000  0.53682000  0.03878000  1.0
  O  O261  1  0.96318000  0.13829000  0.03879000  1.0
  O  O262  1  0.36171000  0.96318000  0.03879000  1.0
  O  O263  1  0.13829000  0.96318000  0.46122000  1.0
  O  O264  1  0.51129000  0.62072000  0.80528000  1.0
  O  O265  1  0.62072000  0.98872000  0.80528000  1.0
  O  O266  1  0.98871000  0.62073000  0.69472000  1.0
  O  O267  1  0.62072000  0.80528000  0.51129000  1.0
  O  O268  1  0.98871000  0.87927000  0.80527000  1.0
  O  O269  1  0.62072000  0.51129000  0.69473000  1.0
  O  O270  1  0.80528000  0.87928000  0.51129000  1.0
  O  O271  1  0.87927000  0.51129000  0.80527000  1.0
  O  O272  1  0.51130000  0.87927000  0.69472000  1.0
  O  O273  1  0.87928000  0.69473000  0.51129000  1.0
  O  O274  1  0.87928000  0.98871000  0.69472000  1.0
  O  O275  1  0.69472000  0.62072000  0.51129000  1.0
  O  O276  1  0.87929000  0.80528000  0.98872000  1.0
  O  O277  1  0.69473000  0.87927000  0.98871000  1.0
  O  O278  1  0.62073000  0.69473000  0.98871000  1.0
  O  O279  1  0.80528000  0.62073000  0.98871000  1.0
  O  O280  1  0.80527000  0.51129000  0.62072000  1.0
  O  O281  1  0.98872000  0.80528000  0.62072000  1.0
  O  O282  1  0.51129000  0.69472000  0.62073000  1.0
  O  O283  1  0.51129000  0.80527000  0.87927000  1.0
  O  O284  1  0.69472000  0.51129000  0.87927000  1.0
  O  O285  1  0.98870000  0.69473000  0.87927000  1.0
  O  O286  1  0.80528000  0.98871000  0.87928000  1.0
  O  O287  1  0.69472000  0.98871000  0.62073000  1.0
  O  O288  1  0.48871000  0.37928000  0.19473000  1.0
  O  O289  1  0.37927000  0.01129000  0.19473000  1.0
  O  O290  1  0.01128000  0.37927000  0.30527000  1.0
  O  O291  1  0.37927000  0.19472000  0.48871000  1.0
  O  O292  1  0.01129000  0.12073000  0.19473000  1.0
  O  O293  1  0.37928000  0.48871000  0.30528000  1.0
  O  O294  1  0.19473000  0.12073000  0.48871000  1.0
  O  O295  1  0.12073000  0.48871000  0.19473000  1.0
  O  O296  1  0.48871000  0.12072000  0.30528000  1.0
  O  O297  1  0.12072000  0.30527000  0.48871000  1.0
  O  O298  1  0.12072000  0.01128000  0.30528000  1.0
  O  O299  1  0.30527000  0.37927000  0.48871000  1.0
  O  O300  1  0.12073000  0.19472000  0.01129000  1.0
  O  O301  1  0.30528000  0.12072000  0.01128000  1.0
  O  O302  1  0.37927000  0.30527000  0.01129000  1.0
  O  O303  1  0.19472000  0.37927000  0.01129000  1.0
  O  O304  1  0.19473000  0.48871000  0.37928000  1.0
  O  O305  1  0.01129000  0.19473000  0.37928000  1.0
  O  O306  1  0.48871000  0.30528000  0.37928000  1.0
  O  O307  1  0.48871000  0.19473000  0.12073000  1.0
  O  O308  1  0.30527000  0.48871000  0.12073000  1.0
  O  O309  1  0.01128000  0.30527000  0.12072000  1.0
  O  O310  1  0.19473000  0.01129000  0.12073000  1.0
  O  O311  1  0.30527000  0.01128000  0.37927000  1.0
  O  O312  1  0.37987000  0.49434000  0.80375000  1.0
  O  O313  1  0.49433000  0.12012000  0.80375000  1.0
  O  O314  1  0.12013000  0.49434000  0.69625000  1.0
  O  O315  1  0.49433000  0.80375000  0.37987000  1.0
  O  O316  1  0.12012000  0.00567000  0.80375000  1.0
  O  O317  1  0.49433000  0.37987000  0.69625000  1.0
  O  O318  1  0.80375000  0.00567000  0.37987000  1.0
  O  O319  1  0.00567000  0.37988000  0.80376000  1.0
  O  O320  1  0.37987000  0.00566000  0.69625000  1.0
  O  O321  1  0.00567000  0.69625000  0.37987000  1.0
  O  O322  1  0.00566000  0.12013000  0.69625000  1.0
  O  O323  1  0.69625000  0.49434000  0.37987000  1.0
  O  O324  1  0.00567000  0.80375000  0.12013000  1.0
  O  O325  1  0.69625000  0.00566000  0.12013000  1.0
  O  O326  1  0.49434000  0.69625000  0.12013000  1.0
  O  O327  1  0.80376000  0.49433000  0.12013000  1.0
  O  O328  1  0.80375000  0.37987000  0.49434000  1.0
  O  O329  1  0.12013000  0.80375000  0.49433000  1.0
  O  O330  1  0.37987000  0.69625000  0.49433000  1.0
  O  O331  1  0.37987000  0.80375000  0.00566000  1.0
  O  O332  1  0.69625000  0.37987000  0.00567000  1.0
  O  O333  1  0.12013000  0.69625000  0.00566000  1.0
  O  O334  1  0.80375000  0.12013000  0.00566000  1.0
  O  O335  1  0.69624000  0.12013000  0.49433000  1.0
  O  O336  1  0.62012000  0.50567000  0.19625000  1.0
  O  O337  1  0.50567000  0.87988000  0.19625000  1.0
  O  O338  1  0.87987000  0.50567000  0.30375000  1.0
  O  O339  1  0.50567000  0.19624000  0.62012000  1.0
  O  O340  1  0.87987000  0.99433000  0.19625000  1.0
  O  O341  1  0.50567000  0.62013000  0.30375000  1.0
  O  O342  1  0.19624000  0.99433000  0.62013000  1.0
  O  O343  1  0.99434000  0.62013000  0.19625000  1.0
  O  O344  1  0.62012000  0.99434000  0.30375000  1.0
  O  O345  1  0.99433000  0.30375000  0.62013000  1.0
  O  O346  1  0.99433000  0.87987000  0.30375000  1.0
  O  O347  1  0.30375000  0.50567000  0.62012000  1.0
  O  O348  1  0.99433000  0.19625000  0.87988000  1.0
  O  O349  1  0.30375000  0.99433000  0.87988000  1.0
  O  O350  1  0.50566000  0.30375000  0.87987000  1.0
  O  O351  1  0.19625000  0.50567000  0.87987000  1.0
  O  O352  1  0.19625000  0.62013000  0.50567000  1.0
  O  O353  1  0.87987000  0.19625000  0.50567000  1.0
  O  O354  1  0.62012000  0.30375000  0.50566000  1.0
  O  O355  1  0.62012000  0.19625000  0.99433000  1.0
  O  O356  1  0.30375000  0.62013000  0.99433000  1.0
  O  O357  1  0.87987000  0.30375000  0.99433000  1.0
  O  O358  1  0.19625000  0.87987000  0.99433000  1.0
  O  O359  1  0.30375000  0.87987000  0.50567000  1.0
