# generated using pymatgen
data_CdBH23C27N3(O2F)2
_symmetry_space_group_name_H-M   'P 1'
_cell_length_a   15.29830000
_cell_length_b   15.29830000
_cell_length_c   16.57290000
_cell_angle_alpha   84.05120000
_cell_angle_beta   84.05120000
_cell_angle_gamma   89.71420000
_symmetry_Int_Tables_number   1
_chemical_formula_structural   CdBH23C27N3(O2F)2
_chemical_formula_sum   'Cd4 B4 H92 C108 N12 O16 F8'
_cell_volume   3836.96147897
_cell_formula_units_Z   4
loop_
 _symmetry_equiv_pos_site_id
 _symmetry_equiv_pos_as_xyz
  1  'x, y, z'
loop_
 _atom_site_type_symbol
 _atom_site_label
 _atom_site_symmetry_multiplicity
 _atom_site_fract_x
 _atom_site_fract_y
 _atom_site_fract_z
 _atom_site_occupancy
  Cd  Cd0  1  0.86635000  0.11437000  0.33976000  1.0
  Cd  Cd1  1  0.88563000  0.13365000  0.16023000  1.0
  Cd  Cd2  1  0.13366000  0.88563000  0.66023000  1.0
  Cd  Cd3  1  0.11438000  0.86633000  0.83976000  1.0
  B  B4  1  0.39099000  0.08819000  0.14196000  1.0
  B  B5  1  0.91181000  0.60901000  0.35804000  1.0
  B  B6  1  0.60901000  0.91181000  0.85804000  1.0
  B  B7  1  0.08819000  0.39099000  0.64196000  1.0
  H  H8  1  0.74850000  0.13573000  0.75902000  1.0
  H  H9  1  0.86427000  0.25150000  0.74098000  1.0
  H  H10  1  0.25150000  0.86427000  0.24098000  1.0
  H  H11  1  0.13573000  0.74850000  0.25902000  1.0
  H  H12  1  0.82841000  0.05213000  0.76642000  1.0
  H  H13  1  0.94787000  0.17159000  0.73358000  1.0
  H  H14  1  0.17159000  0.94787000  0.23358000  1.0
  H  H15  1  0.05213000  0.82841000  0.26642000  1.0
  H  H16  1  0.75394000  0.23724000  0.61981000  1.0
  H  H17  1  0.76276000  0.24607000  0.88019000  1.0
  H  H18  1  0.24606000  0.76276000  0.38019000  1.0
  H  H19  1  0.23724000  0.75393000  0.11981000  1.0
  H  H20  1  0.78247000  0.23437000  0.46845000  1.0
  H  H21  1  0.76564000  0.21753000  0.03156000  1.0
  H  H22  1  0.21753000  0.76563000  0.53155000  1.0
  H  H23  1  0.23437000  0.78247000  0.96844000  1.0
  H  H24  1  0.91858000  0.00029000  0.49514000  1.0
  H  H25  1  0.99971000  0.08142000  0.00486000  1.0
  H  H26  1  0.08142000  0.99971000  0.50485000  1.0
  H  H27  1  0.00029000  0.91858000  0.99514000  1.0
  H  H28  1  0.90422000  0.99739000  0.64694000  1.0
  H  H29  1  0.00261000  0.09578000  0.85306000  1.0
  H  H30  1  0.09578000  0.00261000  0.35306000  1.0
  H  H31  1  0.99739000  0.90422000  0.14694000  1.0
  H  H32  1  0.19849000  0.13642000  0.03975000  1.0
  H  H33  1  0.86358000  0.80151000  0.46025000  1.0
  H  H34  1  0.80151000  0.86358000  0.96025000  1.0
  H  H35  1  0.13642000  0.19849000  0.53974000  1.0
  H  H36  1  0.15083000  0.03637000  0.08466000  1.0
  H  H37  1  0.96363000  0.84917000  0.41534000  1.0
  H  H38  1  0.84917000  0.96363000  0.91534000  1.0
  H  H39  1  0.03637000  0.15083000  0.58466000  1.0
  H  H40  1  0.26747000  0.04332000  0.05557000  1.0
  H  H41  1  0.95668000  0.73253000  0.44443000  1.0
  H  H42  1  0.73253000  0.95668000  0.94443000  1.0
  H  H43  1  0.04332000  0.26747000  0.55557000  1.0
  H  H44  1  0.08902000  0.19157000  0.36485000  1.0
  H  H45  1  0.80843000  0.91098000  0.13515000  1.0
  H  H46  1  0.91098000  0.80843000  0.63515000  1.0
  H  H47  1  0.19157000  0.08902000  0.86485000  1.0
  H  H48  1  0.18968000  0.24483000  0.37781000  1.0
  H  H49  1  0.75517000  0.81032000  0.12219000  1.0
  H  H50  1  0.81032000  0.75517000  0.62219000  1.0
  H  H51  1  0.24483000  0.18968000  0.87781000  1.0
  H  H52  1  0.16904000  0.13664000  0.42190000  1.0
  H  H53  1  0.86336000  0.83096000  0.07810000  1.0
  H  H54  1  0.83096000  0.86336000  0.57810000  1.0
  H  H55  1  0.13664000  0.16904000  0.92190000  1.0
  H  H56  1  0.36677000  0.29978000  0.37391000  1.0
  H  H57  1  0.70022000  0.63323000  0.12609000  1.0
  H  H58  1  0.63323000  0.70022000  0.62609000  1.0
  H  H59  1  0.29978000  0.36677000  0.87391000  1.0
  H  H60  1  0.33963000  0.32860000  0.51950000  1.0
  H  H61  1  0.67140000  0.66037000  0.98050000  1.0
  H  H62  1  0.66037000  0.67141000  0.48050000  1.0
  H  H63  1  0.32859000  0.33963000  0.01950000  1.0
  H  H64  1  0.31051000  0.20407000  0.62800000  1.0
  H  H65  1  0.79593000  0.68949000  0.87200000  1.0
  H  H66  1  0.68949000  0.79593000  0.37200000  1.0
  H  H67  1  0.20406000  0.31051000  0.12800000  1.0
  H  H68  1  0.30633000  0.05054000  0.59053000  1.0
  H  H69  1  0.94946000  0.69367000  0.90947000  1.0
  H  H70  1  0.69367000  0.94946000  0.40947000  1.0
  H  H71  1  0.05054000  0.30632000  0.09053000  1.0
  H  H72  1  0.33122000  0.02265000  0.44464000  1.0
  H  H73  1  0.97735000  0.66878000  0.05536000  1.0
  H  H74  1  0.66878000  0.97735000  0.55536000  1.0
  H  H75  1  0.02265000  0.33122000  0.94464000  1.0
  H  H76  1  0.62153000  0.14047000  0.39899000  1.0
  H  H77  1  0.85953000  0.37847000  0.10101000  1.0
  H  H78  1  0.37847000  0.85953000  0.60101000  1.0
  H  H79  1  0.14047000  0.62153000  0.89899000  1.0
  H  H80  1  0.51389000  0.10450000  0.44012000  1.0
  H  H81  1  0.89550000  0.48611000  0.05989000  1.0
  H  H82  1  0.48610000  0.89549000  0.55989000  1.0
  H  H83  1  0.10450000  0.51389000  0.94011000  1.0
  H  H84  1  0.53184000  0.21579000  0.40438000  1.0
  H  H85  1  0.78421000  0.46816000  0.09563000  1.0
  H  H86  1  0.46816000  0.78421000  0.59563000  1.0
  H  H87  1  0.21579000  0.53184000  0.90437000  1.0
  H  H88  1  0.55739000  0.01400000  0.08105000  1.0
  H  H89  1  0.98600000  0.44261000  0.41895000  1.0
  H  H90  1  0.44261000  0.98600000  0.91895000  1.0
  H  H91  1  0.01400000  0.55739000  0.58105000  1.0
  H  H92  1  0.65881000  0.06855000  0.09151000  1.0
  H  H93  1  0.93145000  0.34119000  0.40849000  1.0
  H  H94  1  0.34119000  0.93145000  0.90849000  1.0
  H  H95  1  0.06855000  0.65881000  0.59151000  1.0
  H  H96  1  0.57117000  0.12600000  0.04635000  1.0
  H  H97  1  0.87400000  0.42883000  0.45365000  1.0
  H  H98  1  0.42883000  0.87400000  0.95365000  1.0
  H  H99  1  0.12600000  0.57117000  0.54635000  1.0
  C  C100  1  0.81606000  0.11811000  0.73715000  1.0
  C  C101  1  0.88189000  0.18395000  0.76286000  1.0
  C  C102  1  0.18394000  0.88189000  0.26285000  1.0
  C  C103  1  0.11811000  0.81606000  0.23714000  1.0
  C  C104  1  0.82612000  0.11677000  0.64637000  1.0
  C  C105  1  0.88323000  0.17389000  0.85363000  1.0
  C  C106  1  0.17388000  0.88322000  0.35363000  1.0
  C  C107  1  0.11677000  0.82611000  0.14637000  1.0
  C  C108  1  0.79165000  0.18375000  0.59484000  1.0
  C  C109  1  0.81626000  0.20835000  0.90517000  1.0
  C  C110  1  0.20835000  0.81625000  0.40516000  1.0
  C  C111  1  0.18374000  0.79165000  0.09484000  1.0
  C  C112  1  0.80634000  0.18250000  0.51084000  1.0
  C  C113  1  0.81751000  0.19367000  0.98916000  1.0
  C  C114  1  0.19366000  0.81751000  0.48916000  1.0
  C  C115  1  0.18249000  0.80633000  0.01084000  1.0
  C  C116  1  0.88421000  0.05230000  0.52575000  1.0
  C  C117  1  0.94770000  0.11579000  0.97425000  1.0
  C  C118  1  0.11579000  0.94770000  0.47425000  1.0
  C  C119  1  0.05230000  0.88421000  0.02574000  1.0
  C  C120  1  0.87444000  0.05045000  0.61014000  1.0
  C  C121  1  0.94955000  0.12556000  0.88986000  1.0
  C  C122  1  0.12556000  0.94955000  0.38986000  1.0
  C  C123  1  0.05045000  0.87444000  0.11014000  1.0
  C  C124  1  0.06111000  0.12381000  0.22129000  1.0
  C  C125  1  0.87619000  0.93889000  0.27872000  1.0
  C  C126  1  0.93889000  0.87619000  0.77871000  1.0
  C  C127  1  0.12381000  0.06111000  0.72128000  1.0
  C  C128  1  0.20980000  0.07754000  0.08124000  1.0
  C  C129  1  0.92246000  0.79020000  0.41876000  1.0
  C  C130  1  0.79020000  0.92246000  0.91876000  1.0
  C  C131  1  0.07754000  0.20980000  0.58124000  1.0
  C  C132  1  0.22205000  0.10411000  0.16303000  1.0
  C  C133  1  0.89589000  0.77795000  0.33697000  1.0
  C  C134  1  0.77795000  0.89589000  0.83698000  1.0
  C  C135  1  0.10411000  0.22205000  0.66302000  1.0
  C  C136  1  0.15705000  0.12713000  0.22528000  1.0
  C  C137  1  0.87287000  0.84295000  0.27472000  1.0
  C  C138  1  0.84294000  0.87287000  0.77472000  1.0
  C  C139  1  0.12713000  0.15705000  0.72528000  1.0
  C  C140  1  0.20061000  0.14845000  0.29172000  1.0
  C  C141  1  0.85155000  0.79939000  0.20828000  1.0
  C  C142  1  0.79939000  0.85155000  0.70828000  1.0
  C  C143  1  0.14845000  0.20061000  0.79172000  1.0
  C  C144  1  0.15950000  0.18241000  0.36794000  1.0
  C  C145  1  0.81759000  0.84050000  0.13206000  1.0
  C  C146  1  0.84049000  0.81759000  0.63206000  1.0
  C  C147  1  0.18241000  0.15951000  0.86794000  1.0
  C  C148  1  0.29189000  0.13527000  0.26916000  1.0
  C  C149  1  0.86473000  0.70811000  0.23084000  1.0
  C  C150  1  0.70811000  0.86473000  0.73084000  1.0
  C  C151  1  0.13527000  0.29189000  0.76916000  1.0
  C  C152  1  0.36493000  0.14084000  0.31346000  1.0
  C  C153  1  0.85916000  0.63507000  0.18654000  1.0
  C  C154  1  0.63507000  0.85916000  0.68654000  1.0
  C  C155  1  0.14084000  0.36493000  0.81345000  1.0
  C  C156  1  0.35086000  0.15939000  0.40020000  1.0
  C  C157  1  0.84061000  0.64914000  0.09980000  1.0
  C  C158  1  0.64914000  0.84061000  0.59980000  1.0
  C  C159  1  0.15939000  0.35086000  0.90020000  1.0
  C  C160  1  0.35374000  0.24540000  0.42163000  1.0
  C  C161  1  0.75460000  0.64626000  0.07837000  1.0
  C  C162  1  0.64625000  0.75461000  0.57837000  1.0
  C  C163  1  0.24540000  0.35374000  0.92163000  1.0
  C  C164  1  0.33916000  0.26131000  0.50337000  1.0
  C  C165  1  0.73869000  0.66084000  0.99663000  1.0
  C  C166  1  0.66084000  0.73869000  0.49663000  1.0
  C  C167  1  0.26131000  0.33917000  0.00337000  1.0
  C  C168  1  0.32257000  0.19142000  0.56426000  1.0
  C  C169  1  0.80858000  0.67743000  0.93574000  1.0
  C  C170  1  0.67743000  0.80858000  0.43574000  1.0
  C  C171  1  0.19142000  0.32257000  0.06426000  1.0
  C  C172  1  0.31997000  0.10533000  0.54337000  1.0
  C  C173  1  0.89467000  0.68003000  0.95663000  1.0
  C  C174  1  0.68003000  0.89467000  0.45663000  1.0
  C  C175  1  0.10533000  0.31997000  0.04337000  1.0
  C  C176  1  0.33374000  0.08957000  0.46156000  1.0
  C  C177  1  0.91043000  0.66626000  0.03844000  1.0
  C  C178  1  0.66626000  0.91043000  0.53844000  1.0
  C  C179  1  0.08957000  0.33374000  0.96156000  1.0
  C  C180  1  0.44996000  0.12574000  0.27792000  1.0
  C  C181  1  0.87426000  0.55004000  0.22209000  1.0
  C  C182  1  0.55004000  0.87426000  0.72209000  1.0
  C  C183  1  0.12574000  0.44996000  0.77791000  1.0
  C  C184  1  0.53353000  0.12951000  0.30931000  1.0
  C  C185  1  0.87049000  0.46647000  0.19069000  1.0
  C  C186  1  0.46647000  0.87049000  0.69069000  1.0
  C  C187  1  0.12951000  0.53352000  0.80931000  1.0
  C  C188  1  0.55145000  0.14868000  0.39264000  1.0
  C  C189  1  0.85131000  0.44855000  0.10736000  1.0
  C  C190  1  0.44855000  0.85131000  0.60736000  1.0
  C  C191  1  0.14869000  0.55145000  0.89264000  1.0
  C  C192  1  0.59657000  0.11415000  0.24446000  1.0
  C  C193  1  0.88586000  0.40343000  0.25555000  1.0
  C  C194  1  0.40343000  0.88585000  0.75554000  1.0
  C  C195  1  0.11415000  0.59657000  0.74445000  1.0
  C  C196  1  0.55133000  0.09901000  0.17594000  1.0
  C  C197  1  0.90099000  0.44866000  0.32406000  1.0
  C  C198  1  0.44867000  0.90099000  0.82406000  1.0
  C  C199  1  0.09901000  0.55133000  0.67594000  1.0
  C  C200  1  0.58747000  0.07529000  0.09440000  1.0
  C  C201  1  0.92471000  0.41253000  0.40560000  1.0
  C  C202  1  0.41253000  0.92471000  0.90560000  1.0
  C  C203  1  0.07529000  0.58747000  0.59440000  1.0
  C  C204  1  0.69336000  0.11733000  0.24458000  1.0
  C  C205  1  0.88268000  0.30664000  0.25542000  1.0
  C  C206  1  0.30664000  0.88267000  0.75541000  1.0
  C  C207  1  0.11733000  0.69336000  0.74459000  1.0
  N  N208  1  0.85132000  0.11729000  0.47687000  1.0
  N  N209  1  0.88271000  0.14868000  0.02313000  1.0
  N  N210  1  0.14868000  0.88271000  0.52313000  1.0
  N  N211  1  0.11729000  0.85132000  0.97687000  1.0
  N  N212  1  0.46418000  0.10566000  0.19691000  1.0
  N  N213  1  0.89434000  0.53582000  0.30309000  1.0
  N  N214  1  0.53582000  0.89434000  0.80309000  1.0
  N  N215  1  0.10566000  0.46418000  0.69691000  1.0
  N  N216  1  0.30187000  0.10913000  0.19011000  1.0
  N  N217  1  0.89087000  0.69813000  0.30989000  1.0
  N  N218  1  0.69813000  0.89087000  0.80989000  1.0
  N  N219  1  0.10913000  0.30187000  0.69011000  1.0
  O  O220  1  0.03352000  0.12246000  0.15121000  1.0
  O  O221  1  0.87753000  0.96647000  0.34879000  1.0
  O  O222  1  0.96648000  0.87754000  0.84879000  1.0
  O  O223  1  0.12246000  0.03352000  0.65121000  1.0
  O  O224  1  0.01214000  0.12061000  0.28899000  1.0
  O  O225  1  0.87939000  0.98786000  0.21101000  1.0
  O  O226  1  0.98785000  0.87939000  0.71101000  1.0
  O  O227  1  0.12061000  0.01214000  0.78899000  1.0
  O  O228  1  0.73808000  0.14171000  0.17645000  1.0
  O  O229  1  0.85829000  0.26192000  0.32355000  1.0
  O  O230  1  0.26193000  0.85828000  0.82355000  1.0
  O  O231  1  0.14171000  0.73807000  0.67645000  1.0
  O  O232  1  0.72519000  0.09668000  0.31206000  1.0
  O  O233  1  0.90332000  0.27481000  0.18794000  1.0
  O  O234  1  0.27481000  0.90331000  0.68794000  1.0
  O  O235  1  0.09669000  0.72518000  0.81207000  1.0
  F  F236  1  0.40277000  0.14349000  0.06816000  1.0
  F  F237  1  0.85651000  0.59724000  0.43184000  1.0
  F  F238  1  0.59724000  0.85652000  0.93184000  1.0
  F  F239  1  0.14349000  0.40276000  0.56816000  1.0
  F  F240  1  0.39242000  0.99903000  0.12612000  1.0
  F  F241  1  0.00097000  0.60758000  0.37388000  1.0
  F  F242  1  0.60757000  0.00097000  0.87388000  1.0
  F  F243  1  0.99903000  0.39242000  0.62611000  1.0
