# generated using pymatgen
data_CuH11C7BrN2
_symmetry_space_group_name_H-M   'P 1'
_cell_length_a   4.13233000
_cell_length_b   8.26786000
_cell_length_c   24.37840000
_cell_angle_alpha   89.99970000
_cell_angle_beta   92.38500000
_cell_angle_gamma   89.99980000
_symmetry_Int_Tables_number   1
_chemical_formula_structural   CuH11C7BrN2
_chemical_formula_sum   'Cu4 H44 C28 Br4 N8'
_cell_volume   832.17936395
_cell_formula_units_Z   4
loop_
 _symmetry_equiv_pos_site_id
 _symmetry_equiv_pos_as_xyz
  1  'x, y, z'
loop_
 _atom_site_type_symbol
 _atom_site_label
 _atom_site_symmetry_multiplicity
 _atom_site_fract_x
 _atom_site_fract_y
 _atom_site_fract_z
 _atom_site_occupancy
  Cu  Cu0  1  0.24755000  0.45929000  0.05732000  1.0
  Cu  Cu1  1  0.25242000  0.95929000  0.44268000  1.0
  Cu  Cu2  1  0.75240000  0.54071000  0.94268000  1.0
  Cu  Cu3  1  0.74757000  0.04072000  0.55732000  1.0
  H  H4  1  0.70231000  0.52823000  0.14899000  1.0
  H  H5  1  0.79768000  0.02823000  0.35101000  1.0
  H  H6  1  0.29771000  0.47177000  0.85101000  1.0
  H  H7  1  0.20230000  0.97177000  0.64899000  1.0
  H  H8  1  0.83632000  0.42438000  0.20976000  1.0
  H  H9  1  0.66367000  0.92438000  0.29024000  1.0
  H  H10  1  0.16368000  0.57562000  0.79023000  1.0
  H  H11  1  0.33631000  0.07562000  0.70977000  1.0
  H  H12  1  0.47029000  0.53781000  0.20879000  1.0
  H  H13  1  0.02971000  0.03781000  0.29121000  1.0
  H  H14  1  0.52973000  0.46219000  0.79121000  1.0
  H  H15  1  0.97028000  0.96219000  0.70879000  1.0
  H  H16  1  0.53203000  0.13030000  0.23308000  1.0
  H  H17  1  0.96794000  0.63029000  0.26692000  1.0
  H  H18  1  0.46796000  0.86971000  0.76692000  1.0
  H  H19  1  0.03204000  0.36970000  0.73308000  1.0
  H  H20  1  0.17239000  0.81516000  0.13463000  1.0
  H  H21  1  0.32760000  0.31515000  0.36537000  1.0
  H  H22  1  0.82760000  0.18485000  0.86537000  1.0
  H  H23  1  0.67241000  0.68485000  0.63463000  1.0
  H  H24  1  0.83935000  0.88852000  0.17047000  1.0
  H  H25  1  0.66064000  0.38852000  0.32953000  1.0
  H  H26  1  0.16065000  0.11148000  0.82953000  1.0
  H  H27  1  0.33936000  0.61149000  0.67047000  1.0
  H  H28  1  0.21075000  0.84646000  0.20694000  1.0
  H  H29  1  0.28925000  0.34646000  0.29306000  1.0
  H  H30  1  0.78925000  0.15353000  0.79306000  1.0
  H  H31  1  0.71076000  0.65354000  0.70694000  1.0
  H  H32  1  0.81413000  0.21781000  0.05198000  1.0
  H  H33  1  0.68587000  0.71781000  0.44802000  1.0
  H  H34  1  0.18588000  0.78219000  0.94802000  1.0
  H  H35  1  0.31414000  0.28220000  0.55198000  1.0
  H  H36  1  0.72969000  0.03052000  0.08428000  1.0
  H  H37  1  0.77032000  0.53052000  0.41572000  1.0
  H  H38  1  0.27032000  0.96947000  0.91572000  1.0
  H  H39  1  0.22970000  0.46949000  0.58428000  1.0
  H  H40  1  0.31197000  0.09339000  0.01376000  1.0
  H  H41  1  0.18805000  0.59340000  0.48624000  1.0
  H  H42  1  0.68806000  0.90661000  0.98624000  1.0
  H  H43  1  0.81197000  0.40661000  0.51376000  1.0
  H  H44  1  0.20634000  0.90285000  0.04211000  1.0
  H  H45  1  0.29368000  0.40284000  0.45789000  1.0
  H  H46  1  0.79368000  0.09716000  0.95789000  1.0
  H  H47  1  0.70634000  0.59716000  0.54210000  1.0
  C  C48  1  0.62236000  0.45855000  0.18424000  1.0
  C  C49  1  0.87764000  0.95855000  0.31576000  1.0
  C  C50  1  0.37764000  0.54145000  0.81576000  1.0
  C  C51  1  0.12235000  0.04145000  0.68424000  1.0
  C  C52  1  0.44325000  0.31062000  0.16599000  1.0
  C  C53  1  0.05672000  0.81062000  0.33401000  1.0
  C  C54  1  0.55674000  0.68939000  0.83401000  1.0
  C  C55  1  0.94326000  0.18939000  0.66599000  1.0
  C  C56  1  0.41564000  0.16267000  0.19398000  1.0
  C  C57  1  0.08435000  0.66266000  0.30602000  1.0
  C  C58  1  0.58435000  0.83733000  0.80602000  1.0
  C  C59  1  0.91563000  0.33733000  0.69398000  1.0
  C  C60  1  0.21558000  0.06441000  0.16086000  1.0
  C  C61  1  0.28441000  0.56441000  0.33914000  1.0
  C  C62  1  0.78441000  0.93559000  0.83914000  1.0
  C  C63  1  0.71559000  0.43559000  0.66086000  1.0
  C  C64  1  0.10447000  0.89495000  0.16841000  1.0
  C  C65  1  0.39552000  0.39495000  0.33159000  1.0
  C  C66  1  0.89553000  0.10505000  0.83159000  1.0
  C  C67  1  0.60447000  0.60505000  0.66841000  1.0
  C  C68  1  0.92429000  0.10630000  0.06891000  1.0
  C  C69  1  0.57572000  0.60630000  0.43109000  1.0
  C  C70  1  0.07572000  0.89369000  0.93109000  1.0
  C  C71  1  0.42429000  0.39371000  0.56891000  1.0
  C  C72  1  0.10849000  0.01729000  0.02531000  1.0
  C  C73  1  0.39153000  0.51729000  0.47469000  1.0
  C  C74  1  0.89153000  0.98271000  0.97469000  1.0
  C  C75  1  0.60849000  0.48271000  0.52531000  1.0
  Br  Br76  1  0.74501000  0.62716000  0.04623000  1.0
  Br  Br77  1  0.75498000  0.12714000  0.45377000  1.0
  Br  Br78  1  0.25498000  0.37285000  0.95377000  1.0
  Br  Br79  1  0.24502000  0.87286000  0.54623000  1.0
  N  N80  1  0.26988000  0.30412000  0.11779000  1.0
  N  N81  1  0.23011000  0.80412000  0.38221000  1.0
  N  N82  1  0.73013000  0.69588000  0.88221000  1.0
  N  N83  1  0.76988000  0.19589000  0.61779000  1.0
  N  N84  1  0.13015000  0.15426000  0.11582000  1.0
  N  N85  1  0.36984000  0.65425000  0.38418000  1.0
  N  N86  1  0.86985000  0.84574000  0.88418000  1.0
  N  N87  1  0.63016000  0.34575000  0.61582000  1.0
