# generated using pymatgen
data_AgP2H13C10(NO4)2
_symmetry_space_group_name_H-M   'P 1'
_cell_length_a   8.04731000
_cell_length_b   10.32390000
_cell_length_c   10.45548024
_cell_angle_alpha   104.33936156
_cell_angle_beta   111.30130209
_cell_angle_gamma   105.00380000
_symmetry_Int_Tables_number   1
_chemical_formula_structural   AgP2H13C10(NO4)2
_chemical_formula_sum   'Ag2 P4 H26 C20 N4 O16'
_cell_volume   723.15906094
_cell_formula_units_Z   2
loop_
 _symmetry_equiv_pos_site_id
 _symmetry_equiv_pos_as_xyz
  1  'x, y, z'
loop_
 _atom_site_type_symbol
 _atom_site_label
 _atom_site_symmetry_multiplicity
 _atom_site_fract_x
 _atom_site_fract_y
 _atom_site_fract_z
 _atom_site_occupancy
  Ag  Ag0  1  0.15196000  0.93750000  0.98958000  1.0
  Ag  Ag1  1  0.84804000  0.06250000  0.01042000  1.0
  P  P2  1  0.34235000  0.10436000  0.40851000  1.0
  P  P3  1  0.65764000  0.89564000  0.59148000  1.0
  P  P4  1  0.97214000  0.30015000  0.49899000  1.0
  P  P5  1  0.02786000  0.69985000  0.50102000  1.0
  H  H6  1  0.57263000  0.14821000  0.17897000  1.0
  H  H7  1  0.42737000  0.85179000  0.82103000  1.0
  H  H8  1  0.80476000  0.35455000  0.17800000  1.0
  H  H9  1  0.19525000  0.64545000  0.82201000  1.0
  H  H10  1  0.35404000  0.30029000  0.75873000  1.0
  H  H11  1  0.64597000  0.69972000  0.24127000  1.0
  H  H12  1  0.14357000  0.09191000  0.77474000  1.0
  H  H13  1  0.85643000  0.90810000  0.22526000  1.0
  H  H14  1  0.95049000  0.55398000  0.19850000  1.0
  H  H15  1  0.04951000  0.44602000  0.80150000  1.0
  H  H16  1  0.84563000  0.22372000  0.80384000  1.0
  H  H17  1  0.15437000  0.77628000  0.19616000  1.0
  H  H18  1  0.44583000  0.54507000  0.25774000  1.0
  H  H19  1  0.55417000  0.45493000  0.74226000  1.0
  H  H20  1  0.22932000  0.31348000  0.23715000  1.0
  H  H21  1  0.77068000  0.68652000  0.76285000  1.0
  H  H22  1  0.62223000  0.29281000  0.49750000  1.0
  H  H23  1  0.37777000  0.70719000  0.50250000  1.0
  H  H24  1  0.53231000  0.99336000  0.37800000  1.0
  H  H25  1  0.46768000  0.00664000  0.62199000  1.0
  H  H26  1  0.04418000  0.17792000  0.33056000  1.0
  H  H27  1  0.95581000  0.82208000  0.66944000  1.0
  H  H28  1  0.86113000  0.09797000  0.54154000  1.0
  H  H29  1  0.13887000  0.90203000  0.45846000  1.0
  H  H30  1  0.18950000  0.51383000  0.56474000  1.0
  H  H31  1  0.81051000  0.48617000  0.43527000  1.0
  C  C32  1  0.53019000  0.18491000  0.08749000  1.0
  C  C33  1  0.46981000  0.81509000  0.91251000  1.0
  C  C34  1  0.65975000  0.30236000  0.08598000  1.0
  C  C35  1  0.34025000  0.69764000  0.91402000  1.0
  C  C36  1  0.60114000  0.35102000  0.96922000  1.0
  C  C37  1  0.39887000  0.64898000  0.03078000  1.0
  C  C38  1  0.41227000  0.27125000  0.85395000  1.0
  C  C39  1  0.58773000  0.72875000  0.14605000  1.0
  C  C40  1  0.29129000  0.15370000  0.86196000  1.0
  C  C41  1  0.70871000  0.84631000  0.13804000  1.0
  C  C42  1  0.73035000  0.48298000  0.97065000  1.0
  C  C43  1  0.26966000  0.51702000  0.02935000  1.0
  C  C44  1  0.90381000  0.57629000  0.09782000  1.0
  C  C45  1  0.09620000  0.42371000  0.90218000  1.0
  C  C46  1  0.98077000  0.29770000  0.90154000  1.0
  C  C47  1  0.01923000  0.70230000  0.09846000  1.0
  C  C48  1  0.31662000  0.47721000  0.15325000  1.0
  C  C49  1  0.68339000  0.52279000  0.84675000  1.0
  C  C50  1  0.19493000  0.34874000  0.14412000  1.0
  C  C51  1  0.80508000  0.65126000  0.85588000  1.0
  N  N52  1  0.34710000  0.11202000  0.97806000  1.0
  N  N53  1  0.65290000  0.88798000  0.02194000  1.0
  N  N54  1  0.02913000  0.25919000  0.01997000  1.0
  N  N55  1  0.97087000  0.74082000  0.98003000  1.0
  O  O56  1  0.16283000  0.11002000  0.29754000  1.0
  O  O57  1  0.83717000  0.88999000  0.70245000  1.0
  O  O58  1  0.50407000  0.26032000  0.51465000  1.0
  O  O59  1  0.49592000  0.73968000  0.48535000  1.0
  O  O60  1  0.30383000  0.02984000  0.51145000  1.0
  O  O61  1  0.69616000  0.97016000  0.48854000  1.0
  O  O62  1  0.42522000  0.02042000  0.31383000  1.0
  O  O63  1  0.57477000  0.97958000  0.68616000  1.0
  O  O64  1  0.94330000  0.22479000  0.33894000  1.0
  O  O65  1  0.05670000  0.77521000  0.66106000  1.0
  O  O66  1  0.98266000  0.19645000  0.58414000  1.0
  O  O67  1  0.01734000  0.80354000  0.41586000  1.0
  O  O68  1  0.81227000  0.35724000  0.48612000  1.0
  O  O69  1  0.18773000  0.64275000  0.51389000  1.0
  O  O70  1  0.17905000  0.42593000  0.59536000  1.0
  O  O71  1  0.82095000  0.57406000  0.40465000  1.0
