# generated using pymatgen
data_AgH3(C2N)6
_symmetry_space_group_name_H-M   'P 1'
_cell_length_a   3.90251000
_cell_length_b   18.33354481
_cell_length_c   19.78870156
_cell_angle_alpha   65.32057198
_cell_angle_beta   84.38247173
_cell_angle_gamma   83.94583971
_symmetry_Int_Tables_number   1
_chemical_formula_structural   AgH3(C2N)6
_chemical_formula_sum   'Ag4 H12 C48 N24'
_cell_volume   1277.04647057
_cell_formula_units_Z   4
loop_
 _symmetry_equiv_pos_site_id
 _symmetry_equiv_pos_as_xyz
  1  'x, y, z'
loop_
 _atom_site_type_symbol
 _atom_site_label
 _atom_site_symmetry_multiplicity
 _atom_site_fract_x
 _atom_site_fract_y
 _atom_site_fract_z
 _atom_site_occupancy
  Ag  Ag0  1  0.77714000  0.54634000  0.30535000  1.0
  Ag  Ag1  1  0.62828000  0.95363000  0.19428000  1.0
  Ag  Ag2  1  0.22287000  0.45366000  0.69465000  1.0
  Ag  Ag3  1  0.37171000  0.04637000  0.80572000  1.0
  H  H4  1  0.18092000  0.34569000  0.18506000  1.0
  H  H5  1  0.71234000  0.15418000  0.31484000  1.0
  H  H6  1  0.81905000  0.65431000  0.81494000  1.0
  H  H7  1  0.28766000  0.84582000  0.68516000  1.0
  H  H8  1  0.55603000  0.40120000  0.15366000  1.0
  H  H9  1  0.11130000  0.09884000  0.34632000  1.0
  H  H10  1  0.44394000  0.59880000  0.84634000  1.0
  H  H11  1  0.88871000  0.90116000  0.65368000  1.0
  H  H12  1  0.18080000  0.43825000  0.10137000  1.0
  H  H13  1  0.72096000  0.06162000  0.39852000  1.0
  H  H14  1  0.81917000  0.56175000  0.89863000  1.0
  H  H15  1  0.27904000  0.93838000  0.60148000  1.0
  C  C16  1  0.27317000  0.40656000  0.15786000  1.0
  C  C17  1  0.83812000  0.09335000  0.34207000  1.0
  C  C18  1  0.72681000  0.59344000  0.84214000  1.0
  C  C19  1  0.16189000  0.90665000  0.65793000  1.0
  C  C20  1  0.15238000  0.45158000  0.20140000  1.0
  C  C21  1  0.80617000  0.04834000  0.29844000  1.0
  C  C22  1  0.84761000  0.54842000  0.79860000  1.0
  C  C23  1  0.19382000  0.95166000  0.70156000  1.0
  C  C24  1  0.95436000  0.69672000  0.44416000  1.0
  C  C25  1  0.09509000  0.80315000  0.05567000  1.0
  C  C26  1  0.04566000  0.30328000  0.55584000  1.0
  C  C27  1  0.90491000  0.19685000  0.94433000  1.0
  C  C28  1  0.09388000  0.77322000  0.41579000  1.0
  C  C29  1  0.28236000  0.72666000  0.08412000  1.0
  C  C30  1  0.90613000  0.22678000  0.58421000  1.0
  C  C31  1  0.71764000  0.27334000  0.91588000  1.0
  C  C32  1  0.06219000  0.80100000  0.47354000  1.0
  C  C33  1  0.33633000  0.69885000  0.02639000  1.0
  C  C34  1  0.93781000  0.19900000  0.52646000  1.0
  C  C35  1  0.66367000  0.30115000  0.97361000  1.0
  C  C36  1  0.90104000  0.74179000  0.53759000  1.0
  C  C37  1  0.18037000  0.75799000  0.96229000  1.0
  C  C38  1  0.09896000  0.25821000  0.46241000  1.0
  C  C39  1  0.81963000  0.24201000  0.03771000  1.0
  C  C40  1  0.83345000  0.67754000  0.51937000  1.0
  C  C41  1  0.03075000  0.82228000  0.98044000  1.0
  C  C42  1  0.16656000  0.32246000  0.48063000  1.0
  C  C43  1  0.96926000  0.17772000  0.01956000  1.0
  C  C44  1  0.93982000  0.64888000  0.40494000  1.0
  C  C45  1  0.99350000  0.85102000  0.09484000  1.0
  C  C46  1  0.06019000  0.35112000  0.59506000  1.0
  C  C47  1  0.00650000  0.14898000  0.90516000  1.0
  C  C48  1  0.24118000  0.81344000  0.34368000  1.0
  C  C49  1  0.39797000  0.68648000  0.15624000  1.0
  C  C50  1  0.75883000  0.18656000  0.65632000  1.0
  C  C51  1  0.60202000  0.31352000  0.84376000  1.0
  C  C52  1  0.18005000  0.87360000  0.46759000  1.0
  C  C53  1  0.52065000  0.62629000  0.03241000  1.0
  C  C54  1  0.81996000  0.12640000  0.53241000  1.0
  C  C55  1  0.47935000  0.37371000  0.96759000  1.0
  C  C56  1  0.81596000  0.74540000  0.60694000  1.0
  C  C57  1  0.16878000  0.75434000  0.89292000  1.0
  C  C58  1  0.18403000  0.25460000  0.39306000  1.0
  C  C59  1  0.83122000  0.24566000  0.10708000  1.0
  C  C60  1  0.67036000  0.60816000  0.56679000  1.0
  C  C61  1  0.84591000  0.89162000  0.93303000  1.0
  C  C62  1  0.32965000  0.39184000  0.43321000  1.0
  C  C63  1  0.15410000  0.10838000  0.06697000  1.0
  N  N64  1  0.05121000  0.48753000  0.23667000  1.0
  N  N65  1  0.77648000  0.01238000  0.26314000  1.0
  N  N66  1  0.94879000  0.51248000  0.76333000  1.0
  N  N67  1  0.22353000  0.98762000  0.73685000  1.0
  N  N68  1  0.93098000  0.60890000  0.37224000  1.0
  N  N69  1  0.91175000  0.89101000  0.12751000  1.0
  N  N70  1  0.06903000  0.39110000  0.62776000  1.0
  N  N71  1  0.08823000  0.10899000  0.87250000  1.0
  N  N72  1  0.36596000  0.84693000  0.28369000  1.0
  N  N73  1  0.49555000  0.65302000  0.21630000  1.0
  N  N74  1  0.63405000  0.15307000  0.71631000  1.0
  N  N75  1  0.50447000  0.34697000  0.78370000  1.0
  N  N76  1  0.28726000  0.93333000  0.46169000  1.0
  N  N77  1  0.68154000  0.56656000  0.03843000  1.0
  N  N78  1  0.71274000  0.06667000  0.53831000  1.0
  N  N79  1  0.31846000  0.43344000  0.96157000  1.0
  N  N80  1  0.74071000  0.74751000  0.66480000  1.0
  N  N81  1  0.15395000  0.75225000  0.83502000  1.0
  N  N82  1  0.25928000  0.25249000  0.33520000  1.0
  N  N83  1  0.84604000  0.24775000  0.16498000  1.0
  N  N84  1  0.53352000  0.55046000  0.60636000  1.0
  N  N85  1  0.69118000  0.94936000  0.89352000  1.0
  N  N86  1  0.46649000  0.44953000  0.39364000  1.0
  N  N87  1  0.30882000  0.05064000  0.10648000  1.0
