# generated using pymatgen
data_AlH27(C15O2)3
_symmetry_space_group_name_H-M   'P 1'
_cell_length_a   3.97308000
_cell_length_b   23.56220000
_cell_length_c   23.56972901
_cell_angle_alpha   119.98530378
_cell_angle_beta   90.18650646
_cell_angle_gamma   92.63170000
_symmetry_Int_Tables_number   1
_chemical_formula_structural   AlH27(C15O2)3
_chemical_formula_sum   'Al1 H27 C45 O6'
_cell_volume   1908.24942789
_cell_formula_units_Z   1
loop_
 _symmetry_equiv_pos_site_id
 _symmetry_equiv_pos_as_xyz
  1  'x, y, z'
loop_
 _atom_site_type_symbol
 _atom_site_label
 _atom_site_symmetry_multiplicity
 _atom_site_fract_x
 _atom_site_fract_y
 _atom_site_fract_z
 _atom_site_occupancy
  Al  Al0  1  0.02785000  0.00044000  0.50013000  1.0
  H  H1  1  0.83795000  0.98582000  0.32084000  1.0
  H  H2  1  0.83281000  0.92741000  0.20064000  1.0
  H  H3  1  0.81859000  0.88184000  0.10595000  1.0
  H  H4  1  0.82612000  0.82146000  0.98700000  1.0
  H  H5  1  0.21750000  0.98293000  0.66542000  1.0
  H  H6  1  0.21826000  0.92334000  0.72636000  1.0
  H  H7  1  0.30853000  0.88481000  0.78172000  1.0
  H  H8  1  0.29915000  0.82421000  0.84001000  1.0
  H  H9  1  0.52648000  0.78848000  0.89472000  1.0
  H  H10  1  0.80623000  0.83637000  0.51601000  1.0
  H  H11  1  0.80273000  0.77491000  0.57497000  1.0
  H  H12  1  0.71655000  0.71953000  0.61418000  1.0
  H  H13  1  0.73350000  0.66143000  0.67469000  1.0
  H  H14  1  0.24505000  0.17821000  0.51494000  1.0
  H  H15  1  0.24497000  0.29839000  0.57351000  1.0
  H  H16  1  0.28323000  0.39285000  0.61611000  1.0
  H  H17  1  0.25572000  0.51127000  0.67683000  1.0
  H  H18  1  0.51565000  0.60577000  0.71243000  1.0
  H  H19  1  0.87867000  0.18593000  0.66682000  1.0
  H  H20  1  0.87123000  0.30632000  0.72784000  1.0
  H  H21  1  0.80675000  0.40047000  0.78087000  1.0
  H  H22  1  0.79717000  0.51937000  0.83965000  1.0
  H  H23  1  0.18086000  0.83378000  0.31658000  1.0
  H  H24  1  0.18789000  0.77241000  0.19630000  1.0
  H  H25  1  0.21022000  0.72304000  0.10195000  1.0
  H  H26  1  0.20986000  0.66420000  0.98305000  1.0
  H  H27  1  0.51518000  0.60648000  0.89498000  1.0
  C  C28  1  0.51378000  0.94995000  0.39930000  1.0
  C  C29  1  0.55372000  0.10140000  0.55081000  1.0
  C  C30  1  0.51627000  0.95002000  0.55057000  1.0
  C  C31  1  0.69142000  0.93943000  0.29290000  1.0
  C  C32  1  0.68696000  0.90592000  0.22491000  1.0
  C  C33  1  0.68057000  0.83431000  0.08000000  1.0
  C  C34  1  0.68310000  0.80019000  0.01194000  1.0
  C  C35  1  0.34941000  0.93771000  0.64658000  1.0
  C  C36  1  0.35241000  0.90377000  0.68069000  1.0
  C  C37  1  0.40006000  0.83546000  0.75702000  1.0
  C  C38  1  0.39934000  0.80124000  0.79087000  1.0
  C  C39  1  0.50967000  0.91369000  0.32658000  1.0
  C  C40  1  0.51079000  0.84449000  0.18774000  1.0
  C  C41  1  0.51367000  0.80812000  0.11519000  1.0
  C  C42  1  0.51786000  0.73791000  0.97511000  1.0
  C  C43  1  0.51925000  0.70159000  0.90284000  1.0
  C  C44  1  0.52289000  0.73508000  0.86768000  1.0
  C  C45  1  0.67371000  0.85442000  0.56177000  1.0
  C  C46  1  0.66898000  0.82000000  0.59537000  1.0
  C  C47  1  0.62644000  0.74373000  0.66405000  1.0
  C  C48  1  0.63182000  0.70997000  0.69831000  1.0
  C  C49  1  0.38637000  0.20698000  0.56123000  1.0
  C  C50  1  0.38862000  0.27496000  0.59473000  1.0
  C  C51  1  0.39780000  0.41962000  0.66523000  1.0
  C  C52  1  0.38533000  0.48749000  0.69953000  1.0
  C  C53  1  0.51242000  0.91359000  0.58688000  1.0
  C  C54  1  0.51073000  0.84390000  0.65601000  1.0
  C  C55  1  0.51217000  0.80772000  0.69235000  1.0
  C  C56  1  0.51687000  0.73762000  0.76264000  1.0
  C  C57  1  0.51900000  0.70152000  0.79897000  1.0
  C  C58  1  0.51678000  0.63279000  0.76577000  1.0
  C  C59  1  0.73580000  0.21115000  0.64736000  1.0
  C  C60  1  0.72999000  0.27916000  0.68141000  1.0
  C  C61  1  0.68495000  0.42379000  0.75694000  1.0
  C  C62  1  0.67616000  0.49176000  0.79104000  1.0
  C  C63  1  0.32742000  0.85333000  0.29057000  1.0
  C  C64  1  0.33271000  0.81911000  0.22257000  1.0
  C  C65  1  0.34965000  0.74552000  0.07785000  1.0
  C  C66  1  0.35102000  0.71144000  0.00983000  1.0
  C  C67  1  0.56071000  0.17419000  0.58707000  1.0
  C  C68  1  0.55669000  0.31304000  0.65617000  1.0
  C  C69  1  0.54729000  0.38550000  0.69280000  1.0
  C  C70  1  0.52551000  0.52547000  0.76330000  1.0
  C  C71  1  0.51840000  0.59773000  0.79938000  1.0
  C  C72  1  0.51677000  0.63293000  0.86802000  1.0
  O  O73  1  0.29143000  0.99153000  0.56341000  1.0
  O  O74  1  0.27405000  0.93691000  0.42770000  1.0
  O  O75  1  0.31359000  0.07138000  0.50836000  1.0
  O  O76  1  0.74523000  0.93739000  0.50850000  1.0
  O  O77  1  0.78459000  0.07332000  0.56386000  1.0
  O  O78  1  0.75865000  0.99217000  0.42886000  1.0
