# generated using pymatgen
data_Zr3H17C60Br15N9O16
_symmetry_space_group_name_H-M   'P 1'
_cell_length_a   19.74880000
_cell_length_b   19.76820000
_cell_length_c   19.81690000
_cell_angle_alpha   91.95400000
_cell_angle_beta   92.72500000
_cell_angle_gamma   91.60690000
_symmetry_Int_Tables_number   1
_chemical_formula_structural   Zr3H17C60Br15N9O16
_chemical_formula_sum   'Zr6 H34 C120 Br30 N18 O32'
_cell_volume   7719.83069452
_cell_formula_units_Z   2
loop_
 _symmetry_equiv_pos_site_id
 _symmetry_equiv_pos_as_xyz
  1  'x, y, z'
loop_
 _atom_site_type_symbol
 _atom_site_label
 _atom_site_symmetry_multiplicity
 _atom_site_fract_x
 _atom_site_fract_y
 _atom_site_fract_z
 _atom_site_occupancy
  Zr  Zr0  1  0.80947000  0.95897000  0.86493000  1.0
  Zr  Zr1  1  0.77510000  0.85876000  0.00438000  1.0
  Zr  Zr2  1  0.97740000  0.98818000  0.93042000  1.0
  Zr  Zr3  1  0.91160000  0.82006000  0.90229000  1.0
  Zr  Zr4  1  0.83947000  0.02545000  0.03206000  1.0
  Zr  Zr5  1  0.94401000  0.88689000  0.06899000  1.0
  H  H6  1  0.77250000  0.81851000  0.86453000  1.0
  H  H7  1  0.87623000  0.08434000  0.90985000  1.0
  H  H8  1  0.03766000  0.86488000  0.96749000  1.0
  H  H9  1  0.82215000  0.92371000  0.12812000  1.0
  H  H10  1  0.26570000  0.80035000  0.79159000  1.0
  H  H11  1  0.08083000  0.95558000  0.73522000  1.0
  H  H12  1  0.42341000  0.89987000  0.84614000  1.0
  H  H13  1  0.64797000  0.85809000  0.75572000  1.0
  H  H14  1  0.32500000  0.96014000  0.09304000  1.0
  H  H15  1  0.10037000  0.00608000  0.18219000  1.0
  H  H16  1  0.53164000  0.08552000  0.21168000  1.0
  H  H17  1  0.61933000  0.86860000  0.12582000  1.0
  H  H18  1  0.46841000  0.00149000  0.42344000  1.0
  H  H19  1  0.28442000  0.86045000  0.51210000  1.0
  H  H20  1  0.55784000  0.23548000  0.95698000  1.0
  H  H21  1  0.77914000  0.20348000  0.85386000  1.0
  H  H22  1  0.72483000  0.48737000  0.86270000  1.0
  H  H23  1  0.71529000  0.67308000  0.03480000  1.0
  H  H24  1  0.08705000  0.14763000  0.06987000  1.0
  H  H25  1  0.00784000  0.36580000  0.98478000  1.0
  H  H26  1  0.01660000  0.50579000  0.01198000  1.0
  H  H27  1  0.13479000  0.72932000  0.04161000  1.0
  H  H28  1  0.43536000  0.31709000  0.93615000  1.0
  H  H29  1  0.32029000  0.52580000  0.99931000  1.0
  H  H30  1  0.73662000  0.78779000  0.22119000  1.0
  H  H31  1  0.91364000  0.63472000  0.30471000  1.0
  H  H32  1  0.74847000  0.65964000  0.61607000  1.0
  H  H33  1  0.90750000  0.85935000  0.64140000  1.0
  H  H34  1  0.92578000  0.05489000  0.41388000  1.0
  H  H35  1  0.93576000  0.14461000  0.18522000  1.0
  H  H36  1  0.86241000  0.00891000  0.67094000  1.0
  H  H37  1  0.97997000  0.23142000  0.65388000  1.0
  H  H38  1  0.81550000  0.34630000  0.54233000  1.0
  H  H39  1  0.94616000  0.50799000  0.40974000  1.0
  C  C40  1  0.92440000  0.18805000  0.53531000  1.0
  C  C41  1  0.91343000  0.28503000  0.47908000  1.0
  C  C42  1  0.93136000  0.18639000  0.42098000  1.0
  C  C43  1  0.82452000  0.65504000  0.39577000  1.0
  C  C44  1  0.82431000  0.67177000  0.50910000  1.0
  C  C45  1  0.84371000  0.56762000  0.46454000  1.0
  C  C46  1  0.14604000  0.49042000  0.01969000  1.0
  C  C47  1  0.23538000  0.42383000  0.99880000  1.0
  C  C48  1  0.13531000  0.37610000  0.02687000  1.0
  C  C49  1  0.61151000  0.35129000  0.92139000  1.0
  C  C50  1  0.52323000  0.41729000  0.94830000  1.0
  C  C51  1  0.62992000  0.46276000  0.94715000  1.0
  C  C52  1  0.44828000  0.97747000  0.23612000  1.0
  C  C53  1  0.38452000  0.95607000  0.32509000  1.0
  C  C54  1  0.33400000  0.98162000  0.22412000  1.0
  C  C55  1  0.30061000  0.88351000  0.69747000  1.0
  C  C56  1  0.41517000  0.88352000  0.71319000  1.0
  C  C57  1  0.36711000  0.90677000  0.61057000  1.0
  C  C58  1  0.91794000  0.04794000  0.78749000  1.0
  C  C59  1  0.66194000  0.89193000  0.88288000  1.0
  C  C60  1  0.84027000  0.83761000  0.75508000  1.0
  C  C61  1  0.74182000  0.09592000  0.92235000  1.0
  C  C62  1  0.84085000  0.78916000  0.14234000  1.0
  C  C63  1  0.08760000  0.96351000  0.05580000  1.0
  C  C64  1  0.79105000  0.71053000  0.93936000  1.0
  C  C65  1  0.69859000  0.96761000  0.09404000  1.0
  C  C66  1  0.96532000  0.13290000  0.00738000  1.0
  C  C67  1  0.04943000  0.87946000  0.83601000  1.0
  C  C68  1  0.00144000  0.74196000  0.01158000  1.0
  C  C69  1  0.91707000  0.01422000  0.17696000  1.0
  C  C70  1  0.22366000  0.83224000  0.77747000  1.0
  C  C71  1  0.23300000  0.87913000  0.72672000  1.0
  C  C72  1  0.17933000  0.92191000  0.70977000  1.0
  C  C73  1  0.12006000  0.91902000  0.74495000  1.0
  C  C74  1  0.11096000  0.87200000  0.79518000  1.0
  C  C75  1  0.16303000  0.82742000  0.81024000  1.0
  C  C76  1  0.47295000  0.88923000  0.82703000  1.0
  C  C77  1  0.47702000  0.87597000  0.75713000  1.0
  C  C78  1  0.54096000  0.86079000  0.73255000  1.0
  C  C79  1  0.59838000  0.86612000  0.77576000  1.0
  C  C80  1  0.59453000  0.88194000  0.84496000  1.0
  C  C81  1  0.53042000  0.89086000  0.87080000  1.0
  C  C82  1  0.27552000  0.97184000  0.11166000  1.0
  C  C83  1  0.27165000  0.98866000  0.18088000  1.0
  C  C84  1  0.20783000  0.00491000  0.20517000  1.0
  C  C85  1  0.15007000  0.99771000  0.16234000  1.0
  C  C86  1  0.15396000  0.97791000  0.09410000  1.0
  C  C87  1  0.21785000  0.96729000  0.06841000  1.0
  C  C88  1  0.55131000  0.03756000  0.19378000  1.0
  C  C89  1  0.51503000  0.97746000  0.20390000  1.0
  C  C90  1  0.54111000  0.91619000  0.18055000  1.0
  C  C91  1  0.60032000  0.91589000  0.14591000  1.0
  C  C92  1  0.63711000  0.97619000  0.13470000  1.0
  C  C93  1  0.61246000  0.03746000  0.16076000  1.0
  C  C94  1  0.42814000  0.97031000  0.44322000  1.0
  C  C95  1  0.37907000  0.94030000  0.39719000  1.0
  C  C96  1  0.32700000  0.89985000  0.42293000  1.0
  C  C97  1  0.32465000  0.89166000  0.49221000  1.0
  C  C98  1  0.37355000  0.92193000  0.53838000  1.0
  C  C99  1  0.42570000  0.96224000  0.51257000  1.0
  C  C100  1  0.60657000  0.22780000  0.93480000  1.0
  C  C101  1  0.63978000  0.28397000  0.90788000  1.0
  C  C102  1  0.70085000  0.27347000  0.87546000  1.0
  C  C103  1  0.73097000  0.21068000  0.87738000  1.0
  C  C104  1  0.70065000  0.15720000  0.91024000  1.0
  C  C105  1  0.63626000  0.16496000  0.93542000  1.0
  C  C106  1  0.72264000  0.52889000  0.90002000  1.0
  C  C107  1  0.67694000  0.52263000  0.95160000  1.0
  C  C108  1  0.67698000  0.57404000  0.00231000  1.0
  C  C109  1  0.71661000  0.63231000  0.99668000  1.0
  C  C110  1  0.75883000  0.64118000  0.94212000  1.0
  C  C111  1  0.76392000  0.58681000  0.89508000  1.0
  C  C112  1  0.06913000  0.19588000  0.05218000  1.0
  C  C113  1  0.00394000  0.19875000  0.02154000  1.0
  C  C114  1  0.98120000  0.26106000  0.99956000  1.0
  C  C115  1  0.02444000  0.31797000  0.00450000  1.0
  C  C116  1  0.09096000  0.31489000  0.03256000  1.0
  C  C117  1  0.11179000  0.25322000  0.05913000  1.0
  C  C118  1  0.04230000  0.55520000  0.01706000  1.0
  C  C119  1  0.11356000  0.55717000  0.02412000  1.0
  C  C120  1  0.14639000  0.62130000  0.03395000  1.0
  C  C121  1  0.10871000  0.68014000  0.03372000  1.0
  C  C122  1  0.03822000  0.67738000  0.02244000  1.0
  C  C123  1  0.00514000  0.61355000  0.01573000  1.0
  C  C124  1  0.40974000  0.36291000  0.95093000  1.0
  C  C125  1  0.44949000  0.42322000  0.95827000  1.0
  C  C126  1  0.41523000  0.48315000  0.97440000  1.0
  C  C127  1  0.34632000  0.47975000  0.98601000  1.0
  C  C128  1  0.30734000  0.41907000  0.98118000  1.0
  C  C129  1  0.34055000  0.35985000  0.96095000  1.0
  C  C130  1  0.77630000  0.75542000  0.24057000  1.0
  C  C131  1  0.83362000  0.74607000  0.20257000  1.0
  C  C132  1  0.88326000  0.70182000  0.22631000  1.0
  C  C133  1  0.87563000  0.66963000  0.28689000  1.0
  C  C134  1  0.82116000  0.68326000  0.32745000  1.0
  C  C135  1  0.77058000  0.72595000  0.30295000  1.0
  C  C136  1  0.78202000  0.70438000  0.62128000  1.0
  C  C137  1  0.82484000  0.71910000  0.56888000  1.0
  C  C138  1  0.86816000  0.77685000  0.57576000  1.0
  C  C139  1  0.87089000  0.81706000  0.63507000  1.0
  C  C140  1  0.82892000  0.80153000  0.68744000  1.0
  C  C141  1  0.78302000  0.74633000  0.67905000  1.0
  C  C142  1  0.92991000  0.07405000  0.36333000  1.0
  C  C143  1  0.93542000  0.14496000  0.35738000  1.0
  C  C144  1  0.93997000  0.16969000  0.29157000  1.0
  C  C145  1  0.93562000  0.12478000  0.23580000  1.0
  C  C146  1  0.92881000  0.05458000  0.24219000  1.0
  C  C147  1  0.92724000  0.02942000  0.30744000  1.0
  C  C148  1  0.89097000  0.05625000  0.66600000  1.0
  C  C149  1  0.92535000  0.08564000  0.72379000  1.0
  C  C150  1  0.95872000  0.14875000  0.71873000  1.0
  C  C151  1  0.95638000  0.18128000  0.65735000  1.0
  C  C152  1  0.92373000  0.15099000  0.59909000  1.0
  C  C153  1  0.89096000  0.08730000  0.60422000  1.0
  C  C154  1  0.84445000  0.38208000  0.51364000  1.0
  C  C155  1  0.89980000  0.35867000  0.47863000  1.0
  C  C156  1  0.93740000  0.40571000  0.44276000  1.0
  C  C157  1  0.91722000  0.47234000  0.43860000  1.0
  C  C158  1  0.86086000  0.49542000  0.47221000  1.0
  C  C159  1  0.82535000  0.44936000  0.51094000  1.0
  Br  Br160  1  0.15537000  0.76376000  0.87964000  1.0
  Br  Br161  1  0.18513000  0.99111000  0.64584000  1.0
  Br  Br162  1  0.51941000  0.91006000  0.96433000  1.0
  Br  Br163  1  0.55513000  0.82887000  0.64290000  1.0
  Br  Br164  1  0.22757000  0.93946000  0.97666000  1.0
  Br  Br165  1  0.19464000  0.03955000  0.29394000  1.0
  Br  Br166  1  0.65690000  0.12301000  0.15370000  1.0
  Br  Br167  1  0.49465000  0.83240000  0.19349000  1.0
  Br  Br168  1  0.49188000  0.01245000  0.56784000  1.0
  Br  Br169  1  0.26101000  0.84989000  0.36721000  1.0
  Br  Br170  1  0.58921000  0.08869000  0.96844000  1.0
  Br  Br171  1  0.74518000  0.33920000  0.82370000  1.0
  Br  Br172  1  0.82357000  0.58716000  0.82291000  1.0
  Br  Br173  1  0.62791000  0.56549000  0.08179000  1.0
  Br  Br174  1  0.19565000  0.24420000  0.10834000  1.0
  Br  Br175  1  0.89326000  0.26886000  0.95747000  1.0
  Br  Br176  1  0.90943000  0.60342000  0.00729000  1.0
  Br  Br177  1  0.24141000  0.63496000  0.05136000  1.0
  Br  Br178  1  0.29690000  0.27404000  0.94130000  1.0
  Br  Br179  1  0.45429000  0.57232000  0.98039000  1.0
  Br  Br180  1  0.69133000  0.74270000  0.35068000  1.0
  Br  Br181  1  0.96191000  0.68163000  0.17932000  1.0
  Br  Br182  1  0.72145000  0.72796000  0.74784000  1.0
  Br  Br183  1  0.93014000  0.79998000  0.50913000  1.0
  Br  Br184  1  0.91451000  0.93537000  0.32220000  1.0
  Br  Br185  1  0.95173000  0.26197000  0.27028000  1.0
  Br  Br186  1  0.83863000  0.04282000  0.53184000  1.0
  Br  Br187  1  0.00292000  0.19516000  0.79473000  1.0
  Br  Br188  1  0.74709000  0.47430000  0.55713000  1.0
  Br  Br189  1  0.02016000  0.38304000  0.40392000  1.0
  N  N190  1  0.91368000  0.25512000  0.53896000  1.0
  N  N191  1  0.92031000  0.25303000  0.41897000  1.0
  N  N192  1  0.93564000  0.15231000  0.47881000  1.0
  N  N193  1  0.81511000  0.69809000  0.44803000  1.0
  N  N194  1  0.83463000  0.60611000  0.52046000  1.0
  N  N195  1  0.84237000  0.59025000  0.40126000  1.0
  N  N196  1  0.21004000  0.48661000  0.00117000  1.0
  N  N197  1  0.20035000  0.36731000  0.01238000  1.0
  N  N198  1  0.10602000  0.43618000  0.03207000  1.0
  N  N199  1  0.54482000  0.35538000  0.92993000  1.0
  N  N200  1  0.56436000  0.47224000  0.95842000  1.0
  N  N201  1  0.65629000  0.40379000  0.92864000  1.0
  N  N202  1  0.44730000  0.96339000  0.30175000  1.0
  N  N203  1  0.32693000  0.96371000  0.28805000  1.0
  N  N204  1  0.39415000  0.98874000  0.19523000  1.0
  N  N205  1  0.35447000  0.87473000  0.74017000  1.0
  N  N206  1  0.42382000  0.90249000  0.64971000  1.0
  N  N207  1  0.30401000  0.89603000  0.63162000  1.0
  O  O208  1  0.96743000  0.04387000  0.83015000  1.0
  O  O209  1  0.67444000  0.86459000  0.93874000  1.0
  O  O210  1  0.81273000  0.89361000  0.76664000  1.0
  O  O211  1  0.74976000  0.05459000  0.87334000  1.0
  O  O212  1  0.76856000  0.09402000  0.98216000  1.0
  O  O213  1  0.87879000  0.80559000  0.79568000  1.0
  O  O214  1  0.70376000  0.92774000  0.85043000  1.0
  O  O215  1  0.85856000  0.02121000  0.79218000  1.0
  O  O216  1  0.79176000  0.95359000  0.96703000  1.0
  O  O217  1  0.90563000  0.92235000  0.88274000  1.0
  O  O218  1  0.80150000  0.84922000  0.89323000  1.0
  O  O219  1  0.87539000  0.03849000  0.92586000  1.0
  O  O220  1  0.78955000  0.79665000  0.10247000  1.0
  O  O221  1  0.07474000  0.98981000  0.99942000  1.0
  O  O222  1  0.84341000  0.72253000  0.90686000  1.0
  O  O223  1  0.74060000  0.01631000  0.08745000  1.0
  O  O224  1  0.90927000  0.12151000  0.03406000  1.0
  O  O225  1  0.00826000  0.83007000  0.84211000  1.0
  O  O226  1  0.00227000  0.78715000  0.05846000  1.0
  O  O227  1  0.94593000  0.95881000  0.16600000  1.0
  O  O228  1  0.97374000  0.74558000  0.95219000  1.0
  O  O229  1  0.87619000  0.04321000  0.13559000  1.0
  O  O230  1  0.75899000  0.75521000  0.97302000  1.0
  O  O231  1  0.04530000  0.93935000  0.86191000  1.0
  O  O232  1  0.99569000  0.09279000  0.96772000  1.0
  O  O233  1  0.70431000  0.90756000  0.06825000  1.0
  O  O234  1  0.89916000  0.81841000  0.13876000  1.0
  O  O235  1  0.04800000  0.92413000  0.08687000  1.0
  O  O236  1  0.93129000  0.97780000  0.02147000  1.0
  O  O237  1  0.87741000  0.83813000  0.99797000  1.0
  O  O238  1  0.99184000  0.88152000  0.96697000  1.0
  O  O239  1  0.83760000  0.92324000  0.08240000  1.0
