# generated using pymatgen
data_ZnH11C18NO4
_symmetry_space_group_name_H-M   'P 1'
_cell_length_a   10.38940000
_cell_length_b   11.85220000
_cell_length_c   13.47900000
_cell_angle_alpha   93.79410000
_cell_angle_beta   108.31300000
_cell_angle_gamma   103.58900000
_symmetry_Int_Tables_number   1
_chemical_formula_structural   ZnH11C18NO4
_chemical_formula_sum   'Zn4 H44 C72 N4 O16'
_cell_volume   1513.86810423
_cell_formula_units_Z   4
loop_
 _symmetry_equiv_pos_site_id
 _symmetry_equiv_pos_as_xyz
  1  'x, y, z'
loop_
 _atom_site_type_symbol
 _atom_site_label
 _atom_site_symmetry_multiplicity
 _atom_site_fract_x
 _atom_site_fract_y
 _atom_site_fract_z
 _atom_site_occupancy
  Zn  Zn0  1  0.33455000  0.48838000  0.29297000  1.0
  Zn  Zn1  1  0.66545000  0.51162000  0.70702000  1.0
  Zn  Zn2  1  0.56282000  0.50620000  0.14656000  1.0
  Zn  Zn3  1  0.43718000  0.49380000  0.85344000  1.0
  H  H4  1  0.81345000  0.59328000  0.07022000  1.0
  H  H5  1  0.18655000  0.40672000  0.92978000  1.0
  H  H6  1  0.06338000  0.71534000  0.16507000  1.0
  H  H7  1  0.93661000  0.28466000  0.83492000  1.0
  H  H8  1  0.12158000  0.82909000  0.34350000  1.0
  H  H9  1  0.87842000  0.17091000  0.65650000  1.0
  H  H10  1  0.68973000  0.68478000  0.32077000  1.0
  H  H11  1  0.31028000  0.31523000  0.67923000  1.0
  H  H12  1  0.05390000  0.87503000  0.49586000  1.0
  H  H13  1  0.94611000  0.12497000  0.50414000  1.0
  H  H14  1  0.73366000  0.79295000  0.45425000  1.0
  H  H15  1  0.26634000  0.20705000  0.54575000  1.0
  H  H16  1  0.64587000  0.85337000  0.57622000  1.0
  H  H17  1  0.35412000  0.14663000  0.42378000  1.0
  H  H18  1  0.67146000  0.93318000  0.75828000  1.0
  H  H19  1  0.32855000  0.06683000  0.24173000  1.0
  H  H20  1  0.12204000  0.01285000  0.84269000  1.0
  H  H21  1  0.87796000  0.98715000  0.15732000  1.0
  H  H22  1  0.09756000  0.93634000  0.66313000  1.0
  H  H23  1  0.90244000  0.06366000  0.33686000  1.0
  H  H24  1  0.81326000  0.01693000  0.93263000  1.0
  H  H25  1  0.18674000  0.98306000  0.06737000  1.0
  H  H26  1  0.12268000  0.12645000  0.96533000  1.0
  H  H27  1  0.87732000  0.87355000  0.03468000  1.0
  H  H28  1  0.80585000  0.17900000  0.98875000  1.0
  H  H29  1  0.19414000  0.82099000  0.01126000  1.0
  H  H30  1  0.80457000  0.35544000  0.09901000  1.0
  H  H31  1  0.19543000  0.64456000  0.90098000  1.0
  H  H32  1  0.03152000  0.47685000  0.23410000  1.0
  H  H33  1  0.96847000  0.52315000  0.76589000  1.0
  H  H34  1  0.25442000  0.26250000  0.14865000  1.0
  H  H35  1  0.74558000  0.73750000  0.85134000  1.0
  H  H36  1  0.64409000  0.10924000  0.57559000  1.0
  H  H37  1  0.35590000  0.89076000  0.42441000  1.0
  H  H38  1  0.63200000  0.95762000  0.43627000  1.0
  H  H39  1  0.36801000  0.04238000  0.56373000  1.0
  H  H40  1  0.59092000  0.20480000  0.21522000  1.0
  H  H41  1  0.40909000  0.79521000  0.78478000  1.0
  H  H42  1  0.45557000  0.84725000  0.29105000  1.0
  H  H43  1  0.54443000  0.15276000  0.70895000  1.0
  H  H44  1  0.64163000  0.91300000  0.99834000  1.0
  H  H45  1  0.35837000  0.08700000  0.00166000  1.0
  H  H46  1  0.69037000  0.08102000  0.13885000  1.0
  H  H47  1  0.30964000  0.91899000  0.86114000  1.0
  C  C48  1  0.84547000  0.64441000  0.14839000  1.0
  C  C49  1  0.15453000  0.35559000  0.85161000  1.0
  C  C50  1  0.98245000  0.71277000  0.20089000  1.0
  C  C51  1  0.01755000  0.28722000  0.79911000  1.0
  C  C52  1  0.01495000  0.77488000  0.30097000  1.0
  C  C53  1  0.98506000  0.22512000  0.69903000  1.0
  C  C54  1  0.91088000  0.76894000  0.34802000  1.0
  C  C55  1  0.08913000  0.23106000  0.65199000  1.0
  C  C56  1  0.77597000  0.69713000  0.28924000  1.0
  C  C57  1  0.22404000  0.30286000  0.71077000  1.0
  C  C58  1  0.94273000  0.83124000  0.45335000  1.0
  C  C59  1  0.05727000  0.16876000  0.54665000  1.0
  C  C60  1  0.84464000  0.83531000  0.49892000  1.0
  C  C61  1  0.15536000  0.16469000  0.50108000  1.0
  C  C62  1  0.86873000  0.88892000  0.60559000  1.0
  C  C63  1  0.13127000  0.11109000  0.39441000  1.0
  C  C64  1  0.75036000  0.89080000  0.63473000  1.0
  C  C65  1  0.24964000  0.10920000  0.36527000  1.0
  C  C66  1  0.76504000  0.93528000  0.73708000  1.0
  C  C67  1  0.23497000  0.06472000  0.26292000  1.0
  C  C68  1  0.89851000  0.97788000  0.81432000  1.0
  C  C69  1  0.10149000  0.02212000  0.18568000  1.0
  C  C70  1  0.01674000  0.97892000  0.78458000  1.0
  C  C71  1  0.98326000  0.02108000  0.21542000  1.0
  C  C72  1  0.00317000  0.93571000  0.68261000  1.0
  C  C73  1  0.99683000  0.06430000  0.31739000  1.0
  C  C74  1  0.91220000  0.00327000  0.92790000  1.0
  C  C75  1  0.08780000  0.99673000  0.07210000  1.0
  C  C76  1  0.04493000  0.09551000  0.00386000  1.0
  C  C77  1  0.95506000  0.90448000  0.99614000  1.0
  C  C78  1  0.03010000  0.20208000  0.06212000  1.0
  C  C79  1  0.96990000  0.79791000  0.93788000  1.0
  C  C80  1  0.90370000  0.23150000  0.04826000  1.0
  C  C81  1  0.09629000  0.76850000  0.95174000  1.0
  C  C82  1  0.90206000  0.33060000  0.10968000  1.0
  C  C83  1  0.09794000  0.66939000  0.89032000  1.0
  C  C84  1  0.02697000  0.39901000  0.18392000  1.0
  C  C85  1  0.97302000  0.60099000  0.81608000  1.0
  C  C86  1  0.15186000  0.27788000  0.13727000  1.0
  C  C87  1  0.84813000  0.72211000  0.86273000  1.0
  C  C88  1  0.62182000  0.24268000  0.47497000  1.0
  C  C89  1  0.37818000  0.75731000  0.52503000  1.0
  C  C90  1  0.63482000  0.13105000  0.49676000  1.0
  C  C91  1  0.36518000  0.86894000  0.50324000  1.0
  C  C92  1  0.62768000  0.04521000  0.41826000  1.0
  C  C93  1  0.37231000  0.95479000  0.58174000  1.0
  C  C94  1  0.61033000  0.06948000  0.31494000  1.0
  C  C95  1  0.38967000  0.93052000  0.68506000  1.0
  C  C96  1  0.60802000  0.18349000  0.29494000  1.0
  C  C97  1  0.39199000  0.81651000  0.70507000  1.0
  C  C98  1  0.60984000  0.26867000  0.37267000  1.0
  C  C99  1  0.39017000  0.73133000  0.62733000  1.0
  C  C100  1  0.58110000  0.97482000  0.22773000  1.0
  C  C101  1  0.41890000  0.02519000  0.77227000  1.0
  C  C102  1  0.49752000  0.86302000  0.22724000  1.0
  C  C103  1  0.50248000  0.13698000  0.77275000  1.0
  C  C104  1  0.46742000  0.76895000  0.14761000  1.0
  C  C105  1  0.53258000  0.23105000  0.85239000  1.0
  C  C106  1  0.52483000  0.78719000  0.06630000  1.0
  C  C107  1  0.47517000  0.21281000  0.93370000  1.0
  C  C108  1  0.60196000  0.90082000  0.06381000  1.0
  C  C109  1  0.39804000  0.09918000  0.93619000  1.0
  C  C110  1  0.62875000  0.99389000  0.14196000  1.0
  C  C111  1  0.37125000  0.00611000  0.85803000  1.0
  C  C112  1  0.56967000  0.37503000  0.33283000  1.0
  C  C113  1  0.43033000  0.62497000  0.66717000  1.0
  C  C114  1  0.60841000  0.32377000  0.55999000  1.0
  C  C115  1  0.39159000  0.67622000  0.44001000  1.0
  C  C116  1  0.37038000  0.65803000  0.15986000  1.0
  C  C117  1  0.62963000  0.34198000  0.84014000  1.0
  C  C118  1  0.51337000  0.69137000  0.98433000  1.0
  C  C119  1  0.48663000  0.30863000  0.01566000  1.0
  N  N120  1  0.74483000  0.63713000  0.19307000  1.0
  N  N121  1  0.25517000  0.36287000  0.80694000  1.0
  N  N122  1  0.15067000  0.37332000  0.19641000  1.0
  N  N123  1  0.84933000  0.62668000  0.80359000  1.0
  O  O124  1  0.62964000  0.42403000  0.27222000  1.0
  O  O125  1  0.37036000  0.57597000  0.72777000  1.0
  O  O126  1  0.46997000  0.40011000  0.35801000  1.0
  O  O127  1  0.53003000  0.59989000  0.64198000  1.0
  O  O128  1  0.70394000  0.42300000  0.59578000  1.0
  O  O129  1  0.29606000  0.57700000  0.40423000  1.0
  O  O130  1  0.50891000  0.28819000  0.59362000  1.0
  O  O131  1  0.49109000  0.71180000  0.40639000  1.0
  O  O132  1  0.25087000  0.65965000  0.15685000  1.0
  O  O133  1  0.74914000  0.34036000  0.84316000  1.0
  O  O134  1  0.42106000  0.56786000  0.18779000  1.0
  O  O135  1  0.57895000  0.43215000  0.81222000  1.0
  O  O136  1  0.42598000  0.58953000  0.97741000  1.0
  O  O137  1  0.57402000  0.41047000  0.02259000  1.0
  O  O138  1  0.58742000  0.70835000  0.92633000  1.0
  O  O139  1  0.41258000  0.29165000  0.07367000  1.0
