# generated using pymatgen
data_EuH45C40S3N8O17
_symmetry_space_group_name_H-M   'P 1'
_cell_length_a   9.39714000
_cell_length_b   16.59560000
_cell_length_c   17.36920972
_cell_angle_alpha   101.57095298
_cell_angle_beta   104.76510545
_cell_angle_gamma   93.49510000
_symmetry_Int_Tables_number   1
_chemical_formula_structural   EuH45C40S3N8O17
_chemical_formula_sum   'Eu2 H90 C80 S6 N16 O34'
_cell_volume   2548.04689449
_cell_formula_units_Z   2
loop_
 _symmetry_equiv_pos_site_id
 _symmetry_equiv_pos_as_xyz
  1  'x, y, z'
loop_
 _atom_site_type_symbol
 _atom_site_label
 _atom_site_symmetry_multiplicity
 _atom_site_fract_x
 _atom_site_fract_y
 _atom_site_fract_z
 _atom_site_occupancy
  Eu  Eu0  1  0.74102000  0.49940000  0.00318000  1.0
  Eu  Eu1  1  0.25898000  0.50060000  0.99682000  1.0
  H  H2  1  0.92522000  0.36044000  0.96055000  1.0
  H  H3  1  0.07478000  0.63956000  0.03945000  1.0
  H  H4  1  0.82166000  0.32664000  0.01073000  1.0
  H  H5  1  0.17834000  0.67336000  0.98927000  1.0
  H  H6  1  0.86948000  0.69130000  0.02938000  1.0
  H  H7  1  0.13052000  0.30870000  0.97062000  1.0
  H  H8  1  0.89818000  0.66051000  0.11362000  1.0
  H  H9  1  0.10181000  0.33949000  0.88638000  1.0
  H  H10  1  0.40394000  0.07637000  0.75019000  1.0
  H  H11  1  0.59606000  0.92363000  0.24981000  1.0
  H  H12  1  0.30404000  0.64503000  0.77432000  1.0
  H  H13  1  0.69596000  0.35497000  0.22568000  1.0
  H  H14  1  0.73222000  0.36190000  0.53446000  1.0
  H  H15  1  0.26778000  0.63810000  0.46554000  1.0
  H  H16  1  0.84351000  0.57217000  0.21257000  1.0
  H  H17  1  0.15649000  0.42783000  0.78743000  1.0
  H  H18  1  0.18597000  0.11501000  0.41431000  1.0
  H  H19  1  0.81403000  0.88499000  0.58569000  1.0
  H  H20  1  0.31112000  0.42541000  0.16292000  1.0
  H  H21  1  0.68888000  0.57459000  0.83708000  1.0
  H  H22  1  0.37312000  0.25160000  0.82203000  1.0
  H  H23  1  0.62688000  0.74840000  0.17797000  1.0
  H  H24  1  0.50053000  0.20689000  0.77050000  1.0
  H  H25  1  0.49947000  0.79311000  0.22950000  1.0
  H  H26  1  0.56518000  0.26864000  0.87293000  1.0
  H  H27  1  0.43482000  0.73136000  0.12707000  1.0
  H  H28  1  0.41462000  0.03248000  0.95265000  1.0
  H  H29  1  0.58538000  0.96752000  0.04735000  1.0
  H  H30  1  0.32503000  0.89179000  0.96541000  1.0
  H  H31  1  0.67497000  0.10821000  0.03459000  1.0
  H  H32  1  0.20433000  0.80790000  0.70310000  1.0
  H  H33  1  0.79567000  0.19210000  0.29690000  1.0
  H  H34  1  0.30020000  0.94448000  0.69089000  1.0
  H  H35  1  0.69980000  0.05552000  0.30911000  1.0
  H  H36  1  0.47896000  0.75126000  0.93657000  1.0
  H  H37  1  0.52104000  0.24873000  0.06343000  1.0
  H  H38  1  0.55540000  0.70928000  0.85583000  1.0
  H  H39  1  0.44460000  0.29072000  0.14417000  1.0
  H  H40  1  0.68057000  0.16082000  0.48465000  1.0
  H  H41  1  0.31943000  0.83918000  0.51535000  1.0
  H  H42  1  0.71335000  0.24632000  0.57123000  1.0
  H  H43  1  0.28664000  0.75368000  0.42876000  1.0
  H  H44  1  0.85940000  0.18692000  0.55582000  1.0
  H  H45  1  0.14060000  0.81308000  0.44418000  1.0
  H  H46  1  0.70352000  0.49350000  0.52617000  1.0
  H  H47  1  0.29648000  0.50650000  0.47383000  1.0
  H  H48  1  0.75947000  0.61460000  0.46985000  1.0
  H  H49  1  0.24053000  0.38540000  0.53015000  1.0
  H  H50  1  0.95552000  0.45992000  0.30502000  1.0
  H  H51  1  0.04448000  0.54008000  0.69498000  1.0
  H  H52  1  0.90450000  0.33990000  0.36178000  1.0
  H  H53  1  0.09550000  0.66010000  0.63822000  1.0
  H  H54  1  0.60657000  0.65975000  0.26870000  1.0
  H  H55  1  0.39343000  0.34025000  0.73130000  1.0
  H  H56  1  0.60690000  0.55185000  0.26083000  1.0
  H  H57  1  0.39310000  0.44815000  0.73917000  1.0
  H  H58  1  0.27908000  0.92149000  0.38631000  1.0
  H  H59  1  0.72092000  0.07851000  0.61369000  1.0
  H  H60  1  0.17305000  0.99063000  0.43418000  1.0
  H  H61  1  0.82695000  0.00937000  0.56582000  1.0
  H  H62  1  0.35626000  0.97859000  0.48868000  1.0
  H  H63  1  0.64374000  0.02141000  0.51133000  1.0
  H  H64  1  0.12989000  0.24436000  0.40769000  1.0
  H  H65  1  0.87011000  0.75564000  0.59231000  1.0
  H  H66  1  0.18121000  0.37617000  0.36970000  1.0
  H  H67  1  0.81879000  0.62383000  0.63030000  1.0
  H  H68  1  0.54532000  0.28260000  0.28448000  1.0
  H  H69  1  0.45468000  0.71740000  0.71552000  1.0
  H  H70  1  0.49526000  0.15002000  0.32318000  1.0
  H  H71  1  0.50474000  0.84998000  0.67682000  1.0
  H  H72  1  0.14452000  0.51652000  0.26983000  1.0
  H  H73  1  0.85548000  0.48349000  0.73017000  1.0
  H  H74  1  0.06746000  0.41115000  0.22678000  1.0
  H  H75  1  0.93253000  0.58885000  0.77321000  1.0
  H  H76  1  0.85982000  0.69356000  0.87447000  1.0
  H  H77  1  0.14018000  0.30644000  0.12553000  1.0
  H  H78  1  0.85896000  0.80396000  0.79801000  1.0
  H  H79  1  0.14104000  0.19604000  0.20199000  1.0
  H  H80  1  0.84031000  0.97707000  0.01671000  1.0
  H  H81  1  0.15969000  0.02293000  0.98329000  1.0
  H  H82  1  0.83858000  0.85813000  0.08313000  1.0
  H  H83  1  0.16142000  0.14187000  0.91687000  1.0
  H  H84  1  0.02647000  0.04152000  0.73044000  1.0
  H  H85  1  0.97354000  0.95848000  0.26956000  1.0
  H  H86  1  0.00643000  0.91918000  0.79066000  1.0
  H  H87  1  0.99357000  0.08082000  0.20934000  1.0
  H  H88  1  0.71590000  0.04501000  0.91870000  1.0
  H  H89  1  0.28410000  0.95499000  0.08130000  1.0
  H  H90  1  0.75521000  0.16393000  0.85628000  1.0
  H  H91  1  0.24479000  0.83607000  0.14372000  1.0
  C  C92  1  0.47689000  0.22288000  0.83009000  1.0
  C  C93  1  0.52311000  0.77712000  0.16991000  1.0
  C  C94  1  0.45603000  0.14911000  0.86580000  1.0
  C  C95  1  0.54397000  0.85089000  0.13420000  1.0
  C  C96  1  0.36221000  0.99795000  0.82122000  1.0
  C  C97  1  0.63779000  0.00205000  0.17878000  1.0
  C  C98  1  0.36966000  0.98287000  0.89887000  1.0
  C  C99  1  0.63034000  0.01713000  0.10113000  1.0
  C  C100  1  0.31754000  0.90495000  0.90571000  1.0
  C  C101  1  0.68246000  0.09505000  0.09429000  1.0
  C  C102  1  0.25759000  0.84230000  0.83591000  1.0
  C  C103  1  0.74241000  0.15770000  0.16409000  1.0
  C  C104  1  0.25118000  0.85624000  0.75827000  1.0
  C  C105  1  0.74882000  0.14376000  0.24173000  1.0
  C  C106  1  0.30362000  0.93363000  0.75125000  1.0
  C  C107  1  0.69638000  0.06637000  0.24875000  1.0
  C  C108  1  0.46987000  0.69730000  0.88619000  1.0
  C  C109  1  0.53013000  0.30270000  0.11381000  1.0
  C  C110  1  0.49976000  0.62314000  0.92516000  1.0
  C  C111  1  0.50024000  0.37685000  0.07484000  1.0
  C  C112  1  0.76128000  0.21241000  0.52490000  1.0
  C  C113  1  0.23872000  0.78759000  0.47510000  1.0
  C  C114  1  0.80854000  0.26503000  0.47231000  1.0
  C  C115  1  0.19146000  0.73497000  0.52769000  1.0
  C  C116  1  0.80303000  0.40914000  0.44888000  1.0
  C  C117  1  0.19697000  0.59086000  0.55112000  1.0
  C  C118  1  0.76073000  0.48666000  0.47827000  1.0
  C  C119  1  0.23927000  0.51334000  0.52173000  1.0
  C  C120  1  0.79122000  0.55440000  0.44679000  1.0
  C  C121  1  0.20878000  0.44560000  0.55321000  1.0
  C  C122  1  0.86405000  0.54518000  0.38536000  1.0
  C  C123  1  0.13595000  0.45482000  0.61464000  1.0
  C  C124  1  0.90198000  0.46761000  0.35413000  1.0
  C  C125  1  0.09802000  0.53239000  0.64587000  1.0
  C  C126  1  0.87263000  0.39963000  0.38540000  1.0
  C  C127  1  0.12737000  0.60037000  0.61460000  1.0
  C  C128  1  0.64362000  0.60407000  0.23739000  1.0
  C  C129  1  0.35638000  0.39593000  0.76261000  1.0
  C  C130  1  0.56642000  0.58559000  0.14621000  1.0
  C  C131  1  0.43358000  0.41441000  0.85379000  1.0
  C  C132  1  0.28483000  0.98122000  0.42844000  1.0
  C  C133  1  0.71517000  0.01878000  0.57156000  1.0
  C  C134  1  0.35406000  0.04793000  0.39710000  1.0
  C  C135  1  0.64594000  0.95207000  0.60290000  1.0
  C  C136  1  0.31118000  0.18871000  0.36899000  1.0
  C  C137  1  0.68882000  0.81129000  0.63101000  1.0
  C  C138  1  0.22161000  0.25260000  0.38080000  1.0
  C  C139  1  0.77839000  0.74740000  0.61920000  1.0
  C  C140  1  0.24962000  0.32676000  0.35879000  1.0
  C  C141  1  0.75038000  0.67324000  0.64121000  1.0
  C  C142  1  0.36640000  0.33773000  0.32393000  1.0
  C  C143  1  0.63360000  0.66227000  0.67607000  1.0
  C  C144  1  0.45378000  0.27386000  0.31090000  1.0
  C  C145  1  0.54622000  0.72614000  0.68910000  1.0
  C  C146  1  0.42705000  0.19946000  0.33309000  1.0
  C  C147  1  0.57295000  0.80054000  0.66691000  1.0
  C  C148  1  0.13715000  0.46330000  0.21911000  1.0
  C  C149  1  0.86285000  0.53670000  0.78089000  1.0
  C  C150  1  0.05277000  0.48562000  0.14056000  1.0
  C  C151  1  0.94724000  0.51438000  0.85945000  1.0
  C  C152  1  0.85417000  0.75717000  0.90392000  1.0
  C  C153  1  0.14583000  0.24283000  0.09608000  1.0
  C  C154  1  0.85386000  0.81960000  0.86112000  1.0
  C  C155  1  0.14614000  0.18040000  0.13888000  1.0
  C  C156  1  0.84912000  0.90135000  0.90073000  1.0
  C  C157  1  0.15088000  0.09865000  0.09927000  1.0
  C  C158  1  0.84174000  0.91495000  0.98194000  1.0
  C  C159  1  0.15826000  0.08505000  0.01806000  1.0
  C  C160  1  0.84210000  0.84854000  0.01973000  1.0
  C  C161  1  0.15790000  0.15146000  0.98027000  1.0
  C  C162  1  0.95735000  0.04021000  0.77232000  1.0
  C  C163  1  0.04266000  0.95979000  0.22768000  1.0
  C  C164  1  0.94533000  0.97117000  0.80557000  1.0
  C  C165  1  0.05467000  0.02883000  0.19443000  1.0
  C  C166  1  0.85834000  0.97114000  0.86037000  1.0
  C  C167  1  0.14166000  0.02886000  0.13963000  1.0
  C  C168  1  0.78710000  0.04166000  0.87779000  1.0
  C  C169  1  0.21290000  0.95834000  0.12221000  1.0
  C  C170  1  0.80706000  0.10780000  0.84167000  1.0
  C  C171  1  0.19294000  0.89220000  0.15833000  1.0
  S  S172  1  0.19629000  0.74255000  0.84483000  1.0
  S  S173  1  0.80371000  0.25746000  0.15517000  1.0
  S  S174  1  0.90901000  0.63098000  0.34548000  1.0
  S  S175  1  0.09099000  0.36902000  0.65452000  1.0
  S  S176  1  0.40742000  0.43382000  0.29876000  1.0
  S  S177  1  0.59258000  0.56618000  0.70124000  1.0
  N  N178  1  0.40851000  0.07499000  0.80901000  1.0
  N  N179  1  0.59148000  0.92501000  0.19099000  1.0
  N  N180  1  0.32359000  0.68555000  0.82950000  1.0
  N  N181  1  0.67641000  0.31445000  0.17050000  1.0
  N  N182  1  0.77235000  0.34455000  0.48526000  1.0
  N  N183  1  0.22765000  0.65545000  0.51474000  1.0
  N  N184  1  0.80464000  0.61567000  0.25143000  1.0
  N  N185  1  0.19536000  0.38433000  0.74857000  1.0
  N  N186  1  0.27807000  0.11605000  0.39390000  1.0
  N  N187  1  0.72193000  0.88395000  0.60610000  1.0
  N  N188  1  0.28413000  0.44168000  0.21774000  1.0
  N  N189  1  0.71587000  0.55831000  0.78226000  1.0
  N  N190  1  0.84915000  0.77053000  0.98200000  1.0
  N  N191  1  0.15085000  0.22947000  0.01800000  1.0
  N  N192  1  0.89037000  0.10820000  0.78932000  1.0
  N  N193  1  0.10964000  0.89180000  0.21068000  1.0
  O  O194  1  0.82981000  0.36511000  0.97525000  1.0
  O  O195  1  0.17019000  0.63489000  0.02475000  1.0
  O  O196  1  0.90248000  0.64376000  0.05720000  1.0
  O  O197  1  0.09752000  0.35624000  0.94280000  1.0
  O  O198  1  0.47455000  0.15508000  0.93991000  1.0
  O  O199  1  0.52544000  0.84492000  0.06009000  1.0
  O  O200  1  0.06523000  0.70877000  0.77822000  1.0
  O  O201  1  0.93477000  0.29123000  0.22178000  1.0
  O  O202  1  0.19053000  0.75161000  0.92887000  1.0
  O  O203  1  0.80947000  0.24839000  0.07113000  1.0
  O  O204  1  0.62770000  0.59945000  0.93145000  1.0
  O  O205  1  0.37230000  0.40055000  0.06855000  1.0
  O  O206  1  0.39807000  0.59196000  0.94920000  1.0
  O  O207  1  0.60193000  0.40804000  0.05080000  1.0
  O  O208  1  0.92013000  0.50118000  0.13584000  1.0
  O  O209  1  0.07987000  0.49882000  0.86416000  1.0
  O  O210  1  0.11376000  0.48505000  0.08366000  1.0
  O  O211  1  0.88624000  0.51495000  0.91635000  1.0
  O  O212  1  0.54526000  0.42872000  0.27586000  1.0
  O  O213  1  0.45474000  0.57128000  0.72414000  1.0
  O  O214  1  0.39577000  0.49806000  0.36611000  1.0
  O  O215  1  0.60423000  0.50194000  0.63389000  1.0
  O  O216  1  0.47134000  0.04109000  0.37730000  1.0
  O  O217  1  0.52866000  0.95891000  0.62270000  1.0
  O  O218  1  0.64818000  0.58304000  0.09786000  1.0
  O  O219  1  0.35182000  0.41696000  0.90214000  1.0
  O  O220  1  0.42680000  0.57316000  0.12499000  1.0
  O  O221  1  0.57320000  0.42684000  0.87501000  1.0
  O  O222  1  0.05918000  0.62859000  0.33794000  1.0
  O  O223  1  0.94082000  0.37141000  0.66206000  1.0
  O  O224  1  0.86947000  0.70389000  0.39308000  1.0
  O  O225  1  0.13053000  0.29611000  0.60692000  1.0
  O  O226  1  0.87306000  0.23645000  0.42059000  1.0
  O  O227  1  0.12694000  0.76355000  0.57941000  1.0
