# generated using pymatgen
data_AlH5C14ClO5F2
_symmetry_space_group_name_H-M   'P 1'
_cell_length_a   6.60868000
_cell_length_b   11.04686369
_cell_length_c   17.62400000
_cell_angle_alpha   91.41434388
_cell_angle_beta   98.68420000
_cell_angle_gamma   105.99340824
_symmetry_Int_Tables_number   1
_chemical_formula_structural   AlH5C14ClO5F2
_chemical_formula_sum   'Al2 H10 C28 Cl2 O10 F4'
_cell_volume   1219.68413906
_cell_formula_units_Z   2
loop_
 _symmetry_equiv_pos_site_id
 _symmetry_equiv_pos_as_xyz
  1  'x, y, z'
loop_
 _atom_site_type_symbol
 _atom_site_label
 _atom_site_symmetry_multiplicity
 _atom_site_fract_x
 _atom_site_fract_y
 _atom_site_fract_z
 _atom_site_occupancy
  Al  Al0  1  0.00433000  0.49787000  0.50245000  1.0
  Al  Al1  1  0.50534000  0.50112000  0.50159000  1.0
  H  H2  1  0.34370000  0.64395000  0.56024000  1.0
  H  H3  1  0.65904000  0.34577000  0.46114000  1.0
  H  H4  1  0.81851000  0.42325000  0.27504000  1.0
  H  H5  1  0.73488000  0.42340000  0.13175000  1.0
  H  H6  1  0.48564000  0.58619000  0.26631000  1.0
  H  H7  1  0.51272000  0.40844000  0.73259000  1.0
  H  H8  1  0.18130000  0.58359000  0.73384000  1.0
  H  H9  1  0.24880000  0.58604000  0.87773000  1.0
  H  H10  1  0.55302000  0.76232000  0.39430000  1.0
  H  H11  1  0.81630000  0.23191000  0.39434000  1.0
  C  C12  1  0.86683000  0.72369000  0.49297000  1.0
  C  C13  1  0.80238000  0.50120000  0.64005000  1.0
  C  C14  1  0.14359000  0.27318000  0.50393000  1.0
  C  C15  1  0.20530000  0.49841000  0.36374000  1.0
  C  C16  1  0.15690000  0.50320000  0.27891000  1.0
  C  C17  1  0.94467000  0.45862000  0.24117000  1.0
  C  C18  1  0.89830000  0.45909000  0.16190000  1.0
  C  C19  1  0.06146000  0.50655000  0.11795000  1.0
  C  C20  1  0.27406000  0.55444000  0.15736000  1.0
  C  C21  1  0.32150000  0.55123000  0.23673000  1.0
  C  C22  1  0.01151000  0.50456000  0.03728000  1.0
  C  C23  1  0.96339000  0.49933000  0.96740000  1.0
  C  C24  1  0.92035000  0.49697000  0.88654000  1.0
  C  C25  1  0.71203000  0.44523000  0.84434000  1.0
  C  C26  1  0.67341000  0.44687000  0.76465000  1.0
  C  C27  1  0.84313000  0.49746000  0.72518000  1.0
  C  C28  1  0.05134000  0.54613000  0.76573000  1.0
  C  C29  1  0.08870000  0.54712000  0.84525000  1.0
  C  C30  1  0.93422000  0.86413000  0.49082000  1.0
  C  C31  1  0.80696000  0.93001000  0.44519000  1.0
  C  C32  1  0.12531000  0.93171000  0.53456000  1.0
  C  C33  1  0.61393000  0.86471000  0.39639000  1.0
  C  C34  1  0.50051000  0.93094000  0.35121000  1.0
  C  C35  1  0.07348000  0.13195000  0.49598000  1.0
  C  C36  1  0.19362000  0.06463000  0.53768000  1.0
  C  C37  1  0.87973000  0.06542000  0.44682000  1.0
  C  C38  1  0.76035000  0.13009000  0.39771000  1.0
  C  C39  1  0.57481000  0.06373000  0.35139000  1.0
  Cl  Cl40  1  0.47700000  0.61690000  0.10600000  1.0
  Cl  Cl41  1  0.50349000  0.37981000  0.89266000  1.0
  O  O42  1  0.00159000  0.66655000  0.48026000  1.0
  O  O43  1  0.60948000  0.48180000  0.60730000  1.0
  O  O44  1  0.33036000  0.32777000  0.49162000  1.0
  O  O45  1  0.04540000  0.46652000  0.39900000  1.0
  O  O46  1  0.00780000  0.32698000  0.52086000  1.0
  O  O47  1  0.40041000  0.52392000  0.39564000  1.0
  O  O48  1  0.68147000  0.67304000  0.50838000  1.0
  O  O49  1  0.96525000  0.52617000  0.60609000  1.0
  O  O50  1  0.29567000  0.55954000  0.53527000  1.0
  O  O51  1  0.71185000  0.43711000  0.46850000  1.0
  F  F52  1  0.37633000  0.12364000  0.58556000  1.0
  F  F53  1  0.24984000  0.87360000  0.57945000  1.0
  F  F54  1  0.31583000  0.87023000  0.30462000  1.0
  F  F55  1  0.45977000  0.12450000  0.30426000  1.0
