# generated using pymatgen
data_TbH6C6(NO4)2
_symmetry_space_group_name_H-M   'P 1'
_cell_length_a   7.82535000
_cell_length_b   8.39843000
_cell_length_c   17.41960000
_cell_angle_alpha   89.99990000
_cell_angle_beta   89.99980000
_cell_angle_gamma   107.63400000
_symmetry_Int_Tables_number   1
_chemical_formula_structural   TbH6C6(NO4)2
_chemical_formula_sum   'Tb4 H24 C24 N8 O32'
_cell_volume   1091.03328835
_cell_formula_units_Z   4
loop_
 _symmetry_equiv_pos_site_id
 _symmetry_equiv_pos_as_xyz
  1  'x, y, z'
loop_
 _atom_site_type_symbol
 _atom_site_label
 _atom_site_symmetry_multiplicity
 _atom_site_fract_x
 _atom_site_fract_y
 _atom_site_fract_z
 _atom_site_occupancy
  Tb  Tb0  1  0.25519000  0.73599000  0.97709000  1.0
  Tb  Tb1  1  0.24481000  0.26402000  0.47709000  1.0
  Tb  Tb2  1  0.74481000  0.26403000  0.02291000  1.0
  Tb  Tb3  1  0.75519000  0.73598000  0.52291000  1.0
  H  H4  1  0.88206000  0.65736000  0.91880000  1.0
  H  H5  1  0.61794000  0.34263000  0.41880000  1.0
  H  H6  1  0.11794000  0.34264000  0.08120000  1.0
  H  H7  1  0.38207000  0.65736000  0.58120000  1.0
  H  H8  1  0.01877000  0.67710000  0.85066000  1.0
  H  H9  1  0.48123000  0.32288000  0.35066000  1.0
  H  H10  1  0.98123000  0.32289000  0.14934000  1.0
  H  H11  1  0.51877000  0.67710000  0.64934000  1.0
  H  H12  1  0.29155000  0.09826000  0.02028000  1.0
  H  H13  1  0.20845000  0.90174000  0.52028000  1.0
  H  H14  1  0.70845000  0.90174000  0.97972000  1.0
  H  H15  1  0.79155000  0.09826000  0.47972000  1.0
  H  H16  1  0.13385000  0.97121000  0.06473000  1.0
  H  H17  1  0.36614000  0.02879000  0.56473000  1.0
  H  H18  1  0.86615000  0.02879000  0.93528000  1.0
  H  H19  1  0.63385000  0.97121000  0.43528000  1.0
  H  H20  1  0.14932000  0.09890000  0.23212000  1.0
  H  H21  1  0.35068000  0.90110000  0.73211000  1.0
  H  H22  1  0.85068000  0.90110000  0.76789000  1.0
  H  H23  1  0.64932000  0.09890000  0.26789000  1.0
  H  H24  1  0.84131000  0.60759000  0.28762000  1.0
  H  H25  1  0.65870000  0.39240000  0.78762000  1.0
  H  H26  1  0.15870000  0.39241000  0.71238000  1.0
  H  H27  1  0.34130000  0.60759000  0.21238000  1.0
  C  C28  1  0.99982000  0.87538000  0.28852000  1.0
  C  C29  1  0.50019000  0.12461000  0.78851000  1.0
  C  C30  1  0.00018000  0.12462000  0.71149000  1.0
  C  C31  1  0.49982000  0.87539000  0.21149000  1.0
  C  C32  1  0.91644000  0.71902000  0.25701000  1.0
  C  C33  1  0.58356000  0.28097000  0.75701000  1.0
  C  C34  1  0.08356000  0.28097000  0.74299000  1.0
  C  C35  1  0.41645000  0.71903000  0.24299000  1.0
  C  C36  1  0.95760000  0.73763000  0.17806000  1.0
  C  C37  1  0.54239000  0.26237000  0.67806000  1.0
  C  C38  1  0.04240000  0.26237000  0.82195000  1.0
  C  C39  1  0.45761000  0.73763000  0.32195000  1.0
  C  C40  1  0.57255000  0.56019000  0.97462000  1.0
  C  C41  1  0.92746000  0.43981000  0.47462000  1.0
  C  C42  1  0.42745000  0.43982000  0.02538000  1.0
  C  C43  1  0.07255000  0.56019000  0.52538000  1.0
  C  C44  1  0.91912000  0.61037000  0.11637000  1.0
  C  C45  1  0.58088000  0.38963000  0.61637000  1.0
  C  C46  1  0.08088000  0.38963000  0.88363000  1.0
  C  C47  1  0.41912000  0.61037000  0.38363000  1.0
  C  C48  1  0.02007000  0.93916000  0.36803000  1.0
  C  C49  1  0.47994000  0.06084000  0.86803000  1.0
  C  C50  1  0.97993000  0.06084000  0.63197000  1.0
  C  C51  1  0.52007000  0.93916000  0.13197000  1.0
  N  N52  1  0.05751000  0.89594000  0.16176000  1.0
  N  N53  1  0.44248000  0.10406000  0.66175000  1.0
  N  N54  1  0.94249000  0.10407000  0.83824000  1.0
  N  N55  1  0.55751000  0.89593000  0.33824000  1.0
  N  N56  1  0.08005000  0.97542000  0.22872000  1.0
  N  N57  1  0.41995000  0.02458000  0.72872000  1.0
  N  N58  1  0.91995000  0.02458000  0.77128000  1.0
  N  N59  1  0.58005000  0.97542000  0.27128000  1.0
  O  O60  1  0.54471000  0.69303000  0.95201000  1.0
  O  O61  1  0.95530000  0.30699000  0.45202000  1.0
  O  O62  1  0.45529000  0.30699000  0.04798000  1.0
  O  O63  1  0.04471000  0.69301000  0.54798000  1.0
  O  O64  1  0.99370000  0.73587000  0.89547000  1.0
  O  O65  1  0.50630000  0.26412000  0.39548000  1.0
  O  O66  1  0.00631000  0.26413000  0.10453000  1.0
  O  O67  1  0.49370000  0.73586000  0.60453000  1.0
  O  O68  1  0.70975000  0.51490000  0.95996000  1.0
  O  O69  1  0.79026000  0.48512000  0.45996000  1.0
  O  O70  1  0.29025000  0.48512000  0.04003000  1.0
  O  O71  1  0.20975000  0.51489000  0.54004000  1.0
  O  O72  1  0.19736000  0.99057000  0.01434000  1.0
  O  O73  1  0.30263000  0.00943000  0.51433000  1.0
  O  O74  1  0.80263000  0.00943000  0.98567000  1.0
  O  O75  1  0.69736000  0.99057000  0.48567000  1.0
  O  O76  1  0.01534000  0.64468000  0.05616000  1.0
  O  O77  1  0.48466000  0.35532000  0.55616000  1.0
  O  O78  1  0.98465000  0.35532000  0.94384000  1.0
  O  O79  1  0.51534000  0.64468000  0.44384000  1.0
  O  O80  1  0.79705000  0.47237000  0.12693000  1.0
  O  O81  1  0.70295000  0.52763000  0.62693000  1.0
  O  O82  1  0.20295000  0.52763000  0.87307000  1.0
  O  O83  1  0.29705000  0.47237000  0.37307000  1.0
  O  O84  1  0.11752000  0.08991000  0.37645000  1.0
  O  O85  1  0.38249000  0.91009000  0.87645000  1.0
  O  O86  1  0.88248000  0.91008000  0.62355000  1.0
  O  O87  1  0.61751000  0.08992000  0.12355000  1.0
  O  O88  1  0.94335000  0.84061000  0.42095000  1.0
  O  O89  1  0.55665000  0.15940000  0.92095000  1.0
  O  O90  1  0.05665000  0.15939000  0.57905000  1.0
  O  O91  1  0.44335000  0.84061000  0.07905000  1.0
