# generated using pymatgen
data_CdH8C12(SN2)2
_symmetry_space_group_name_H-M   'P 1'
_cell_length_a   8.30715000
_cell_length_b   8.30713000
_cell_length_c   10.31030000
_cell_angle_alpha   103.42460000
_cell_angle_beta   103.42510000
_cell_angle_gamma   90.29280000
_symmetry_Int_Tables_number   1
_chemical_formula_structural   CdH8C12(SN2)2
_chemical_formula_sum   'Cd2 H16 C24 S4 N8'
_cell_volume   671.83653207
_cell_formula_units_Z   2
loop_
 _symmetry_equiv_pos_site_id
 _symmetry_equiv_pos_as_xyz
  1  'x, y, z'
loop_
 _atom_site_type_symbol
 _atom_site_label
 _atom_site_symmetry_multiplicity
 _atom_site_fract_x
 _atom_site_fract_y
 _atom_site_fract_z
 _atom_site_occupancy
  Cd  Cd0  1  0.91781000  0.08219000  0.25000000  1.0
  Cd  Cd1  1  0.08218000  0.91781000  0.75000000  1.0
  H  H2  1  0.81168000  0.38586000  0.11698000  1.0
  H  H3  1  0.61414000  0.18831000  0.38301000  1.0
  H  H4  1  0.18832000  0.61414000  0.88302000  1.0
  H  H5  1  0.38586000  0.81169000  0.61698000  1.0
  H  H6  1  0.60794000  0.60700000  0.11448000  1.0
  H  H7  1  0.39300000  0.39206000  0.38552000  1.0
  H  H8  1  0.39206000  0.39300000  0.88552000  1.0
  H  H9  1  0.60700000  0.60795000  0.61448000  1.0
  H  H10  1  0.15134000  0.47511000  0.24258000  1.0
  H  H11  1  0.52489000  0.84866000  0.25742000  1.0
  H  H12  1  0.84866000  0.52489000  0.75742000  1.0
  H  H13  1  0.47511000  0.15134000  0.74258000  1.0
  H  H14  1  0.94801000  0.69426000  0.24140000  1.0
  H  H15  1  0.30574000  0.05199000  0.25860000  1.0
  H  H16  1  0.05199000  0.30574000  0.75860000  1.0
  H  H17  1  0.69426000  0.94801000  0.74140000  1.0
  C  C18  1  0.17296000  0.14596000  0.55222000  1.0
  C  C19  1  0.85403000  0.82705000  0.94778000  1.0
  C  C20  1  0.82705000  0.85403000  0.44778000  1.0
  C  C21  1  0.14596000  0.17296000  0.05222000  1.0
  C  C22  1  0.71752000  0.39459000  0.17627000  1.0
  C  C23  1  0.60540000  0.28248000  0.32372000  1.0
  C  C24  1  0.28248000  0.60541000  0.82373000  1.0
  C  C25  1  0.39459000  0.71752000  0.67627000  1.0
  C  C26  1  0.60319000  0.51619000  0.17505000  1.0
  C  C27  1  0.48381000  0.39681000  0.32495000  1.0
  C  C28  1  0.39681000  0.48381000  0.82495000  1.0
  C  C29  1  0.51619000  0.60320000  0.67505000  1.0
  C  C30  1  0.48202000  0.51798000  0.25000000  1.0
  C  C31  1  0.51798000  0.48202000  0.75000000  1.0
  C  C32  1  0.35667000  0.64333000  0.25000000  1.0
  C  C33  1  0.64333000  0.35667000  0.75000000  1.0
  C  C34  1  0.19195000  0.60181000  0.24771000  1.0
  C  C35  1  0.39819000  0.80805000  0.25230000  1.0
  C  C36  1  0.80805000  0.39819000  0.75230000  1.0
  C  C37  1  0.60181000  0.19195000  0.74770000  1.0
  C  C38  1  0.07759000  0.72328000  0.24609000  1.0
  C  C39  1  0.27672000  0.92241000  0.25392000  1.0
  C  C40  1  0.92241000  0.27672000  0.75391000  1.0
  C  C41  1  0.72327000  0.07759000  0.74608000  1.0
  S  S42  1  0.12850000  0.29424000  0.47326000  1.0
  S  S43  1  0.70575000  0.87150000  0.02674000  1.0
  S  S44  1  0.87150000  0.70575000  0.52674000  1.0
  S  S45  1  0.29424000  0.12850000  0.97326000  1.0
  N  N46  1  0.20562000  0.03874000  0.61092000  1.0
  N  N47  1  0.96126000  0.79439000  0.88908000  1.0
  N  N48  1  0.79439000  0.96126000  0.38908000  1.0
  N  N49  1  0.03874000  0.20562000  0.11092000  1.0
  N  N50  1  0.71954000  0.28046000  0.25000000  1.0
  N  N51  1  0.28046000  0.71954000  0.75000000  1.0
  N  N52  1  0.11872000  0.88129000  0.25000000  1.0
  N  N53  1  0.88128000  0.11871000  0.75000000  1.0
