# generated using pymatgen
data_MnH16C14(NO4)2
_symmetry_space_group_name_H-M   'P 1'
_cell_length_a   5.31637000
_cell_length_b   7.14555000
_cell_length_c   9.97791000
_cell_angle_alpha   86.39440000
_cell_angle_beta   85.30640000
_cell_angle_gamma   75.23870000
_symmetry_Int_Tables_number   1
_chemical_formula_structural   MnH16C14(NO4)2
_chemical_formula_sum   'Mn1 H16 C14 N2 O8'
_cell_volume   364.95774576
_cell_formula_units_Z   1
loop_
 _symmetry_equiv_pos_site_id
 _symmetry_equiv_pos_as_xyz
  1  'x, y, z'
loop_
 _atom_site_type_symbol
 _atom_site_label
 _atom_site_symmetry_multiplicity
 _atom_site_fract_x
 _atom_site_fract_y
 _atom_site_fract_z
 _atom_site_occupancy
  Mn  Mn0  1  0.00000000  0.00000000  0.00000000  1.0
  H  H1  1  0.21500000  0.52162000  0.10162000  1.0
  H  H2  1  0.78500000  0.47837000  0.89838000  1.0
  H  H3  1  0.33623000  0.38013000  0.32906000  1.0
  H  H4  1  0.66378000  0.61987000  0.67094000  1.0
  H  H5  1  0.56661000  0.69587000  0.48343000  1.0
  H  H6  1  0.43340000  0.30412000  0.51657000  1.0
  H  H7  1  0.48038000  0.82195000  0.24748000  1.0
  H  H8  1  0.51963000  0.17805000  0.75252000  1.0
  H  H9  1  0.35684000  0.78798000  0.84757000  1.0
  H  H10  1  0.64316000  0.21202000  0.15244000  1.0
  H  H11  1  0.52129000  0.78039000  0.98103000  1.0
  H  H12  1  0.47871000  0.21961000  0.01897000  1.0
  H  H13  1  0.25534000  0.04535000  0.43901000  1.0
  H  H14  1  0.74466000  0.95465000  0.56099000  1.0
  H  H15  1  0.17331000  0.82555000  0.42743000  1.0
  H  H16  1  0.82669000  0.17445000  0.57257000  1.0
  C  C17  1  0.08343000  0.55093000  0.19128000  1.0
  C  C18  1  0.91657000  0.44906000  0.80872000  1.0
  C  C19  1  0.14398000  0.47757000  0.31889000  1.0
  C  C20  1  0.85601000  0.52243000  0.68110000  1.0
  C  C21  1  0.96559000  0.53112000  0.43101000  1.0
  C  C22  1  0.03442000  0.46887000  0.56899000  1.0
  C  C23  1  0.71862000  0.65088000  0.40342000  1.0
  C  C24  1  0.28137000  0.34912000  0.59659000  1.0
  C  C25  1  0.66373000  0.72263000  0.27458000  1.0
  C  C26  1  0.33627000  0.27737000  0.72542000  1.0
  C  C27  1  0.95717000  0.05600000  0.30659000  1.0
  C  C28  1  0.04284000  0.94400000  0.69341000  1.0
  C  C29  1  0.08803000  0.98141000  0.43622000  1.0
  C  C30  1  0.91197000  0.01859000  0.56378000  1.0
  N  N31  1  0.84893000  0.67720000  0.17116000  1.0
  N  N32  1  0.15107000  0.32280000  0.82884000  1.0
  O  O33  1  0.80776000  0.76545000  0.05053000  1.0
  O  O34  1  0.19224000  0.23455000  0.94947000  1.0
  O  O35  1  0.10026000  0.00228000  0.19843000  1.0
  O  O36  1  0.89974000  0.99772000  0.80157000  1.0
  O  O37  1  0.72584000  0.16076000  0.31014000  1.0
  O  O38  1  0.27416000  0.83924000  0.68986000  1.0
  O  O39  1  0.35222000  0.77249000  0.94882000  1.0
  O  O40  1  0.64778000  0.22751000  0.05118000  1.0
