# generated using pymatgen
data_Zn2H20C17N12O
_symmetry_space_group_name_H-M   'P 1'
_cell_length_a   10.50530000
_cell_length_b   12.20640000
_cell_length_c   17.45370000
_cell_angle_alpha   89.99950000
_cell_angle_beta   96.68240000
_cell_angle_gamma   89.99960000
_symmetry_Int_Tables_number   1
_chemical_formula_structural   Zn2H20C17N12O
_chemical_formula_sum   'Zn8 H80 C68 N48 O4'
_cell_volume   2222.91620045
_cell_formula_units_Z   4
loop_
 _symmetry_equiv_pos_site_id
 _symmetry_equiv_pos_as_xyz
  1  'x, y, z'
loop_
 _atom_site_type_symbol
 _atom_site_label
 _atom_site_symmetry_multiplicity
 _atom_site_fract_x
 _atom_site_fract_y
 _atom_site_fract_z
 _atom_site_occupancy
  Zn  Zn0  1  0.73750000  0.73673000  0.60663000  1.0
  Zn  Zn1  1  0.76250000  0.23674000  0.89336000  1.0
  Zn  Zn2  1  0.26250000  0.26326000  0.39337000  1.0
  Zn  Zn3  1  0.23750000  0.76327000  0.10663000  1.0
  Zn  Zn4  1  0.20986000  0.74934000  0.45341000  1.0
  Zn  Zn5  1  0.29014000  0.24933000  0.04659000  1.0
  Zn  Zn6  1  0.79014000  0.25066000  0.54659000  1.0
  Zn  Zn7  1  0.70986000  0.75066000  0.95341000  1.0
  H  H8  1  0.12573000  0.57628000  0.29571000  1.0
  H  H9  1  0.37428000  0.07629000  0.20429000  1.0
  H  H10  1  0.87427000  0.42372000  0.70429000  1.0
  H  H11  1  0.62573000  0.92372000  0.79570000  1.0
  H  H12  1  0.08112000  0.62937000  0.20190000  1.0
  H  H13  1  0.41889000  0.12937000  0.29810000  1.0
  H  H14  1  0.91888000  0.37064000  0.79810000  1.0
  H  H15  1  0.58112000  0.87064000  0.70189000  1.0
  H  H16  1  0.00505000  0.67605000  0.28228000  1.0
  H  H17  1  0.49497000  0.17606000  0.21772000  1.0
  H  H18  1  0.99496000  0.32395000  0.71772000  1.0
  H  H19  1  0.50505000  0.82395000  0.78227000  1.0
  H  H20  1  0.49966000  0.95133000  0.35796000  1.0
  H  H21  1  0.00033000  0.45133000  0.14204000  1.0
  H  H22  1  0.50034000  0.04866000  0.64204000  1.0
  H  H23  1  0.99966000  0.54867000  0.85796000  1.0
  H  H24  1  0.36276000  0.99660000  0.39965000  1.0
  H  H25  1  0.13723000  0.49660000  0.10035000  1.0
  H  H26  1  0.63724000  0.00339000  0.60035000  1.0
  H  H27  1  0.86276000  0.50340000  0.89965000  1.0
  H  H28  1  0.48404000  0.68147000  0.66815000  1.0
  H  H29  1  0.01596000  0.18148000  0.83186000  1.0
  H  H30  1  0.51595000  0.31853000  0.33186000  1.0
  H  H31  1  0.98404000  0.81853000  0.16814000  1.0
  H  H32  1  0.34641000  0.64102000  0.60511000  1.0
  H  H33  1  0.15359000  0.14102000  0.89489000  1.0
  H  H34  1  0.65358000  0.35899000  0.39490000  1.0
  H  H35  1  0.84641000  0.85899000  0.10511000  1.0
  H  H36  1  0.34321000  0.76364000  0.65815000  1.0
  H  H37  1  0.15679000  0.26363000  0.84186000  1.0
  H  H38  1  0.65678000  0.23638000  0.34186000  1.0
  H  H39  1  0.84321000  0.73637000  0.15814000  1.0
  H  H40  1  0.86813000  0.01429000  0.63811000  1.0
  H  H41  1  0.63188000  0.51430000  0.86190000  1.0
  H  H42  1  0.13188000  0.98571000  0.36188000  1.0
  H  H43  1  0.36812000  0.48570000  0.13810000  1.0
  H  H44  1  0.03380000  0.01137000  0.67415000  1.0
  H  H45  1  0.46620000  0.51138000  0.82586000  1.0
  H  H46  1  0.96620000  0.98863000  0.32584000  1.0
  H  H47  1  0.53380000  0.48862000  0.17414000  1.0
  H  H48  1  0.92535000  0.91536000  0.70841000  1.0
  H  H49  1  0.57466000  0.41538000  0.79159000  1.0
  H  H50  1  0.07465000  0.08464000  0.29158000  1.0
  H  H51  1  0.42534000  0.58462000  0.20841000  1.0
  H  H52  1  0.64357000  0.50715000  0.68047000  1.0
  H  H53  1  0.85642000  0.00715000  0.81953000  1.0
  H  H54  1  0.35642000  0.49285000  0.31953000  1.0
  H  H55  1  0.14359000  0.99285000  0.18047000  1.0
  H  H56  1  0.60714000  0.37865000  0.63391000  1.0
  H  H57  1  0.89285000  0.87865000  0.86608000  1.0
  H  H58  1  0.39284000  0.62135000  0.36608000  1.0
  H  H59  1  0.10717000  0.12136000  0.13391000  1.0
  H  H60  1  0.52174000  0.49841000  0.60116000  1.0
  H  H61  1  0.97825000  0.99842000  0.89883000  1.0
  H  H62  1  0.47824000  0.50158000  0.39883000  1.0
  H  H63  1  0.02176000  0.00158000  0.10117000  1.0
  H  H64  1  0.61007000  0.74295000  0.24481000  1.0
  H  H65  1  0.88993000  0.24295000  0.25520000  1.0
  H  H66  1  0.38994000  0.25704000  0.75520000  1.0
  H  H67  1  0.11006000  0.75706000  0.74480000  1.0
  H  H68  1  0.62121000  0.73984000  0.34780000  1.0
  H  H69  1  0.87879000  0.23985000  0.15220000  1.0
  H  H70  1  0.37879000  0.26016000  0.65220000  1.0
  H  H71  1  0.12121000  0.76016000  0.84780000  1.0
  H  H72  1  0.75532000  0.70251000  0.30202000  1.0
  H  H73  1  0.74468000  0.20251000  0.19798000  1.0
  H  H74  1  0.24469000  0.29749000  0.69799000  1.0
  H  H75  1  0.25531000  0.79750000  0.80202000  1.0
  H  H76  1  0.63166000  0.93095000  0.19229000  1.0
  H  H77  1  0.86834000  0.43096000  0.30772000  1.0
  H  H78  1  0.36836000  0.06902000  0.80770000  1.0
  H  H79  1  0.13168000  0.56904000  0.69230000  1.0
  H  H80  1  0.72636000  0.03382000  0.25319000  1.0
  H  H81  1  0.77362000  0.53382000  0.24682000  1.0
  H  H82  1  0.27364000  0.96616000  0.74680000  1.0
  H  H83  1  0.22639000  0.46618000  0.75320000  1.0
  H  H84  1  0.77501000  0.90039000  0.35593000  1.0
  H  H85  1  0.72496000  0.40040000  0.14408000  1.0
  H  H86  1  0.22496000  0.09961000  0.64407000  1.0
  H  H87  1  0.27504000  0.59962000  0.85593000  1.0
  C  C88  1  0.09624000  0.65078000  0.26315000  1.0
  C  C89  1  0.40376000  0.15079000  0.23685000  1.0
  C  C90  1  0.90375000  0.34922000  0.73685000  1.0
  C  C91  1  0.59624000  0.84923000  0.76314000  1.0
  C  C92  1  0.19403000  0.73858000  0.27573000  1.0
  C  C93  1  0.30597000  0.23858000  0.22427000  1.0
  C  C94  1  0.80597000  0.26143000  0.72427000  1.0
  C  C95  1  0.69403000  0.76142000  0.77573000  1.0
  C  C96  1  0.33378000  0.85539000  0.32670000  1.0
  C  C97  1  0.16622000  0.35539000  0.17329000  1.0
  C  C98  1  0.66623000  0.14460000  0.67329000  1.0
  C  C99  1  0.83377000  0.64461000  0.82671000  1.0
  C  C100  1  0.41589000  0.92320000  0.38457000  1.0
  C  C101  1  0.08410000  0.42320000  0.11543000  1.0
  C  C102  1  0.58411000  0.07679000  0.61543000  1.0
  C  C103  1  0.91590000  0.57680000  0.88457000  1.0
  C  C104  1  0.46002000  0.86445000  0.45798000  1.0
  C  C105  1  0.03996000  0.36445000  0.04202000  1.0
  C  C106  1  0.53996000  0.13555000  0.54202000  1.0
  C  C107  1  0.96003000  0.63555000  0.95798000  1.0
  C  C108  1  0.45309000  0.77315000  0.56292000  1.0
  C  C109  1  0.04690000  0.27315000  0.93708000  1.0
  C  C110  1  0.54689000  0.22685000  0.43709000  1.0
  C  C111  1  0.95310000  0.72686000  0.06291000  1.0
  C  C112  1  0.40500000  0.71123000  0.62701000  1.0
  C  C113  1  0.09500000  0.21123000  0.87299000  1.0
  C  C114  1  0.59499000  0.28878000  0.37300000  1.0
  C  C115  1  0.90501000  0.78878000  0.12701000  1.0
  C  C116  1  0.94929000  0.96040000  0.65750000  1.0
  C  C117  1  0.55071000  0.46041000  0.84250000  1.0
  C  C118  1  0.05071000  0.03960000  0.34249000  1.0
  C  C119  1  0.44929000  0.53959000  0.15750000  1.0
  C  C120  1  0.97513000  0.88318000  0.59546000  1.0
  C  C121  1  0.52487000  0.38319000  0.90454000  1.0
  C  C122  1  0.02487000  0.11681000  0.40453000  1.0
  C  C123  1  0.47512000  0.61681000  0.09547000  1.0
  C  C124  1  0.95472000  0.75206000  0.51323000  1.0
  C  C125  1  0.54529000  0.25206000  0.98677000  1.0
  C  C126  1  0.04528000  0.24794000  0.48676000  1.0
  C  C127  1  0.45471000  0.74794000  0.01324000  1.0
  C  C128  1  0.83516000  0.57128000  0.49907000  1.0
  C  C129  1  0.66484000  0.07128000  0.00093000  1.0
  C  C130  1  0.16484000  0.42872000  0.50093000  1.0
  C  C131  1  0.33516000  0.92872000  0.99907000  1.0
  C  C132  1  0.71273000  0.48967000  0.57093000  1.0
  C  C133  1  0.78727000  0.98968000  0.92907000  1.0
  C  C134  1  0.28726000  0.51032000  0.42906000  1.0
  C  C135  1  0.21274000  0.01032000  0.07094000  1.0
  C  C136  1  0.61627000  0.46688000  0.62473000  1.0
  C  C137  1  0.88373000  0.96688000  0.87527000  1.0
  C  C138  1  0.38372000  0.53312000  0.37527000  1.0
  C  C139  1  0.11628000  0.03312000  0.12473000  1.0
  C  C140  1  0.91592000  0.65410000  0.46671000  1.0
  C  C141  1  0.58407000  0.15410000  0.03329000  1.0
  C  C142  1  0.08407000  0.34589000  0.53329000  1.0
  C  C143  1  0.41593000  0.84589000  0.96671000  1.0
  C  C144  1  0.67328000  0.75926000  0.29823000  1.0
  C  C145  1  0.82672000  0.25927000  0.20178000  1.0
  C  C146  1  0.32672000  0.24073000  0.70178000  1.0
  C  C147  1  0.17328000  0.74074000  0.79822000  1.0
  C  C148  1  0.69070000  0.95005000  0.24634000  1.0
  C  C149  1  0.80929000  0.45004000  0.25366000  1.0
  C  C150  1  0.30930000  0.04994000  0.75365000  1.0
  C  C151  1  0.19072000  0.54996000  0.74635000  1.0
  C  C152  1  0.71776000  0.87573000  0.30220000  1.0
  C  C153  1  0.78223000  0.37574000  0.19781000  1.0
  C  C154  1  0.28224000  0.12426000  0.69780000  1.0
  C  C155  1  0.21778000  0.62427000  0.80220000  1.0
  N  N156  1  0.89573000  0.79923000  0.56985000  1.0
  N  N157  1  0.60427000  0.29923000  0.93015000  1.0
  N  N158  1  0.10426000  0.20077000  0.43014000  1.0
  N  N159  1  0.39573000  0.70077000  0.06986000  1.0
  N  N160  1  0.07966000  0.88708000  0.55822000  1.0
  N  N161  1  0.42035000  0.38709000  0.94178000  1.0
  N  N162  1  0.92034000  0.11291000  0.44177000  1.0
  N  N163  1  0.57966000  0.61291000  0.05823000  1.0
  N  N164  1  0.06528000  0.80445000  0.50571000  1.0
  N  N165  1  0.43472000  0.30445000  0.99429000  1.0
  N  N166  1  0.93471000  0.19555000  0.49428000  1.0
  N  N167  1  0.56529000  0.69555000  0.00572000  1.0
  N  N168  1  0.75668000  0.58984000  0.55523000  1.0
  N  N169  1  0.74331000  0.08984000  0.94476000  1.0
  N  N170  1  0.24331000  0.41016000  0.44476000  1.0
  N  N171  1  0.25669000  0.91017000  0.05524000  1.0
  N  N172  1  0.84135000  0.46520000  0.48109000  1.0
  N  N173  1  0.65865000  0.96520000  0.01891000  1.0
  N  N174  1  0.15865000  0.53479000  0.51891000  1.0
  N  N175  1  0.34135000  0.03480000  0.98109000  1.0
  N  N176  1  0.76543000  0.41375000  0.52778000  1.0
  N  N177  1  0.73457000  0.91375000  0.97222000  1.0
  N  N178  1  0.23457000  0.58625000  0.47222000  1.0
  N  N179  1  0.26543000  0.08626000  0.02778000  1.0
  N  N180  1  0.57561000  0.80044000  0.55733000  1.0
  N  N181  1  0.92439000  0.30044000  0.94267000  1.0
  N  N182  1  0.42439000  0.19956000  0.44267000  1.0
  N  N183  1  0.07561000  0.69956000  0.05733000  1.0
  N  N184  1  0.58082000  0.85877000  0.48987000  1.0
  N  N185  1  0.91918000  0.35877000  0.01013000  1.0
  N  N186  1  0.41918000  0.14123000  0.51013000  1.0
  N  N187  1  0.08083000  0.64123000  0.98987000  1.0
  N  N188  1  0.37750000  0.81243000  0.50107000  1.0
  N  N189  1  0.12249000  0.31243000  0.99892000  1.0
  N  N190  1  0.62249000  0.18757000  0.49893000  1.0
  N  N191  1  0.87751000  0.68757000  0.00107000  1.0
  N  N192  1  0.24096000  0.78311000  0.34454000  1.0
  N  N193  1  0.25904000  0.28312000  0.15546000  1.0
  N  N194  1  0.75905000  0.21689000  0.65546000  1.0
  N  N195  1  0.74095000  0.71689000  0.84454000  1.0
  N  N196  1  0.34318000  0.85831000  0.25164000  1.0
  N  N197  1  0.15682000  0.35830000  0.24836000  1.0
  N  N198  1  0.65682000  0.14169000  0.74835000  1.0
  N  N199  1  0.84318000  0.64169000  0.75164000  1.0
  N  N200  1  0.25384000  0.78365000  0.21960000  1.0
  N  N201  1  0.24616000  0.28365000  0.28041000  1.0
  N  N202  1  0.74616000  0.21635000  0.78041000  1.0
  N  N203  1  0.75385000  0.71636000  0.71960000  1.0
  O  O204  1  0.95959000  0.63943000  0.40470000  1.0
  O  O205  1  0.54041000  0.13943000  0.09530000  1.0
  O  O206  1  0.04041000  0.36056000  0.59530000  1.0
  O  O207  1  0.45959000  0.86056000  0.90471000  1.0
