# generated using pymatgen
data_HgH11C13N2Cl2O
_symmetry_space_group_name_H-M   'P 1'
_cell_length_a   9.51373000
_cell_length_b   9.76457000
_cell_length_c   10.63150000
_cell_angle_alpha   72.26430000
_cell_angle_beta   85.92340000
_cell_angle_gamma   64.76340000
_symmetry_Int_Tables_number   1
_chemical_formula_structural   HgH11C13N2Cl2O
_chemical_formula_sum   'Hg2 H22 C26 N4 Cl4 O2'
_cell_volume   848.93048897
_cell_formula_units_Z   2
loop_
 _symmetry_equiv_pos_site_id
 _symmetry_equiv_pos_as_xyz
  1  'x, y, z'
loop_
 _atom_site_type_symbol
 _atom_site_label
 _atom_site_symmetry_multiplicity
 _atom_site_fract_x
 _atom_site_fract_y
 _atom_site_fract_z
 _atom_site_occupancy
  Hg  Hg0  1  0.82617000  0.57064000  0.62457000  1.0
  Hg  Hg1  1  0.17383000  0.42936000  0.37544000  1.0
  H  H2  1  0.54718000  0.45069000  0.25514000  1.0
  H  H3  1  0.45282000  0.54931000  0.74485000  1.0
  H  H4  1  0.74936000  0.40622000  0.42230000  1.0
  H  H5  1  0.25064000  0.59378000  0.57770000  1.0
  H  H6  1  0.49971000  0.85494000  0.46169000  1.0
  H  H7  1  0.50028000  0.14505000  0.53831000  1.0
  H  H8  1  0.29001000  0.92060000  0.29829000  1.0
  H  H9  1  0.71000000  0.07940000  0.70172000  1.0
  H  H10  1  0.99902000  0.83510000  0.05389000  1.0
  H  H11  1  0.00099000  0.16490000  0.94611000  1.0
  H  H12  1  0.29061000  0.96882000  0.86676000  1.0
  H  H13  1  0.70939000  0.03119000  0.13323000  1.0
  H  H14  1  0.35391000  0.95959000  0.63891000  1.0
  H  H15  1  0.64608000  0.04042000  0.36109000  1.0
  H  H16  1  0.20291000  0.88196000  0.51353000  1.0
  H  H17  1  0.79708000  0.11805000  0.48646000  1.0
  H  H18  1  0.99870000  0.80107000  0.62155000  1.0
  H  H19  1  0.00130000  0.19894000  0.37845000  1.0
  H  H20  1  0.94227000  0.79957000  0.85255000  1.0
  H  H21  1  0.05774000  0.20043000  0.14745000  1.0
  H  H22  1  0.20432000  0.95592000  0.11772000  1.0
  H  H23  1  0.79569000  0.04408000  0.88227000  1.0
  C  C24  1  0.53392000  0.54346000  0.29793000  1.0
  C  C25  1  0.46609000  0.45654000  0.70208000  1.0
  C  C26  1  0.64546000  0.51830000  0.39067000  1.0
  C  C27  1  0.35453000  0.48170000  0.60934000  1.0
  C  C28  1  0.50674000  0.76934000  0.41242000  1.0
  C  C29  1  0.49325000  0.23065000  0.58758000  1.0
  C  C30  1  0.39025000  0.80513000  0.31966000  1.0
  C  C31  1  0.60975000  0.19486000  0.68034000  1.0
  C  C32  1  0.40317000  0.69009000  0.26119000  1.0
  C  C33  1  0.59684000  0.30990000  0.73882000  1.0
  C  C34  1  0.28028000  0.71517000  0.16441000  1.0
  C  C35  1  0.71972000  0.28483000  0.83559000  1.0
  C  C36  1  0.05804000  0.91198000  0.00730000  1.0
  C  C37  1  0.94195000  0.08803000  0.99269000  1.0
  C  C38  1  0.10892000  0.88996000  0.87369000  1.0
  C  C39  1  0.89109000  0.11004000  0.12631000  1.0
  C  C40  1  0.22680000  0.93118000  0.81347000  1.0
  C  C41  1  0.77320000  0.06883000  0.18653000  1.0
  C  C42  1  0.26249000  0.92618000  0.68496000  1.0
  C  C43  1  0.73751000  0.07383000  0.31503000  1.0
  C  C44  1  0.17902000  0.88145000  0.61524000  1.0
  C  C45  1  0.82098000  0.11856000  0.38475000  1.0
  C  C46  1  0.06378000  0.83642000  0.67567000  1.0
  C  C47  1  0.93622000  0.16358000  0.32432000  1.0
  C  C48  1  0.03023000  0.83877000  0.80512000  1.0
  C  C49  1  0.96977000  0.16123000  0.19487000  1.0
  N  N50  1  0.18824000  0.86829000  0.09776000  1.0
  N  N51  1  0.81177000  0.13171000  0.90224000  1.0
  N  N52  1  0.63142000  0.62865000  0.44735000  1.0
  N  N53  1  0.36858000  0.37134000  0.55265000  1.0
  Cl  Cl54  1  0.99968000  0.31271000  0.61608000  1.0
  Cl  Cl55  1  0.00032000  0.68729000  0.38393000  1.0
  Cl  Cl56  1  0.69581000  0.80892000  0.68032000  1.0
  Cl  Cl57  1  0.30419000  0.19108000  0.31969000  1.0
  O  O58  1  0.26519000  0.60122000  0.14819000  1.0
  O  O59  1  0.73480000  0.39878000  0.85181000  1.0
