# generated using pymatgen
data_CuH11C13BrN2O
_symmetry_space_group_name_H-M   'P 1'
_cell_length_a   7.00178000
_cell_length_b   11.09120000
_cell_length_c   15.31770000
_cell_angle_alpha   90.00120000
_cell_angle_beta   90.00100000
_cell_angle_gamma   94.77120000
_symmetry_Int_Tables_number   1
_chemical_formula_structural   CuH11C13BrN2O
_chemical_formula_sum   'Cu4 H44 C52 Br4 N8 O4'
_cell_volume   1185.42211145
_cell_formula_units_Z   4
loop_
 _symmetry_equiv_pos_site_id
 _symmetry_equiv_pos_as_xyz
  1  'x, y, z'
loop_
 _atom_site_type_symbol
 _atom_site_label
 _atom_site_symmetry_multiplicity
 _atom_site_fract_x
 _atom_site_fract_y
 _atom_site_fract_z
 _atom_site_occupancy
  Cu  Cu0  1  0.32999000  0.06909000  0.70056000  1.0
  Cu  Cu1  1  0.16979000  0.93088000  0.20053000  1.0
  Cu  Cu2  1  0.66979000  0.93088000  0.29947000  1.0
  Cu  Cu3  1  0.82998000  0.06908000  0.79945000  1.0
  H  H4  1  0.24744000  0.95037000  0.46534000  1.0
  H  H5  1  0.25260000  0.04962000  0.96533000  1.0
  H  H6  1  0.75263000  0.04962000  0.53467000  1.0
  H  H7  1  0.74744000  0.95038000  0.03466000  1.0
  H  H8  1  0.43863000  0.56209000  0.54737000  1.0
  H  H9  1  0.06138000  0.43792000  0.04737000  1.0
  H  H10  1  0.56137000  0.43792000  0.45263000  1.0
  H  H11  1  0.93864000  0.56209000  0.95263000  1.0
  H  H12  1  0.11809000  0.13917000  0.39534000  1.0
  H  H13  1  0.38190000  0.86081000  0.89534000  1.0
  H  H14  1  0.88189000  0.86081000  0.60466000  1.0
  H  H15  1  0.61808000  0.13918000  0.10466000  1.0
  H  H16  1  0.58523000  0.72443000  0.79700000  1.0
  H  H17  1  0.91474000  0.27557000  0.29699000  1.0
  H  H18  1  0.41475000  0.27555000  0.20301000  1.0
  H  H19  1  0.08524000  0.72443000  0.70300000  1.0
  H  H20  1  0.20661000  0.33143000  0.68468000  1.0
  H  H21  1  0.29341000  0.66858000  0.18467000  1.0
  H  H22  1  0.79339000  0.66857000  0.31532000  1.0
  H  H23  1  0.70661000  0.33142000  0.81532000  1.0
  H  H24  1  0.32098000  0.75480000  0.49567000  1.0
  H  H25  1  0.17903000  0.24521000  0.99567000  1.0
  H  H26  1  0.67901000  0.24521000  0.50434000  1.0
  H  H27  1  0.82099000  0.75480000  0.00433000  1.0
  H  H28  1  0.09689000  0.45577000  0.56003000  1.0
  H  H29  1  0.40312000  0.54423000  0.06003000  1.0
  H  H30  1  0.90310000  0.54423000  0.43997000  1.0
  H  H31  1  0.59690000  0.45577000  0.93997000  1.0
  H  H32  1  0.04686000  0.35597000  0.41283000  1.0
  H  H33  1  0.45314000  0.64402000  0.91283000  1.0
  H  H34  1  0.95314000  0.64402000  0.58716000  1.0
  H  H35  1  0.54685000  0.35597000  0.08717000  1.0
  H  H36  1  0.68293000  0.53014000  0.76448000  1.0
  H  H37  1  0.81707000  0.46986000  0.26448000  1.0
  H  H38  1  0.31706000  0.46985000  0.23552000  1.0
  H  H39  1  0.18294000  0.53014000  0.73552000  1.0
  H  H40  1  0.69327000  0.48089000  0.65406000  1.0
  H  H41  1  0.80672000  0.51912000  0.15407000  1.0
  H  H42  1  0.30673000  0.51911000  0.34594000  1.0
  H  H43  1  0.19328000  0.48089000  0.84594000  1.0
  H  H44  1  0.48529000  0.44399000  0.71581000  1.0
  H  H45  1  0.01471000  0.55601000  0.21581000  1.0
  H  H46  1  0.51472000  0.55600000  0.28419000  1.0
  H  H47  1  0.98529000  0.44399000  0.78419000  1.0
  C  C48  1  0.20527000  0.12507000  0.53014000  1.0
  C  C49  1  0.29474000  0.87493000  0.03013000  1.0
  C  C50  1  0.79475000  0.87493000  0.46986000  1.0
  C  C51  1  0.70526000  0.12507000  0.96986000  1.0
  C  C52  1  0.25804000  0.00167000  0.52666000  1.0
  C  C53  1  0.24195000  0.99832000  0.02665000  1.0
  C  C54  1  0.74197000  0.99832000  0.47335000  1.0
  C  C55  1  0.75803000  0.00168000  0.97334000  1.0
  C  C56  1  0.44258000  0.64023000  0.59078000  1.0
  C  C57  1  0.05743000  0.35978000  0.09078000  1.0
  C  C58  1  0.55742000  0.35977000  0.40922000  1.0
  C  C59  1  0.94259000  0.64023000  0.90922000  1.0
  C  C60  1  0.45022000  0.83988000  0.70651000  1.0
  C  C61  1  0.04976000  0.16013000  0.20650000  1.0
  C  C62  1  0.54976000  0.16012000  0.29350000  1.0
  C  C63  1  0.95022000  0.83987000  0.79349000  1.0
  C  C64  1  0.38207000  0.84756000  0.61853000  1.0
  C  C65  1  0.11791000  0.15244000  0.11851000  1.0
  C  C66  1  0.61791000  0.15243000  0.38149000  1.0
  C  C67  1  0.88207000  0.84756000  0.88147000  1.0
  C  C68  1  0.13632000  0.18572000  0.45813000  1.0
  C  C69  1  0.36368000  0.81427000  0.95813000  1.0
  C  C70  1  0.86369000  0.81427000  0.54187000  1.0
  C  C71  1  0.63631000  0.18573000  0.04187000  1.0
  C  C72  1  0.52120000  0.63175000  0.67558000  1.0
  C  C73  1  0.97878000  0.36825000  0.17558000  1.0
  C  C74  1  0.47878000  0.36825000  0.32442000  1.0
  C  C75  1  0.02121000  0.63175000  0.82442000  1.0
  C  C76  1  0.52396000  0.73017000  0.73194000  1.0
  C  C77  1  0.97602000  0.26983000  0.23193000  1.0
  C  C78  1  0.47602000  0.26982000  0.26807000  1.0
  C  C79  1  0.02396000  0.73017000  0.76806000  1.0
  C  C80  1  0.18868000  0.29457000  0.61900000  1.0
  C  C81  1  0.31134000  0.70543000  0.11900000  1.0
  C  C82  1  0.81133000  0.70542000  0.38100000  1.0
  C  C83  1  0.68868000  0.29457000  0.88100000  1.0
  C  C84  1  0.37635000  0.74730000  0.56186000  1.0
  C  C85  1  0.12365000  0.25271000  0.06186000  1.0
  C  C86  1  0.62364000  0.25271000  0.43815000  1.0
  C  C87  1  0.87636000  0.74730000  0.93814000  1.0
  C  C88  1  0.12419000  0.36163000  0.54952000  1.0
  C  C89  1  0.37584000  0.63837000  0.04952000  1.0
  C  C90  1  0.87583000  0.63836000  0.45048000  1.0
  C  C91  1  0.62418000  0.36163000  0.95048000  1.0
  C  C92  1  0.09707000  0.30607000  0.46839000  1.0
  C  C93  1  0.40294000  0.69392000  0.96839000  1.0
  C  C94  1  0.90294000  0.69392000  0.53161000  1.0
  C  C95  1  0.59707000  0.30608000  0.03161000  1.0
  C  C96  1  0.60000000  0.51625000  0.70409000  1.0
  C  C97  1  0.89999000  0.48375000  0.20409000  1.0
  C  C98  1  0.39999000  0.48375000  0.29591000  1.0
  C  C99  1  0.10001000  0.51625000  0.79591000  1.0
  Br  Br100  1  0.22469000  0.17785000  0.82490000  1.0
  Br  Br101  1  0.27554000  0.82225000  0.32488000  1.0
  Br  Br102  1  0.77556000  0.82222000  0.17513000  1.0
  Br  Br103  1  0.72471000  0.17787000  0.67511000  1.0
  N  N104  1  0.32099000  0.95935000  0.59943000  1.0
  N  N105  1  0.17895000  0.04065000  0.09940000  1.0
  N  N106  1  0.67896000  0.04064000  0.40059000  1.0
  N  N107  1  0.82098000  0.95935000  0.90057000  1.0
  N  N108  1  0.22994000  0.18015000  0.60953000  1.0
  N  N109  1  0.27009000  0.81985000  0.10952000  1.0
  N  N110  1  0.77009000  0.81985000  0.39048000  1.0
  N  N111  1  0.72992000  0.18015000  0.89048000  1.0
  O  O112  1  0.44232000  0.93187000  0.76027000  1.0
  O  O113  1  0.05768000  0.06814000  0.26026000  1.0
  O  O114  1  0.55768000  0.06812000  0.23974000  1.0
  O  O115  1  0.94230000  0.93186000  0.73973000  1.0
