# generated using pymatgen
data_HoAgH11C15(NO6)2
_symmetry_space_group_name_H-M   'P 1'
_cell_length_a   7.49598000
_cell_length_b   8.18902000
_cell_length_c   14.19730000
_cell_angle_alpha   98.57370000
_cell_angle_beta   100.26400000
_cell_angle_gamma   95.04760000
_symmetry_Int_Tables_number   1
_chemical_formula_structural   HoAgH11C15(NO6)2
_chemical_formula_sum   'Ho2 Ag2 H22 C30 N4 O24'
_cell_volume   842.07117234
_cell_formula_units_Z   2
loop_
 _symmetry_equiv_pos_site_id
 _symmetry_equiv_pos_as_xyz
  1  'x, y, z'
loop_
 _atom_site_type_symbol
 _atom_site_label
 _atom_site_symmetry_multiplicity
 _atom_site_fract_x
 _atom_site_fract_y
 _atom_site_fract_z
 _atom_site_occupancy
  Ho  Ho0  1  0.18884000  0.70184000  0.42002000  1.0
  Ho  Ho1  1  0.81117000  0.29817000  0.57999000  1.0
  Ag  Ag2  1  0.82975000  0.60059000  0.96785000  1.0
  Ag  Ag3  1  0.17024000  0.39941000  0.03214000  1.0
  H  H4  1  0.54685000  0.91642000  0.23302000  1.0
  H  H5  1  0.45315000  0.08358000  0.76698000  1.0
  H  H6  1  0.79807000  0.81094000  0.37392000  1.0
  H  H7  1  0.20193000  0.18905000  0.62608000  1.0
  H  H8  1  0.87433000  0.88524000  0.48409000  1.0
  H  H9  1  0.12567000  0.11476000  0.51591000  1.0
  H  H10  1  0.36343000  0.38061000  0.48002000  1.0
  H  H11  1  0.63657000  0.61939000  0.51998000  1.0
  H  H12  1  0.21518000  0.44900000  0.54036000  1.0
  H  H13  1  0.78483000  0.55100000  0.45964000  1.0
  H  H14  1  0.02424000  0.99531000  0.66887000  1.0
  H  H15  1  0.97576000  0.00469000  0.33113000  1.0
  H  H16  1  0.83453000  0.97513000  0.93676000  1.0
  H  H17  1  0.16547000  0.02487000  0.06324000  1.0
  H  H18  1  0.96577000  0.54134000  0.78487000  1.0
  H  H19  1  0.03422000  0.45866000  0.21513000  1.0
  H  H20  1  0.47606000  0.30017000  0.26023000  1.0
  H  H21  1  0.52394000  0.69983000  0.73977000  1.0
  H  H22  1  0.72057000  0.23800000  0.00495000  1.0
  H  H23  1  0.27943000  0.76200000  0.99505000  1.0
  H  H24  1  0.67036000  0.71471000  0.13665000  1.0
  H  H25  1  0.32963000  0.28529000  0.86335000  1.0
  C  C26  1  0.07213000  0.66690000  0.63330000  1.0
  C  C27  1  0.92787000  0.33310000  0.36670000  1.0
  C  C28  1  0.00520000  0.75817000  0.71688000  1.0
  C  C29  1  0.99480000  0.24183000  0.28311000  1.0
  C  C30  1  0.98794000  0.92749000  0.72423000  1.0
  C  C31  1  0.01206000  0.07251000  0.27577000  1.0
  C  C32  1  0.92372000  0.00876000  0.80277000  1.0
  C  C33  1  0.07628000  0.99124000  0.19723000  1.0
  C  C34  1  0.88295000  0.91697000  0.87329000  1.0
  C  C35  1  0.11704000  0.08303000  0.12670000  1.0
  C  C36  1  0.95698000  0.67432000  0.78872000  1.0
  C  C37  1  0.04302000  0.32568000  0.21127000  1.0
  C  C38  1  0.90014000  0.19133000  0.81001000  1.0
  C  C39  1  0.09985000  0.80867000  0.18998000  1.0
  C  C40  1  0.50049000  0.63766000  0.28355000  1.0
  C  C41  1  0.49951000  0.36233000  0.71645000  1.0
  C  C42  1  0.56138000  0.52105000  0.20709000  1.0
  C  C43  1  0.43862000  0.47894000  0.79291000  1.0
  C  C44  1  0.53661000  0.34988000  0.20472000  1.0
  C  C45  1  0.46339000  0.65011000  0.79528000  1.0
  C  C46  1  0.59698000  0.24480000  0.13311000  1.0
  C  C47  1  0.40302000  0.75520000  0.86689000  1.0
  C  C48  1  0.67347000  0.31432000  0.06319000  1.0
  C  C49  1  0.32653000  0.68568000  0.93681000  1.0
  C  C50  1  0.64636000  0.58172000  0.13756000  1.0
  C  C51  1  0.35363000  0.41827000  0.86244000  1.0
  C  C52  1  0.59618000  0.06343000  0.13759000  1.0
  C  C53  1  0.40383000  0.93657000  0.86241000  1.0
  C  C54  1  0.43445000  0.05974000  0.48034000  1.0
  C  C55  1  0.56557000  0.94028000  0.51968000  1.0
  N  N56  1  0.89915000  0.75263000  0.86616000  1.0
  N  N57  1  0.10085000  0.24737000  0.13384000  1.0
  N  N58  1  0.69830000  0.48012000  0.06602000  1.0
  N  N59  1  0.30169000  0.51987000  0.93398000  1.0
  O  O60  1  0.13979000  0.75180000  0.57808000  1.0
  O  O61  1  0.86021000  0.24820000  0.42192000  1.0
  O  O62  1  0.05854000  0.50763000  0.62239000  1.0
  O  O63  1  0.94147000  0.49237000  0.37761000  1.0
  O  O64  1  0.87155000  0.26841000  0.88854000  1.0
  O  O65  1  0.12845000  0.73159000  0.11147000  1.0
  O  O66  1  0.91433000  0.25606000  0.73438000  1.0
  O  O67  1  0.08567000  0.74394000  0.26563000  1.0
  O  O68  1  0.38072000  0.57859000  0.32559000  1.0
  O  O69  1  0.61928000  0.42141000  0.67441000  1.0
  O  O70  1  0.57498000  0.78849000  0.30248000  1.0
  O  O71  1  0.42502000  0.21151000  0.69751000  1.0
  O  O72  1  0.52224000  0.02701000  0.21143000  1.0
  O  O73  1  0.47776000  0.97299000  0.78857000  1.0
  O  O74  1  0.66242000  0.96561000  0.08265000  1.0
  O  O75  1  0.33758000  0.03439000  0.91735000  1.0
  O  O76  1  0.27082000  0.99665000  0.44475000  1.0
  O  O77  1  0.72919000  0.00337000  0.55527000  1.0
  O  O78  1  0.49957000  0.20975000  0.48786000  1.0
  O  O79  1  0.50044000  0.79026000  0.51215000  1.0
  O  O80  1  0.90939000  0.82738000  0.42536000  1.0
  O  O81  1  0.09061000  0.17262000  0.57463000  1.0
  O  O82  1  0.28350000  0.46937000  0.48900000  1.0
  O  O83  1  0.71649000  0.53063000  0.51100000  1.0
