# generated using pymatgen
data_CdH4C7S(NO)2
_symmetry_space_group_name_H-M   'P 1'
_cell_length_a   5.72436000
_cell_length_b   10.16332326
_cell_length_c   15.39840000
_cell_angle_alpha   90.33074182
_cell_angle_beta   100.67080000
_cell_angle_gamma   106.35602600
_symmetry_Int_Tables_number   1
_chemical_formula_structural   CdH4C7S(NO)2
_chemical_formula_sum   'Cd4 H16 C28 S4 N8 O8'
_cell_volume   843.14145048
_cell_formula_units_Z   4
loop_
 _symmetry_equiv_pos_site_id
 _symmetry_equiv_pos_as_xyz
  1  'x, y, z'
loop_
 _atom_site_type_symbol
 _atom_site_label
 _atom_site_symmetry_multiplicity
 _atom_site_fract_x
 _atom_site_fract_y
 _atom_site_fract_z
 _atom_site_occupancy
  Cd  Cd0  1  0.45257000  0.34075000  0.67300000  1.0
  Cd  Cd1  1  0.93850000  0.15843000  0.82709000  1.0
  Cd  Cd2  1  0.54741000  0.65926000  0.32700000  1.0
  Cd  Cd3  1  0.06148000  0.84155000  0.17291000  1.0
  H  H4  1  0.61881000  0.05950000  0.46182000  1.0
  H  H5  1  0.59761000  0.44040000  0.03811000  1.0
  H  H6  1  0.38119000  0.94051000  0.53818000  1.0
  H  H7  1  0.40239000  0.55958000  0.96189000  1.0
  H  H8  1  0.78055000  0.06984000  0.32277000  1.0
  H  H9  1  0.88768000  0.43024000  0.17716000  1.0
  H  H10  1  0.21946000  0.93018000  0.67723000  1.0
  H  H11  1  0.11234000  0.56975000  0.82285000  1.0
  H  H12  1  0.23486000  0.19248000  0.32727000  1.0
  H  H13  1  0.21507000  0.30778000  0.17266000  1.0
  H  H14  1  0.76516000  0.80755000  0.67274000  1.0
  H  H15  1  0.78493000  0.69220000  0.82733000  1.0
  H  H16  1  0.49661000  0.30583000  0.47138000  1.0
  H  H17  1  0.21990000  0.19428000  0.02859000  1.0
  H  H18  1  0.50341000  0.69419000  0.52863000  1.0
  H  H19  1  0.78010000  0.80570000  0.97140000  1.0
  C  C20  1  0.01790000  0.50064000  0.64371000  1.0
  C  C21  1  0.37349000  0.99880000  0.85630000  1.0
  C  C22  1  0.98209000  0.49937000  0.35629000  1.0
  C  C23  1  0.62652000  0.00119000  0.14369000  1.0
  C  C24  1  0.88677000  0.16396000  0.62766000  1.0
  C  C25  1  0.59535000  0.33575000  0.87231000  1.0
  C  C26  1  0.11324000  0.83604000  0.37235000  1.0
  C  C27  1  0.40463000  0.66424000  0.12769000  1.0
  C  C28  1  0.97284000  0.17412000  0.54028000  1.0
  C  C29  1  0.75858000  0.32572000  0.95969000  1.0
  C  C30  1  0.02715000  0.82589000  0.45972000  1.0
  C  C31  1  0.24143000  0.67427000  0.04031000  1.0
  C  C32  1  0.81189000  0.11363000  0.46203000  1.0
  C  C33  1  0.73643000  0.38638000  0.03791000  1.0
  C  C34  1  0.18811000  0.88639000  0.53797000  1.0
  C  C35  1  0.26358000  0.61360000  0.96209000  1.0
  C  C36  1  0.90412000  0.11896000  0.38395000  1.0
  C  C37  1  0.90122000  0.38106000  0.11598000  1.0
  C  C38  1  0.09589000  0.88106000  0.61605000  1.0
  C  C39  1  0.09876000  0.61891000  0.88402000  1.0
  C  C40  1  0.15337000  0.18693000  0.38620000  1.0
  C  C41  1  0.08048000  0.31327000  0.11371000  1.0
  C  C42  1  0.84664000  0.81309000  0.61380000  1.0
  C  C43  1  0.91953000  0.68673000  0.88628000  1.0
  C  C44  1  0.30204000  0.24836000  0.46645000  1.0
  C  C45  1  0.08763000  0.25175000  0.03345000  1.0
  C  C46  1  0.69798000  0.75166000  0.53356000  1.0
  C  C47  1  0.91237000  0.74823000  0.96654000  1.0
  S  S48  1  0.31605000  0.57169000  0.67305000  1.0
  S  S49  1  0.57114000  0.92766000  0.82689000  1.0
  S  S50  1  0.68395000  0.42833000  0.32695000  1.0
  S  S51  1  0.42885000  0.07232000  0.17311000  1.0
  N  N52  1  0.80090000  0.45114000  0.62124000  1.0
  N  N53  1  0.22834000  0.04837000  0.87869000  1.0
  N  N54  1  0.19909000  0.54888000  0.37876000  1.0
  N  N55  1  0.77162000  0.95161000  0.12130000  1.0
  N  N56  1  0.21343000  0.24060000  0.54141000  1.0
  N  N57  1  0.93178000  0.25927000  0.95854000  1.0
  N  N58  1  0.78657000  0.75941000  0.45860000  1.0
  N  N59  1  0.06822000  0.74071000  0.04146000  1.0
  O  O60  1  0.06263000  0.19904000  0.69777000  1.0
  O  O61  1  0.66597000  0.30035000  0.80220000  1.0
  O  O62  1  0.93737000  0.80097000  0.30223000  1.0
  O  O63  1  0.33404000  0.69964000  0.19780000  1.0
  O  O64  1  0.66118000  0.12225000  0.62927000  1.0
  O  O65  1  0.41021000  0.37772000  0.87069000  1.0
  O  O66  1  0.33882000  0.87775000  0.37074000  1.0
  O  O67  1  0.58978000  0.62228000  0.12930000  1.0
