# generated using pymatgen
data_AlH7C12NO5F
_symmetry_space_group_name_H-M   'P 1'
_cell_length_a   6.64964000
_cell_length_b   11.15250000
_cell_length_c   17.78989315
_cell_angle_alpha   89.92339541
_cell_angle_beta   79.70423495
_cell_angle_gamma   72.76870000
_symmetry_Int_Tables_number   1
_chemical_formula_structural   AlH7C12NO5F
_chemical_formula_sum   'Al2 H14 C24 N2 O10 F2'
_cell_volume   1237.92528237
_cell_formula_units_Z   2
loop_
 _symmetry_equiv_pos_site_id
 _symmetry_equiv_pos_as_xyz
  1  'x, y, z'
loop_
 _atom_site_type_symbol
 _atom_site_label
 _atom_site_symmetry_multiplicity
 _atom_site_fract_x
 _atom_site_fract_y
 _atom_site_fract_z
 _atom_site_occupancy
  Al  Al0  1  0.00605000  0.48702000  0.50019000  1.0
  Al  Al1  1  0.50457000  0.48980000  0.49928000  1.0
  H  H2  1  0.35396000  0.34077000  0.45063000  1.0
  H  H3  1  0.66313000  0.64105000  0.53890000  1.0
  H  H4  1  0.77856000  0.86428000  0.46333000  1.0
  H  H5  1  0.22583000  0.11378000  0.53776000  1.0
  H  H6  1  0.19721000  0.43840000  0.26674000  1.0
  H  H7  1  0.27510000  0.44417000  0.12420000  1.0
  H  H8  1  0.59467000  0.57155000  0.12581000  1.0
  H  H9  1  0.33571000  0.56493000  0.87883000  1.0
  H  H10  1  0.88126000  0.42189000  0.72853000  1.0
  H  H11  1  0.79890000  0.42552000  0.87132000  1.0
  H  H12  1  0.43994000  0.54956000  0.32892000  1.0
  H  H13  1  0.35470000  0.59127000  0.24305000  1.0
  H  H14  1  0.50748000  0.55335000  0.67385000  1.0
  H  H15  1  0.55625000  0.58524000  0.76420000  1.0
  C  C16  1  0.82583000  0.49141000  0.36059000  1.0
  C  C17  1  0.85684000  0.26263000  0.50557000  1.0
  C  C18  1  0.18214000  0.49101000  0.63862000  1.0
  C  C19  1  0.15068000  0.71531000  0.49422000  1.0
  C  C20  1  0.92715000  0.12226000  0.50326000  1.0
  C  C21  1  0.07754000  0.85566000  0.49769000  1.0
  C  C22  1  0.80520000  0.04852000  0.48262000  1.0
  C  C23  1  0.19912000  0.92940000  0.51866000  1.0
  C  C24  1  0.87723000  0.91838000  0.47983000  1.0
  C  C25  1  0.12715000  0.05950000  0.52141000  1.0
  C  C26  1  0.85625000  0.50071000  0.27691000  1.0
  C  C27  1  0.06696000  0.46921000  0.23489000  1.0
  C  C28  1  0.11106000  0.47257000  0.15609000  1.0
  C  C29  1  0.93778000  0.50931000  0.11607000  1.0
  C  C30  1  0.72716000  0.54276000  0.15690000  1.0
  C  C31  1  0.68049000  0.53871000  0.23732000  1.0
  C  C32  1  0.97831000  0.50810000  0.03506000  1.0
  C  C33  1  0.01683000  0.50366000  0.96522000  1.0
  C  C34  1  0.06150000  0.49830000  0.88415000  1.0
  C  C35  1  0.23585000  0.53339000  0.84573000  1.0
  C  C36  1  0.28689000  0.53032000  0.76494000  1.0
  C  C37  1  0.15085000  0.49144000  0.72257000  1.0
  C  C38  1  0.97806000  0.45418000  0.76256000  1.0
  C  C39  1  0.93116000  0.45651000  0.84150000  1.0
  N  N40  1  0.47211000  0.57545000  0.27438000  1.0
  N  N41  1  0.45782000  0.56709000  0.73147000  1.0
  O  O42  1  0.97875000  0.49545000  0.39401000  1.0
  O  O43  1  0.65758000  0.31899000  0.51356000  1.0
  O  O44  1  0.35556000  0.50933000  0.60250000  1.0
  O  O45  1  0.00542000  0.66088000  0.50137000  1.0
  O  O46  1  0.03512000  0.47534000  0.60563000  1.0
  O  O47  1  0.35097000  0.66097000  0.48430000  1.0
  O  O48  1  0.64760000  0.47739000  0.39509000  1.0
  O  O49  1  0.00448000  0.31500000  0.49924000  1.0
  O  O50  1  0.30095000  0.42959000  0.46618000  1.0
  O  O51  1  0.70925000  0.54987000  0.53274000  1.0
  F  F52  1  0.61184000  0.10317000  0.46251000  1.0
  F  F53  1  0.39213000  0.87487000  0.53906000  1.0
