# generated using pymatgen
data_NaH10C5ClO5
_symmetry_space_group_name_H-M   'P 1'
_cell_length_a   5.98245000
_cell_length_b   6.88572000
_cell_length_c   9.81678000
_cell_angle_alpha   106.81100000
_cell_angle_beta   90.00000000
_cell_angle_gamma   89.99990000
_symmetry_Int_Tables_number   1
_chemical_formula_structural   NaH10C5ClO5
_chemical_formula_sum   'Na2 H20 C10 Cl2 O10'
_cell_volume   387.10538828
_cell_formula_units_Z   2
loop_
 _symmetry_equiv_pos_site_id
 _symmetry_equiv_pos_as_xyz
  1  'x, y, z'
loop_
 _atom_site_type_symbol
 _atom_site_label
 _atom_site_symmetry_multiplicity
 _atom_site_fract_x
 _atom_site_fract_y
 _atom_site_fract_z
 _atom_site_occupancy
  Na  Na0  1  0.20328000  0.92955000  0.07073000  1.0
  Na  Na1  1  0.70327000  0.07045000  0.92927000  1.0
  H  H2  1  0.59275000  0.28555000  0.70398000  1.0
  H  H3  1  0.09275000  0.71445000  0.29602000  1.0
  H  H4  1  0.34292000  0.96912000  0.51295000  1.0
  H  H5  1  0.84292000  0.03087000  0.48705000  1.0
  H  H6  1  0.27346000  0.29783000  0.90357000  1.0
  H  H7  1  0.77347000  0.70217000  0.09643000  1.0
  H  H8  1  0.09561000  0.14073000  0.71265000  1.0
  H  H9  1  0.59561000  0.85927000  0.28735000  1.0
  H  H10  1  0.95841000  0.71305000  0.83737000  1.0
  H  H11  1  0.45841000  0.28695000  0.16263000  1.0
  H  H12  1  0.08089000  0.77863000  0.62540000  1.0
  H  H13  1  0.58089000  0.22137000  0.37460000  1.0
  H  H14  1  0.55675000  0.65040000  0.88197000  1.0
  H  H15  1  0.05675000  0.34960000  0.11803000  1.0
  H  H16  1  0.29791000  0.54300000  0.71027000  1.0
  H  H17  1  0.79790000  0.45700000  0.28973000  1.0
  H  H18  1  0.67977000  0.62292000  0.62806000  1.0
  H  H19  1  0.17977000  0.37708000  0.37194000  1.0
  H  H20  1  0.45680000  0.64905000  0.51306000  1.0
  H  H21  1  0.95679000  0.35094000  0.48694000  1.0
  C  C22  1  0.41783000  0.03948000  0.61820000  1.0
  C  C23  1  0.91783000  0.96052000  0.38180000  1.0
  C  C24  1  0.23991000  0.05505000  0.73426000  1.0
  C  C25  1  0.73992000  0.94495000  0.26574000  1.0
  C  C26  1  0.16418000  0.84067000  0.72938000  1.0
  C  C27  1  0.66418000  0.15933000  0.27062000  1.0
  C  C28  1  0.36000000  0.69998000  0.73379000  1.0
  C  C29  1  0.85999000  0.30002000  0.26621000  1.0
  C  C30  1  0.53022000  0.71119000  0.62036000  1.0
  C  C31  1  0.03022000  0.28881000  0.37964000  1.0
  Cl  Cl32  1  0.33109000  0.55996000  0.14202000  1.0
  Cl  Cl33  1  0.83108000  0.44004000  0.85797000  1.0
  O  O34  1  0.50395000  0.22638000  0.61607000  1.0
  O  O35  1  0.00396000  0.77361000  0.38393000  1.0
  O  O36  1  0.33103000  0.15895000  0.87136000  1.0
  O  O37  1  0.83103000  0.84105000  0.12864000  1.0
  O  O38  1  0.00980000  0.85281000  0.84303000  1.0
  O  O39  1  0.50980000  0.14719000  0.15697000  1.0
  O  O40  1  0.45785000  0.76169000  0.87358000  1.0
  O  O41  1  0.95785000  0.23831000  0.12642000  1.0
  O  O42  1  0.60164000  0.91641000  0.64079000  1.0
  O  O43  1  0.10164000  0.08359000  0.35921000  1.0
