# generated using pymatgen
data_HgH5C6(BrN)2
_symmetry_space_group_name_H-M   'P 1'
_cell_length_a   4.17427000
_cell_length_b   9.21685000
_cell_length_c   11.57510000
_cell_angle_alpha   88.08470000
_cell_angle_beta   88.91590000
_cell_angle_gamma   86.05570000
_symmetry_Int_Tables_number   1
_chemical_formula_structural   HgH5C6(BrN)2
_chemical_formula_sum   'Hg2 H10 C12 Br4 N4'
_cell_volume   443.97127135
_cell_formula_units_Z   2
loop_
 _symmetry_equiv_pos_site_id
 _symmetry_equiv_pos_as_xyz
  1  'x, y, z'
loop_
 _atom_site_type_symbol
 _atom_site_label
 _atom_site_symmetry_multiplicity
 _atom_site_fract_x
 _atom_site_fract_y
 _atom_site_fract_z
 _atom_site_occupancy
  Hg  Hg0  1  0.10484000  0.13517000  0.22019000  1.0
  Hg  Hg1  1  0.89516000  0.86483000  0.77981000  1.0
  H  H2  1  0.85339000  0.91065000  0.40789000  1.0
  H  H3  1  0.14662000  0.08936000  0.59211000  1.0
  H  H4  1  0.90618000  0.64909000  0.46765000  1.0
  H  H5  1  0.09384000  0.35092000  0.53236000  1.0
  H  H6  1  0.23940000  0.47282000  0.34058000  1.0
  H  H7  1  0.76060000  0.52718000  0.65942000  1.0
  H  H8  1  0.49336000  0.57181000  0.16099000  1.0
  H  H9  1  0.50664000  0.42818000  0.83902000  1.0
  H  H10  1  0.59834000  0.76818000  0.03107000  1.0
  H  H11  1  0.40165000  0.23181000  0.96893000  1.0
  C  C12  1  0.99413000  0.83213000  0.35553000  1.0
  C  C13  1  0.00587000  0.16787000  0.64447000  1.0
  C  C14  1  0.02615000  0.68449000  0.38835000  1.0
  C  C15  1  0.97387000  0.31552000  0.61165000  1.0
  C  C16  1  0.20729000  0.58883000  0.31857000  1.0
  C  C17  1  0.79272000  0.41117000  0.68143000  1.0
  C  C18  1  0.35059000  0.64373000  0.21800000  1.0
  C  C19  1  0.64942000  0.35627000  0.78200000  1.0
  C  C20  1  0.30811000  0.79243000  0.18956000  1.0
  C  C21  1  0.69189000  0.20757000  0.81044000  1.0
  C  C22  1  0.45642000  0.84719000  0.08322000  1.0
  C  C23  1  0.54357000  0.15281000  0.91678000  1.0
  Br  Br24  1  0.55072000  0.18211000  0.38086000  1.0
  Br  Br25  1  0.44927000  0.81790000  0.61913000  1.0
  Br  Br26  1  0.93548000  0.35605000  0.09308000  1.0
  Br  Br27  1  0.06449000  0.64394000  0.90691000  1.0
  N  N28  1  0.12987000  0.88432000  0.25862000  1.0
  N  N29  1  0.87015000  0.11568000  0.74138000  1.0
  N  N30  1  0.42494000  0.98348000  0.05199000  1.0
  N  N31  1  0.57504000  0.01651000  0.94801000  1.0
