# generated using pymatgen
data_KMnH16C12(IO5)3
_symmetry_space_group_name_H-M   'P 1'
_cell_length_a   5.81757000
_cell_length_b   9.07017000
_cell_length_c   10.92410000
_cell_angle_alpha   93.55810000
_cell_angle_beta   92.06170000
_cell_angle_gamma   96.27780000
_symmetry_Int_Tables_number   1
_chemical_formula_structural   KMnH16C12(IO5)3
_chemical_formula_sum   'K1 Mn1 H16 C12 I3 O15'
_cell_volume   571.33234499
_cell_formula_units_Z   1
loop_
 _symmetry_equiv_pos_site_id
 _symmetry_equiv_pos_as_xyz
  1  'x, y, z'
loop_
 _atom_site_type_symbol
 _atom_site_label
 _atom_site_symmetry_multiplicity
 _atom_site_fract_x
 _atom_site_fract_y
 _atom_site_fract_z
 _atom_site_occupancy
  K  K0  1  0.82559000  0.04051000  0.42508000  1.0
  Mn  Mn1  1  0.43990000  0.13958000  0.15984000  1.0
  H  H2  1  0.88727000  0.04492000  0.12527000  1.0
  H  H3  1  0.91815000  0.67455000  0.33151000  1.0
  H  H4  1  0.22653000  0.41347000  0.24186000  1.0
  H  H5  1  0.09216000  0.38437000  0.43048000  1.0
  H  H6  1  0.95499000  0.08020000  0.72203000  1.0
  H  H7  1  0.65196000  0.13848000  0.92962000  1.0
  H  H8  1  0.28209000  0.17558000  0.39257000  1.0
  H  H9  1  0.31419000  0.99920000  0.38172000  1.0
  H  H10  1  0.73784000  0.83584000  0.01115000  1.0
  H  H11  1  0.96333000  0.69211000  0.12866000  1.0
  H  H12  1  0.63728000  0.52498000  0.05717000  1.0
  H  H13  1  0.53641000  0.54813000  0.33177000  1.0
  H  H14  1  0.25545000  0.46975000  0.61292000  1.0
  H  H15  1  0.97922000  0.32932000  0.73018000  1.0
  H  H16  1  0.31988000  0.04308000  0.81992000  1.0
  H  H17  1  0.33181000  0.38257000  0.85195000  1.0
  C  C18  1  0.44154000  0.80148000  0.11882000  1.0
  C  C19  1  0.69812000  0.84368000  0.10961000  1.0
  C  C20  1  0.80390000  0.71782000  0.17173000  1.0
  C  C21  1  0.61046000  0.58736000  0.14415000  1.0
  C  C22  1  0.56701000  0.48218000  0.24685000  1.0
  C  C23  1  0.77873000  0.39881000  0.27007000  1.0
  C  C24  1  0.49312000  0.30655000  0.61013000  1.0
  C  C25  1  0.24768000  0.34821000  0.59343000  1.0
  C  C26  1  0.12106000  0.26962000  0.69631000  1.0
  C  C27  1  0.31299000  0.14625000  0.87824000  1.0
  C  C28  1  0.31900000  0.27683000  0.79564000  1.0
  C  C29  1  0.08556000  0.12649000  0.94630000  1.0
  I  I30  1  0.69621000  0.72731000  0.67766000  1.0
  I  I31  1  0.05020000  0.66233000  0.85011000  1.0
  I  I32  1  0.32163000  0.77751000  0.49739000  1.0
  O  O33  1  0.29352000  0.88776000  0.12156000  1.0
  O  O34  1  0.39247000  0.65528000  0.12683000  1.0
  O  O35  1  0.74966000  0.98915000  0.16305000  1.0
  O  O36  1  0.84366000  0.75812000  0.29885000  1.0
  O  O37  1  0.37139000  0.37658000  0.21286000  1.0
  O  O38  1  0.96699000  0.47512000  0.31080000  1.0
  O  O39  1  0.75533000  0.26014000  0.24630000  1.0
  O  O40  1  0.63584000  0.29715000  0.53199000  1.0
  O  O41  1  0.53364000  0.27607000  0.72817000  1.0
  O  O42  1  0.15961000  0.30446000  0.47334000  1.0
  O  O43  1  0.04053000  0.12147000  0.65251000  1.0
  O  O44  1  0.50405000  0.16778000  0.96594000  1.0
  O  O45  1  0.09920000  0.13770000  0.06320000  1.0
  O  O46  1  0.89864000  0.09815000  0.88211000  1.0
  O  O47  1  0.30738000  0.08893000  0.33515000  1.0
