# generated using pymatgen
data_ZnH19C24SN3O5
_symmetry_space_group_name_H-M   'P 1'
_cell_length_a   9.07565000
_cell_length_b   17.51140000
_cell_length_c   17.51140000
_cell_angle_alpha   116.98300000
_cell_angle_beta   89.99980000
_cell_angle_gamma   89.99950000
_symmetry_Int_Tables_number   1
_chemical_formula_structural   ZnH19C24SN3O5
_chemical_formula_sum   'Zn4 H76 C96 S4 N12 O20'
_cell_volume   2480.08172507
_cell_formula_units_Z   4
loop_
 _symmetry_equiv_pos_site_id
 _symmetry_equiv_pos_as_xyz
  1  'x, y, z'
loop_
 _atom_site_type_symbol
 _atom_site_label
 _atom_site_symmetry_multiplicity
 _atom_site_fract_x
 _atom_site_fract_y
 _atom_site_fract_z
 _atom_site_occupancy
  Zn  Zn0  1  0.36074000  0.29027000  0.82201000  1.0
  Zn  Zn1  1  0.86072000  0.70974000  0.17799000  1.0
  Zn  Zn2  1  0.63927000  0.82201000  0.29026000  1.0
  Zn  Zn3  1  0.13928000  0.17799000  0.70974000  1.0
  H  H4  1  0.61420000  0.11098000  0.86574000  1.0
  H  H5  1  0.11418000  0.88902000  0.13426000  1.0
  H  H6  1  0.38581000  0.86573000  0.11098000  1.0
  H  H7  1  0.88585000  0.13426000  0.88902000  1.0
  H  H8  1  0.75037000  0.99225000  0.87466000  1.0
  H  H9  1  0.25035000  0.00775000  0.12535000  1.0
  H  H10  1  0.24964000  0.87465000  0.99225000  1.0
  H  H11  1  0.74965000  0.12534000  0.00775000  1.0
  H  H12  1  0.47067000  0.81022000  0.67688000  1.0
  H  H13  1  0.97067000  0.18979000  0.32313000  1.0
  H  H14  1  0.52932000  0.67686000  0.81021000  1.0
  H  H15  1  0.02931000  0.32314000  0.18979000  1.0
  H  H16  1  0.33356000  0.92969000  0.67123000  1.0
  H  H17  1  0.83355000  0.07033000  0.32877000  1.0
  H  H18  1  0.66645000  0.67122000  0.92968000  1.0
  H  H19  1  0.16646000  0.32878000  0.07033000  1.0
  H  H20  1  0.78970000  0.61016000  0.64282000  1.0
  H  H21  1  0.28971000  0.38986000  0.35720000  1.0
  H  H22  1  0.21029000  0.64281000  0.61015000  1.0
  H  H23  1  0.71029000  0.35719000  0.38985000  1.0
  H  H24  1  0.66640000  0.73367000  0.64367000  1.0
  H  H25  1  0.16642000  0.26635000  0.35635000  1.0
  H  H26  1  0.33359000  0.64365000  0.73366000  1.0
  H  H27  1  0.83358000  0.35634000  0.26634000  1.0
  H  H28  1  0.76398000  0.50773000  0.68430000  1.0
  H  H29  1  0.26397000  0.49227000  0.31570000  1.0
  H  H30  1  0.23603000  0.68431000  0.50773000  1.0
  H  H31  1  0.73603000  0.31570000  0.49227000  1.0
  H  H32  1  0.87384000  0.37607000  0.68164000  1.0
  H  H33  1  0.37384000  0.62393000  0.31836000  1.0
  H  H34  1  0.12618000  0.68164000  0.37607000  1.0
  H  H35  1  0.62618000  0.31836000  0.62392000  1.0
  H  H36  1  0.20597000  0.52794000  0.85949000  1.0
  H  H37  1  0.70598000  0.47206000  0.14051000  1.0
  H  H38  1  0.79401000  0.85947000  0.52794000  1.0
  H  H39  1  0.29403000  0.14051000  0.47206000  1.0
  H  H40  1  0.10106000  0.66032000  0.86121000  1.0
  H  H41  1  0.60107000  0.33968000  0.13879000  1.0
  H  H42  1  0.89891000  0.86119000  0.66032000  1.0
  H  H43  1  0.39893000  0.13880000  0.33968000  1.0
  H  H44  1  0.55383000  0.27123000  0.94508000  1.0
  H  H45  1  0.05382000  0.72878000  0.05494000  1.0
  H  H46  1  0.44618000  0.94507000  0.27123000  1.0
  H  H47  1  0.94617000  0.05492000  0.72877000  1.0
  H  H48  1  0.71606000  0.31980000  0.00414000  1.0
  H  H49  1  0.21605000  0.68020000  0.99587000  1.0
  H  H50  1  0.28394000  0.00413000  0.31980000  1.0
  H  H51  1  0.78395000  0.99586000  0.68019000  1.0
  H  H52  1  0.72805000  0.25295000  0.89238000  1.0
  H  H53  1  0.22805000  0.74705000  0.10763000  1.0
  H  H54  1  0.27195000  0.89236000  0.25294000  1.0
  H  H55  1  0.77195000  0.10762000  0.74704000  1.0
  H  H56  1  0.60358000  0.49681000  0.88614000  1.0
  H  H57  1  0.10358000  0.50318000  0.11386000  1.0
  H  H58  1  0.39641000  0.88614000  0.49681000  1.0
  H  H59  1  0.89642000  0.11386000  0.50318000  1.0
  H  H60  1  0.79809000  0.51132000  0.88243000  1.0
  H  H61  1  0.29809000  0.48868000  0.11758000  1.0
  H  H62  1  0.20190000  0.88242000  0.51132000  1.0
  H  H63  1  0.70192000  0.11758000  0.48869000  1.0
  H  H64  1  0.70285000  0.56657000  0.98167000  1.0
  H  H65  1  0.20285000  0.43342000  0.01833000  1.0
  H  H66  1  0.29713000  0.98166000  0.56657000  1.0
  H  H67  1  0.79715000  0.01833000  0.43343000  1.0
  H  H68  1  0.88678000  0.38387000  0.99552000  1.0
  H  H69  1  0.38676000  0.61612000  0.00448000  1.0
  H  H70  1  0.11322000  0.99549000  0.38385000  1.0
  H  H71  1  0.61323000  0.00448000  0.61612000  1.0
  H  H72  1  0.89915000  0.49647000  0.02921000  1.0
  H  H73  1  0.39914000  0.50352000  0.97080000  1.0
  H  H74  1  0.10083000  0.02919000  0.49645000  1.0
  H  H75  1  0.60087000  0.97079000  0.50353000  1.0
  H  H76  1  0.96324000  0.42180000  0.92572000  1.0
  H  H77  1  0.46323000  0.57819000  0.07428000  1.0
  H  H78  1  0.03675000  0.92570000  0.42178000  1.0
  H  H79  1  0.53678000  0.07427000  0.57819000  1.0
  C  C80  1  0.38730000  0.10056000  0.76147000  1.0
  C  C81  1  0.88726000  0.89945000  0.23853000  1.0
  C  C82  1  0.61272000  0.76147000  0.10056000  1.0
  C  C83  1  0.11273000  0.23852000  0.89944000  1.0
  C  C84  1  0.46717000  0.02809000  0.76682000  1.0
  C  C85  1  0.96714000  0.97192000  0.23318000  1.0
  C  C86  1  0.53285000  0.76683000  0.02808000  1.0
  C  C87  1  0.03287000  0.23318000  0.97192000  1.0
  C  C88  1  0.58392000  0.04458000  0.82451000  1.0
  C  C89  1  0.08389000  0.95543000  0.17550000  1.0
  C  C90  1  0.41610000  0.82450000  0.04458000  1.0
  C  C91  1  0.91611000  0.17549000  0.95542000  1.0
  C  C92  1  0.66084000  0.97813000  0.82896000  1.0
  C  C93  1  0.16083000  0.02188000  0.17105000  1.0
  C  C94  1  0.33917000  0.82895000  0.97812000  1.0
  C  C95  1  0.83919000  0.17104000  0.02187000  1.0
  C  C96  1  0.62475000  0.89207000  0.77433000  1.0
  C  C97  1  0.12475000  0.10794000  0.22567000  1.0
  C  C98  1  0.37525000  0.77433000  0.89206000  1.0
  C  C99  1  0.87526000  0.22567000  0.10794000  1.0
  C  C100  1  0.50564000  0.87599000  0.71730000  1.0
  C  C101  1  0.00562000  0.12402000  0.28271000  1.0
  C  C102  1  0.49438000  0.71729000  0.87598000  1.0
  C  C103  1  0.99437000  0.28271000  0.12402000  1.0
  C  C104  1  0.42748000  0.94273000  0.71405000  1.0
  C  C105  1  0.92745000  0.05729000  0.28596000  1.0
  C  C106  1  0.57253000  0.71404000  0.94271000  1.0
  C  C107  1  0.07254000  0.28596000  0.05729000  1.0
  C  C108  1  0.70732000  0.82023000  0.77547000  1.0
  C  C109  1  0.20731000  0.17979000  0.22455000  1.0
  C  C110  1  0.29267000  0.77546000  0.82022000  1.0
  C  C111  1  0.79267000  0.22454000  0.17978000  1.0
  C  C112  1  0.78327000  0.82574000  0.84946000  1.0
  C  C113  1  0.28325000  0.17428000  0.15055000  1.0
  C  C114  1  0.21673000  0.84946000  0.82574000  1.0
  C  C115  1  0.71673000  0.15054000  0.17427000  1.0
  C  C116  1  0.86086000  0.75261000  0.84826000  1.0
  C  C117  1  0.36084000  0.24740000  0.15175000  1.0
  C  C118  1  0.13915000  0.84825000  0.75260000  1.0
  C  C119  1  0.63914000  0.15175000  0.24740000  1.0
  C  C120  1  0.86046000  0.67126000  0.77356000  1.0
  C  C121  1  0.36045000  0.32875000  0.22645000  1.0
  C  C122  1  0.13954000  0.77355000  0.67125000  1.0
  C  C123  1  0.63954000  0.22645000  0.32874000  1.0
  C  C124  1  0.78845000  0.66950000  0.70263000  1.0
  C  C125  1  0.28845000  0.33052000  0.29738000  1.0
  C  C126  1  0.21155000  0.70262000  0.66949000  1.0
  C  C127  1  0.71155000  0.29738000  0.33050000  1.0
  C  C128  1  0.71600000  0.74105000  0.70332000  1.0
  C  C129  1  0.21599000  0.25897000  0.29669000  1.0
  C  C130  1  0.28400000  0.70331000  0.74104000  1.0
  C  C131  1  0.78400000  0.29669000  0.25896000  1.0
  C  C132  1  0.92614000  0.59383000  0.77214000  1.0
  C  C133  1  0.42615000  0.40618000  0.22786000  1.0
  C  C134  1  0.07385000  0.77213000  0.59382000  1.0
  C  C135  1  0.57385000  0.22786000  0.40617000  1.0
  C  C136  1  0.86343000  0.51255000  0.72128000  1.0
  C  C137  1  0.36344000  0.48746000  0.27872000  1.0
  C  C138  1  0.13657000  0.72128000  0.51254000  1.0
  C  C139  1  0.63658000  0.27872000  0.48745000  1.0
  C  C140  1  0.92306000  0.43880000  0.72009000  1.0
  C  C141  1  0.42305000  0.56121000  0.27991000  1.0
  C  C142  1  0.07696000  0.72008000  0.43880000  1.0
  C  C143  1  0.57696000  0.27991000  0.56120000  1.0
  C  C144  1  0.04633000  0.44434000  0.77054000  1.0
  C  C145  1  0.54632000  0.55566000  0.22945000  1.0
  C  C146  1  0.95367000  0.77055000  0.44434000  1.0
  C  C147  1  0.45369000  0.22946000  0.55566000  1.0
  C  C148  1  0.10954000  0.52477000  0.82108000  1.0
  C  C149  1  0.60955000  0.47523000  0.17892000  1.0
  C  C150  1  0.89045000  0.82107000  0.52477000  1.0
  C  C151  1  0.39047000  0.17892000  0.47523000  1.0
  C  C152  1  0.05088000  0.59839000  0.82190000  1.0
  C  C153  1  0.55090000  0.40161000  0.17810000  1.0
  C  C154  1  0.94910000  0.82189000  0.59838000  1.0
  C  C155  1  0.44912000  0.17811000  0.40161000  1.0
  C  C156  1  0.11126000  0.36609000  0.77159000  1.0
  C  C157  1  0.61126000  0.63391000  0.22841000  1.0
  C  C158  1  0.88874000  0.77158000  0.36608000  1.0
  C  C159  1  0.38874000  0.22842000  0.63391000  1.0
  C  C160  1  0.65904000  0.30072000  0.94313000  1.0
  C  C161  1  0.15902000  0.69927000  0.05687000  1.0
  C  C162  1  0.34097000  0.94312000  0.30072000  1.0
  C  C163  1  0.84096000  0.05687000  0.69928000  1.0
  C  C164  1  0.63001000  0.37433000  0.92358000  1.0
  C  C165  1  0.13001000  0.62567000  0.07642000  1.0
  C  C166  1  0.36999000  0.92357000  0.37433000  1.0
  C  C167  1  0.87001000  0.07642000  0.62567000  1.0
  C  C168  1  0.70693000  0.50680000  0.92138000  1.0
  C  C169  1  0.20693000  0.49319000  0.07862000  1.0
  C  C170  1  0.29306000  0.92137000  0.50679000  1.0
  C  C171  1  0.79308000  0.07862000  0.49320000  1.0
  C  C172  1  0.87833000  0.43371000  0.97466000  1.0
  C  C173  1  0.37831000  0.56628000  0.02534000  1.0
  C  C174  1  0.12166000  0.97464000  0.43370000  1.0
  C  C175  1  0.62168000  0.02534000  0.56628000  1.0
  S  S176  1  0.88344000  0.86830000  0.98881000  1.0
  S  S177  1  0.38343000  0.13171000  0.01119000  1.0
  S  S178  1  0.11656000  0.98881000  0.86829000  1.0
  S  S179  1  0.61654000  0.01119000  0.13171000  1.0
  N  N180  1  0.78864000  0.89534000  0.92703000  1.0
  N  N181  1  0.28861000  0.10467000  0.07298000  1.0
  N  N182  1  0.21137000  0.92702000  0.89533000  1.0
  N  N183  1  0.71137000  0.07298000  0.10466000  1.0
  N  N184  1  0.92280000  0.76999000  0.92473000  1.0
  N  N185  1  0.42280000  0.23002000  0.07528000  1.0
  N  N186  1  0.07720000  0.92473000  0.76997000  1.0
  N  N187  1  0.57719000  0.07528000  0.23002000  1.0
  N  N188  1  0.73306000  0.43450000  0.93979000  1.0
  N  N189  1  0.23305000  0.56550000  0.06021000  1.0
  N  N190  1  0.26693000  0.93978000  0.43449000  1.0
  N  N191  1  0.76695000  0.06021000  0.56550000  1.0
  O  O192  1  0.45321000  0.17286000  0.79379000  1.0
  O  O193  1  0.95316000  0.82715000  0.20621000  1.0
  O  O194  1  0.54682000  0.79380000  0.17285000  1.0
  O  O195  1  0.04682000  0.20619000  0.82715000  1.0
  O  O196  1  0.26184000  0.08431000  0.72512000  1.0
  O  O197  1  0.76178000  0.91571000  0.27489000  1.0
  O  O198  1  0.73820000  0.72512000  0.08430000  1.0
  O  O199  1  0.23821000  0.27487000  0.91569000  1.0
  O  O200  1  0.20992000  0.37940000  0.82813000  1.0
  O  O201  1  0.70993000  0.62059000  0.17188000  1.0
  O  O202  1  0.79006000  0.82812000  0.37941000  1.0
  O  O203  1  0.29007000  0.17189000  0.62060000  1.0
  O  O204  1  0.06393000  0.29342000  0.71686000  1.0
  O  O205  1  0.56393000  0.70657000  0.28313000  1.0
  O  O206  1  0.93607000  0.71687000  0.29343000  1.0
  O  O207  1  0.43607000  0.28314000  0.70658000  1.0
  O  O208  1  0.50742000  0.38014000  0.89150000  1.0
  O  O209  1  0.00741000  0.61986000  0.10850000  1.0
  O  O210  1  0.49258000  0.89150000  0.38014000  1.0
  O  O211  1  0.99259000  0.10850000  0.61986000  1.0
