# generated using pymatgen
data_Fe4B8H96C95(N16O3)2
_symmetry_space_group_name_H-M   'P 1'
_cell_length_a   21.20359463
_cell_length_b   21.20380000
_cell_length_c   21.20370000
_cell_angle_alpha   93.58240000
_cell_angle_beta   117.95340375
_cell_angle_gamma   117.95382877
_symmetry_Int_Tables_number   1
_chemical_formula_structural   Fe4B8H96C95(N16O3)2
_chemical_formula_sum   'Fe8 B16 H192 C190 N64 O12'
_cell_volume   6934.78065908
_cell_formula_units_Z   2
loop_
 _symmetry_equiv_pos_site_id
 _symmetry_equiv_pos_as_xyz
  1  'x, y, z'
loop_
 _atom_site_type_symbol
 _atom_site_label
 _atom_site_symmetry_multiplicity
 _atom_site_fract_x
 _atom_site_fract_y
 _atom_site_fract_z
 _atom_site_occupancy
  Fe  Fe0  1  0.74496000  0.62079000  0.87728000  1.0
  Fe  Fe1  1  0.25504000  0.13233000  0.87583000  1.0
  Fe  Fe2  1  0.25649000  0.12417000  0.37921000  1.0
  Fe  Fe3  1  0.74351000  0.12272000  0.86768000  1.0
  Fe  Fe4  1  0.25649000  0.63233000  0.37728000  1.0
  Fe  Fe5  1  0.74351000  0.12079000  0.37584000  1.0
  Fe  Fe6  1  0.25504000  0.62272000  0.87921000  1.0
  Fe  Fe7  1  0.74496000  0.62417000  0.36767000  1.0
  B  B8  1  0.44237000  0.45542000  0.76795000  1.0
  B  B9  1  0.55763000  0.32558000  0.01305000  1.0
  B  B10  1  0.31253000  0.98695000  0.54459000  1.0
  B  B11  1  0.68747000  0.23205000  0.67442000  1.0
  B  B12  1  0.31253000  0.82559000  0.26795000  1.0
  B  B13  1  0.68747000  0.95542000  0.51305000  1.0
  B  B14  1  0.55763000  0.73205000  0.04458000  1.0
  B  B15  1  0.44237000  0.48695000  0.17443000  1.0
  B  B16  1  0.04725000  0.78968000  0.98329000  1.0
  B  B17  1  0.95276000  0.93605000  0.74244000  1.0
  B  B18  1  0.19360000  0.25756000  0.21032000  1.0
  B  B19  1  0.80640000  0.01672000  0.06396000  1.0
  B  B20  1  0.19360000  0.43604000  0.48327000  1.0
  B  B21  1  0.80640000  0.28968000  0.24244000  1.0
  B  B22  1  0.95276000  0.51672000  0.71033000  1.0
  B  B23  1  0.04724000  0.75756000  0.56395000  1.0
  H  H24  1  0.92222000  0.89285000  0.07911000  1.0
  H  H25  1  0.07779000  0.15689000  0.97064000  1.0
  H  H26  1  0.18624000  0.02935000  0.10714000  1.0
  H  H27  1  0.81376000  0.92090000  0.84311000  1.0
  H  H28  1  0.18625000  0.65689000  0.57910000  1.0
  H  H29  1  0.81375000  0.39285000  0.47064000  1.0
  H  H30  1  0.07779000  0.42090000  0.60715000  1.0
  H  H31  1  0.92221000  0.52936000  0.34311000  1.0
  H  H32  1  0.87561000  0.79236000  0.96990000  1.0
  H  H33  1  0.12440000  0.09429000  0.91676000  1.0
  H  H34  1  0.17753000  0.08324000  0.20764000  1.0
  H  H35  1  0.82247000  0.03011000  0.90570000  1.0
  H  H36  1  0.17753000  0.59429000  0.46989000  1.0
  H  H37  1  0.82247000  0.29236000  0.41676000  1.0
  H  H38  1  0.12440000  0.53011000  0.70765000  1.0
  H  H39  1  0.87560000  0.58324000  0.40571000  1.0
  H  H40  1  0.67651000  0.62707000  0.97947000  1.0
  H  H41  1  0.32349000  0.30296000  0.95057000  1.0
  H  H42  1  0.35239000  0.04943000  0.37292000  1.0
  H  H43  1  0.64761000  0.02053000  0.69704000  1.0
  H  H44  1  0.35239000  0.80296000  0.47947000  1.0
  H  H45  1  0.64761000  0.12708000  0.45057000  1.0
  H  H46  1  0.32349000  0.52053000  0.87293000  1.0
  H  H47  1  0.67651000  0.54943000  0.19704000  1.0
  H  H48  1  0.71394000  0.72047000  0.08894000  1.0
  H  H49  1  0.28607000  0.37501000  0.00654000  1.0
  H  H50  1  0.36847000  0.99346000  0.27952000  1.0
  H  H51  1  0.63152000  0.91105000  0.62498000  1.0
  H  H52  1  0.36848000  0.87502000  0.58895000  1.0
  H  H53  1  0.63152000  0.22047000  0.50653000  1.0
  H  H54  1  0.28607000  0.41107000  0.77953000  1.0
  H  H55  1  0.71393000  0.49346000  0.12499000  1.0
  H  H56  1  0.92770000  0.02302000  0.23389000  1.0
  H  H57  1  0.07230000  0.30619000  0.09533000  1.0
  H  H58  1  0.21087000  0.90468000  0.97697000  1.0
  H  H59  1  0.78914000  0.76611000  0.69381000  1.0
  H  H60  1  0.21087000  0.80619000  0.73390000  1.0
  H  H61  1  0.78913000  0.52302000  0.59532000  1.0
  H  H62  1  0.07230000  0.26611000  0.47698000  1.0
  H  H63  1  0.92770000  0.40468000  0.19382000  1.0
  H  H64  1  0.08582000  0.11730000  0.32089000  1.0
  H  H65  1  0.91418000  0.23507000  0.03148000  1.0
  H  H66  1  0.20359000  0.96851000  0.88270000  1.0
  H  H67  1  0.79641000  0.67911000  0.76492000  1.0
  H  H68  1  0.20358000  0.73507000  0.82088000  1.0
  H  H69  1  0.79641000  0.61730000  0.53148000  1.0
  H  H70  1  0.91418000  0.17911000  0.38270000  1.0
  H  H71  1  0.08581000  0.46851000  0.26492000  1.0
  H  H72  1  0.13507000  0.95329000  0.29643000  1.0
  H  H73  1  0.86493000  0.16136000  0.81822000  1.0
  H  H74  1  0.34314000  0.18178000  0.04671000  1.0
  H  H75  1  0.65686000  0.70357000  0.83863000  1.0
  H  H76  1  0.34314000  0.66136000  0.79643000  1.0
  H  H77  1  0.65686000  0.45329000  0.31822000  1.0
  H  H78  1  0.86493000  0.20357000  0.54671000  1.0
  H  H79  1  0.13506000  0.68177000  0.33863000  1.0
  H  H80  1  0.97865000  0.85112000  0.20592000  1.0
  H  H81  1  0.02135000  0.22727000  0.87248000  1.0
  H  H82  1  0.35478000  0.12751000  0.14886000  1.0
  H  H83  1  0.64521000  0.79408000  0.77273000  1.0
  H  H84  1  0.35479000  0.72727000  0.70593000  1.0
  H  H85  1  0.64521000  0.35114000  0.37248000  1.0
  H  H86  1  0.02135000  0.29409000  0.64887000  1.0
  H  H87  1  0.97865000  0.62752000  0.27273000  1.0
  H  H88  1  0.72228000  0.83260000  0.10820000  1.0
  H  H89  1  0.27772000  0.38592000  0.11032000  1.0
  H  H90  1  0.27559000  0.88967000  0.16740000  1.0
  H  H91  1  0.72441000  0.89181000  0.61408000  1.0
  H  H92  1  0.27559000  0.88592000  0.60819000  1.0
  H  H93  1  0.72441000  0.33261000  0.61033000  1.0
  H  H94  1  0.27772000  0.39180000  0.66740000  1.0
  H  H95  1  0.72228000  0.38968000  0.11408000  1.0
  H  H96  1  0.79471000  0.93326000  0.14351000  1.0
  H  H97  1  0.20529000  0.34880000  0.13855000  1.0
  H  H98  1  0.21025000  0.86144000  0.06673000  1.0
  H  H99  1  0.78974000  0.85648000  0.65118000  1.0
  H  H100  1  0.21026000  0.84881000  0.64353000  1.0
  H  H101  1  0.78974000  0.43326000  0.63855000  1.0
  H  H102  1  0.20529000  0.35648000  0.56673000  1.0
  H  H103  1  0.79470000  0.36144000  0.15119000  1.0
  H  H104  1  0.91428000  0.85737000  0.30677000  1.0
  H  H105  1  0.08572000  0.39249000  0.94309000  1.0
  H  H106  1  0.44939000  0.05691000  0.14263000  1.0
  H  H107  1  0.55060000  0.69324000  0.60751000  1.0
  H  H108  1  0.44940000  0.89249000  0.80677000  1.0
  H  H109  1  0.55060000  0.35736000  0.44309000  1.0
  H  H110  1  0.08572000  0.19323000  0.64263000  1.0
  H  H111  1  0.91428000  0.55691000  0.10751000  1.0
  H  H112  1  0.88754000  0.74914000  0.35535000  1.0
  H  H113  1  0.11246000  0.46781000  0.86160000  1.0
  H  H114  1  0.60620000  0.13840000  0.25086000  1.0
  H  H115  1  0.39379000  0.64466000  0.53219000  1.0
  H  H116  1  0.60621000  0.96781000  0.85535000  1.0
  H  H117  1  0.39379000  0.24913000  0.36159000  1.0
  H  H118  1  0.11246000  0.14466000  0.75086000  1.0
  H  H119  1  0.88754000  0.63840000  0.03219000  1.0
  H  H120  1  0.63293000  0.67385000  0.26275000  1.0
  H  H121  1  0.36707000  0.62982000  0.04093000  1.0
  H  H122  1  0.58889000  0.95907000  0.32614000  1.0
  H  H123  1  0.41110000  0.73725000  0.37017000  1.0
  H  H124  1  0.58889000  0.12982000  0.76274000  1.0
  H  H125  1  0.41110000  0.17385000  0.54092000  1.0
  H  H126  1  0.36707000  0.23725000  0.82615000  1.0
  H  H127  1  0.63293000  0.45907000  0.87018000  1.0
  H  H128  1  0.64816000  0.77750000  0.20827000  1.0
  H  H129  1  0.35184000  0.56011000  0.12934000  1.0
  H  H130  1  0.43077000  0.87065000  0.22250000  1.0
  H  H131  1  0.56923000  0.79173000  0.43988000  1.0
  H  H132  1  0.43077000  0.06012000  0.70828000  1.0
  H  H133  1  0.56923000  0.27751000  0.62935000  1.0
  H  H134  1  0.35184000  0.29173000  0.72250000  1.0
  H  H135  1  0.64816000  0.37066000  0.93989000  1.0
  H  H136  1  0.81243000  0.91458000  0.36302000  1.0
  H  H137  1  0.18757000  0.55059000  0.10215000  1.0
  H  H138  1  0.44844000  0.89785000  0.08543000  1.0
  H  H139  1  0.55155000  0.63698000  0.44940000  1.0
  H  H140  1  0.44845000  0.05060000  0.86302000  1.0
  H  H141  1  0.55155000  0.41456000  0.60215000  1.0
  H  H142  1  0.18757000  0.13698000  0.58543000  1.0
  H  H143  1  0.81243000  0.39785000  0.94941000  1.0
  H  H144  1  0.78941000  0.00293000  0.41482000  1.0
  H  H145  1  0.21058000  0.62540000  0.21352000  1.0
  H  H146  1  0.41189000  0.78647000  0.99707000  1.0
  H  H147  1  0.58810000  0.58517000  0.37458000  1.0
  H  H148  1  0.41190000  0.12543000  0.91483000  1.0
  H  H149  1  0.58810000  0.50292000  0.71352000  1.0
  H  H150  1  0.21059000  0.08518000  0.49707000  1.0
  H  H151  1  0.78941000  0.28647000  0.87459000  1.0
  H  H152  1  0.72563000  0.06584000  0.22464000  1.0
  H  H153  1  0.27437000  0.49901000  0.34021000  1.0
  H  H154  1  0.15880000  0.65979000  0.93416000  1.0
  H  H155  1  0.84119000  0.77536000  0.50098000  1.0
  H  H156  1  0.15881000  0.99902000  0.72464000  1.0
  H  H157  1  0.84119000  0.56583000  0.84020000  1.0
  H  H158  1  0.27437000  0.27536000  0.43417000  1.0
  H  H159  1  0.72563000  0.15980000  0.00100000  1.0
  H  H160  1  0.74544000  0.98134000  0.16349000  1.0
  H  H161  1  0.25456000  0.41805000  0.23591000  1.0
  H  H162  1  0.18215000  0.76409000  0.01866000  1.0
  H  H163  1  0.81785000  0.83650000  0.58194000  1.0
  H  H164  1  0.18215000  0.91806000  0.66350000  1.0
  H  H165  1  0.81785000  0.48135000  0.73590000  1.0
  H  H166  1  0.25456000  0.33651000  0.51866000  1.0
  H  H167  1  0.74544000  0.26410000  0.08195000  1.0
  H  H168  1  0.40409000  0.48667000  0.75438000  1.0
  H  H169  1  0.59591000  0.35030000  0.08258000  1.0
  H  H170  1  0.26772000  0.91743000  0.51333000  1.0
  H  H171  1  0.73228000  0.24561000  0.64971000  1.0
  H  H172  1  0.26772000  0.85030000  0.25439000  1.0
  H  H173  1  0.73228000  0.98667000  0.58257000  1.0
  H  H174  1  0.59591000  0.74562000  0.01333000  1.0
  H  H175  1  0.40409000  0.41742000  0.14971000  1.0
  H  H176  1  0.43425000  0.42220000  0.81149000  1.0
  H  H177  1  0.56575000  0.37724000  0.98795000  1.0
  H  H178  1  0.38929000  0.01206000  0.57780000  1.0
  H  H179  1  0.61071000  0.18851000  0.62277000  1.0
  H  H180  1  0.38929000  0.87724000  0.31149000  1.0
  H  H181  1  0.61071000  0.92220000  0.48795000  1.0
  H  H182  1  0.56575000  0.68852000  0.07780000  1.0
  H  H183  1  0.43425000  0.51205000  0.12277000  1.0
  H  H184  1  0.41791000  0.41149000  0.70870000  1.0
  H  H185  1  0.58209000  0.29079000  0.99358000  1.0
  H  H186  1  0.29721000  0.00642000  0.58851000  1.0
  H  H187  1  0.70279000  0.29130000  0.70921000  1.0
  H  H188  1  0.29721000  0.79079000  0.20870000  1.0
  H  H189  1  0.70279000  0.91149000  0.49358000  1.0
  H  H190  1  0.58209000  0.79130000  0.08851000  1.0
  H  H191  1  0.41791000  0.50642000  0.20921000  1.0
  H  H192  1  0.06435000  0.85156000  0.01388000  1.0
  H  H193  1  0.93565000  0.94952000  0.78721000  1.0
  H  H194  1  0.16231000  0.21279000  0.14844000  1.0
  H  H195  1  0.83770000  0.98614000  0.05049000  1.0
  H  H196  1  0.16231000  0.44952000  0.51387000  1.0
  H  H197  1  0.83769000  0.35156000  0.28721000  1.0
  H  H198  1  0.93565000  0.48612000  0.64844000  1.0
  H  H199  1  0.06435000  0.71279000  0.55048000  1.0
  H  H200  1  0.06263000  0.79172000  0.93438000  1.0
  H  H201  1  0.93737000  0.87176000  0.72909000  1.0
  H  H202  1  0.14265000  0.27090000  0.20828000  1.0
  H  H203  1  0.85734000  0.06563000  0.12824000  1.0
  H  H204  1  0.14266000  0.37176000  0.43437000  1.0
  H  H205  1  0.85734000  0.29171000  0.22909000  1.0
  H  H206  1  0.93737000  0.56561000  0.70828000  1.0
  H  H207  1  0.06263000  0.77091000  0.62824000  1.0
  H  H208  1  0.08664000  0.77017000  0.03177000  1.0
  H  H209  1  0.91336000  0.94513000  0.68353000  1.0
  H  H210  1  0.26159000  0.31647000  0.22983000  1.0
  H  H211  1  0.73841000  0.96824000  0.05488000  1.0
  H  H212  1  0.26159000  0.44512000  0.53175000  1.0
  H  H213  1  0.73840000  0.27016000  0.18352000  1.0
  H  H214  1  0.91336000  0.46823000  0.72983000  1.0
  H  H215  1  0.08664000  0.81647000  0.55487000  1.0
  C  C216  1  0.86846000  0.83415000  0.05977000  1.0
  C  C217  1  0.13155000  0.19131000  0.96570000  1.0
  C  C218  1  0.22561000  0.03430000  0.16585000  1.0
  C  C219  1  0.77439000  0.94023000  0.80868000  1.0
  C  C220  1  0.22561000  0.69132000  0.55977000  1.0
  C  C221  1  0.77439000  0.33416000  0.46571000  1.0
  C  C222  1  0.13155000  0.44024000  0.66585000  1.0
  C  C223  1  0.86845000  0.53430000  0.30869000  1.0
  C  C224  1  0.84245000  0.77827000  0.99870000  1.0
  C  C225  1  0.15755000  0.15625000  0.93582000  1.0
  C  C226  1  0.22043000  0.06418000  0.22173000  1.0
  C  C227  1  0.77957000  0.00130000  0.84375000  1.0
  C  C228  1  0.22043000  0.65625000  0.49870000  1.0
  C  C229  1  0.77957000  0.27827000  0.43582000  1.0
  C  C230  1  0.15755000  0.50130000  0.72173000  1.0
  C  C231  1  0.84245000  0.56418000  0.34375000  1.0
  C  C232  1  0.73146000  0.68649000  0.00398000  1.0
  C  C233  1  0.26854000  0.27253000  0.95504000  1.0
  C  C234  1  0.31749000  0.04496000  0.31350000  1.0
  C  C235  1  0.68251000  0.99602000  0.72747000  1.0
  C  C236  1  0.31749000  0.77252000  0.50398000  1.0
  C  C237  1  0.68251000  0.18650000  0.45503000  1.0
  C  C238  1  0.26854000  0.49602000  0.81351000  1.0
  C  C239  1  0.73146000  0.54496000  0.22747000  1.0
  C  C240  1  0.75283000  0.73891000  0.06550000  1.0
  C  C241  1  0.24718000  0.31268000  0.98610000  1.0
  C  C242  1  0.32658000  0.01391000  0.26108000  1.0
  C  C243  1  0.67342000  0.93450000  0.68733000  1.0
  C  C244  1  0.32658000  0.81267000  0.56550000  1.0
  C  C245  1  0.67341000  0.23891000  0.48608000  1.0
  C  C246  1  0.24717000  0.43450000  0.76108000  1.0
  C  C247  1  0.75283000  0.51391000  0.18733000  1.0
  C  C248  1  0.82418000  0.81477000  0.09559000  1.0
  C  C249  1  0.17583000  0.27142000  0.99060000  1.0
  C  C250  1  0.28082000  0.00941000  0.18523000  1.0
  C  C251  1  0.71918000  0.90441000  0.72859000  1.0
  C  C252  1  0.28082000  0.77141000  0.59559000  1.0
  C  C253  1  0.71918000  0.31477000  0.49059000  1.0
  C  C254  1  0.17582000  0.40441000  0.68523000  1.0
  C  C255  1  0.82417000  0.50940000  0.22859000  1.0
  C  C256  1  0.93868000  0.92816000  0.21016000  1.0
  C  C257  1  0.06132000  0.27148000  0.98949000  1.0
  C  C258  1  0.28199000  0.01051000  0.07183000  1.0
  C  C259  1  0.71801000  0.78984000  0.72852000  1.0
  C  C260  1  0.28200000  0.77148000  0.71017000  1.0
  C  C261  1  0.71800000  0.42817000  0.48948000  1.0
  C  C262  1  0.06132000  0.28984000  0.57184000  1.0
  C  C263  1  0.93868000  0.51051000  0.22852000  1.0
  C  C264  1  0.97041000  0.00406000  0.24618000  1.0
  C  C265  1  0.02959000  0.27577000  0.03365000  1.0
  C  C266  1  0.24212000  0.96634000  0.99594000  1.0
  C  C267  1  0.75788000  0.75382000  0.72423000  1.0
  C  C268  1  0.24212000  0.77578000  0.74618000  1.0
  C  C269  1  0.75788000  0.50406000  0.53365000  1.0
  C  C270  1  0.02959000  0.25382000  0.49594000  1.0
  C  C271  1  0.97040000  0.46634000  0.22422000  1.0
  C  C272  1  0.05925000  0.05727000  0.29492000  1.0
  C  C273  1  0.94075000  0.23567000  0.99803000  1.0
  C  C274  1  0.23764000  0.00197000  0.94272000  1.0
  C  C275  1  0.76236000  0.70509000  0.76433000  1.0
  C  C276  1  0.23764000  0.73567000  0.79492000  1.0
  C  C277  1  0.76235000  0.55727000  0.49802000  1.0
  C  C278  1  0.94075000  0.20508000  0.44273000  1.0
  C  C279  1  0.05925000  0.50198000  0.26433000  1.0
  C  C280  1  0.08671000  0.96623000  0.28014000  1.0
  C  C281  1  0.91329000  0.19343000  0.87952000  1.0
  C  C282  1  0.31391000  0.12048000  0.03378000  1.0
  C  C283  1  0.68610000  0.71987000  0.80658000  1.0
  C  C284  1  0.31391000  0.69343000  0.78014000  1.0
  C  C285  1  0.68609000  0.46622000  0.37951000  1.0
  C  C286  1  0.91329000  0.21986000  0.53377000  1.0
  C  C287  1  0.08670000  0.62047000  0.30657000  1.0
  C  C288  1  0.99960000  0.90954000  0.23014000  1.0
  C  C289  1  0.00041000  0.23054000  0.90995000  1.0
  C  C290  1  0.32059000  0.09005000  0.09046000  1.0
  C  C291  1  0.67941000  0.76987000  0.76946000  1.0
  C  C292  1  0.32059000  0.73053000  0.73013000  1.0
  C  C293  1  0.67940000  0.40953000  0.40994000  1.0
  C  C294  1  0.00040000  0.26987000  0.59046000  1.0
  C  C295  1  0.99959000  0.59006000  0.26946000  1.0
  C  C296  1  0.78657000  0.88156000  0.15593000  1.0
  C  C297  1  0.21343000  0.36936000  0.09499000  1.0
  C  C298  1  0.27437000  0.90501000  0.11844000  1.0
  C  C299  1  0.72563000  0.84407000  0.63063000  1.0
  C  C300  1  0.27437000  0.86936000  0.65593000  1.0
  C  C301  1  0.72563000  0.38156000  0.59499000  1.0
  C  C302  1  0.21343000  0.34407000  0.61844000  1.0
  C  C303  1  0.78656000  0.40500000  0.13063000  1.0
  C  C304  1  0.85059000  0.81722000  0.29467000  1.0
  C  C305  1  0.14941000  0.44408000  0.96663000  1.0
  C  C306  1  0.47745000  0.03337000  0.18279000  1.0
  C  C307  1  0.52254000  0.70533000  0.55591000  1.0
  C  C308  1  0.47746000  0.94409000  0.79467000  1.0
  C  C309  1  0.52254000  0.31720000  0.46662000  1.0
  C  C310  1  0.14941000  0.20533000  0.68278000  1.0
  C  C311  1  0.85059000  0.53337000  0.05592000  1.0
  C  C312  1  0.83608000  0.75729000  0.32210000  1.0
  C  C313  1  0.16393000  0.48602000  0.92122000  1.0
  C  C314  1  0.56480000  0.07879000  0.24271000  1.0
  C  C315  1  0.43519000  0.67791000  0.51397000  1.0
  C  C316  1  0.56481000  0.98602000  0.82209000  1.0
  C  C317  1  0.43519000  0.25728000  0.42121000  1.0
  C  C318  1  0.16393000  0.17791000  0.74272000  1.0
  C  C319  1  0.83608000  0.57879000  0.01399000  1.0
  C  C320  1  0.69416000  0.71575000  0.27127000  1.0
  C  C321  1  0.30584000  0.57711000  0.02159000  1.0
  C  C322  1  0.55552000  0.97841000  0.28425000  1.0
  C  C323  1  0.44447000  0.72873000  0.42288000  1.0
  C  C324  1  0.55552000  0.07711000  0.77127000  1.0
  C  C325  1  0.44448000  0.21575000  0.52159000  1.0
  C  C326  1  0.30584000  0.22873000  0.78425000  1.0
  C  C327  1  0.69416000  0.47841000  0.92289000  1.0
  C  C328  1  0.70279000  0.77336000  0.24150000  1.0
  C  C329  1  0.29721000  0.53871000  0.07058000  1.0
  C  C330  1  0.46814000  0.92942000  0.22664000  1.0
  C  C331  1  0.53186000  0.75850000  0.46128000  1.0
  C  C332  1  0.46814000  0.03872000  0.74150000  1.0
  C  C333  1  0.53186000  0.27337000  0.57058000  1.0
  C  C334  1  0.29721000  0.25850000  0.72664000  1.0
  C  C335  1  0.70279000  0.42943000  0.96129000  1.0
  C  C336  1  0.78287000  0.82612000  0.25439000  1.0
  C  C337  1  0.21713000  0.47152000  0.04325000  1.0
  C  C338  1  0.42826000  0.95674000  0.17388000  1.0
  C  C339  1  0.57173000  0.74561000  0.52847000  1.0
  C  C340  1  0.42826000  0.97152000  0.75438000  1.0
  C  C341  1  0.57173000  0.32612000  0.54325000  1.0
  C  C342  1  0.21713000  0.24561000  0.67388000  1.0
  C  C343  1  0.78287000  0.45675000  0.02848000  1.0
  C  C344  1  0.78092000  0.93846000  0.25750000  1.0
  C  C345  1  0.21908000  0.47658000  0.15754000  1.0
  C  C346  1  0.31904000  0.84245000  0.06154000  1.0
  C  C347  1  0.68095000  0.74249000  0.52340000  1.0
  C  C348  1  0.31904000  0.97659000  0.75750000  1.0
  C  C349  1  0.68095000  0.43845000  0.65754000  1.0
  C  C350  1  0.21908000  0.24250000  0.56154000  1.0
  C  C351  1  0.78092000  0.34246000  0.02342000  1.0
  C  C352  1  0.79282000  0.94665000  0.32973000  1.0
  C  C353  1  0.20718000  0.53691000  0.15383000  1.0
  C  C354  1  0.38308000  0.84616000  0.05335000  1.0
  C  C355  1  0.61691000  0.67027000  0.46308000  1.0
  C  C356  1  0.38309000  0.03693000  0.82973000  1.0
  C  C357  1  0.61692000  0.44665000  0.65384000  1.0
  C  C358  1  0.20718000  0.17027000  0.55335000  1.0
  C  C359  1  0.79282000  0.34617000  0.96309000  1.0
  C  C360  1  0.78004000  0.99620000  0.35908000  1.0
  C  C361  1  0.21996000  0.57904000  0.21616000  1.0
  C  C362  1  0.36289000  0.78384000  0.00381000  1.0
  C  C363  1  0.63711000  0.64092000  0.42095000  1.0
  C  C364  1  0.36289000  0.07905000  0.85908000  1.0
  C  C365  1  0.63711000  0.49619000  0.71616000  1.0
  C  C366  1  0.21996000  0.14092000  0.50380000  1.0
  C  C367  1  0.78004000  0.28384000  0.92096000  1.0
  C  C368  1  0.74500000  0.03121000  0.25361000  1.0
  C  C369  1  0.25500000  0.50861000  0.28621000  1.0
  C  C370  1  0.22240000  0.71379000  0.96880000  1.0
  C  C371  1  0.77760000  0.74640000  0.49139000  1.0
  C  C372  1  0.22240000  0.00861000  0.75360000  1.0
  C  C373  1  0.77760000  0.53120000  0.78621000  1.0
  C  C374  1  0.25500000  0.24639000  0.46879000  1.0
  C  C375  1  0.74500000  0.21379000  0.99139000  1.0
  C  C376  1  0.75689000  0.98357000  0.21952000  1.0
  C  C377  1  0.24311000  0.46263000  0.22668000  1.0
  C  C378  1  0.23596000  0.77332000  0.01644000  1.0
  C  C379  1  0.76403000  0.78047000  0.53736000  1.0
  C  C380  1  0.23597000  0.96264000  0.71953000  1.0
  C  C381  1  0.76404000  0.48356000  0.72668000  1.0
  C  C382  1  0.24311000  0.28048000  0.51643000  1.0
  C  C383  1  0.75689000  0.27332000  0.03737000  1.0
  C  C384  1  0.53990000  0.51742000  0.80771000  1.0
  C  C385  1  0.46010000  0.26782000  0.97753000  1.0
  C  C386  1  0.29029000  0.02248000  0.48258000  1.0
  C  C387  1  0.70971000  0.19229000  0.73219000  1.0
  C  C388  1  0.29029000  0.76781000  0.30772000  1.0
  C  C389  1  0.70971000  0.01743000  0.47752000  1.0
  C  C390  1  0.46010000  0.69229000  0.98258000  1.0
  C  C391  1  0.53990000  0.52248000  0.23219000  1.0
  C  C392  1  0.94982000  0.72857000  0.94551000  1.0
  C  C393  1  0.05018000  0.99569000  0.77875000  1.0
  C  C394  1  0.21694000  0.22125000  0.27143000  1.0
  C  C395  1  0.78306000  0.05449000  0.00431000  1.0
  C  C396  1  0.21694000  0.49569000  0.44550000  1.0
  C  C397  1  0.78305000  0.22856000  0.27874000  1.0
  C  C398  1  0.05018000  0.55449000  0.77143000  1.0
  C  C399  1  0.94982000  0.72125000  0.50431000  1.0
  C  C400  1  0.00008000  0.93230000  0.93230000  1.0
  C  C401  1  0.00000000  0.06777000  0.06771000  1.0
  C  C402  1  0.00001000  0.43228000  0.43222000  1.0
  C  C403  1  0.00004000  0.56776000  0.56776000  1.0
  C  C404  1  0.49996000  0.99999000  0.49997000  1.0
  C  C405  1  0.50000000  0.49993000  0.00008000  1.0
  N  N406  1  0.77551000  0.70458000  0.97092000  1.0
  N  N407  1  0.22450000  0.19542000  0.92908000  1.0
  N  N408  1  0.26634000  0.07093000  0.29543000  1.0
  N  N409  1  0.73366000  0.02909000  0.80459000  1.0
  N  N410  1  0.26633000  0.69540000  0.47090000  1.0
  N  N411  1  0.73367000  0.20458000  0.42908000  1.0
  N  N412  1  0.22449000  0.52908000  0.79542000  1.0
  N  N413  1  0.77551000  0.57093000  0.30459000  1.0
  N  N414  1  0.85094000  0.87137000  0.15833000  1.0
  N  N415  1  0.14906000  0.30739000  0.02043000  1.0
  N  N416  1  0.28695000  0.97956000  0.12862000  1.0
  N  N417  1  0.71304000  0.84166000  0.69260000  1.0
  N  N418  1  0.28696000  0.80740000  0.65834000  1.0
  N  N419  1  0.71304000  0.37138000  0.52043000  1.0
  N  N420  1  0.14906000  0.34167000  0.62863000  1.0
  N  N421  1  0.85093000  0.47956000  0.19260000  1.0
  N  N422  1  0.11741000  0.03993000  0.31169000  1.0
  N  N423  1  0.88259000  0.19428000  0.92253000  1.0
  N  N424  1  0.27175000  0.07747000  0.96007000  1.0
  N  N425  1  0.72825000  0.68832000  0.80572000  1.0
  N  N426  1  0.27175000  0.69428000  0.81168000  1.0
  N  N427  1  0.72825000  0.53993000  0.42253000  1.0
  N  N428  1  0.88259000  0.18831000  0.46007000  1.0
  N  N429  1  0.11741000  0.57748000  0.30572000  1.0
  N  N430  1  0.75982000  0.70788000  0.31190000  1.0
  N  N431  1  0.24018000  0.55207000  0.94805000  1.0
  N  N432  1  0.60403000  0.05195000  0.29214000  1.0
  N  N433  1  0.39597000  0.68811000  0.44792000  1.0
  N  N434  1  0.60403000  0.05208000  0.81189000  1.0
  N  N435  1  0.39597000  0.20787000  0.44805000  1.0
  N  N436  1  0.24018000  0.18810000  0.79213000  1.0
  N  N437  1  0.75982000  0.55195000  0.94793000  1.0
  N  N438  1  0.79376000  0.88870000  0.22842000  1.0
  N  N439  1  0.20624000  0.43466000  0.09494000  1.0
  N  N440  1  0.33972000  0.90506000  0.11130000  1.0
  N  N441  1  0.66028000  0.77159000  0.56533000  1.0
  N  N442  1  0.33972000  0.93467000  0.72842000  1.0
  N  N443  1  0.66028000  0.38870000  0.59495000  1.0
  N  N444  1  0.20624000  0.27158000  0.61130000  1.0
  N  N445  1  0.79375000  0.40506000  0.06533000  1.0
  N  N446  1  0.75560000  0.03842000  0.32216000  1.0
  N  N447  1  0.24440000  0.56656000  0.28283000  1.0
  N  N448  1  0.28374000  0.71718000  0.96159000  1.0
  N  N449  1  0.71626000  0.67784000  0.43344000  1.0
  N  N450  1  0.28374000  0.06656000  0.82216000  1.0
  N  N451  1  0.71626000  0.53842000  0.78282000  1.0
  N  N452  1  0.24440000  0.17784000  0.46158000  1.0
  N  N453  1  0.75560000  0.21718000  0.93344000  1.0
  N  N454  1  0.61415000  0.56247000  0.83671000  1.0
  N  N455  1  0.38585000  0.22256000  0.94833000  1.0
  N  N456  1  0.27423000  0.05168000  0.43753000  1.0
  N  N457  1  0.72577000  0.16330000  0.77745000  1.0
  N  N458  1  0.27423000  0.72256000  0.33670000  1.0
  N  N459  1  0.72577000  0.06247000  0.44833000  1.0
  N  N460  1  0.38585000  0.66330000  0.93753000  1.0
  N  N461  1  0.61415000  0.55167000  0.27744000  1.0
  N  N462  1  0.87639000  0.68240000  0.91873000  1.0
  N  N463  1  0.12360000  0.04234000  0.80600000  1.0
  N  N464  1  0.23634000  0.19400000  0.31760000  1.0
  N  N465  1  0.76366000  0.08125000  0.95765000  1.0
  N  N466  1  0.23634000  0.54235000  0.41875000  1.0
  N  N467  1  0.76366000  0.18240000  0.30600000  1.0
  N  N468  1  0.12360000  0.58126000  0.81760000  1.0
  N  N469  1  0.87640000  0.69400000  0.45766000  1.0
  O  O470  1  0.07233000  0.98101000  0.95717000  1.0
  O  O471  1  0.92783000  0.88494000  0.90876000  1.0
  O  O472  1  0.97616000  0.09130000  0.01900000  1.0
  O  O473  1  0.02383000  0.04288000  0.11508000  1.0
  O  O474  1  0.97617000  0.38490000  0.45709000  1.0
  O  O475  1  0.02385000  0.48100000  0.40870000  1.0
  O  O476  1  0.92779000  0.54289000  0.51907000  1.0
  O  O477  1  0.07230000  0.59129000  0.61512000  1.0
  O  O478  1  0.42382000  0.96189000  0.46192000  1.0
  O  O479  1  0.57609000  0.03808000  0.53800000  1.0
  O  O480  1  0.50001000  0.46187000  0.03815000  1.0
  O  O481  1  0.49999000  0.53799000  0.96200000  1.0
