# generated using pymatgen
data_VCuAsH8C10(NO3)2
_symmetry_space_group_name_H-M   'P 1'
_cell_length_a   5.61463000
_cell_length_b   10.25640000
_cell_length_c   11.70940000
_cell_angle_alpha   72.69930000
_cell_angle_beta   80.78320000
_cell_angle_gamma   88.62000000
_symmetry_Int_Tables_number   1
_chemical_formula_structural   VCuAsH8C10(NO3)2
_chemical_formula_sum   'V2 Cu2 As2 H16 C20 N4 O12'
_cell_volume   635.27899458
_cell_formula_units_Z   2
loop_
 _symmetry_equiv_pos_site_id
 _symmetry_equiv_pos_as_xyz
  1  'x, y, z'
loop_
 _atom_site_type_symbol
 _atom_site_label
 _atom_site_symmetry_multiplicity
 _atom_site_fract_x
 _atom_site_fract_y
 _atom_site_fract_z
 _atom_site_occupancy
  V  V0  1  0.11741000  0.78870000  0.25792000  1.0
  V  V1  1  0.88264000  0.21130000  0.74204000  1.0
  Cu  Cu2  1  0.68387000  0.87844000  0.82760000  1.0
  Cu  Cu3  1  0.31600000  0.12152000  0.17244000  1.0
  As  As4  1  0.65366000  0.88866000  0.11351000  1.0
  As  As5  1  0.34640000  0.11126000  0.88641000  1.0
  H  H6  1  0.33697000  0.94187000  0.64782000  1.0
  H  H7  1  0.66302000  0.05815000  0.35222000  1.0
  H  H8  1  0.27175000  0.84980000  0.47658000  1.0
  H  H9  1  0.72825000  0.15024000  0.52343000  1.0
  H  H10  1  0.52560000  0.65754000  0.44149000  1.0
  H  H11  1  0.47440000  0.34247000  0.55854000  1.0
  H  H12  1  0.83482000  0.56359000  0.57416000  1.0
  H  H13  1  0.16524000  0.43644000  0.42586000  1.0
  H  H14  1  0.09037000  0.49924000  0.69566000  1.0
  H  H15  1  0.90962000  0.50078000  0.30433000  1.0
  H  H16  1  0.38210000  0.44549000  0.84112000  1.0
  H  H17  1  0.61785000  0.55450000  0.15892000  1.0
  H  H18  1  0.37926000  0.58786000  0.98650000  1.0
  H  H19  1  0.62074000  0.41216000  0.01352000  1.0
  H  H20  1  0.07954000  0.77249000  0.97839000  1.0
  H  H21  1  0.92046000  0.22754000  0.02162000  1.0
  C  C22  1  0.44450000  0.86003000  0.62596000  1.0
  C  C23  1  0.55547000  0.13998000  0.37408000  1.0
  C  C24  1  0.40881000  0.80739000  0.53278000  1.0
  C  C25  1  0.59117000  0.19263000  0.46725000  1.0
  C  C26  1  0.55171000  0.70064000  0.51325000  1.0
  C  C27  1  0.44830000  0.29938000  0.48677000  1.0
  C  C28  1  0.72494000  0.64858000  0.58680000  1.0
  C  C29  1  0.27505000  0.35144000  0.41320000  1.0
  C  C30  1  0.75281000  0.70624000  0.67795000  1.0
  C  C31  1  0.24716000  0.29377000  0.32209000  1.0
  C  C32  1  0.93005000  0.66248000  0.76096000  1.0
  C  C33  1  0.06990000  0.33752000  0.23907000  1.0
  C  C34  1  0.09263000  0.55741000  0.75963000  1.0
  C  C35  1  0.90738000  0.44258000  0.24040000  1.0
  C  C36  1  0.25583000  0.52797000  0.84153000  1.0
  C  C37  1  0.74417000  0.47204000  0.15849000  1.0
  C  C38  1  0.25432000  0.60510000  0.92164000  1.0
  C  C39  1  0.74565000  0.39493000  0.07838000  1.0
  C  C40  1  0.08764000  0.70832000  0.91891000  1.0
  C  C41  1  0.91232000  0.29170000  0.08111000  1.0
  N  N42  1  0.61299000  0.81070000  0.69558000  1.0
  N  N43  1  0.38698000  0.18928000  0.30447000  1.0
  N  N44  1  0.92904000  0.73479000  0.84127000  1.0
  N  N45  1  0.07092000  0.26522000  0.15874000  1.0
  O  O46  1  0.76789000  0.93126000  0.96347000  1.0
  O  O47  1  0.23208000  0.06860000  0.03646000  1.0
  O  O48  1  0.84823000  0.77160000  0.19186000  1.0
  O  O49  1  0.15190000  0.22836000  0.80806000  1.0
  O  O50  1  0.39483000  0.78305000  0.14843000  1.0
  O  O51  1  0.60525000  0.21684000  0.85157000  1.0
  O  O52  1  0.61808000  0.02584000  0.16730000  1.0
  O  O53  1  0.38199000  0.97413000  0.83258000  1.0
  O  O54  1  0.88305000  0.07234000  0.69886000  1.0
  O  O55  1  0.11689000  0.92773000  0.30102000  1.0
  O  O56  1  0.11677000  0.65539000  0.37659000  1.0
  O  O57  1  0.88329000  0.34470000  0.62342000  1.0
