# generated using pymatgen
data_Zn2H18C20O11
_symmetry_space_group_name_H-M   'P 1'
_cell_length_a   17.10700000
_cell_length_b   17.10700000
_cell_length_c   17.10700000
_cell_angle_alpha   108.46600000
_cell_angle_beta   108.46600000
_cell_angle_gamma   108.46600000
_symmetry_Int_Tables_number   1
_chemical_formula_structural   Zn2H18C20O11
_chemical_formula_sum   'Zn12 H108 C120 O66'
_cell_volume   3990.88164647
_cell_formula_units_Z   6
loop_
 _symmetry_equiv_pos_site_id
 _symmetry_equiv_pos_as_xyz
  1  'x, y, z'
loop_
 _atom_site_type_symbol
 _atom_site_label
 _atom_site_symmetry_multiplicity
 _atom_site_fract_x
 _atom_site_fract_y
 _atom_site_fract_z
 _atom_site_occupancy
  Zn  Zn0  1  0.77317000  0.33828000  0.13619000  1.0
  Zn  Zn1  1  0.13619000  0.77316000  0.33828000  1.0
  Zn  Zn2  1  0.33828000  0.13619000  0.77316000  1.0
  Zn  Zn3  1  0.22684000  0.66172000  0.86381000  1.0
  Zn  Zn4  1  0.86381000  0.22683000  0.66171000  1.0
  Zn  Zn5  1  0.66172000  0.86381000  0.22684000  1.0
  Zn  Zn6  1  0.57519000  0.22948000  0.88453000  1.0
  Zn  Zn7  1  0.88454000  0.57519000  0.22948000  1.0
  Zn  Zn8  1  0.22948000  0.88454000  0.57519000  1.0
  Zn  Zn9  1  0.42481000  0.77052000  0.11546000  1.0
  Zn  Zn10  1  0.11546000  0.42481000  0.77052000  1.0
  Zn  Zn11  1  0.77052000  0.11546000  0.42481000  1.0
  H  H12  1  0.55330000  0.01918000  0.82841000  1.0
  H  H13  1  0.82841000  0.55330000  0.01918000  1.0
  H  H14  1  0.01918000  0.82841000  0.55330000  1.0
  H  H15  1  0.44670000  0.98082000  0.17160000  1.0
  H  H16  1  0.17160000  0.44670000  0.98082000  1.0
  H  H17  1  0.98082000  0.17160000  0.44671000  1.0
  H  H18  1  0.46096000  0.78716000  0.88628000  1.0
  H  H19  1  0.88628000  0.46096000  0.78716000  1.0
  H  H20  1  0.78716000  0.88628000  0.46096000  1.0
  H  H21  1  0.53904000  0.21284000  0.11372000  1.0
  H  H22  1  0.11372000  0.53904000  0.21283000  1.0
  H  H23  1  0.21284000  0.11372000  0.53904000  1.0
  H  H24  1  0.66715000  0.06019000  0.10966000  1.0
  H  H25  1  0.10966000  0.66716000  0.06019000  1.0
  H  H26  1  0.06019000  0.10966000  0.66716000  1.0
  H  H27  1  0.33284000  0.93981000  0.89034000  1.0
  H  H28  1  0.89034000  0.33285000  0.93981000  1.0
  H  H29  1  0.93981000  0.89034000  0.33285000  1.0
  H  H30  1  0.34359000  0.72581000  0.72886000  1.0
  H  H31  1  0.72886000  0.34359000  0.72581000  1.0
  H  H32  1  0.72581000  0.72886000  0.34359000  1.0
  H  H33  1  0.65641000  0.27419000  0.27114000  1.0
  H  H34  1  0.27114000  0.65641000  0.27419000  1.0
  H  H35  1  0.27419000  0.27114000  0.65641000  1.0
  H  H36  1  0.44906000  0.71827000  0.74507000  1.0
  H  H37  1  0.74507000  0.44906000  0.71827000  1.0
  H  H38  1  0.71827000  0.74507000  0.44906000  1.0
  H  H39  1  0.55094000  0.28173000  0.25493000  1.0
  H  H40  1  0.25493000  0.55094000  0.28173000  1.0
  H  H41  1  0.28173000  0.25493000  0.55094000  1.0
  H  H42  1  0.32515000  0.72819000  0.57613000  1.0
  H  H43  1  0.57613000  0.32515000  0.72820000  1.0
  H  H44  1  0.72820000  0.57613000  0.32515000  1.0
  H  H45  1  0.67485000  0.27181000  0.42387000  1.0
  H  H46  1  0.42387000  0.67485000  0.27181000  1.0
  H  H47  1  0.27181000  0.42388000  0.67485000  1.0
  H  H48  1  0.32660000  0.62492000  0.57635000  1.0
  H  H49  1  0.57635000  0.32660000  0.62492000  1.0
  H  H50  1  0.62492000  0.57635000  0.32660000  1.0
  H  H51  1  0.67340000  0.37508000  0.42365000  1.0
  H  H52  1  0.42365000  0.67340000  0.37508000  1.0
  H  H53  1  0.37508000  0.42365000  0.67340000  1.0
  H  H54  1  0.42769000  0.71557000  0.59261000  1.0
  H  H55  1  0.59261000  0.42769000  0.71557000  1.0
  H  H56  1  0.71557000  0.59261000  0.42769000  1.0
  H  H57  1  0.57231000  0.28443000  0.40739000  1.0
  H  H58  1  0.40739000  0.57231000  0.28443000  1.0
  H  H59  1  0.28443000  0.40739000  0.57231000  1.0
  H  H60  1  0.67320000  0.61511000  0.15374000  1.0
  H  H61  1  0.15374000  0.67320000  0.61511000  1.0
  H  H62  1  0.61512000  0.15374000  0.67320000  1.0
  H  H63  1  0.32680000  0.38488000  0.84626000  1.0
  H  H64  1  0.84626000  0.32680000  0.38489000  1.0
  H  H65  1  0.38488000  0.84625000  0.32680000  1.0
  H  H66  1  0.38346000  0.51037000  0.08372000  1.0
  H  H67  1  0.08372000  0.38346000  0.51037000  1.0
  H  H68  1  0.51037000  0.08372000  0.38346000  1.0
  H  H69  1  0.61654000  0.48963000  0.91628000  1.0
  H  H70  1  0.91628000  0.61654000  0.48964000  1.0
  H  H71  1  0.48963000  0.91628000  0.61654000  1.0
  H  H72  1  0.50635000  0.32403000  0.06089000  1.0
  H  H73  1  0.06089000  0.50635000  0.32403000  1.0
  H  H74  1  0.32403000  0.06089000  0.50635000  1.0
  H  H75  1  0.49365000  0.67597000  0.93911000  1.0
  H  H76  1  0.93911000  0.49365000  0.67597000  1.0
  H  H77  1  0.67597000  0.93911000  0.49365000  1.0
  H  H78  1  0.27519000  0.38130000  0.96196000  1.0
  H  H79  1  0.96196000  0.27518000  0.38130000  1.0
  H  H80  1  0.38130000  0.96197000  0.27519000  1.0
  H  H81  1  0.72481000  0.61870000  0.03803000  1.0
  H  H82  1  0.03804000  0.72481000  0.61871000  1.0
  H  H83  1  0.61870000  0.03803000  0.72482000  1.0
  H  H84  1  0.25312000  0.36565000  0.05269000  1.0
  H  H85  1  0.05269000  0.25311000  0.36566000  1.0
  H  H86  1  0.36565000  0.05269000  0.25311000  1.0
  H  H87  1  0.74689000  0.63435000  0.94731000  1.0
  H  H88  1  0.94731000  0.74689000  0.63435000  1.0
  H  H89  1  0.63435000  0.94731000  0.74689000  1.0
  H  H90  1  0.12460000  0.24109000  0.89431000  1.0
  H  H91  1  0.89431000  0.12460000  0.24109000  1.0
  H  H92  1  0.24109000  0.89431000  0.12460000  1.0
  H  H93  1  0.87539000  0.75891000  0.10569000  1.0
  H  H94  1  0.10569000  0.87540000  0.75892000  1.0
  H  H95  1  0.75892000  0.10569000  0.87540000  1.0
  H  H96  1  0.20539000  0.20963000  0.86616000  1.0
  H  H97  1  0.86616000  0.20539000  0.20963000  1.0
  H  H98  1  0.20963000  0.86616000  0.20539000  1.0
  H  H99  1  0.79461000  0.79037000  0.13384000  1.0
  H  H100  1  0.13384000  0.79461000  0.79038000  1.0
  H  H101  1  0.79037000  0.13384000  0.79461000  1.0
  H  H102  1  0.18125000  0.19105000  0.95480000  1.0
  H  H103  1  0.95480000  0.18125000  0.19105000  1.0
  H  H104  1  0.19105000  0.95479000  0.18125000  1.0
  H  H105  1  0.81875000  0.80895000  0.04520000  1.0
  H  H106  1  0.04520000  0.81875000  0.80895000  1.0
  H  H107  1  0.80895000  0.04520000  0.81875000  1.0
  H  H108  1  0.75647000  0.33161000  0.95510000  1.0
  H  H109  1  0.95510000  0.75647000  0.33161000  1.0
  H  H110  1  0.33161000  0.95510000  0.75647000  1.0
  H  H111  1  0.24353000  0.66839000  0.04490000  1.0
  H  H112  1  0.04490000  0.24353000  0.66839000  1.0
  H  H113  1  0.66839000  0.04490000  0.24353000  1.0
  H  H114  1  0.71212000  0.36977000  0.88745000  1.0
  H  H115  1  0.88745000  0.71212000  0.36977000  1.0
  H  H116  1  0.36977000  0.88745000  0.71212000  1.0
  H  H117  1  0.28788000  0.63022000  0.11255000  1.0
  H  H118  1  0.11255000  0.28788000  0.63023000  1.0
  H  H119  1  0.63023000  0.11255000  0.28788000  1.0
  C  C120  1  0.66700000  0.15166000  0.00635000  1.0
  C  C121  1  0.00635000  0.66701000  0.15166000  1.0
  C  C122  1  0.15166000  0.00635000  0.66700000  1.0
  C  C123  1  0.33300000  0.84834000  0.99366000  1.0
  C  C124  1  0.99366000  0.33300000  0.84834000  1.0
  C  C125  1  0.84834000  0.99366000  0.33300000  1.0
  C  C126  1  0.61502000  0.04951000  0.97247000  1.0
  C  C127  1  0.97247000  0.61503000  0.04951000  1.0
  C  C128  1  0.04950000  0.97247000  0.61502000  1.0
  C  C129  1  0.38498000  0.95049000  0.02753000  1.0
  C  C130  1  0.02753000  0.38498000  0.95049000  1.0
  C  C131  1  0.95049000  0.02753000  0.38498000  1.0
  C  C132  1  0.55758000  0.99062000  0.87736000  1.0
  C  C133  1  0.87736000  0.55759000  0.99062000  1.0
  C  C134  1  0.99062000  0.87736000  0.55759000  1.0
  C  C135  1  0.44242000  0.00938000  0.12264000  1.0
  C  C136  1  0.12264000  0.44241000  0.00938000  1.0
  C  C137  1  0.00938000  0.12264000  0.44242000  1.0
  C  C138  1  0.50485000  0.89530000  0.84526000  1.0
  C  C139  1  0.84526000  0.50485000  0.89530000  1.0
  C  C140  1  0.89530000  0.84527000  0.50485000  1.0
  C  C141  1  0.49515000  0.10470000  0.15474000  1.0
  C  C142  1  0.15473000  0.49515000  0.10470000  1.0
  C  C143  1  0.10470000  0.15474000  0.49515000  1.0
  C  C144  1  0.50576000  0.85961000  0.90835000  1.0
  C  C145  1  0.90835000  0.50577000  0.85961000  1.0
  C  C146  1  0.85961000  0.90835000  0.50577000  1.0
  C  C147  1  0.49423000  0.14039000  0.09165000  1.0
  C  C148  1  0.09165000  0.49423000  0.14039000  1.0
  C  C149  1  0.14040000  0.09165000  0.49424000  1.0
  C  C150  1  0.56511000  0.91946000  0.00377000  1.0
  C  C151  1  0.00377000  0.56511000  0.91946000  1.0
  C  C152  1  0.91946000  0.00378000  0.56511000  1.0
  C  C153  1  0.43489000  0.08054000  0.99623000  1.0
  C  C154  1  0.99623000  0.43489000  0.08054000  1.0
  C  C155  1  0.08054000  0.99623000  0.43489000  1.0
  C  C156  1  0.62107000  0.01366000  0.03593000  1.0
  C  C157  1  0.03593000  0.62108000  0.01366000  1.0
  C  C158  1  0.01366000  0.03593000  0.62108000  1.0
  C  C159  1  0.37893000  0.98634000  0.96407000  1.0
  C  C160  1  0.96407000  0.37893000  0.98634000  1.0
  C  C161  1  0.98634000  0.96407000  0.37893000  1.0
  C  C162  1  0.56437000  0.88195000  0.07133000  1.0
  C  C163  1  0.07133000  0.56438000  0.88196000  1.0
  C  C164  1  0.88196000  0.07133000  0.56438000  1.0
  C  C165  1  0.43562000  0.11804000  0.92867000  1.0
  C  C166  1  0.92867000  0.43562000  0.11804000  1.0
  C  C167  1  0.11804000  0.92867000  0.43563000  1.0
  C  C168  1  0.40192000  0.74248000  0.71197000  1.0
  C  C169  1  0.71197000  0.40192000  0.74248000  1.0
  C  C170  1  0.74248000  0.71197000  0.40192000  1.0
  C  C171  1  0.59808000  0.25752000  0.28803000  1.0
  C  C172  1  0.28803000  0.59808000  0.25752000  1.0
  C  C173  1  0.25752000  0.28803000  0.59808000  1.0
  C  C174  1  0.36862000  0.70062000  0.60812000  1.0
  C  C175  1  0.60812000  0.36862000  0.70063000  1.0
  C  C176  1  0.70062000  0.60812000  0.36862000  1.0
  C  C177  1  0.63138000  0.29938000  0.39188000  1.0
  C  C178  1  0.39188000  0.63138000  0.29938000  1.0
  C  C179  1  0.29938000  0.39188000  0.63138000  1.0
  C  C180  1  0.68090000  0.45251000  0.11975000  1.0
  C  C181  1  0.11975000  0.68090000  0.45251000  1.0
  C  C182  1  0.45251000  0.11975000  0.68090000  1.0
  C  C183  1  0.31909000  0.54749000  0.88025000  1.0
  C  C184  1  0.88025000  0.31910000  0.54749000  1.0
  C  C185  1  0.54749000  0.88025000  0.31910000  1.0
  C  C186  1  0.59840000  0.46826000  0.11049000  1.0
  C  C187  1  0.11049000  0.59840000  0.46826000  1.0
  C  C188  1  0.46827000  0.11049000  0.59840000  1.0
  C  C189  1  0.40160000  0.53173000  0.88950000  1.0
  C  C190  1  0.88951000  0.40160000  0.53174000  1.0
  C  C191  1  0.53173000  0.88951000  0.40160000  1.0
  C  C192  1  0.60681000  0.55733000  0.13096000  1.0
  C  C193  1  0.13096000  0.60681000  0.55734000  1.0
  C  C194  1  0.55734000  0.13096000  0.60681000  1.0
  C  C195  1  0.39319000  0.44266000  0.86903000  1.0
  C  C196  1  0.86904000  0.39319000  0.44266000  1.0
  C  C197  1  0.44266000  0.86903000  0.39319000  1.0
  C  C198  1  0.52888000  0.57108000  0.12157000  1.0
  C  C199  1  0.12158000  0.52888000  0.57108000  1.0
  C  C200  1  0.57108000  0.12158000  0.52888000  1.0
  C  C201  1  0.47112000  0.42892000  0.87842000  1.0
  C  C202  1  0.87842000  0.47112000  0.42892000  1.0
  C  C203  1  0.42892000  0.87842000  0.47112000  1.0
  C  C204  1  0.44259000  0.49668000  0.09079000  1.0
  C  C205  1  0.09079000  0.44259000  0.49668000  1.0
  C  C206  1  0.49668000  0.09079000  0.44258000  1.0
  C  C207  1  0.55741000  0.50332000  0.90920000  1.0
  C  C208  1  0.90921000  0.55742000  0.50332000  1.0
  C  C209  1  0.50332000  0.90920000  0.55741000  1.0
  C  C210  1  0.43412000  0.40713000  0.06777000  1.0
  C  C211  1  0.06778000  0.43412000  0.40713000  1.0
  C  C212  1  0.40713000  0.06778000  0.43412000  1.0
  C  C213  1  0.56588000  0.59287000  0.93222000  1.0
  C  C214  1  0.93222000  0.56588000  0.59288000  1.0
  C  C215  1  0.59287000  0.93222000  0.56588000  1.0
  C  C216  1  0.51294000  0.39368000  0.07995000  1.0
  C  C217  1  0.07995000  0.51294000  0.39368000  1.0
  C  C218  1  0.39368000  0.07995000  0.51294000  1.0
  C  C219  1  0.48705000  0.60632000  0.92004000  1.0
  C  C220  1  0.92005000  0.48706000  0.60632000  1.0
  C  C221  1  0.60632000  0.92005000  0.48706000  1.0
  C  C222  1  0.53647000  0.66538000  0.14086000  1.0
  C  C223  1  0.14086000  0.53647000  0.66538000  1.0
  C  C224  1  0.66538000  0.14087000  0.53647000  1.0
  C  C225  1  0.46352000  0.33462000  0.85913000  1.0
  C  C226  1  0.85913000  0.46353000  0.33462000  1.0
  C  C227  1  0.33462000  0.85913000  0.46353000  1.0
  C  C228  1  0.26704000  0.33509000  0.99457000  1.0
  C  C229  1  0.99457000  0.26704000  0.33509000  1.0
  C  C230  1  0.33509000  0.99457000  0.26704000  1.0
  C  C231  1  0.73296000  0.66491000  0.00542000  1.0
  C  C232  1  0.00543000  0.73296000  0.66492000  1.0
  C  C233  1  0.66491000  0.00543000  0.73296000  1.0
  C  C234  1  0.19015000  0.23810000  0.92345000  1.0
  C  C235  1  0.92345000  0.19014000  0.23810000  1.0
  C  C236  1  0.23809000  0.92345000  0.19015000  1.0
  C  C237  1  0.80985000  0.76190000  0.07655000  1.0
  C  C238  1  0.07655000  0.80986000  0.76191000  1.0
  C  C239  1  0.76190000  0.07655000  0.80985000  1.0
  O  O240  1  0.71664000  0.20311000  0.09444000  1.0
  O  O241  1  0.09444000  0.71664000  0.20311000  1.0
  O  O242  1  0.20311000  0.09444000  0.71663000  1.0
  O  O243  1  0.28337000  0.79689000  0.90557000  1.0
  O  O244  1  0.90556000  0.28336000  0.79689000  1.0
  O  O245  1  0.79689000  0.90557000  0.28337000  1.0
  O  O246  1  0.66017000  0.18273000  0.94760000  1.0
  O  O247  1  0.94760000  0.66017000  0.18273000  1.0
  O  O248  1  0.18273000  0.94760000  0.66017000  1.0
  O  O249  1  0.33983000  0.81727000  0.05241000  1.0
  O  O250  1  0.05241000  0.33983000  0.81727000  1.0
  O  O251  1  0.81727000  0.05241000  0.33983000  1.0
  O  O252  1  0.63352000  0.93064000  0.15427000  1.0
  O  O253  1  0.15427000  0.63352000  0.93064000  1.0
  O  O254  1  0.93065000  0.15427000  0.63352000  1.0
  O  O255  1  0.36648000  0.06936000  0.84573000  1.0
  O  O256  1  0.84573000  0.36648000  0.06935000  1.0
  O  O257  1  0.06936000  0.84573000  0.36648000  1.0
  O  O258  1  0.49676000  0.80485000  0.04433000  1.0
  O  O259  1  0.04434000  0.49677000  0.80485000  1.0
  O  O260  1  0.80486000  0.04434000  0.49677000  1.0
  O  O261  1  0.50323000  0.19515000  0.95566000  1.0
  O  O262  1  0.95566000  0.50323000  0.19514000  1.0
  O  O263  1  0.19515000  0.95567000  0.50323000  1.0
  O  O264  1  0.67312000  0.37422000  0.11543000  1.0
  O  O265  1  0.11543000  0.67312000  0.37421000  1.0
  O  O266  1  0.37422000  0.11543000  0.67312000  1.0
  O  O267  1  0.32687000  0.62578000  0.88456000  1.0
  O  O268  1  0.88457000  0.32687000  0.62578000  1.0
  O  O269  1  0.62578000  0.88456000  0.32687000  1.0
  O  O270  1  0.75310000  0.51702000  0.13103000  1.0
  O  O271  1  0.13103000  0.75309000  0.51702000  1.0
  O  O272  1  0.51702000  0.13103000  0.75309000  1.0
  O  O273  1  0.24690000  0.48298000  0.86897000  1.0
  O  O274  1  0.86897000  0.24690000  0.48298000  1.0
  O  O275  1  0.48298000  0.86897000  0.24690000  1.0
  O  O276  1  0.61585000  0.72919000  0.16451000  1.0
  O  O277  1  0.16451000  0.61585000  0.72919000  1.0
  O  O278  1  0.72919000  0.16452000  0.61585000  1.0
  O  O279  1  0.38415000  0.27081000  0.83548000  1.0
  O  O280  1  0.83548000  0.38415000  0.27081000  1.0
  O  O281  1  0.27081000  0.83548000  0.38415000  1.0
  O  O282  1  0.46380000  0.67499000  0.13242000  1.0
  O  O283  1  0.13242000  0.46380000  0.67499000  1.0
  O  O284  1  0.67498000  0.13242000  0.46380000  1.0
  O  O285  1  0.53620000  0.32501000  0.86757000  1.0
  O  O286  1  0.86758000  0.53620000  0.32502000  1.0
  O  O287  1  0.32501000  0.86758000  0.53620000  1.0
  O  O288  1  0.45291000  0.84284000  0.75020000  1.0
  O  O289  1  0.75020000  0.45291000  0.84285000  1.0
  O  O290  1  0.84285000  0.75020000  0.45291000  1.0
  O  O291  1  0.54709000  0.15715000  0.24981000  1.0
  O  O292  1  0.24980000  0.54709000  0.15715000  1.0
  O  O293  1  0.15716000  0.24981000  0.54710000  1.0
  O  O294  1  0.35259000  0.32923000  0.03087000  1.0
  O  O295  1  0.03087000  0.35258000  0.32924000  1.0
  O  O296  1  0.32923000  0.03087000  0.35259000  1.0
  O  O297  1  0.64741000  0.67077000  0.96913000  1.0
  O  O298  1  0.96913000  0.64741000  0.67077000  1.0
  O  O299  1  0.67076000  0.96913000  0.64742000  1.0
  O  O300  1  0.70208000  0.31511000  0.89837000  1.0
  O  O301  1  0.89837000  0.70208000  0.31511000  1.0
  O  O302  1  0.31511000  0.89837000  0.70208000  1.0
  O  O303  1  0.29792000  0.68489000  0.10163000  1.0
  O  O304  1  0.10164000  0.29792000  0.68489000  1.0
  O  O305  1  0.68489000  0.10163000  0.29792000  1.0
