# generated using pymatgen
data_CdH8C10N3ClO2
_symmetry_space_group_name_H-M   'P 1'
_cell_length_a   8.08929000
_cell_length_b   8.39807000
_cell_length_c   8.98398000
_cell_angle_alpha   87.28680000
_cell_angle_beta   75.20410000
_cell_angle_gamma   71.71670000
_symmetry_Int_Tables_number   1
_chemical_formula_structural   CdH8C10N3ClO2
_chemical_formula_sum   'Cd2 H16 C20 N6 Cl2 O4'
_cell_volume   559.93773507
_cell_formula_units_Z   2
loop_
 _symmetry_equiv_pos_site_id
 _symmetry_equiv_pos_as_xyz
  1  'x, y, z'
loop_
 _atom_site_type_symbol
 _atom_site_label
 _atom_site_symmetry_multiplicity
 _atom_site_fract_x
 _atom_site_fract_y
 _atom_site_fract_z
 _atom_site_occupancy
  Cd  Cd0  1  0.44352000  0.69790000  0.62695000  1.0
  Cd  Cd1  1  0.55648000  0.30210000  0.37305000  1.0
  H  H2  1  0.12795000  0.59702000  0.88654000  1.0
  H  H3  1  0.87206000  0.40297000  0.11345000  1.0
  H  H4  1  0.01632000  0.58971000  0.17506000  1.0
  H  H5  1  0.98369000  0.41028000  0.82493000  1.0
  H  H6  1  0.19235000  0.66426000  0.33960000  1.0
  H  H7  1  0.80765000  0.33574000  0.66040000  1.0
  H  H8  1  0.45675000  0.75534000  0.21531000  1.0
  H  H9  1  0.54325000  0.24466000  0.78468000  1.0
  H  H10  1  0.70954000  0.84751000  0.07825000  1.0
  H  H11  1  0.29045000  0.15248000  0.92176000  1.0
  H  H12  1  0.94147000  0.90939000  0.81182000  1.0
  H  H13  1  0.05853000  0.09061000  0.18818000  1.0
  H  H14  1  0.85801000  0.73452000  0.47846000  1.0
  H  H15  1  0.14199000  0.26549000  0.52154000  1.0
  H  H16  1  0.99344000  0.84086000  0.53244000  1.0
  H  H17  1  0.00655000  0.15916000  0.46756000  1.0
  C  C18  1  0.19536000  0.63223000  0.96432000  1.0
  C  C19  1  0.80464000  0.36776000  0.03567000  1.0
  C  C20  1  0.13498000  0.62766000  0.12358000  1.0
  C  C21  1  0.86503000  0.37233000  0.87641000  1.0
  C  C22  1  0.23133000  0.67104000  0.21479000  1.0
  C  C23  1  0.76868000  0.32895000  0.78520000  1.0
  C  C24  1  0.38180000  0.71926000  0.14522000  1.0
  C  C25  1  0.61819000  0.28074000  0.85478000  1.0
  C  C26  1  0.43262000  0.72333000  0.98449000  1.0
  C  C27  1  0.56738000  0.27667000  0.01550000  1.0
  C  C28  1  0.58693000  0.77573000  0.90349000  1.0
  C  C29  1  0.41308000  0.22427000  0.09651000  1.0
  C  C30  1  0.70839000  0.83123000  0.95951000  1.0
  C  C31  1  0.29161000  0.16877000  0.04049000  1.0
  C  C32  1  0.82705000  0.86297000  0.82874000  1.0
  C  C33  1  0.17295000  0.13703000  0.17127000  1.0
  C  C34  1  0.85460000  0.84347000  0.54368000  1.0
  C  C35  1  0.14539000  0.15654000  0.45633000  1.0
  C  C36  1  0.75586000  0.00340000  0.47331000  1.0
  C  C37  1  0.24412000  0.99662000  0.52671000  1.0
  N  N38  1  0.34022000  0.67871000  0.89631000  1.0
  N  N39  1  0.65978000  0.32128000  0.10369000  1.0
  N  N40  1  0.63065000  0.77393000  0.74836000  1.0
  N  N41  1  0.36935000  0.22607000  0.25164000  1.0
  N  N42  1  0.77622000  0.82602000  0.70490000  1.0
  N  N43  1  0.22378000  0.17399000  0.29510000  1.0
  Cl  Cl44  1  0.27136000  0.49738000  0.58014000  1.0
  Cl  Cl45  1  0.72864000  0.50262000  0.41986000  1.0
  O  O46  1  0.61214000  0.10415000  0.55665000  1.0
  O  O47  1  0.38783000  0.89585000  0.44336000  1.0
  O  O48  1  0.82584000  0.02639000  0.33460000  1.0
  O  O49  1  0.17414000  0.97364000  0.66542000  1.0
