# generated using pymatgen
data_ZnH19C18NO9
_symmetry_space_group_name_H-M   'P 1'
_cell_length_a   10.10200000
_cell_length_b   11.04040000
_cell_length_c   11.07320000
_cell_angle_alpha   89.33480000
_cell_angle_beta   81.36040000
_cell_angle_gamma   85.74980000
_symmetry_Int_Tables_number   1
_chemical_formula_structural   ZnH19C18NO9
_chemical_formula_sum   'Zn2 H38 C36 N2 O18'
_cell_volume   1217.62365502
_cell_formula_units_Z   2
loop_
 _symmetry_equiv_pos_site_id
 _symmetry_equiv_pos_as_xyz
  1  'x, y, z'
loop_
 _atom_site_type_symbol
 _atom_site_label
 _atom_site_symmetry_multiplicity
 _atom_site_fract_x
 _atom_site_fract_y
 _atom_site_fract_z
 _atom_site_occupancy
  Zn  Zn0  1  0.64619000  0.50447000  0.48135000  1.0
  Zn  Zn1  1  0.34870000  0.51634000  0.52750000  1.0
  H  H2  1  0.17812000  0.26557000  0.38475000  1.0
  H  H3  1  0.25241000  0.38934000  0.29956000  1.0
  H  H4  1  0.71401000  0.85997000  0.30953000  1.0
  H  H5  1  0.66309000  0.76197000  0.87342000  1.0
  H  H6  1  0.31911000  0.14070000  0.67432000  1.0
  H  H7  1  0.38431000  0.37952000  0.14013000  1.0
  H  H8  1  0.25116000  0.02368000  0.83998000  1.0
  H  H9  1  0.13429000  0.90973000  0.83514000  1.0
  H  H10  1  0.13328000  0.03729000  0.73301000  1.0
  H  H11  1  0.21672000  0.32999000  0.04421000  1.0
  H  H12  1  0.35239000  0.21368000  0.03345000  1.0
  H  H13  1  0.23989000  0.22154000  0.92206000  1.0
  H  H14  1  0.57252000  0.88374000  0.23234000  1.0
  H  H15  1  0.78982000  0.64705000  0.81417000  1.0
  H  H16  1  0.81105000  0.99014000  0.45634000  1.0
  H  H17  1  0.76583000  0.14965000  0.48277000  1.0
  H  H18  1  0.92561000  0.10020000  0.39879000  1.0
  H  H19  1  0.94724000  0.77842000  0.04238000  1.0
  H  H20  1  0.84269000  0.90476000  0.11167000  1.0
  H  H21  1  0.83636000  0.86531000  0.95603000  1.0
  H  H22  1  0.63768000  0.01842000  0.06118000  1.0
  H  H23  1  0.75308000  0.12944000  0.08536000  1.0
  H  H24  1  0.59652000  0.17714000  0.03705000  1.0
  H  H25  1  0.84547000  0.45963000  0.88529000  1.0
  H  H26  1  0.80785000  0.40204000  0.03817000  1.0
  H  H27  1  0.97744000  0.42678000  0.97519000  1.0
  H  H28  1  0.16991000  0.52363000  0.76554000  1.0
  H  H29  1  0.08438000  0.63906000  0.86818000  1.0
  H  H30  1  0.21684000  0.67657000  0.74682000  1.0
  H  H31  1  0.78630000  0.81519000  0.49579000  1.0
  H  H32  1  0.73245000  0.84766000  0.65404000  1.0
  H  H33  1  0.90938000  0.82562000  0.59826000  1.0
  H  H34  1  0.12164000  0.17884000  0.18785000  1.0
  H  H35  1  0.01430000  0.25361000  0.08962000  1.0
  H  H36  1  0.95746000  0.12786000  0.18200000  1.0
  H  H37  1  0.09644000  0.60794000  0.10354000  1.0
  H  H38  1  0.17936000  0.57151000  0.23280000  1.0
  H  H39  1  0.00606000  0.63188000  0.25323000  1.0
  C  C40  1  0.53237000  0.50987000  0.26533000  1.0
  C  C41  1  0.47316000  0.27604000  0.51095000  1.0
  C  C42  1  0.63613000  0.06035000  0.30529000  1.0
  C  C43  1  0.73926000  0.65126000  0.02286000  1.0
  C  C44  1  0.09411000  0.44512000  0.45281000  1.0
  C  C45  1  0.02390000  0.58253000  0.60057000  1.0
  C  C46  1  0.89454000  0.59403000  0.55876000  1.0
  C  C47  1  0.96992000  0.45399000  0.41461000  1.0
  C  C48  1  0.02370000  0.38276000  0.29676000  1.0
  C  C49  1  0.16079000  0.35939000  0.35361000  1.0
  C  C50  1  0.52318000  0.50202000  0.73342000  1.0
  C  C51  1  0.44443000  0.74447000  0.51231000  1.0
  C  C52  1  0.54144000  0.06456000  0.42614000  1.0
  C  C53  1  0.61426000  0.57846000  0.04672000  1.0
  C  C54  1  0.46713000  0.14069000  0.51398000  1.0
  C  C55  1  0.53289000  0.50972000  0.12951000  1.0
  C  C56  1  0.37959000  0.08346000  0.60443000  1.0
  C  C57  1  0.44702000  0.43647000  0.07853000  1.0
  C  C58  1  0.36976000  0.95679000  0.60612000  1.0
  C  C59  1  0.44576000  0.43004000  0.95196000  1.0
  C  C60  1  0.44690000  0.87994000  0.51556000  1.0
  C  C61  1  0.52446000  0.50441000  0.86876000  1.0
  C  C62  1  0.53004000  0.93957000  0.42669000  1.0
  C  C63  1  0.60390000  0.57897000  0.92189000  1.0
  C  C64  1  0.62093000  0.91720000  0.30643000  1.0
  C  C65  1  0.70780000  0.66998000  0.88801000  1.0
  C  C66  1  0.19706000  0.97295000  0.78006000  1.0
  C  C67  1  0.29131000  0.27521000  0.98088000  1.0
  C  C68  1  0.81945000  0.08190000  0.41750000  1.0
  C  C69  1  0.84868000  0.82908000  0.04744000  1.0
  C  C70  1  0.64648000  0.11125000  0.09342000  1.0
  C  C71  1  0.87243000  0.46101000  0.97817000  1.0
  C  C72  1  0.13350000  0.61951000  0.77459000  1.0
  C  C73  1  0.80898000  0.79835000  0.58859000  1.0
  C  C74  1  0.01683000  0.20718000  0.17760000  1.0
  C  C75  1  0.08321000  0.57243000  0.19697000  1.0
  N  N76  1  0.12705000  0.50891000  0.54570000  1.0
  N  N77  1  0.86456000  0.52649000  0.46859000  1.0
  O  O78  1  0.64618000  0.51320000  0.30114000  1.0
  O  O79  1  0.58590000  0.31963000  0.48145000  1.0
  O  O80  1  0.41899000  0.50711000  0.33333333  1.0
  O  O81  1  0.35905000  0.33585000  0.53779000  1.0
  O  O82  1  0.63617000  0.48217000  0.66537000  1.0
  O  O83  1  0.55846000  0.68568000  0.49725000  1.0
  O  O84  1  0.41032000  0.52310000  0.69779000  1.0
  O  O85  1  0.33074000  0.69852000  0.52201000  1.0
  O  O86  1  0.28738000  0.89951000  0.69484000  1.0
  O  O87  1  0.37276000  0.35087000  0.90037000  1.0
  O  O88  1  0.76983000  0.09203000  0.30334000  1.0
  O  O89  1  0.74222000  0.75453000  0.09344000  1.0
  O  O90  1  0.57931000  0.12873000  0.21570000  1.0
  O  O91  1  0.86338000  0.58106000  0.02643000  1.0
  O  O92  1  0.02904000  0.64795000  0.69970000  1.0
  O  O93  1  0.79730000  0.67124000  0.61647000  1.0
  O  O94  1  0.95433000  0.28368000  0.27675000  1.0
  O  O95  1  0.03884000  0.45315000  0.18841000  1.0
