# generated using pymatgen
data_CdH8C8I2(N2O)2
_symmetry_space_group_name_H-M   'P 1'
_cell_length_a   4.10255000
_cell_length_b   7.70939000
_cell_length_c   21.57450000
_cell_angle_alpha   89.99940000
_cell_angle_beta   90.22040000
_cell_angle_gamma   89.99960000
_symmetry_Int_Tables_number   1
_chemical_formula_structural   CdH8C8I2(N2O)2
_chemical_formula_sum   'Cd2 H16 C16 I4 N8 O4'
_cell_volume   682.35664502
_cell_formula_units_Z   2
loop_
 _symmetry_equiv_pos_site_id
 _symmetry_equiv_pos_as_xyz
  1  'x, y, z'
loop_
 _atom_site_type_symbol
 _atom_site_label
 _atom_site_symmetry_multiplicity
 _atom_site_fract_x
 _atom_site_fract_y
 _atom_site_fract_z
 _atom_site_occupancy
  Cd  Cd0  1  0.50001000  0.50000000  0.50000000  1.0
  Cd  Cd1  1  0.50001000  0.99999000  1.00000000  1.0
  H  H2  1  0.27647000  0.55286000  0.35432000  1.0
  H  H3  1  0.72351000  0.05287000  0.14567000  1.0
  H  H4  1  0.72351000  0.44714000  0.64569000  1.0
  H  H5  1  0.27647000  0.94714000  0.85432000  1.0
  H  H6  1  0.63825000  0.10576000  0.43840000  1.0
  H  H7  1  0.36180000  0.60575000  0.06161000  1.0
  H  H8  1  0.36177000  0.89423000  0.56160000  1.0
  H  H9  1  0.63822000  0.39424000  0.93839000  1.0
  H  H10  1  0.08508000  0.39483000  0.27141000  1.0
  H  H11  1  0.91494000  0.89485000  0.22859000  1.0
  H  H12  1  0.91490000  0.60518000  0.72859000  1.0
  H  H13  1  0.08505000  0.10516000  0.77141000  1.0
  H  H14  1  0.46885000  0.92715000  0.34754000  1.0
  H  H15  1  0.53121000  0.42716000  0.15247000  1.0
  H  H16  1  0.53115000  0.07284000  0.65246000  1.0
  H  H17  1  0.46882000  0.57284000  0.84753000  1.0
  C  C18  1  0.32436000  0.41372000  0.35396000  1.0
  C  C19  1  0.67564000  0.91373000  0.14604000  1.0
  C  C20  1  0.67563000  0.58627000  0.64605000  1.0
  C  C21  1  0.32435000  0.08627000  0.85396000  1.0
  C  C22  1  0.51825000  0.16461000  0.39830000  1.0
  C  C23  1  0.48178000  0.66460000  0.10171000  1.0
  C  C24  1  0.48176000  0.83538000  0.60170000  1.0
  C  C25  1  0.51823000  0.33539000  0.89829000  1.0
  C  C26  1  0.42487000  0.06635000  0.34839000  1.0
  C  C27  1  0.57518000  0.56635000  0.15162000  1.0
  C  C28  1  0.57513000  0.93365000  0.65161000  1.0
  C  C29  1  0.42483000  0.43365000  0.84838000  1.0
  C  C30  1  0.25568000  0.14580000  0.29743000  1.0
  C  C31  1  0.74437000  0.64582000  0.20257000  1.0
  C  C32  1  0.74431000  0.85421000  0.70257000  1.0
  C  C33  1  0.25564000  0.35419000  0.79743000  1.0
  I  I34  1  0.01657000  0.25409000  0.54643000  1.0
  I  I35  1  0.98345000  0.75410000  0.95357000  1.0
  I  I36  1  0.98345000  0.74589000  0.45357000  1.0
  I  I37  1  0.01655000  0.24589000  0.04643000  1.0
  N  N38  1  0.46972000  0.34029000  0.40168000  1.0
  N  N39  1  0.53029000  0.84029000  0.09833000  1.0
  N  N40  1  0.53028000  0.65970000  0.59832000  1.0
  N  N41  1  0.46971000  0.15970000  0.90167000  1.0
  N  N42  1  0.21870000  0.32508000  0.30420000  1.0
  N  N43  1  0.78132000  0.82510000  0.19581000  1.0
  N  N44  1  0.78128000  0.67492000  0.69581000  1.0
  N  N45  1  0.21867000  0.17491000  0.80419000  1.0
  O  O46  1  0.14328000  0.07287000  0.25018000  1.0
  O  O47  1  0.85684000  0.57289000  0.24983000  1.0
  O  O48  1  0.85671000  0.92714000  0.74982000  1.0
  O  O49  1  0.14317000  0.42713000  0.75017000  1.0
