# generated using pymatgen
data_RbH5C6N8O9
_symmetry_space_group_name_H-M   'P 1'
_cell_length_a   7.23814000
_cell_length_b   7.25498000
_cell_length_c   13.11580000
_cell_angle_alpha   97.90640000
_cell_angle_beta   95.85340000
_cell_angle_gamma   94.60660000
_symmetry_Int_Tables_number   1
_chemical_formula_structural   RbH5C6N8O9
_chemical_formula_sum   'Rb2 H10 C12 N16 O18'
_cell_volume   675.52234505
_cell_formula_units_Z   2
loop_
 _symmetry_equiv_pos_site_id
 _symmetry_equiv_pos_as_xyz
  1  'x, y, z'
loop_
 _atom_site_type_symbol
 _atom_site_label
 _atom_site_symmetry_multiplicity
 _atom_site_fract_x
 _atom_site_fract_y
 _atom_site_fract_z
 _atom_site_occupancy
  Rb  Rb0  1  0.13652000  0.29417000  0.06855000  1.0
  Rb  Rb1  1  0.86348000  0.70583000  0.93145000  1.0
  H  H2  1  0.70292000  0.29655000  0.97660000  1.0
  H  H3  1  0.29709000  0.70345000  0.02340000  1.0
  H  H4  1  0.74459000  0.20246000  0.86858000  1.0
  H  H5  1  0.25541000  0.79754000  0.13142000  1.0
  H  H6  1  0.49842000  0.74004000  0.48496000  1.0
  H  H7  1  0.50158000  0.25995000  0.51503000  1.0
  H  H8  1  0.21044000  0.78555000  0.63510000  1.0
  H  H9  1  0.78956000  0.21446000  0.36490000  1.0
  H  H10  1  0.78020000  0.73230000  0.37518000  1.0
  H  H11  1  0.21980000  0.26770000  0.62482000  1.0
  C  C12  1  0.63504000  0.95439000  0.66759000  1.0
  C  C13  1  0.36497000  0.04561000  0.33241000  1.0
  C  C14  1  0.41539000  0.96277000  0.75874000  1.0
  C  C15  1  0.58461000  0.03724000  0.24127000  1.0
  C  C16  1  0.34871000  0.85385000  0.66262000  1.0
  C  C17  1  0.65129000  0.14616000  0.33738000  1.0
  C  C18  1  0.35223000  0.55504000  0.34858000  1.0
  C  C19  1  0.64778000  0.44496000  0.65142000  1.0
  C  C20  1  0.64345000  0.65876000  0.34917000  1.0
  C  C21  1  0.35655000  0.34124000  0.65083000  1.0
  C  C22  1  0.57164000  0.54344000  0.25680000  1.0
  C  C23  1  0.42836000  0.45656000  0.74320000  1.0
  N  N24  1  0.59739000  0.02800000  0.76127000  1.0
  N  N25  1  0.40261000  0.97200000  0.23873000  1.0
  N  N26  1  0.49238000  0.84920000  0.60453000  1.0
  N  N27  1  0.50761000  0.15080000  0.39548000  1.0
  N  N28  1  0.81737000  0.98240000  0.63410000  1.0
  N  N29  1  0.18263000  0.01760000  0.36590000  1.0
  N  N30  1  0.31335000  0.00404000  0.84501000  1.0
  N  N31  1  0.68664000  0.99596000  0.15499000  1.0
  N  N32  1  0.39093000  0.47897000  0.25731000  1.0
  N  N33  1  0.60907000  0.52102000  0.74269000  1.0
  N  N34  1  0.49890000  0.66448000  0.40730000  1.0
  N  N35  1  0.50110000  0.33552000  0.59270000  1.0
  N  N36  1  0.16930000  0.53293000  0.38205000  1.0
  N  N37  1  0.83069000  0.46708000  0.61795000  1.0
  N  N38  1  0.66361000  0.49491000  0.16695000  1.0
  N  N39  1  0.33640000  0.50509000  0.83305000  1.0
  O  O40  1  0.84590000  0.88623000  0.55212000  1.0
  O  O41  1  0.15410000  0.11377000  0.44788000  1.0
  O  O42  1  0.93376000  0.09981000  0.68900000  1.0
  O  O43  1  0.06624000  0.90020000  0.31101000  1.0
  O  O44  1  0.38568000  0.12189000  0.91978000  1.0
  O  O45  1  0.61431000  0.87811000  0.08022000  1.0
  O  O46  1  0.15507000  0.91945000  0.84097000  1.0
  O  O47  1  0.84493000  0.08054000  0.15903000  1.0
  O  O48  1  0.04994000  0.42271000  0.32527000  1.0
  O  O49  1  0.95006000  0.57729000  0.67473000  1.0
  O  O50  1  0.14569000  0.62896000  0.46468000  1.0
  O  O51  1  0.85430000  0.37106000  0.53532000  1.0
  O  O52  1  0.82431000  0.56743000  0.16537000  1.0
  O  O53  1  0.17570000  0.43257000  0.83463000  1.0
  O  O54  1  0.57461000  0.38179000  0.09451000  1.0
  O  O55  1  0.42540000  0.61821000  0.90549000  1.0
  O  O56  1  0.80096000  0.29040000  0.93030000  1.0
  O  O57  1  0.19904000  0.70960000  0.06969000  1.0
