# generated using pymatgen
data_GdPH19C24NO8
_symmetry_space_group_name_H-M   'P 1'
_cell_length_a   10.72250000
_cell_length_b   11.88980000
_cell_length_c   14.40400000
_cell_angle_alpha   74.39470000
_cell_angle_beta   74.63220000
_cell_angle_gamma   64.85690000
_symmetry_Int_Tables_number   1
_chemical_formula_structural   GdPH19C24NO8
_chemical_formula_sum   'Gd2 P2 H38 C48 N2 O16'
_cell_volume   1576.96685000
_cell_formula_units_Z   2
loop_
 _symmetry_equiv_pos_site_id
 _symmetry_equiv_pos_as_xyz
  1  'x, y, z'
loop_
 _atom_site_type_symbol
 _atom_site_label
 _atom_site_symmetry_multiplicity
 _atom_site_fract_x
 _atom_site_fract_y
 _atom_site_fract_z
 _atom_site_occupancy
  Gd  Gd0  1  0.99672000  0.55032000  0.62749000  1.0
  Gd  Gd1  1  0.00327000  0.44968000  0.37251000  1.0
  P  P2  1  0.14896000  0.71630000  0.73059000  1.0
  P  P3  1  0.85105000  0.28370000  0.26940000  1.0
  H  H4  1  0.50417000  0.63057000  0.43754000  1.0
  H  H5  1  0.49584000  0.36942000  0.56246000  1.0
  H  H6  1  0.95430000  0.89284000  0.61067000  1.0
  H  H7  1  0.04570000  0.10716000  0.38932000  1.0
  H  H8  1  0.26352000  0.67398000  0.53760000  1.0
  H  H9  1  0.73650000  0.32600000  0.46239000  1.0
  H  H10  1  0.96038000  0.83278000  0.89229000  1.0
  H  H11  1  0.03964000  0.16721000  0.10771000  1.0
  H  H12  1  0.66242000  0.60529000  0.69040000  1.0
  H  H13  1  0.33757000  0.39475000  0.30958000  1.0
  H  H14  1  0.42370000  0.65631000  0.78904000  1.0
  H  H15  1  0.57629000  0.34372000  0.21094000  1.0
  H  H16  1  0.19951000  0.90856000  0.79730000  1.0
  H  H17  1  0.80049000  0.09144000  0.20270000  1.0
  H  H18  1  0.27340000  0.40427000  0.03164000  1.0
  H  H19  1  0.72659000  0.59571000  0.96834000  1.0
  H  H20  1  0.91848000  0.74743000  0.07192000  1.0
  H  H21  1  0.08152000  0.25256000  0.92808000  1.0
  H  H22  1  0.88234000  0.12739000  0.55179000  1.0
  H  H23  1  0.11766000  0.87261000  0.44820000  1.0
  H  H24  1  0.11696000  0.14391000  0.74310000  1.0
  H  H25  1  0.88302000  0.85610000  0.25689000  1.0
  H  H26  1  0.30873000  0.48167000  0.85064000  1.0
  H  H27  1  0.69127000  0.51832000  0.14935000  1.0
  H  H28  1  0.67228000  0.79129000  0.74220000  1.0
  H  H29  1  0.32774000  0.20871000  0.25782000  1.0
  H  H30  1  0.68579000  0.09290000  0.53855000  1.0
  H  H31  1  0.31419000  0.90711000  0.46146000  1.0
  H  H32  1  0.56582000  0.05720000  0.49881000  1.0
  H  H33  1  0.43416000  0.94278000  0.50121000  1.0
  H  H34  1  0.74481000  0.94800000  0.49511000  1.0
  H  H35  1  0.25517000  0.05200000  0.50490000  1.0
  H  H36  1  0.40387000  0.04766000  0.66550000  1.0
  H  H37  1  0.59614000  0.95236000  0.33453000  1.0
  H  H38  1  0.50403000  0.10635000  0.70622000  1.0
  H  H39  1  0.49601000  0.89366000  0.29380000  1.0
  H  H40  1  0.48749000  0.96027000  0.76917000  1.0
  H  H41  1  0.51253000  0.03974000  0.23085000  1.0
  C  C42  1  0.13907000  0.66336000  0.86049000  1.0
  C  C43  1  0.86094000  0.33663000  0.13950000  1.0
  C  C44  1  0.48373000  0.63820000  0.51430000  1.0
  C  C45  1  0.51628000  0.36179000  0.48569000  1.0
  C  C46  1  0.08160000  0.88686000  0.70661000  1.0
  C  C47  1  0.91840000  0.11313000  0.29338000  1.0
  C  C48  1  0.32835000  0.67064000  0.66890000  1.0
  C  C49  1  0.67164000  0.32937000  0.33109000  1.0
  C  C50  1  0.98946000  0.94854000  0.63919000  1.0
  C  C51  1  0.01054000  0.05146000  0.36080000  1.0
  C  C52  1  0.35041000  0.66283000  0.56981000  1.0
  C  C53  1  0.64960000  0.33717000  0.43017000  1.0
  C  C54  1  0.59611000  0.61946000  0.55672000  1.0
  C  C55  1  0.40389000  0.38056000  0.44327000  1.0
  C  C56  1  0.02866000  0.73866000  0.92269000  1.0
  C  C57  1  0.97135000  0.26134000  0.07731000  1.0
  C  C58  1  0.57435000  0.62487000  0.65610000  1.0
  C  C59  1  0.42565000  0.37516000  0.34389000  1.0
  C  C60  1  0.44042000  0.65183000  0.71181000  1.0
  C  C61  1  0.55959000  0.34819000  0.28816000  1.0
  C  C62  1  0.12797000  0.95654000  0.74467000  1.0
  C  C63  1  0.87202000  0.04345000  0.25532000  1.0
  C  C64  1  0.09458000  0.57226000  0.06179000  1.0
  C  C65  1  0.90541000  0.42772000  0.93820000  1.0
  C  C66  1  0.06475000  0.52567000  0.16979000  1.0
  C  C67  1  0.93525000  0.47433000  0.83021000  1.0
  C  C68  1  0.20558000  0.49774000  0.00000000  1.0
  C  C69  1  0.79440000  0.50225000  0.99999000  1.0
  C  C70  1  0.00557000  0.69231000  0.02246000  1.0
  C  C71  1  0.99443000  0.30768000  0.97754000  1.0
  C  C72  1  0.99600000  0.14818000  0.64398000  1.0
  C  C73  1  0.00399000  0.85181000  0.35601000  1.0
  C  C74  1  0.94859000  0.07846000  0.60748000  1.0
  C  C75  1  0.05141000  0.92153000  0.39250000  1.0
  C  C76  1  0.08328000  0.08703000  0.71463000  1.0
  C  C77  1  0.91670000  0.91297000  0.28536000  1.0
  C  C78  1  0.96328000  0.28614000  0.60159000  1.0
  C  C79  1  0.03671000  0.71386000  0.39842000  1.0
  C  C80  1  0.73897000  0.58787000  0.49534000  1.0
  C  C81  1  0.26105000  0.41213000  0.50466000  1.0
  C  C82  1  0.22631000  0.54178000  0.89938000  1.0
  C  C83  1  0.77368000  0.45821000  0.10061000  1.0
  C  C84  1  0.70703000  0.83169000  0.66604000  1.0
  C  C85  1  0.29298000  0.16831000  0.33398000  1.0
  C  C86  1  0.65685000  0.01570000  0.53594000  1.0
  C  C87  1  0.34314000  0.98429000  0.46408000  1.0
  C  C88  1  0.49778000  0.02004000  0.69709000  1.0
  C  C89  1  0.50224000  0.97996000  0.30294000  1.0
  N  N90  1  0.62240000  0.95071000  0.63428000  1.0
  N  N91  1  0.37761000  0.04929000  0.36574000  1.0
  O  O92  1  0.94021000  0.57280000  0.21421000  1.0
  O  O93  1  0.05979000  0.42722000  0.78580000  1.0
  O  O94  1  0.75604000  0.56725000  0.40992000  1.0
  O  O95  1  0.24397000  0.43274000  0.59007000  1.0
  O  O96  1  0.92633000  0.32376000  0.51794000  1.0
  O  O97  1  0.07366000  0.67625000  0.48206000  1.0
  O  O98  1  0.16365000  0.44092000  0.21397000  1.0
  O  O99  1  0.83635000  0.55908000  0.78603000  1.0
  O  O100  1  0.97970000  0.35099000  0.65082000  1.0
  O  O101  1  0.02028000  0.64900000  0.34921000  1.0
  O  O102  1  0.84019000  0.57888000  0.53120000  1.0
  O  O103  1  0.15982000  0.42113000  0.46879000  1.0
  O  O104  1  0.06810000  0.67168000  0.68795000  1.0
  O  O105  1  0.93190000  0.32832000  0.31205000  1.0
  O  O106  1  0.81607000  0.77057000  0.61501000  1.0
  O  O107  1  0.18393000  0.22942000  0.38500000  1.0
