# generated using pymatgen
data_AlH2C10SCl3O5
_symmetry_space_group_name_H-M   'P 1'
_cell_length_a   6.59218000
_cell_length_b   11.08407408
_cell_length_c   12.71330000
_cell_angle_alpha   92.23815770
_cell_angle_beta   104.90290000
_cell_angle_gamma   106.17792301
_symmetry_Int_Tables_number   1
_chemical_formula_structural   AlH2C10SCl3O5
_chemical_formula_sum   'Al2 H4 C20 S2 Cl6 O10'
_cell_volume   855.98804330
_cell_formula_units_Z   2
loop_
 _symmetry_equiv_pos_site_id
 _symmetry_equiv_pos_as_xyz
  1  'x, y, z'
loop_
 _atom_site_type_symbol
 _atom_site_label
 _atom_site_symmetry_multiplicity
 _atom_site_fract_x
 _atom_site_fract_y
 _atom_site_fract_z
 _atom_site_occupancy
  Al  Al0  1  0.01129000  0.50243000  0.49836000  1.0
  Al  Al1  1  0.50872000  0.49825000  0.49747000  1.0
  H  H2  1  0.37113000  0.65519000  0.56830000  1.0
  H  H3  1  0.65939000  0.42172000  0.36507000  1.0
  H  H4  1  0.52193000  0.75568000  0.36450000  1.0
  H  H5  1  0.75192000  0.22411000  0.37858000  1.0
  C  C6  1  0.87367000  0.72697000  0.49353000  1.0
  C  C7  1  0.85069000  0.50643000  0.69172000  1.0
  C  C8  1  0.14404000  0.27718000  0.50495000  1.0
  C  C9  1  0.16506000  0.48846000  0.30001000  1.0
  C  C10  1  0.12231000  0.55154000  0.88592000  1.0
  C  C11  1  0.89320000  0.43887000  0.10559000  1.0
  C  C12  1  0.91565000  0.50341000  0.81065000  1.0
  C  C13  1  0.09980000  0.48724000  0.18081000  1.0
  C  C14  1  0.90102000  0.46215000  0.99782000  1.0
  C  C15  1  0.11375000  0.52775000  0.99348000  1.0
  C  C16  1  0.93899000  0.86836000  0.49592000  1.0
  C  C17  1  0.78962000  0.92840000  0.43367000  1.0
  C  C18  1  0.14457000  0.94094000  0.56069000  1.0
  C  C19  1  0.57579000  0.85816000  0.36869000  1.0
  C  C20  1  0.43039000  0.91773000  0.31247000  1.0
  C  C21  1  0.07201000  0.13565000  0.50200000  1.0
  C  C22  1  0.21239000  0.07504000  0.56309000  1.0
  C  C23  1  0.85659000  0.06365000  0.43722000  1.0
  C  C24  1  0.70575000  0.12190000  0.37589000  1.0
  C  C25  1  0.49665000  0.05183000  0.31614000  1.0
  S  S26  1  0.71141000  0.43052000  0.87130000  1.0
  S  S27  1  0.30361000  0.55919000  0.11972000  1.0
  Cl  Cl28  1  0.36032000  0.63297000  0.85884000  1.0
  Cl  Cl29  1  0.65695000  0.35519000  0.13368000  1.0
  Cl  Cl30  1  0.46566000  0.16036000  0.64740000  1.0
  Cl  Cl31  1  0.31814000  0.87231000  0.64604000  1.0
  Cl  Cl32  1  0.16865000  0.82939000  0.23917000  1.0
  Cl  Cl33  1  0.31572000  0.12776000  0.24751000  1.0
  O  O34  1  0.00266000  0.67138000  0.46900000  1.0
  O  O35  1  0.64464000  0.47769000  0.64459000  1.0
  O  O36  1  0.31942000  0.32767000  0.47892000  1.0
  O  O37  1  0.01439000  0.46293000  0.34869000  1.0
  O  O38  1  0.01955000  0.33570000  0.53021000  1.0
  O  O39  1  0.37223000  0.51643000  0.34630000  1.0
  O  O40  1  0.69541000  0.67413000  0.51690000  1.0
  O  O41  1  0.00237000  0.53723000  0.64431000  1.0
  O  O42  1  0.31437000  0.56494000  0.54422000  1.0
  O  O43  1  0.70622000  0.44047000  0.44445000  1.0
