# generated using pymatgen
data_PrH19C15S6(N3O4)2
_symmetry_space_group_name_H-M   'P 1'
_cell_length_a   8.61834000
_cell_length_b   12.31750000
_cell_length_c   14.37428612
_cell_angle_alpha   64.80299117
_cell_angle_beta   88.87005318
_cell_angle_gamma   73.98710000
_symmetry_Int_Tables_number   1
_chemical_formula_structural   PrH19C15S6(N3O4)2
_chemical_formula_sum   'Pr2 H38 C30 S12 N12 O16'
_cell_volume   1318.75363416
_cell_formula_units_Z   2
loop_
 _symmetry_equiv_pos_site_id
 _symmetry_equiv_pos_as_xyz
  1  'x, y, z'
loop_
 _atom_site_type_symbol
 _atom_site_label
 _atom_site_symmetry_multiplicity
 _atom_site_fract_x
 _atom_site_fract_y
 _atom_site_fract_z
 _atom_site_occupancy
  Pr  Pr0  1  0.75222000  0.00141000  0.01224000  1.0
  Pr  Pr1  1  0.24778000  0.99859000  0.98776000  1.0
  H  H2  1  0.21483000  0.33426000  0.82303000  1.0
  H  H3  1  0.78518000  0.66573000  0.17698000  1.0
  H  H4  1  0.36471000  0.37193000  0.73711000  1.0
  H  H5  1  0.63529000  0.62807000  0.26289000  1.0
  H  H6  1  0.08179000  0.43589000  0.24807000  1.0
  H  H7  1  0.91821000  0.56411000  0.75193000  1.0
  H  H8  1  0.09221000  0.59217000  0.17519000  1.0
  H  H9  1  0.90780000  0.40783000  0.82481000  1.0
  H  H10  1  0.26924000  0.47191000  0.24946000  1.0
  H  H11  1  0.73076000  0.52809000  0.75054000  1.0
  H  H12  1  0.54046000  0.29955000  0.15592000  1.0
  H  H13  1  0.45955000  0.70045000  0.84408000  1.0
  H  H14  1  0.74739000  0.24649000  0.21154000  1.0
  H  H15  1  0.25262000  0.75349000  0.78847000  1.0
  H  H16  1  0.18605000  0.71338000  0.58357000  1.0
  H  H17  1  0.81394000  0.28663000  0.41643000  1.0
  H  H18  1  0.01937000  0.65101000  0.60875000  1.0
  H  H19  1  0.98063000  0.34899000  0.39125000  1.0
  H  H20  1  0.04846000  0.74298000  0.67096000  1.0
  H  H21  1  0.95153000  0.25702000  0.32904000  1.0
  H  H22  1  0.19758000  0.81393000  0.29895000  1.0
  H  H23  1  0.80242000  0.18608000  0.70105000  1.0
  H  H24  1  0.25899000  0.71083000  0.23946000  1.0
  H  H25  1  0.74101000  0.28918000  0.76054000  1.0
  H  H26  1  0.70460000  0.16661000  0.56182000  1.0
  H  H27  1  0.29540000  0.83341000  0.43816000  1.0
  H  H28  1  0.52787000  0.11704000  0.56494000  1.0
  H  H29  1  0.47213000  0.88298000  0.43504000  1.0
  H  H30  1  0.57213000  0.16274000  0.65933000  1.0
  H  H31  1  0.42788000  0.83726000  0.34066000  1.0
  H  H32  1  0.87778000  0.74114000  0.99533000  1.0
  H  H33  1  0.12221000  0.25886000  0.00467000  1.0
  H  H34  1  0.02080000  0.81019000  0.95797000  1.0
  H  H35  1  0.97920000  0.18981000  0.04202000  1.0
  H  H36  1  0.76306000  0.94132000  0.83352000  1.0
  H  H37  1  0.23694000  0.05868000  0.16648000  1.0
  H  H38  1  0.57427000  0.97332000  0.83697000  1.0
  H  H39  1  0.42573000  0.02669000  0.16302000  1.0
  C  C40  1  0.46648000  0.23237000  0.88975000  1.0
  C  C41  1  0.53352000  0.76762000  0.11025000  1.0
  C  C42  1  0.33481000  0.34914000  0.81691000  1.0
  C  C43  1  0.66520000  0.65085000  0.18309000  1.0
  C  C44  1  0.26940000  0.45709000  0.95146000  1.0
  C  C45  1  0.73060000  0.54290000  0.04854000  1.0
  C  C46  1  0.19479000  0.46343000  0.11182000  1.0
  C  C47  1  0.80522000  0.53657000  0.88818000  1.0
  C  C48  1  0.15779000  0.49225000  0.20147000  1.0
  C  C49  1  0.84222000  0.50775000  0.79853000  1.0
  C  C50  1  0.68671000  0.13584000  0.14328000  1.0
  C  C51  1  0.31329000  0.86416000  0.85672000  1.0
  C  C52  1  0.64316000  0.21640000  0.20146000  1.0
  C  C53  1  0.35684000  0.78359000  0.79855000  1.0
  C  C54  1  0.74784000  0.02633000  0.39066000  1.0
  C  C55  1  0.25213000  0.97367000  0.60934000  1.0
  C  C56  1  0.95650000  0.84774000  0.51082000  1.0
  C  C57  1  0.04349000  0.15226000  0.48918000  1.0
  C  C58  1  0.05846000  0.73282000  0.59860000  1.0
  C  C59  1  0.94154000  0.26718000  0.40141000  1.0
  C  C60  1  0.01763000  0.83868000  0.18725000  1.0
  C  C61  1  0.98237000  0.16133000  0.81274000  1.0
  C  C62  1  0.15710000  0.75476000  0.27128000  1.0
  C  C63  1  0.84290000  0.24524000  0.72873000  1.0
  C  C64  1  0.27722000  0.51439000  0.42103000  1.0
  C  C65  1  0.72277000  0.48561000  0.57897000  1.0
  C  C66  1  0.48095000  0.31507000  0.50912000  1.0
  C  C67  1  0.51906000  0.68495000  0.49088000  1.0
  C  C68  1  0.57709000  0.18395000  0.57716000  1.0
  C  C69  1  0.42291000  0.81606000  0.42283000  1.0
  S  S70  1  0.33451000  0.48846000  0.83026000  1.0
  S  S71  1  0.66550000  0.51154000  0.16974000  1.0
  S  S72  1  0.28939000  0.54993000  0.01079000  1.0
  S  S73  1  0.71062000  0.45006000  0.98921000  1.0
  S  S74  1  0.56977000  0.14417000  0.32457000  1.0
  S  S75  1  0.43021000  0.85583000  0.67543000  1.0
  S  S76  1  0.75118000  0.91385000  0.51557000  1.0
  S  S77  1  0.24882000  0.08617000  0.48445000  1.0
  S  S78  1  0.09586000  0.63505000  0.37759000  1.0
  S  S79  1  0.90414000  0.36495000  0.62241000  1.0
  S  S80  1  0.27977000  0.37447000  0.52635000  1.0
  S  S81  1  0.72021000  0.62552000  0.47362000  1.0
  N  N82  1  0.20099000  0.36975000  0.00762000  1.0
  N  N83  1  0.79901000  0.63024000  0.99238000  1.0
  N  N84  1  0.15882000  0.37388000  0.09875000  1.0
  N  N85  1  0.84118000  0.62612000  0.90125000  1.0
  N  N86  1  0.88908000  0.01176000  0.35344000  1.0
  N  N87  1  0.11088000  0.98820000  0.64656000  1.0
  N  N88  1  0.00673000  0.90979000  0.42262000  1.0
  N  N89  1  0.99324000  0.09019000  0.57737000  1.0
  N  N90  1  0.41668000  0.51150000  0.38114000  1.0
  N  N91  1  0.58333000  0.48853000  0.61889000  1.0
  N  N92  1  0.53202000  0.39706000  0.43207000  1.0
  N  N93  1  0.46800000  0.60299000  0.56795000  1.0
  O  O94  1  0.60852000  0.23764000  0.90095000  1.0
  O  O95  1  0.39149000  0.76234000  0.09906000  1.0
  O  O96  1  0.43026000  0.12938000  0.93600000  1.0
  O  O97  1  0.56975000  0.87061000  0.06399000  1.0
  O  O98  1  0.59600000  0.07079000  0.14090000  1.0
  O  O99  1  0.40400000  0.92919000  0.85911000  1.0
  O  O100  1  0.81016000  0.13981000  0.09385000  1.0
  O  O101  1  0.18984000  0.86019000  0.90615000  1.0
  O  O102  1  0.05086000  0.92027000  0.10338000  1.0
  O  O103  1  0.94914000  0.07973000  0.89662000  1.0
  O  O104  1  0.87524000  0.83067000  0.19828000  1.0
  O  O105  1  0.12477000  0.16934000  0.80171000  1.0
  O  O106  1  0.91993000  0.81093000  0.99185000  1.0
  O  O107  1  0.08007000  0.18907000  0.00815000  1.0
  O  O108  1  0.66925000  0.00473000  0.83720000  1.0
  O  O109  1  0.33075000  0.99528000  0.16279000  1.0
