# generated using pymatgen
data_Al6H70C85O28
_symmetry_space_group_name_H-M   'P 1'
_cell_length_a   12.72870000
_cell_length_b   12.92485662
_cell_length_c   28.42470000
_cell_angle_alpha   89.65204767
_cell_angle_beta   89.98720000
_cell_angle_gamma   119.32100233
_symmetry_Int_Tables_number   1
_chemical_formula_structural   Al6H70C85O28
_chemical_formula_sum   'Al6 H70 C85 O28'
_cell_volume   4077.14686620
_cell_formula_units_Z   1
loop_
 _symmetry_equiv_pos_site_id
 _symmetry_equiv_pos_as_xyz
  1  'x, y, z'
loop_
 _atom_site_type_symbol
 _atom_site_label
 _atom_site_symmetry_multiplicity
 _atom_site_fract_x
 _atom_site_fract_y
 _atom_site_fract_z
 _atom_site_occupancy
  Al  Al0  1  0.40671000  0.58706000  0.50063000  1.0
  Al  Al1  1  0.41992000  0.34500000  0.50012000  1.0
  Al  Al2  1  0.65257000  0.57507000  0.50133000  1.0
  Al  Al3  1  0.93005000  0.08176000  0.99808000  1.0
  Al  Al4  1  0.67975000  0.08663000  0.00018000  1.0
  Al  Al5  1  0.90965000  0.31993000  0.99923000  1.0
  H  H6  1  0.46450000  0.23621000  0.21658000  1.0
  H  H7  1  0.86469000  0.89650000  0.29256000  1.0
  H  H8  1  0.87291000  0.93229000  0.21131000  1.0
  H  H9  1  0.82097000  0.03447000  0.22067000  1.0
  H  H10  1  0.48390000  0.77530000  0.29182000  1.0
  H  H11  1  0.58671000  0.92632000  0.30176000  1.0
  H  H12  1  0.49254000  0.81347000  0.21069000  1.0
  H  H13  1  0.55999000  0.63007000  0.27826000  1.0
  H  H14  1  0.56733000  0.66624000  0.19723000  1.0
  H  H15  1  0.59661000  0.96421000  0.22060000  1.0
  H  H16  1  0.27765000  0.52169000  0.20453000  1.0
  H  H17  1  0.54028000  0.12911000  0.28603000  1.0
  H  H18  1  0.31906000  0.52500000  0.28514000  1.0
  H  H19  1  0.99845000  0.28795000  0.30393000  1.0
  H  H20  1  0.09524000  0.44253000  0.29855000  1.0
  H  H21  1  0.05198000  0.42871000  0.21784000  1.0
  H  H22  1  0.96346000  0.27305000  0.22263000  1.0
  H  H23  1  0.23886000  0.20461000  0.28335000  1.0
  H  H24  1  0.08288000  0.14729000  0.29209000  1.0
  H  H25  1  0.21385000  0.20646000  0.20153000  1.0
  H  H26  1  0.37614000  0.42663000  0.27623000  1.0
  H  H27  1  0.34343000  0.43075000  0.19535000  1.0
  H  H28  1  0.57498000  0.45142000  0.26760000  1.0
  H  H29  1  0.05718000  0.14177000  0.21029000  1.0
  H  H30  1  0.75395000  0.50141000  0.79261000  1.0
  H  H31  1  0.71037000  0.51256000  0.71306000  1.0
  H  H32  1  0.78407000  0.26622000  0.69609000  1.0
  H  H33  1  0.84740000  0.42028000  0.70567000  1.0
  H  H34  1  0.86134000  0.38168000  0.78554000  1.0
  H  H35  1  0.77497000  0.22703000  0.77689000  1.0
  H  H36  1  0.46223000  0.19576000  0.70969000  1.0
  H  H37  1  0.55824000  0.13343000  0.70699000  1.0
  H  H38  1  0.47393000  0.20704000  0.79202000  1.0
  H  H39  1  0.79202000  0.52475000  0.21700000  1.0
  H  H40  1  0.55500000  0.41692000  0.72239000  1.0
  H  H41  1  0.59699000  0.43066000  0.80297000  1.0
  H  H42  1  0.54563000  0.12016000  0.78951000  1.0
  H  H43  1  0.48418000  0.79407000  0.78762000  1.0
  H  H44  1  0.47470000  0.74327000  0.70898000  1.0
  H  H45  1  0.75368000  0.02346000  0.68863000  1.0
  H  H46  1  0.59575000  0.95422000  0.69599000  1.0
  H  H47  1  0.63027000  0.01214000  0.77504000  1.0
  H  H48  1  0.78560000  0.06009000  0.76936000  1.0
  H  H49  1  0.78164000  0.75366000  0.71315000  1.0
  H  H50  1  0.86787000  0.41750000  0.28637000  1.0
  H  H51  1  0.85993000  0.90882000  0.70694000  1.0
  H  H52  1  0.76118000  0.76522000  0.79499000  1.0
  H  H53  1  0.53813000  0.69502000  0.80129000  1.0
  H  H54  1  0.86561000  0.91772000  0.78955000  1.0
  H  H55  1  0.23167000  0.22329000  0.80050000  1.0
  H  H56  1  0.24187000  0.20844000  0.71859000  1.0
  H  H57  1  0.97699000  0.25100000  0.69853000  1.0
  H  H58  1  0.02458000  0.14384000  0.70320000  1.0
  H  H59  1  0.00928000  0.14270000  0.78556000  1.0
  H  H60  1  0.75733000  0.20223000  0.23544000  1.0
  H  H61  1  0.95019000  0.24042000  0.78029000  1.0
  H  H62  1  0.27969000  0.51723000  0.70779000  1.0
  H  H63  1  0.12577000  0.46715000  0.69849000  1.0
  H  H64  1  0.24901000  0.51968000  0.78917000  1.0
  H  H65  1  0.35205000  0.35980000  0.71684000  1.0
  H  H66  1  0.33075000  0.37795000  0.79786000  1.0
  H  H67  1  0.09382000  0.46478000  0.77981000  1.0
  H  H68  1  0.72338000  0.71526000  0.19706000  1.0
  H  H69  1  0.71627000  0.67960000  0.27826000  1.0
  H  H70  1  0.81199000  0.99824000  0.30186000  1.0
  H  H71  1  0.52329000  0.58616000  0.68424000  1.0
  H  H72  1  0.60440000  0.60603000  0.73755000  1.0
  H  H73  1  0.44722000  0.54992000  0.73959000  1.0
  H  H74  1  0.28298000  0.66104000  0.47314000  1.0
  H  H75  1  0.01824000  0.97117000  0.02563000  1.0
  C  C76  1  0.28317000  0.37938000  0.43307000  1.0
  C  C77  1  0.63815000  0.36612000  0.39015000  1.0
  C  C78  1  0.71673000  0.25782000  0.24308000  1.0
  C  C79  1  0.67484000  0.31745000  0.20348000  1.0
  C  C80  1  0.77832000  0.37729000  0.27055000  1.0
  C  C81  1  0.65764000  0.33657000  0.29952000  1.0
  C  C82  1  0.73612000  0.43690000  0.23264000  1.0
  C  C83  1  0.61553000  0.39591000  0.25993000  1.0
  C  C84  1  0.68588000  0.30536000  0.15452000  1.0
  C  C85  1  0.64774000  0.35078000  0.34839000  1.0
  C  C86  1  0.64810000  0.70389000  0.26771000  1.0
  C  C87  1  0.61296000  0.39253000  0.43645000  1.0
  C  C88  1  0.79566000  0.91937000  0.28176000  1.0
  C  C89  1  0.80122000  0.94312000  0.22815000  1.0
  C  C90  1  0.69446000  0.90344000  0.11296000  1.0
  C  C91  1  0.67025000  0.81579000  0.29548000  1.0
  C  C92  1  0.65296000  0.72768000  0.21417000  1.0
  C  C93  1  0.67928000  0.85644000  0.20488000  1.0
  C  C94  1  0.57836000  0.87325000  0.22787000  1.0
  C  C95  1  0.57253000  0.84855000  0.28138000  1.0
  C  C96  1  0.68615000  0.88025000  0.15475000  1.0
  C  C97  1  0.66246000  0.78915000  0.34539000  1.0
  C  C98  1  0.61648000  0.70901000  0.43303000  1.0
  C  C99  1  0.64945000  0.76099000  0.38673000  1.0
  C  C100  1  0.29854000  0.43982000  0.26931000  1.0
  C  C101  1  0.07667000  0.35618000  0.28450000  1.0
  C  C102  1  0.05206000  0.34866000  0.23102000  1.0
  C  C103  1  0.09975000  0.31708000  0.11249000  1.0
  C  C104  1  0.18677000  0.33908000  0.29461000  1.0
  C  C105  1  0.27477000  0.43894000  0.21591000  1.0
  C  C106  1  0.14944000  0.33345000  0.20399000  1.0
  C  C107  1  0.14436000  0.21663000  0.22060000  1.0
  C  C108  1  0.16262000  0.21846000  0.27443000  1.0
  C  C109  1  0.27880000  0.37782000  0.56593000  1.0
  C  C110  1  0.12563000  0.32811000  0.15397000  1.0
  C  C111  1  0.21039000  0.34547000  0.34466000  1.0
  C  C112  1  0.23435000  0.35455000  0.38631000  1.0
  C  C113  1  0.64464000  0.42762000  0.72903000  1.0
  C  C114  1  0.77378000  0.33279000  0.71642000  1.0
  C  C115  1  0.77780000  0.31189000  0.76994000  1.0
  C  C116  1  0.69215000  0.29158000  0.88784000  1.0
  C  C117  1  0.65225000  0.32555000  0.70367000  1.0
  C  C118  1  0.66729000  0.42550000  0.78237000  1.0
  C  C119  1  0.66855000  0.30961000  0.79527000  1.0
  C  C120  1  0.60395000  0.38524000  0.56617000  1.0
  C  C121  1  0.55113000  0.20298000  0.77670000  1.0
  C  C122  1  0.54840000  0.20614000  0.72228000  1.0
  C  C123  1  0.68017000  0.30032000  0.84577000  1.0
  C  C124  1  0.64185000  0.33955000  0.65340000  1.0
  C  C125  1  0.63065000  0.35679000  0.61202000  1.0
  C  C126  1  0.54956000  0.73834000  0.72625000  1.0
  C  C127  1  0.67771000  0.95618000  0.70933000  1.0
  C  C128  1  0.69529000  0.98594000  0.76237000  1.0
  C  C129  1  0.69548000  0.92112000  0.88321000  1.0
  C  C130  1  0.66728000  0.83324000  0.70103000  1.0
  C  C131  1  0.61858000  0.71547000  0.56573000  1.0
  C  C132  1  0.55439000  0.77118000  0.77889000  1.0
  C  C133  1  0.67864000  0.87692000  0.79127000  1.0
  C  C134  1  0.77837000  0.84740000  0.77680000  1.0
  C  C135  1  0.77944000  0.83459000  0.72291000  1.0
  C  C136  1  0.68602000  0.90127000  0.84124000  1.0
  C  C137  1  0.65900000  0.80558000  0.65132000  1.0
  C  C138  1  0.64804000  0.77378000  0.61060000  1.0
  C  C139  1  0.26036000  0.29761000  0.72892000  1.0
  C  C140  1  0.04124000  0.23035000  0.71632000  1.0
  C  C141  1  0.02659000  0.22807000  0.77043000  1.0
  C  C142  1  0.59623000  0.21698000  0.27044000  1.0
  C  C143  1  0.09910000  0.31908000  0.88559000  1.0
  C  C144  1  0.17046000  0.32596000  0.70260000  1.0
  C  C145  1  0.24808000  0.30558000  0.78268000  1.0
  C  C146  1  0.14196000  0.32824000  0.79355000  1.0
  C  C147  1  0.16917000  0.44887000  0.77180000  1.0
  C  C148  1  0.18893000  0.44855000  0.71822000  1.0
  C  C149  1  0.12148000  0.32570000  0.84378000  1.0
  C  C150  1  0.19275000  0.32943000  0.65250000  1.0
  C  C151  1  0.22170000  0.34268000  0.61126000  1.0
  C  C152  1  0.71951000  0.95202000  0.06601000  1.0
  C  C153  1  0.55407000  0.27653000  0.23244000  1.0
  C  C154  1  0.72331000  0.27098000  0.06577000  1.0
  C  C155  1  0.04891000  0.28645000  0.06612000  1.0
  C  C156  1  0.72281000  0.96270000  0.93084000  1.0
  C  C157  1  0.71769000  0.26930000  0.93492000  1.0
  C  C158  1  0.05059000  0.29202000  0.93251000  1.0
  C  C159  1  0.69786000  0.29423000  0.11257000  1.0
  C  C160  1  0.53013000  0.61305000  0.72118000  1.0
  O  O161  1  0.51139000  0.67979000  0.44698000  1.0
  O  O162  1  0.50156000  0.31209000  0.54867000  1.0
  O  O163  1  0.68096000  0.48362000  0.54729000  1.0
  O  O164  1  0.69470000  0.68639000  0.54879000  1.0
  O  O165  1  0.49397000  0.50126000  0.50041000  1.0
  O  O166  1  0.02420000  0.18538000  0.05111000  1.0
  O  O167  1  0.81896000  0.97454000  0.04779000  1.0
  O  O168  1  0.63958000  0.97341000  0.04736000  1.0
  O  O169  1  0.64779000  0.17230000  0.04731000  1.0
  O  O170  1  0.82272000  0.34844000  0.04706000  1.0
  O  O171  1  0.02825000  0.36309000  0.04478000  1.0
  O  O172  1  0.29925000  0.47410000  0.45203000  1.0
  O  O173  1  0.03340000  0.19544000  0.95043000  1.0
  O  O174  1  0.82601000  0.98888000  0.94593000  1.0
  O  O175  1  0.64102000  0.97381000  0.95356000  1.0
  O  O176  1  0.64275000  0.17015000  0.95392000  1.0
  O  O177  1  0.81639000  0.34705000  0.95344000  1.0
  O  O178  1  0.02354000  0.36657000  0.95146000  1.0
  O  O179  1  0.83856000  0.16370000  0.99947000  1.0
  O  O180  1  0.31147000  0.30416000  0.45073000  1.0
  O  O181  1  0.51445000  0.31588000  0.45585000  1.0
  O  O182  1  0.68788000  0.49317000  0.45384000  1.0
  O  O183  1  0.69527000  0.69252000  0.45550000  1.0
  O  O184  1  0.51918000  0.69297000  0.54767000  1.0
  O  O185  1  0.31109000  0.48253000  0.55268000  1.0
  O  O186  1  0.29685000  0.30104000  0.54365000  1.0
  O  O187  1  0.32801000  0.66643000  0.50125000  1.0
  O  O188  1  0.01321000  0.00695000  0.99638000  1.0
