# generated using pymatgen
data_ZnH10C13N10
_symmetry_space_group_name_H-M   'P 1'
_cell_length_a   8.85033000
_cell_length_b   12.11020000
_cell_length_c   15.97600000
_cell_angle_alpha   107.11800000
_cell_angle_beta   90.00000000
_cell_angle_gamma   111.43200000
_symmetry_Int_Tables_number   1
_chemical_formula_structural   ZnH10C13N10
_chemical_formula_sum   'Zn4 H40 C52 N40'
_cell_volume   1512.11231678
_cell_formula_units_Z   4
loop_
 _symmetry_equiv_pos_site_id
 _symmetry_equiv_pos_as_xyz
  1  'x, y, z'
loop_
 _atom_site_type_symbol
 _atom_site_label
 _atom_site_symmetry_multiplicity
 _atom_site_fract_x
 _atom_site_fract_y
 _atom_site_fract_z
 _atom_site_occupancy
  Zn  Zn0  1  0.44318000  0.56488000  0.90122000  1.0
  Zn  Zn1  1  0.87820000  0.43509000  0.59877000  1.0
  Zn  Zn2  1  0.55682000  0.43512000  0.09878000  1.0
  Zn  Zn3  1  0.12180000  0.56491000  0.40123000  1.0
  H  H4  1  0.41348000  0.29161000  0.71967000  1.0
  H  H5  1  0.12191000  0.70827000  0.78027000  1.0
  H  H6  1  0.58652000  0.70839000  0.28033000  1.0
  H  H7  1  0.87809000  0.29173000  0.21974000  1.0
  H  H8  1  0.21543000  0.17153000  0.70429000  1.0
  H  H9  1  0.04420000  0.82849000  0.79570000  1.0
  H  H10  1  0.78457000  0.82847000  0.29571000  1.0
  H  H11  1  0.95580000  0.17151000  0.20430000  1.0
  H  H12  1  0.59530000  0.75125000  0.79699000  1.0
  H  H13  1  0.84385000  0.24845000  0.70283000  1.0
  H  H14  1  0.40470000  0.24875000  0.20301000  1.0
  H  H15  1  0.15615000  0.75155000  0.29717000  1.0
  H  H16  1  0.55829000  0.93139000  0.76942000  1.0
  H  H17  1  0.62636000  0.06846000  0.73050000  1.0
  H  H18  1  0.44171000  0.06860000  0.23057000  1.0
  H  H19  1  0.37364000  0.93154000  0.26950000  1.0
  H  H20  1  0.37759000  0.02774000  0.86302000  1.0
  H  H21  1  0.34927000  0.97241000  0.63704000  1.0
  H  H22  1  0.62241000  0.97225000  0.13698000  1.0
  H  H23  1  0.65073000  0.02759000  0.36296000  1.0
  H  H24  1  0.24094000  0.93300000  0.97357000  1.0
  H  H25  1  0.30757000  0.06718000  0.52646000  1.0
  H  H26  1  0.75905000  0.06699000  0.02643000  1.0
  H  H27  1  0.69243000  0.93283000  0.47355000  1.0
  H  H28  1  0.13473000  0.84550000  0.06359000  1.0
  H  H29  1  0.28891000  0.15474000  0.43648000  1.0
  H  H30  1  0.86528000  0.15450000  0.93641000  1.0
  H  H31  1  0.71109000  0.84527000  0.56352000  1.0
  H  H32  1  0.00111000  0.72274000  0.16128000  1.0
  H  H33  1  0.27838000  0.27745000  0.33868000  1.0
  H  H34  1  0.99889000  0.27726000  0.83872000  1.0
  H  H35  1  0.72162000  0.72255000  0.66132000  1.0
  H  H36  1  0.04943000  0.52712000  0.15295000  1.0
  H  H37  1  0.52255000  0.47293000  0.34698000  1.0
  H  H38  1  0.95058000  0.47289000  0.84705000  1.0
  H  H39  1  0.47745000  0.52707000  0.65302000  1.0
  H  H40  1  0.22461000  0.46134000  0.04166000  1.0
  H  H41  1  0.76332000  0.53868000  0.45840000  1.0
  H  H42  1  0.77539000  0.53866000  0.95834000  1.0
  H  H43  1  0.23668000  0.46132000  0.54161000  1.0
  C  C44  1  0.21951000  0.35500000  0.72974000  1.0
  C  C45  1  0.86461000  0.64503000  0.77024000  1.0
  C  C46  1  0.78049000  0.64500000  0.27026000  1.0
  C  C47  1  0.13539000  0.35497000  0.22976000  1.0
  C  C48  1  0.29231000  0.26757000  0.74341000  1.0
  C  C49  1  0.02488000  0.73241000  0.75656000  1.0
  C  C50  1  0.70769000  0.73243000  0.25659000  1.0
  C  C51  1  0.97512000  0.26759000  0.24345000  1.0
  C  C52  1  0.31412000  0.27378000  0.83747000  1.0
  C  C53  1  0.04044000  0.72618000  0.66249000  1.0
  C  C54  1  0.68588000  0.72622000  0.16253000  1.0
  C  C55  1  0.95956000  0.27382000  0.33752000  1.0
  C  C56  1  0.51554000  0.79271000  0.83368000  1.0
  C  C57  1  0.72256000  0.20715000  0.66623000  1.0
  C  C58  1  0.48446000  0.20729000  0.16632000  1.0
  C  C59  1  0.27744000  0.79285000  0.33377000  1.0
  C  C60  1  0.49668000  0.89553000  0.82029000  1.0
  C  C61  1  0.60072000  0.10444000  0.67968000  1.0
  C  C62  1  0.50332000  0.10446000  0.17970000  1.0
  C  C63  1  0.39928000  0.89556000  0.32032000  1.0
  C  C64  1  0.39797000  0.94796000  0.87163000  1.0
  C  C65  1  0.44953000  0.05211000  0.62840000  1.0
  C  C66  1  0.60203000  0.05204000  0.12837000  1.0
  C  C67  1  0.55047000  0.94789000  0.37160000  1.0
  C  C68  1  0.31936000  0.89344000  0.93342000  1.0
  C  C69  1  0.42557000  0.10662000  0.56656000  1.0
  C  C70  1  0.68064000  0.10656000  0.06658000  1.0
  C  C71  1  0.57443000  0.89338000  0.43344000  1.0
  C  C72  1  0.33919000  0.78699000  0.94092000  1.0
  C  C73  1  0.55196000  0.21297000  0.55902000  1.0
  C  C74  1  0.66081000  0.21301000  0.05908000  1.0
  C  C75  1  0.44805000  0.78704000  0.44098000  1.0
  C  C76  1  0.25251000  0.71857000  0.00087000  1.0
  C  C77  1  0.53377000  0.28143000  0.49908000  1.0
  C  C78  1  0.74749000  0.28143000  0.99912000  1.0
  C  C79  1  0.46623000  0.71857000  0.50092000  1.0
  C  C80  1  0.15394000  0.76063000  0.06034000  1.0
  C  C81  1  0.39315000  0.23949000  0.43964000  1.0
  C  C82  1  0.84606000  0.23937000  0.93966000  1.0
  C  C83  1  0.60685000  0.76051000  0.56036000  1.0
  C  C84  1  0.07946000  0.69177000  0.11550000  1.0
  C  C85  1  0.38771000  0.30835000  0.38445000  1.0
  C  C86  1  0.92054000  0.30823000  0.88450000  1.0
  C  C87  1  0.61229000  0.69165000  0.61555000  1.0
  C  C88  1  0.10522000  0.58328000  0.11081000  1.0
  C  C89  1  0.52207000  0.41677000  0.38914000  1.0
  C  C90  1  0.89478000  0.41672000  0.88919000  1.0
  C  C91  1  0.47793000  0.58323000  0.61086000  1.0
  C  C92  1  0.20240000  0.54629000  0.04895000  1.0
  C  C93  1  0.65617000  0.45372000  0.45104000  1.0
  C  C94  1  0.79761000  0.45371000  0.95105000  1.0
  C  C95  1  0.34383000  0.54628000  0.54897000  1.0
  N  N96  1  0.25898000  0.47339000  0.78337000  1.0
  N  N97  1  0.78565000  0.52665000  0.71660000  1.0
  N  N98  1  0.74102000  0.52661000  0.21663000  1.0
  N  N99  1  0.21435000  0.47335000  0.28340000  1.0
  N  N100  1  0.16594000  0.52009000  0.75002000  1.0
  N  N101  1  0.64591000  0.47997000  0.74996000  1.0
  N  N102  1  0.83406000  0.47991000  0.24998000  1.0
  N  N103  1  0.35409000  0.52003000  0.25004000  1.0
  N  N104  1  0.07482000  0.43173000  0.67848000  1.0
  N  N105  1  0.64322000  0.56834000  0.82152000  1.0
  N  N106  1  0.92518000  0.56827000  0.32152000  1.0
  N  N107  1  0.35677000  0.43166000  0.17848000  1.0
  N  N108  1  0.10552000  0.32681000  0.66346000  1.0
  N  N109  1  0.77887000  0.67324000  0.83653000  1.0
  N  N110  1  0.89448000  0.67319000  0.33654000  1.0
  N  N111  1  0.22112000  0.32676000  0.16347000  1.0
  N  N112  1  0.38271000  0.37942000  0.90602000  1.0
  N  N113  1  0.00333000  0.62055000  0.59393000  1.0
  N  N114  1  0.61729000  0.62058000  0.09398000  1.0
  N  N115  1  0.99667000  0.37945000  0.40607000  1.0
  N  N116  1  0.38188000  0.34024000  0.97724000  1.0
  N  N117  1  0.04165000  0.65973000  0.52272000  1.0
  N  N118  1  0.61812000  0.65976000  0.02276000  1.0
  N  N119  1  0.95835000  0.34027000  0.47728000  1.0
  N  N120  1  0.31609000  0.21711000  0.95232000  1.0
  N  N121  1  0.09903000  0.78286000  0.54765000  1.0
  N  N122  1  0.68391000  0.78289000  0.04768000  1.0
  N  N123  1  0.90097000  0.21714000  0.45236000  1.0
  N  N124  1  0.27174000  0.17266000  0.86471000  1.0
  N  N125  1  0.09920000  0.82730000  0.63526000  1.0
  N  N126  1  0.72826000  0.82734000  0.13529000  1.0
  N  N127  1  0.90080000  0.17270000  0.36474000  1.0
  N  N128  1  0.43869000  0.73947000  0.89202000  1.0
  N  N129  1  0.69901000  0.26042000  0.60788000  1.0
  N  N130  1  0.56131000  0.26053000  0.10798000  1.0
  N  N131  1  0.30099000  0.73958000  0.39212000  1.0
  N  N132  1  0.27314000  0.61158000  0.99517000  1.0
  N  N133  1  0.66149000  0.38838000  0.50480000  1.0
  N  N134  1  0.72686000  0.38842000  0.00483000  1.0
  N  N135  1  0.33851000  0.61163000  0.49520000  1.0
