# generated using pymatgen
data_ZnH15C19N5O4
_symmetry_space_group_name_H-M   'P 1'
_cell_length_a   11.08240000
_cell_length_b   15.95620000
_cell_length_c   17.29500000
_cell_angle_alpha   83.74960000
_cell_angle_beta   89.39680000
_cell_angle_gamma   86.69340000
_symmetry_Int_Tables_number   1
_chemical_formula_structural   ZnH15C19N5O4
_chemical_formula_sum   'Zn2 H30 C38 N10 O8'
_cell_volume   3035.05748977
_cell_formula_units_Z   2
loop_
 _symmetry_equiv_pos_site_id
 _symmetry_equiv_pos_as_xyz
  1  'x, y, z'
loop_
 _atom_site_type_symbol
 _atom_site_label
 _atom_site_symmetry_multiplicity
 _atom_site_fract_x
 _atom_site_fract_y
 _atom_site_fract_z
 _atom_site_occupancy
  Zn  Zn0  1  0.50554000  0.40960000  0.49558000  1.0
  Zn  Zn1  1  0.49616000  0.58911000  0.49275000  1.0
  H  H2  1  0.62346000  0.71309000  0.56063000  1.0
  H  H3  1  0.62614000  0.87079000  0.56221000  1.0
  H  H4  1  0.31704000  0.89534000  0.41024000  1.0
  H  H5  1  0.67136000  0.10277000  0.59146000  1.0
  H  H6  1  0.37419000  0.12678000  0.43012000  1.0
  H  H7  1  0.38175000  0.28495000  0.42701000  1.0
  H  H8  1  0.49136000  0.61974000  0.73352000  1.0
  H  H9  1  0.49287000  0.61637000  0.87917000  1.0
  H  H10  1  0.50580000  0.34538000  0.89845000  1.0
  H  H11  1  0.48621000  0.65897000  0.09032000  1.0
  H  H12  1  0.50751000  0.38791000  0.11007000  1.0
  H  H13  1  0.50989000  0.38494000  0.25564000  1.0
  H  H14  1  0.22309000  0.59980000  0.60052000  1.0
  H  H15  1  0.77571000  0.60154000  0.61174000  1.0
  H  H16  1  0.88989000  0.40164000  0.43317000  1.0
  H  H17  1  0.11585000  0.39719000  0.42997000  1.0
  H  H18  1  0.29092000  0.66440000  0.42796000  1.0
  H  H19  1  0.23345000  0.76238000  0.38494000  1.0
  H  H20  1  0.70444000  0.33277000  0.56914000  1.0
  H  H21  1  0.75482000  0.23516000  0.61735000  1.0
  H  H22  1  0.50082000  0.33417000  0.68885000  1.0
  H  H23  1  0.49528000  0.27708000  0.78177000  1.0
  H  H24  1  0.49409000  0.67108000  0.29946000  1.0
  H  H25  1  0.49561000  0.72773000  0.20633000  1.0
  H  H26  1  0.10426000  0.77074000  0.68910000  1.0
  H  H27  1  0.22857000  0.69450000  0.69194000  1.0
  H  H28  1  0.11262000  0.68584000  0.76371000  1.0
  H  H29  1  0.89246000  0.68723000  0.76982000  1.0
  H  H30  1  0.76615000  0.69256000  0.70668000  1.0
  H  H31  1  0.87495000  0.77100000  0.69454000  1.0
  C  C32  1  0.49502000  0.49366000  0.64713000  1.0
  C  C33  1  0.73891000  0.50147000  0.50451000  1.0
  C  C34  1  0.50372000  0.51122000  0.34197000  1.0
  C  C35  1  0.26287000  0.49123000  0.49616000  1.0
  C  C36  1  0.55676000  0.75624000  0.52889000  1.0
  C  C37  1  0.55892000  0.84247000  0.52962000  1.0
  C  C38  1  0.47045000  0.89307000  0.48524000  1.0
  C  C39  1  0.38525000  0.85574000  0.44415000  1.0
  C  C40  1  0.38657000  0.76657000  0.44832000  1.0
  C  C41  1  0.60629000  0.14228000  0.55485000  1.0
  C  C42  1  0.52331000  0.10482000  0.51220000  1.0
  C  C43  1  0.43943000  0.15536000  0.46403000  1.0
  C  C44  1  0.44432000  0.24170000  0.46219000  1.0
  C  C45  1  0.60759000  0.23145000  0.54838000  1.0
  C  C46  1  0.49816000  0.48556000  0.73325000  1.0
  C  C47  1  0.49494000  0.55999000  0.77081000  1.0
  C  C48  1  0.49546000  0.55879000  0.85074000  1.0
  C  C49  1  0.49887000  0.47965000  0.89630000  1.0
  C  C50  1  0.50253000  0.40516000  0.86106000  1.0
  C  C51  1  0.50309000  0.40568000  0.77940000  1.0
  C  C52  1  0.49151000  0.59925000  0.12779000  1.0
  C  C53  1  0.49713000  0.52466000  0.09266000  1.0
  C  C54  1  0.50323000  0.44561000  0.13837000  1.0
  C  C55  1  0.50428000  0.44464000  0.21830000  1.0
  C  C56  1  0.49925000  0.51913000  0.25575000  1.0
  C  C57  1  0.49164000  0.59892000  0.20943000  1.0
  C  C58  1  0.12833000  0.49406000  0.50527000  1.0
  C  C59  1  0.06518000  0.54954000  0.55362000  1.0
  C  C60  1  0.06545000  0.44033000  0.46478000  1.0
  C  C61  1  0.12473000  0.60068000  0.60190000  1.0
  C  C62  1  0.06265000  0.65070000  0.65125000  1.0
  C  C63  1  0.87380000  0.49803000  0.51014000  1.0
  C  C64  1  0.93873000  0.44248000  0.46690000  1.0
  C  C65  1  0.93541000  0.55086000  0.55649000  1.0
  C  C66  1  0.87385000  0.60201000  0.60822000  1.0
  C  C67  1  0.93356000  0.65099000  0.65483000  1.0
  C  C68  1  0.13077000  0.70301000  0.70144000  1.0
  C  C69  1  0.86301000  0.70301000  0.70914000  1.0
  N  N70  1  0.47427000  0.71848000  0.48923000  1.0
  N  N71  1  0.46004000  0.98265000  0.47811000  1.0
  N  N72  1  0.53256000  0.01517000  0.52052000  1.0
  N  N73  1  0.52501000  0.27970000  0.50312000  1.0
  N  N74  1  0.49920000  0.46811000  0.97861000  1.0
  N  N75  1  0.49646000  0.53609000  0.01037000  1.0
  N  N76  1  0.30318000  0.72718000  0.41120000  1.0
  N  N77  1  0.68891000  0.27071000  0.58734000  1.0
  N  N78  1  0.51080000  0.33089000  0.74761000  1.0
  N  N79  1  0.48161000  0.67394000  0.24094000  1.0
  O  O80  1  0.49660000  0.42593000  0.61302000  1.0
  O  O81  1  0.49057000  0.56802000  0.61094000  1.0
  O  O82  1  0.68224000  0.57324000  0.49789000  1.0
  O  O83  1  0.68988000  0.43069000  0.50449000  1.0
  O  O84  1  0.50452000  0.57931000  0.37548000  1.0
  O  O85  1  0.50704000  0.43711000  0.37851000  1.0
  O  O86  1  0.31787000  0.41921000  0.49683000  1.0
  O  O87  1  0.31356000  0.56184000  0.48721000  1.0
