# generated using pymatgen
data_YbH6C9O7
_symmetry_space_group_name_H-M   'P 1'
_cell_length_a   6.95306000
_cell_length_b   7.57130000
_cell_length_c   10.21020000
_cell_angle_alpha   75.71320000
_cell_angle_beta   71.07040000
_cell_angle_gamma   88.50220000
_symmetry_Int_Tables_number   1
_chemical_formula_structural   YbH6C9O7
_chemical_formula_sum   'Yb2 H12 C18 O14'
_cell_volume   491.85589846
_cell_formula_units_Z   2
loop_
 _symmetry_equiv_pos_site_id
 _symmetry_equiv_pos_as_xyz
  1  'x, y, z'
loop_
 _atom_site_type_symbol
 _atom_site_label
 _atom_site_symmetry_multiplicity
 _atom_site_fract_x
 _atom_site_fract_y
 _atom_site_fract_z
 _atom_site_occupancy
  Yb  Yb0  1  0.30664000  0.21813000  0.01867000  1.0
  Yb  Yb1  1  0.69337000  0.78187000  0.98133000  1.0
  H  H2  1  0.18034000  0.14584000  0.60229000  1.0
  H  H3  1  0.81965000  0.85416000  0.39772000  1.0
  H  H4  1  0.71257000  0.87038000  0.65058000  1.0
  H  H5  1  0.28742000  0.12961000  0.34942000  1.0
  H  H6  1  0.69086000  0.28931000  0.59389000  1.0
  H  H7  1  0.30913000  0.71069000  0.40611000  1.0
  H  H8  1  0.06310000  0.69430000  0.64854000  1.0
  H  H9  1  0.93689000  0.30570000  0.35146000  1.0
  H  H10  1  0.99688000  0.91734000  0.16229000  1.0
  H  H11  1  0.00312000  0.08266000  0.83771000  1.0
  H  H12  1  0.21901000  0.84507000  0.16170000  1.0
  H  H13  1  0.78099000  0.15493000  0.83830000  1.0
  C  C14  1  0.38184000  0.02640000  0.79288000  1.0
  C  C15  1  0.61816000  0.97360000  0.20712000  1.0
  C  C16  1  0.43921000  0.00771000  0.64344000  1.0
  C  C17  1  0.56079000  0.99228000  0.35656000  1.0
  C  C18  1  0.31992000  0.08150000  0.55774000  1.0
  C  C19  1  0.68007000  0.91850000  0.44227000  1.0
  C  C20  1  0.61996000  0.92684000  0.58431000  1.0
  C  C21  1  0.38004000  0.07315000  0.41569000  1.0
  C  C22  1  0.71448000  0.47834000  0.78243000  1.0
  C  C23  1  0.28552000  0.52165000  0.21757000  1.0
  C  C24  1  0.86164000  0.49021000  0.63626000  1.0
  C  C25  1  0.13836000  0.50979000  0.36374000  1.0
  C  C26  1  0.82712000  0.38050000  0.55270000  1.0
  C  C27  1  0.17287000  0.61951000  0.44730000  1.0
  C  C28  1  0.03535000  0.61040000  0.58293000  1.0
  C  C29  1  0.96464000  0.38960000  0.41707000  1.0
  C  C30  1  0.91675000  0.43379000  0.06070000  1.0
  C  C31  1  0.08328000  0.56622000  0.93930000  1.0
  O  O32  1  0.47895000  0.94980000  0.87593000  1.0
  O  O33  1  0.52104000  0.05020000  0.12407000  1.0
  O  O34  1  0.24104000  0.13394000  0.83430000  1.0
  O  O35  1  0.75896000  0.86606000  0.16570000  1.0
  O  O36  1  0.61621000  0.32441000  0.85230000  1.0
  O  O37  1  0.38380000  0.67558000  0.14770000  1.0
  O  O38  1  0.69692000  0.61781000  0.83118000  1.0
  O  O39  1  0.30308000  0.38219000  0.16882000  1.0
  O  O40  1  0.96672000  0.27186000  0.10022000  1.0
  O  O41  1  0.03330000  0.72815000  0.89977000  1.0
  O  O42  1  0.74709000  0.49827000  0.10988000  1.0
  O  O43  1  0.25293000  0.50174000  0.89011000  1.0
  O  O44  1  0.13488000  0.95336000  0.15972000  1.0
  O  O45  1  0.86512000  0.04664000  0.84028000  1.0
