# generated using pymatgen
data_ZnC16S2NCl6(O2F)2
_symmetry_space_group_name_H-M   'P 1'
_cell_length_a   12.62550000
_cell_length_b   12.62600000
_cell_length_c   38.25710000
_cell_angle_alpha   89.98860000
_cell_angle_beta   88.85720000
_cell_angle_gamma   89.94200000
_symmetry_Int_Tables_number   1
_chemical_formula_structural   ZnC16S2NCl6(O2F)2
_chemical_formula_sum   'Zn4 C64 S8 N4 Cl24 O16 F8'
_cell_volume   6097.33132523
_cell_formula_units_Z   4
loop_
 _symmetry_equiv_pos_site_id
 _symmetry_equiv_pos_as_xyz
  1  'x, y, z'
loop_
 _atom_site_type_symbol
 _atom_site_label
 _atom_site_symmetry_multiplicity
 _atom_site_fract_x
 _atom_site_fract_y
 _atom_site_fract_z
 _atom_site_occupancy
  Zn  Zn0  1  0.49839000  0.49902000  0.96009000  1.0
  Zn  Zn1  1  0.49918000  0.50339000  0.03993000  1.0
  Zn  Zn2  1  0.50172000  0.49909000  0.53989000  1.0
  Zn  Zn3  1  0.50090000  0.50352000  0.46005000  1.0
  C  C4  1  0.49969000  0.30093000  0.01420000  1.0
  C  C5  1  0.69953000  0.50067000  0.98534000  1.0
  C  C6  1  0.50179000  0.70317000  0.01135000  1.0
  C  C7  1  0.29702000  0.49805000  0.98908000  1.0
  C  C8  1  0.50051000  0.30103000  0.48578000  1.0
  C  C9  1  0.30057000  0.50087000  0.51465000  1.0
  C  C10  1  0.49816000  0.70329000  0.48864000  1.0
  C  C11  1  0.70306000  0.49798000  0.51087000  1.0
  C  C12  1  0.52947000  0.58228000  0.61888000  1.0
  C  C13  1  0.52757000  0.58590000  0.65565000  1.0
  C  C14  1  0.48013000  0.40594000  0.61876000  1.0
  C  C15  1  0.48099000  0.40088000  0.65548000  1.0
  C  C16  1  0.50366000  0.49314000  0.67437000  1.0
  C  C17  1  0.50193000  0.49285000  0.71319000  1.0
  C  C18  1  0.40489000  0.49413000  0.73177000  1.0
  C  C19  1  0.59708000  0.49163000  0.73158000  1.0
  C  C20  1  0.51991000  0.40591000  0.88132000  1.0
  C  C21  1  0.51905000  0.40090000  0.84459000  1.0
  C  C22  1  0.47054000  0.58235000  0.88119000  1.0
  C  C23  1  0.47257000  0.58604000  0.84442000  1.0
  C  C24  1  0.49645000  0.49324000  0.82571000  1.0
  C  C25  1  0.49819000  0.49296000  0.78688000  1.0
  C  C26  1  0.59525000  0.49404000  0.76830000  1.0
  C  C27  1  0.40305000  0.49187000  0.76850000  1.0
  C  C28  1  0.58509000  0.52858000  0.38065000  1.0
  C  C29  1  0.58965000  0.52660000  0.34389000  1.0
  C  C30  1  0.40833000  0.48045000  0.38171000  1.0
  C  C31  1  0.40432000  0.48111000  0.34499000  1.0
  C  C32  1  0.49718000  0.50361000  0.32564000  1.0
  C  C33  1  0.49808000  0.50341000  0.28683000  1.0
  C  C34  1  0.50027000  0.40731000  0.26837000  1.0
  C  C35  1  0.49779000  0.59951000  0.26834000  1.0
  C  C36  1  0.41499000  0.52817000  0.11933000  1.0
  C  C37  1  0.41043000  0.52628000  0.15609000  1.0
  C  C38  1  0.59190000  0.48031000  0.11829000  1.0
  C  C39  1  0.59595000  0.48110000  0.15501000  1.0
  C  C40  1  0.50300000  0.50351000  0.17434000  1.0
  C  C41  1  0.50209000  0.50337000  0.21316000  1.0
  C  C42  1  0.50208000  0.59949000  0.23162000  1.0
  C  C43  1  0.50020000  0.40728000  0.23164000  1.0
  C  C44  1  0.50471000  0.89136000  0.98474000  1.0
  C  C45  1  0.50208000  0.11391000  0.04267000  1.0
  C  C46  1  0.50364000  0.81988000  0.01217000  1.0
  C  C47  1  0.50137000  0.18428000  0.01487000  1.0
  C  C48  1  0.50337000  0.00656000  0.03212000  1.0
  C  C49  1  0.50419000  0.99809000  0.99553000  1.0
  C  C50  1  0.88874000  0.49744000  0.95709000  1.0
  C  C51  1  0.10691000  0.49803000  0.01545000  1.0
  C  C52  1  0.81623000  0.49962000  0.98475000  1.0
  C  C53  1  0.18040000  0.49695000  0.98814000  1.0
  C  C54  1  0.00099000  0.49819000  0.00446000  1.0
  C  C55  1  0.99530000  0.49671000  0.96785000  1.0
  C  C56  1  0.49519000  0.89143000  0.51524000  1.0
  C  C57  1  0.49806000  0.11406000  0.45730000  1.0
  C  C58  1  0.49628000  0.81999000  0.48780000  1.0
  C  C59  1  0.49880000  0.18439000  0.48510000  1.0
  C  C60  1  0.49662000  0.00668000  0.46785000  1.0
  C  C61  1  0.49576000  0.99817000  0.50444000  1.0
  C  C62  1  0.11140000  0.49735000  0.54288000  1.0
  C  C63  1  0.89326000  0.49810000  0.48451000  1.0
  C  C64  1  0.18390000  0.49972000  0.51523000  1.0
  C  C65  1  0.81972000  0.49688000  0.51181000  1.0
  C  C66  1  0.99916000  0.49824000  0.49552000  1.0
  C  C67  1  0.00483000  0.49662000  0.53213000  1.0
  S  S68  1  0.50279000  0.88471000  0.05248000  1.0
  S  S69  1  0.50242000  0.11892000  0.97480000  1.0
  S  S70  1  0.87853000  0.50114000  0.02494000  1.0
  S  S71  1  0.11874000  0.49552000  0.94771000  1.0
  S  S72  1  0.49719000  0.88483000  0.44750000  1.0
  S  S73  1  0.49762000  0.11897000  0.52517000  1.0
  S  S74  1  0.12160000  0.50133000  0.47504000  1.0
  S  S75  1  0.88137000  0.49533000  0.55225000  1.0
  N  N76  1  0.50465000  0.49451000  0.60127000  1.0
  N  N77  1  0.49537000  0.49451000  0.89880000  1.0
  N  N78  1  0.49647000  0.50491000  0.39873000  1.0
  N  N79  1  0.50368000  0.50459000  0.10126000  1.0
  Cl  Cl80  1  0.44743000  0.29738000  0.59485000  1.0
  Cl  Cl81  1  0.45466000  0.28468000  0.67696000  1.0
  Cl  Cl82  1  0.56265000  0.69142000  0.59512000  1.0
  Cl  Cl83  1  0.55352000  0.70143000  0.67728000  1.0
  Cl  Cl84  1  0.28870000  0.49894000  0.70933000  1.0
  Cl  Cl85  1  0.28454000  0.48727000  0.79117000  1.0
  Cl  Cl86  1  0.71561000  0.48681000  0.70891000  1.0
  Cl  Cl87  1  0.71143000  0.49867000  0.79074000  1.0
  Cl  Cl88  1  0.44667000  0.70166000  0.82281000  1.0
  Cl  Cl89  1  0.43719000  0.69145000  0.90495000  1.0
  Cl  Cl90  1  0.54530000  0.28462000  0.82312000  1.0
  Cl  Cl91  1  0.55254000  0.29723000  0.90522000  1.0
  Cl  Cl92  1  0.29890000  0.44824000  0.40620000  1.0
  Cl  Cl93  1  0.28863000  0.45507000  0.32407000  1.0
  Cl  Cl94  1  0.69391000  0.56051000  0.40384000  1.0
  Cl  Cl95  1  0.70595000  0.55182000  0.32165000  1.0
  Cl  Cl96  1  0.50358000  0.29004000  0.29096000  1.0
  Cl  Cl97  1  0.49726000  0.28998000  0.20909000  1.0
  Cl  Cl98  1  0.49173000  0.71690000  0.29087000  1.0
  Cl  Cl99  1  0.50770000  0.71685000  0.20906000  1.0
  Cl  Cl100  1  0.71173000  0.45537000  0.17593000  1.0
  Cl  Cl101  1  0.70144000  0.44816000  0.09381000  1.0
  Cl  Cl102  1  0.29407000  0.55142000  0.17833000  1.0
  Cl  Cl103  1  0.30604000  0.55985000  0.09613000  1.0
  O  O104  1  0.49898000  0.34391000  0.98422000  1.0
  O  O105  1  0.49921000  0.34855000  0.04382000  1.0
  O  O106  1  0.65479000  0.50255000  0.01534000  1.0
  O  O107  1  0.65352000  0.49937000  0.95575000  1.0
  O  O108  1  0.50124000  0.65846000  0.04167000  1.0
  O  O109  1  0.50023000  0.65714000  0.98207000  1.0
  O  O110  1  0.34343000  0.49657000  0.95874000  1.0
  O  O111  1  0.34143000  0.50090000  0.01833000  1.0
  O  O112  1  0.50117000  0.34399000  0.51577000  1.0
  O  O113  1  0.50103000  0.34870000  0.45616000  1.0
  O  O114  1  0.34527000  0.50281000  0.48464000  1.0
  O  O115  1  0.34663000  0.49957000  0.54424000  1.0
  O  O116  1  0.49867000  0.65859000  0.45833000  1.0
  O  O117  1  0.49981000  0.65724000  0.51793000  1.0
  O  O118  1  0.65667000  0.49649000  0.54121000  1.0
  O  O119  1  0.65868000  0.50082000  0.48162000  1.0
  F  F120  1  0.50606000  0.86484000  0.95061000  1.0
  F  F121  1  0.50140000  0.14250000  0.07659000  1.0
  F  F122  1  0.86270000  0.49631000  0.92313000  1.0
  F  F123  1  0.13093000  0.49880000  0.04962000  1.0
  F  F124  1  0.49374000  0.86490000  0.54937000  1.0
  F  F125  1  0.49884000  0.14266000  0.42338000  1.0
  F  F126  1  0.13742000  0.49612000  0.57684000  1.0
  F  F127  1  0.86925000  0.49901000  0.45034000  1.0
