# generated using pymatgen
data_ZnH2C14(O2F3)2
_symmetry_space_group_name_H-M   'P 1'
_cell_length_a   7.51464000
_cell_length_b   10.87810000
_cell_length_c   35.25450000
_cell_angle_alpha   89.89030000
_cell_angle_beta   86.06230000
_cell_angle_gamma   89.92670000
_symmetry_Int_Tables_number   1
_chemical_formula_structural   ZnH2C14(O2F3)2
_chemical_formula_sum   'Zn4 H8 C56 O16 F24'
_cell_volume   2875.06889465
_cell_formula_units_Z   4
loop_
 _symmetry_equiv_pos_site_id
 _symmetry_equiv_pos_as_xyz
  1  'x, y, z'
loop_
 _atom_site_type_symbol
 _atom_site_label
 _atom_site_symmetry_multiplicity
 _atom_site_fract_x
 _atom_site_fract_y
 _atom_site_fract_z
 _atom_site_occupancy
  Zn  Zn0  1  0.69467000  0.99977000  0.49688000  1.0
  Zn  Zn1  1  0.33021000  0.00001000  0.50204000  1.0
  Zn  Zn2  1  0.21471000  0.00279000  0.00315000  1.0
  Zn  Zn3  1  0.57921000  0.00253000  0.99798000  1.0
  H  H4  1  0.25088000  0.00351000  0.24628000  1.0
  H  H5  1  0.65659000  0.00290000  0.25364000  1.0
  H  H6  1  0.25131000  0.00404000  0.75933000  1.0
  H  H7  1  0.65746000  0.00298000  0.74070000  1.0
  H  H8  1  0.36468000  0.27145000  0.44326000  1.0
  H  H9  1  0.36458000  0.72952000  0.44329000  1.0
  H  H10  1  0.54558000  0.27333000  0.05699000  1.0
  H  H11  1  0.54509000  0.73153000  0.05689000  1.0
  C  C12  1  0.58053000  0.23158000  0.49715000  1.0
  C  C13  1  0.43500000  0.00057000  0.42915000  1.0
  C  C14  1  0.58015000  0.76816000  0.49719000  1.0
  C  C15  1  0.43992000  0.00024000  0.57149000  1.0
  C  C16  1  0.32980000  0.23444000  0.00294000  1.0
  C  C17  1  0.47418000  0.00252000  0.07083000  1.0
  C  C18  1  0.32948000  0.77100000  0.00292000  1.0
  C  C19  1  0.46869000  0.00292000  0.92854000  1.0
  C  C20  1  0.46112000  0.00292000  0.11326000  1.0
  C  C21  1  0.61028000  0.00291000  0.13541000  1.0
  C  C22  1  0.59280000  0.00301000  0.17502000  1.0
  C  C23  1  0.42585000  0.00325000  0.19580000  1.0
  C  C24  1  0.27791000  0.00340000  0.17337000  1.0
  C  C25  1  0.29290000  0.00316000  0.13389000  1.0
  C  C26  1  0.39171000  0.00334000  0.23685000  1.0
  C  C27  1  0.51577000  0.00317000  0.26310000  1.0
  C  C28  1  0.63014000  0.00156000  0.32651000  1.0
  C  C29  1  0.48192000  0.00298000  0.30415000  1.0
  C  C30  1  0.31518000  0.00372000  0.32500000  1.0
  C  C31  1  0.29813000  0.00291000  0.36462000  1.0
  C  C32  1  0.44756000  0.00131000  0.38670000  1.0
  C  C33  1  0.61556000  0.00064000  0.36600000  1.0
  C  C34  1  0.45658000  0.00306000  0.88645000  1.0
  C  C35  1  0.60685000  0.00270000  0.86022000  1.0
  C  C36  1  0.59070000  0.00301000  0.82108000  1.0
  C  C37  1  0.42439000  0.00370000  0.80494000  1.0
  C  C38  1  0.27540000  0.00405000  0.83142000  1.0
  C  C39  1  0.28899000  0.00369000  0.87051000  1.0
  C  C40  1  0.39187000  0.00369000  0.76486000  1.0
  C  C41  1  0.51692000  0.00311000  0.73519000  1.0
  C  C42  1  0.63319000  0.00267000  0.66862000  1.0
  C  C43  1  0.48421000  0.00260000  0.69511000  1.0
  C  C44  1  0.31788000  0.00186000  0.67897000  1.0
  C  C45  1  0.30180000  0.00110000  0.63984000  1.0
  C  C46  1  0.45204000  0.00115000  0.61358000  1.0
  C  C47  1  0.61963000  0.00203000  0.62952000  1.0
  C  C48  1  0.58228000  0.36905000  0.49509000  1.0
  C  C49  1  0.47531000  0.43406000  0.46954000  1.0
  C  C50  1  0.68390000  0.43483000  0.51907000  1.0
  C  C51  1  0.37113000  0.37122000  0.44364000  1.0
  C  C52  1  0.27276000  0.43591000  0.41904000  1.0
  C  C53  1  0.58206000  0.63075000  0.49512000  1.0
  C  C54  1  0.68378000  0.56450000  0.51907000  1.0
  C  C55  1  0.47520000  0.56628000  0.46955000  1.0
  C  C56  1  0.37099000  0.62972000  0.44367000  1.0
  C  C57  1  0.27271000  0.56556000  0.41904000  1.0
  C  C58  1  0.32828000  0.37188000  0.00505000  1.0
  C  C59  1  0.43506000  0.43642000  0.03063000  1.0
  C  C60  1  0.22696000  0.43808000  0.98101000  1.0
  C  C61  1  0.53917000  0.37314000  0.05658000  1.0
  C  C62  1  0.63707000  0.43748000  0.08123000  1.0
  C  C63  1  0.32805000  0.63355000  0.00505000  1.0
  C  C64  1  0.22684000  0.56774000  0.98102000  1.0
  C  C65  1  0.43493000  0.56866000  0.03063000  1.0
  C  C66  1  0.53884000  0.63174000  0.05655000  1.0
  C  C67  1  0.63705000  0.56715000  0.08121000  1.0
  O  O68  1  0.73243000  0.17651000  0.49514000  1.0
  O  O69  1  0.42883000  0.18037000  0.50045000  1.0
  O  O70  1  0.28075000  0.00042000  0.44765000  1.0
  O  O71  1  0.58145000  0.00024000  0.44490000  1.0
  O  O72  1  0.42840000  0.81953000  0.50052000  1.0
  O  O73  1  0.73204000  0.82298000  0.49513000  1.0
  O  O74  1  0.58705000  0.99940000  0.55163000  1.0
  O  O75  1  0.28596000  0.00040000  0.55760000  1.0
  O  O76  1  0.17782000  0.17976000  0.00494000  1.0
  O  O77  1  0.48146000  0.18298000  0.99958000  1.0
  O  O78  1  0.62854000  0.00246000  0.05238000  1.0
  O  O79  1  0.32786000  0.00226000  0.05503000  1.0
  O  O80  1  0.48112000  0.82229000  0.99957000  1.0
  O  O81  1  0.17748000  0.82590000  0.00488000  1.0
  O  O82  1  0.32155000  0.00315000  0.94840000  1.0
  O  O83  1  0.62269000  0.00260000  0.94240000  1.0
  F  F84  1  0.13877000  0.00310000  0.11678000  1.0
  F  F85  1  0.11182000  0.00370000  0.19073000  1.0
  F  F86  1  0.77667000  0.00260000  0.11894000  1.0
  F  F87  1  0.74487000  0.00289000  0.19346000  1.0
  F  F88  1  0.16292000  0.00512000  0.30663000  1.0
  F  F89  1  0.13188000  0.00355000  0.38118000  1.0
  F  F90  1  0.79609000  0.00067000  0.30907000  1.0
  F  F91  1  0.76982000  0.99888000  0.38305000  1.0
  F  F92  1  0.13408000  0.00398000  0.89190000  1.0
  F  F93  1  0.10989000  0.00462000  0.81861000  1.0
  F  F94  1  0.77289000  0.00213000  0.87207000  1.0
  F  F95  1  0.74356000  0.00283000  0.79833000  1.0
  F  F96  1  0.16503000  0.00177000  0.70174000  1.0
  F  F97  1  0.13575000  0.00009000  0.62798000  1.0
  F  F98  1  0.79874000  0.00340000  0.68141000  1.0
  F  F99  1  0.77459000  0.00239000  0.60815000  1.0
  F  F100  1  0.78100000  0.62101000  0.54471000  1.0
  F  F101  1  0.78128000  0.37789000  0.54470000  1.0
  F  F102  1  0.17308000  0.37633000  0.39426000  1.0
  F  F103  1  0.17307000  0.62552000  0.39424000  1.0
  F  F104  1  0.12964000  0.62472000  0.95537000  1.0
  F  F105  1  0.12995000  0.38156000  0.95533000  1.0
  F  F106  1  0.73659000  0.37765000  0.10610000  1.0
  F  F107  1  0.73659000  0.62665000  0.10603000  1.0
