# generated using pymatgen
data_NdH18C18N2O11
_symmetry_space_group_name_H-M   'P 1'
_cell_length_a   10.56300000
_cell_length_b   11.34820000
_cell_length_c   11.55150000
_cell_angle_alpha   100.61200000
_cell_angle_beta   104.99600000
_cell_angle_gamma   102.84500000
_symmetry_Int_Tables_number   1
_chemical_formula_structural   NdH18C18N2O11
_chemical_formula_sum   'Nd2 H36 C36 N4 O22'
_cell_volume   1260.39000477
_cell_formula_units_Z   2
loop_
 _symmetry_equiv_pos_site_id
 _symmetry_equiv_pos_as_xyz
  1  'x, y, z'
loop_
 _atom_site_type_symbol
 _atom_site_label
 _atom_site_symmetry_multiplicity
 _atom_site_fract_x
 _atom_site_fract_y
 _atom_site_fract_z
 _atom_site_occupancy
  Nd  Nd0  1  0.40997000  0.95752000  0.31028000  1.0
  Nd  Nd1  1  0.59003000  0.04250000  0.68975000  1.0
  H  H2  1  0.56410000  0.36287000  0.71708000  1.0
  H  H3  1  0.25142000  0.11578000  0.74887000  1.0
  H  H4  1  0.36839000  0.11375000  0.96731000  1.0
  H  H5  1  0.34725000  0.26745000  0.00558000  1.0
  H  H6  1  0.45786000  0.23727000  0.91626000  1.0
  H  H7  1  0.71284000  0.37837000  0.22395000  1.0
  H  H8  1  0.67637000  0.38008000  0.06391000  1.0
  H  H9  1  0.57893000  0.43998000  0.15488000  1.0
  H  H10  1  0.46407000  0.33540000  0.31121000  1.0
  H  H11  1  0.09668000  0.88604000  0.35508000  1.0
  H  H12  1  0.84650000  0.12518000  0.19909000  1.0
  H  H13  1  0.88069000  0.16002000  0.06333000  1.0
  H  H14  1  0.85281000  0.00411000  0.08022000  1.0
  H  H15  1  0.18659000  0.29612000  0.20597000  1.0
  H  H16  1  0.05769000  0.30839000  0.27791000  1.0
  H  H17  1  0.19624000  0.25080000  0.34687000  1.0
  H  H18  1  0.64103000  0.19810000  0.25521000  1.0
  H  H19  1  0.02936000  0.93894000  0.13403000  1.0
  H  H20  1  0.43582000  0.63711000  0.28289000  1.0
  H  H21  1  0.74859000  0.88419000  0.25115000  1.0
  H  H22  1  0.63162000  0.88624000  0.03272000  1.0
  H  H23  1  0.65275000  0.73254000  0.99443000  1.0
  H  H24  1  0.54210000  0.76270000  0.08372000  1.0
  H  H25  1  0.28716000  0.62163000  0.77606000  1.0
  H  H26  1  0.32366000  0.61997000  0.93612000  1.0
  H  H27  1  0.42108000  0.56002000  0.84514000  1.0
  H  H28  1  0.53586000  0.66457000  0.68877000  1.0
  H  H29  1  0.90335000  0.11397000  0.64492000  1.0
  H  H30  1  0.15349000  0.87478000  0.80085000  1.0
  H  H31  1  0.11931000  0.83995000  0.93662000  1.0
  H  H32  1  0.14723000  0.99587000  0.91975000  1.0
  H  H33  1  0.81340000  0.70391000  0.79403000  1.0
  H  H34  1  0.94224000  0.69158000  0.72204000  1.0
  H  H35  1  0.80370000  0.74922000  0.65312000  1.0
  H  H36  1  0.35903000  0.80189000  0.74476000  1.0
  H  H37  1  0.97064000  0.06105000  0.86596000  1.0
  C  C38  1  0.54906000  0.16335000  0.17267000  1.0
  C  C39  1  0.41944000  0.21399000  0.99127000  1.0
  C  C40  1  0.63151000  0.36807000  0.13831000  1.0
  C  C41  1  0.52349000  0.25392000  0.51455000  1.0
  C  C42  1  0.51273000  0.38130000  0.50916000  1.0
  C  C43  1  0.48067000  0.40860000  0.39355000  1.0
  C  C44  1  0.53227000  0.47422000  0.61797000  1.0
  C  C45  1  0.14253000  0.50506000  0.03460000  1.0
  C  C46  1  0.94877000  0.61729000  0.01433000  1.0
  C  C47  1  0.11021000  0.60844000  0.06171000  1.0
  C  C48  1  0.20642000  0.73327000  0.14292000  1.0
  C  C49  1  0.28556000  0.01346000  0.57539000  1.0
  C  C50  1  0.13842000  0.00467000  0.53746000  1.0
  C  C51  1  0.08314000  0.06760000  0.62172000  1.0
  C  C52  1  0.05457000  0.93700000  0.41779000  1.0
  C  C53  1  0.10061000  0.03205000  0.18473000  1.0
  C  C54  1  0.89778000  0.10301000  0.12973000  1.0
  C  C55  1  0.12601000  0.25263000  0.25925000  1.0
  C  C56  1  0.45097000  0.83666000  0.82733000  1.0
  C  C57  1  0.58056000  0.78600000  0.00874000  1.0
  C  C58  1  0.36850000  0.63195000  0.86170000  1.0
  C  C59  1  0.47650000  0.74607000  0.48544000  1.0
  C  C60  1  0.48730000  0.61870000  0.49083000  1.0
  C  C61  1  0.51933000  0.59139000  0.60645000  1.0
  C  C62  1  0.46777000  0.52579000  0.38204000  1.0
  C  C63  1  0.85747000  0.49497000  0.96542000  1.0
  C  C64  1  0.05123000  0.38273000  0.98567000  1.0
  C  C65  1  0.88978000  0.39159000  0.93830000  1.0
  C  C66  1  0.79356000  0.26676000  0.85710000  1.0
  C  C67  1  0.71446000  0.98653000  0.42464000  1.0
  C  C68  1  0.86160000  0.99532000  0.46255000  1.0
  C  C69  1  0.91688000  0.93240000  0.37829000  1.0
  C  C70  1  0.94545000  0.06300000  0.58221000  1.0
  C  C71  1  0.89940000  0.96795000  0.81525000  1.0
  C  C72  1  0.10223000  0.89697000  0.87023000  1.0
  C  C73  1  0.87395000  0.74737000  0.74072000  1.0
  N  N74  1  0.53482000  0.24433000  0.10346000  1.0
  N  N75  1  0.04323000  0.12560000  0.19027000  1.0
  N  N76  1  0.46521000  0.75567000  0.89653000  1.0
  N  N77  1  0.95678000  0.87439000  0.80972000  1.0
  O  O78  1  0.22593000  0.04765000  0.23393000  1.0
  O  O79  1  0.46669000  0.05707000  0.14997000  1.0
  O  O80  1  0.50772000  0.17623000  0.41432000  1.0
  O  O81  1  0.54721000  0.22943000  0.62157000  1.0
  O  O82  1  0.56302000  0.45284000  0.73254000  1.0
  O  O83  1  0.30281000  0.78557000  0.10659000  1.0
  O  O84  1  0.34526000  0.98503000  0.49584000  1.0
  O  O85  1  0.35416000  0.05177000  0.69175000  1.0
  O  O86  1  0.16023000  0.13237000  0.73946000  1.0
  O  O87  1  0.18553000  0.77514000  0.24298000  1.0
  O  O88  1  0.93618000  0.72182000  0.02298000  1.0
  O  O89  1  0.77409000  0.95235000  0.76601000  1.0
  O  O90  1  0.53330000  0.94296000  0.85006000  1.0
  O  O91  1  0.49225000  0.82372000  0.58568000  1.0
  O  O92  1  0.45277000  0.77059000  0.37844000  1.0
  O  O93  1  0.43695000  0.54716000  0.26746000  1.0
  O  O94  1  0.69720000  0.21445000  0.89345000  1.0
  O  O95  1  0.65479000  0.01496000  0.50422000  1.0
  O  O96  1  0.64585000  0.94824000  0.30828000  1.0
  O  O97  1  0.83978000  0.86761000  0.26056000  1.0
  O  O98  1  0.81444000  0.22489000  0.75703000  1.0
  O  O99  1  0.06383000  0.27821000  0.97700000  1.0
