# generated using pymatgen
data_Zn2H17C24N8Cl
_symmetry_space_group_name_H-M   'P 1'
_cell_length_a   13.52433323
_cell_length_b   15.57260000
_cell_length_c   15.57190000
_cell_angle_alpha   92.39500000
_cell_angle_beta   113.63593132
_cell_angle_gamma   113.63630387
_symmetry_Int_Tables_number   1
_chemical_formula_structural   Zn2H17C24N8Cl
_chemical_formula_sum   'Zn4 H34 C48 N16 Cl2'
_cell_volume   2671.06889513
_cell_formula_units_Z   2
loop_
 _symmetry_equiv_pos_site_id
 _symmetry_equiv_pos_as_xyz
  1  'x, y, z'
loop_
 _atom_site_type_symbol
 _atom_site_label
 _atom_site_symmetry_multiplicity
 _atom_site_fract_x
 _atom_site_fract_y
 _atom_site_fract_z
 _atom_site_occupancy
  Zn  Zn0  1  0.34388000  0.84465000  0.88118000  1.0
  Zn  Zn1  1  0.65615000  0.11884000  0.15535000  1.0
  Zn  Zn2  1  0.33748000  0.00111000  0.03655000  1.0
  Zn  Zn3  1  0.66250000  0.96348000  0.99887000  1.0
  H  H4  1  0.25641000  0.93407000  0.70218000  1.0
  H  H5  1  0.21400000  0.47676000  0.96795000  1.0
  H  H6  1  0.78604000  0.03208000  0.52331000  1.0
  H  H7  1  0.75971000  0.13516000  0.53566000  1.0
  H  H8  1  0.24024000  0.46436000  0.86484000  1.0
  H  H9  1  0.78825000  0.01056000  0.68202000  1.0
  H  H10  1  0.21174000  0.31798000  0.98943000  1.0
  H  H11  1  0.74362000  0.29785000  0.06589000  1.0
  H  H12  1  0.04138000  0.49844000  0.93518000  1.0
  H  H13  1  0.95857000  0.06479000  0.50149000  1.0
  H  H14  1  0.93998000  0.44776000  0.08352000  1.0
  H  H15  1  0.06003000  0.91647000  0.55225000  1.0
  H  H16  1  0.06750000  0.62571000  0.10756000  1.0
  H  H17  1  0.93249000  0.89242000  0.37425000  1.0
  H  H18  1  0.94367000  0.32748000  0.92359000  1.0
  H  H19  1  0.05635000  0.07643000  0.67248000  1.0
  H  H20  1  0.33173000  0.19312000  0.96526000  1.0
  H  H21  1  0.66828000  0.03476000  0.80698000  1.0
  H  H22  1  0.87284000  0.13531000  0.94557000  1.0
  H  H23  1  0.12720000  0.05445000  0.86470000  1.0
  H  H24  1  0.33789000  0.68092000  0.00132000  1.0
  H  H25  1  0.66215000  0.99869000  0.31905000  1.0
  H  H26  1  0.23113000  0.82089000  0.13473000  1.0
  H  H27  1  0.30089000  0.85603000  0.35439000  1.0
  H  H28  1  0.76876000  0.86529000  0.17901000  1.0
  H  H29  1  0.88891000  0.13643000  0.36799000  1.0
  H  H30  1  0.11107000  0.63198000  0.86359000  1.0
  H  H31  1  0.69443000  0.75787000  0.02503000  1.0
  H  H32  1  0.30554000  0.97494000  0.24210000  1.0
  H  H33  1  0.69915000  0.64566000  0.14393000  1.0
  H  H34  1  0.30299000  0.83673000  0.50876000  1.0
  H  H35  1  0.69702000  0.49120000  0.16328000  1.0
  H  H36  1  0.69319000  0.34888000  0.20383000  1.0
  H  H37  1  0.30681000  0.79616000  0.65115000  1.0
  C  C38  1  0.23416000  0.95789000  0.75538000  1.0
  C  C39  1  0.48605000  0.97370000  0.31894000  1.0
  C  C40  1  0.51398000  0.68108000  0.02630000  1.0
  C  C41  1  0.14122000  0.69028000  0.01229000  1.0
  C  C42  1  0.85873000  0.98769000  0.30969000  1.0
  C  C43  1  0.59883000  0.98440000  0.58772000  1.0
  C  C44  1  0.40119000  0.41231000  0.01560000  1.0
  C  C45  1  0.76583000  0.24461000  0.04209000  1.0
  C  C46  1  0.49490000  0.92916000  0.59802000  1.0
  C  C47  1  0.50513000  0.40201000  0.07085000  1.0
  C  C48  1  0.38861000  0.88254000  0.50860000  1.0
  C  C49  1  0.61143000  0.49143000  0.11745000  1.0
  C  C50  1  0.38718000  0.89383000  0.41982000  1.0
  C  C51  1  0.61287000  0.58021000  0.10615000  1.0
  C  C52  1  0.49213000  0.95250000  0.41078000  1.0
  C  C53  1  0.50791000  0.58923000  0.04749000  1.0
  C  C54  1  0.59766000  0.99469000  0.49871000  1.0
  C  C55  1  0.40237000  0.50132000  0.00529000  1.0
  C  C56  1  0.73308000  0.06026000  0.54257000  1.0
  C  C57  1  0.26693000  0.45747000  0.93975000  1.0
  C  C58  1  0.41993000  0.21620000  0.02657000  1.0
  C  C59  1  0.58007000  0.97346000  0.78382000  1.0
  C  C60  1  0.73486000  0.04631000  0.64259000  1.0
  C  C61  1  0.60879000  0.75411000  0.01601000  1.0
  C  C62  1  0.26515000  0.35744000  0.95371000  1.0
  C  C63  1  0.91807000  0.34014000  0.97956000  1.0
  C  C64  1  0.08193000  0.02044000  0.65984000  1.0
  C  C65  1  0.95964000  0.43318000  0.02429000  1.0
  C  C66  1  0.04036000  0.97571000  0.56680000  1.0
  C  C67  1  0.39121000  0.98397000  0.24591000  1.0
  C  C68  1  0.07692000  0.60904000  0.04309000  1.0
  C  C69  1  0.92304000  0.95688000  0.39091000  1.0
  C  C70  1  0.02861000  0.51488000  0.99797000  1.0
  C  C71  1  0.97138000  0.00202000  0.48508000  1.0
  C  C72  1  0.60499000  0.29654000  0.14742000  1.0
  C  C73  1  0.39501000  0.85260000  0.70347000  1.0
  C  C74  1  0.83098000  0.16129000  0.97994000  1.0
  C  C75  1  0.16903000  0.02006000  0.83870000  1.0
  C  C76  1  0.15702000  0.00066000  0.74497000  1.0
  C  C77  1  0.84297000  0.25501000  0.99932000  1.0
  C  C78  1  0.50889000  0.31068000  0.08089000  1.0
  C  C79  1  0.49112000  0.91915000  0.68933000  1.0
  C  C80  1  0.42600000  0.71426000  0.00239000  1.0
  C  C81  1  0.57404000  0.99763000  0.28577000  1.0
  C  C82  1  0.21131000  0.78833000  0.06306000  1.0
  C  C83  1  0.78861000  0.93694000  0.21162000  1.0
  C  C84  1  0.84984000  0.07479000  0.30878000  1.0
  C  C85  1  0.15014000  0.69120000  0.92520000  1.0
  N  N86  1  0.28612000  0.95131000  0.84735000  1.0
  N  N87  1  0.42599000  0.86605000  0.79827000  1.0
  N  N88  1  0.57400000  0.20173000  0.13396000  1.0
  N  N89  1  0.75585000  0.10189000  0.01124000  1.0
  N  N90  1  0.24415000  0.98875000  0.89811000  1.0
  N  N91  1  0.46518000  0.80015000  0.97916000  1.0
  N  N92  1  0.53483000  0.02085000  0.19986000  1.0
  N  N93  1  0.71387000  0.15265000  0.04867000  1.0
  N  N94  1  0.25798000  0.84269000  0.01088000  1.0
  N  N95  1  0.74198000  0.98914000  0.15729000  1.0
  N  N96  1  0.78088000  0.07478000  0.21808000  1.0
  N  N97  1  0.21912000  0.78192000  0.92524000  1.0
  N  N98  1  0.57812000  0.82381000  0.98716000  1.0
  N  N99  1  0.42189000  0.01284000  0.17622000  1.0
  N  N100  1  0.45975000  0.15153000  0.05861000  1.0
  N  N101  1  0.54024000  0.94141000  0.84848000  1.0
  Cl  Cl102  1  0.78953000  0.15739000  0.72690000  1.0
  Cl  Cl103  1  0.21039000  0.27307000  0.84263000  1.0
