# generated using pymatgen
data_SrH10C15N2O5
_symmetry_space_group_name_H-M   'P 1'
_cell_length_a   6.68280000
_cell_length_b   12.46790000
_cell_length_c   17.14980000
_cell_angle_alpha   104.17300000
_cell_angle_beta   89.99980000
_cell_angle_gamma   90.00000000
_symmetry_Int_Tables_number   1
_chemical_formula_structural   SrH10C15N2O5
_chemical_formula_sum   'Sr4 H40 C60 N8 O20'
_cell_volume   1385.43418830
_cell_formula_units_Z   4
loop_
 _symmetry_equiv_pos_site_id
 _symmetry_equiv_pos_as_xyz
  1  'x, y, z'
loop_
 _atom_site_type_symbol
 _atom_site_label
 _atom_site_symmetry_multiplicity
 _atom_site_fract_x
 _atom_site_fract_y
 _atom_site_fract_z
 _atom_site_occupancy
  Sr  Sr0  1  0.43703000  0.66184000  0.47473000  1.0
  Sr  Sr1  1  0.93703000  0.83816000  0.52527000  1.0
  Sr  Sr2  1  0.56296000  0.33816000  0.52527000  1.0
  Sr  Sr3  1  0.06296000  0.16184000  0.47473000  1.0
  H  H4  1  0.97726000  0.08350000  0.78202000  1.0
  H  H5  1  0.47725000  0.41649000  0.21799000  1.0
  H  H6  1  0.02274000  0.91649000  0.21798000  1.0
  H  H7  1  0.52275000  0.58351000  0.78201000  1.0
  H  H8  1  0.67168000  0.09871000  0.86090000  1.0
  H  H9  1  0.17168000  0.40128000  0.13910000  1.0
  H  H10  1  0.32831000  0.90129000  0.13910000  1.0
  H  H11  1  0.82832000  0.59872000  0.86090000  1.0
  H  H12  1  0.43916000  0.21117000  0.96228000  1.0
  H  H13  1  0.93919000  0.28883000  0.03771000  1.0
  H  H14  1  0.56083000  0.78884000  0.03771000  1.0
  H  H15  1  0.06082000  0.71116000  0.96229000  1.0
  H  H16  1  0.50552000  0.41118000  0.01852000  1.0
  H  H17  1  0.00555000  0.08881000  0.98147000  1.0
  H  H18  1  0.49448000  0.58882000  0.98148000  1.0
  H  H19  1  0.99446000  0.91118000  0.01853000  1.0
  H  H20  1  0.79572000  0.50207000  0.97099000  1.0
  H  H21  1  0.29573000  0.99793000  0.02901000  1.0
  H  H22  1  0.20429000  0.49793000  0.02901000  1.0
  H  H23  1  0.70429000  0.00207000  0.97099000  1.0
  H  H24  1  0.10358000  0.48766000  0.88527000  1.0
  H  H25  1  0.60359000  0.01233000  0.11473000  1.0
  H  H26  1  0.89642000  0.51233000  0.11473000  1.0
  H  H27  1  0.39643000  0.98767000  0.88527000  1.0
  H  H28  1  0.33845000  0.37338000  0.78943000  1.0
  H  H29  1  0.83845000  0.12662000  0.21057000  1.0
  H  H30  1  0.66155000  0.62662000  0.21057000  1.0
  H  H31  1  0.16156000  0.87339000  0.78943000  1.0
  H  H32  1  0.16470000  0.99713000  0.68589000  1.0
  H  H33  1  0.66469000  0.50287000  0.31411000  1.0
  H  H34  1  0.83530000  0.00287000  0.31411000  1.0
  H  H35  1  0.33531000  0.49714000  0.68589000  1.0
  H  H36  1  0.44883000  0.67426000  0.30024000  1.0
  H  H37  1  0.94883000  0.82574000  0.69976000  1.0
  H  H38  1  0.55118000  0.32574000  0.69976000  1.0
  H  H39  1  0.05117000  0.17426000  0.30024000  1.0
  H  H40  1  0.29192000  0.57870000  0.29953000  1.0
  H  H41  1  0.79193000  0.92130000  0.70047000  1.0
  H  H42  1  0.70808000  0.42130000  0.70047000  1.0
  H  H43  1  0.20808000  0.07870000  0.29953000  1.0
  C  C44  1  0.44830000  0.01164000  0.63298000  1.0
  C  C45  1  0.94829000  0.48835000  0.36702000  1.0
  C  C46  1  0.55170000  0.98836000  0.36702000  1.0
  C  C47  1  0.05171000  0.51165000  0.63298000  1.0
  C  C48  1  0.43832000  0.90281000  0.57424000  1.0
  C  C49  1  0.93832000  0.59719000  0.42576000  1.0
  C  C50  1  0.56167000  0.09719000  0.42576000  1.0
  C  C51  1  0.06168000  0.40281000  0.57424000  1.0
  C  C52  1  0.31382000  0.15466000  0.72140000  1.0
  C  C53  1  0.81380000  0.34534000  0.27860000  1.0
  C  C54  1  0.68619000  0.84534000  0.27860000  1.0
  C  C55  1  0.18620000  0.65467000  0.72140000  1.0
  C  C56  1  0.17305000  0.22014000  0.77849000  1.0
  C  C57  1  0.67305000  0.27985000  0.22152000  1.0
  C  C58  1  0.82695000  0.77986000  0.22152000  1.0
  C  C59  1  0.32696000  0.72015000  0.77848000  1.0
  C  C60  1  0.00570000  0.17202000  0.80373000  1.0
  C  C61  1  0.50569000  0.32798000  0.19627000  1.0
  C  C62  1  0.99430000  0.82799000  0.19627000  1.0
  C  C63  1  0.49431000  0.67202000  0.80373000  1.0
  C  C64  1  0.86832000  0.23562000  0.85878000  1.0
  C  C65  1  0.36833000  0.26437000  0.14121000  1.0
  C  C66  1  0.13168000  0.76438000  0.14121000  1.0
  C  C67  1  0.63168000  0.73562000  0.85879000  1.0
  C  C68  1  0.69797000  0.18688000  0.88569000  1.0
  C  C69  1  0.19797000  0.31312000  0.11431000  1.0
  C  C70  1  0.30202000  0.81312000  0.11431000  1.0
  C  C71  1  0.80203000  0.68688000  0.88568000  1.0
  C  C72  1  0.56931000  0.24915000  0.94168000  1.0
  C  C73  1  0.06932000  0.25084000  0.05831000  1.0
  C  C74  1  0.43069000  0.75086000  0.05831000  1.0
  C  C75  1  0.93069000  0.74915000  0.94169000  1.0
  C  C76  1  0.60581000  0.36343000  0.97297000  1.0
  C  C77  1  0.10583000  0.13656000  0.02703000  1.0
  C  C78  1  0.39419000  0.63657000  0.02703000  1.0
  C  C79  1  0.89418000  0.86343000  0.97297000  1.0
  C  C80  1  0.76773000  0.41394000  0.94680000  1.0
  C  C81  1  0.26774000  0.08605000  0.05320000  1.0
  C  C82  1  0.23228000  0.58606000  0.05320000  1.0
  C  C83  1  0.73228000  0.91395000  0.94680000  1.0
  C  C84  1  0.90293000  0.35195000  0.88933000  1.0
  C  C85  1  0.40293000  0.14805000  0.11067000  1.0
  C  C86  1  0.09707000  0.64805000  0.11067000  1.0
  C  C87  1  0.59708000  0.85195000  0.88933000  1.0
  C  C88  1  0.07463000  0.39938000  0.86211000  1.0
  C  C89  1  0.57463000  0.10061000  0.13789000  1.0
  C  C90  1  0.92537000  0.60062000  0.13789000  1.0
  C  C91  1  0.42538000  0.89938000  0.86211000  1.0
  C  C92  1  0.20654000  0.33572000  0.80871000  1.0
  C  C93  1  0.70654000  0.16428000  0.19129000  1.0
  C  C94  1  0.79345000  0.66429000  0.19129000  1.0
  C  C95  1  0.29347000  0.83572000  0.80871000  1.0
  C  C96  1  0.57349000  0.10432000  0.64381000  1.0
  C  C97  1  0.07347000  0.39568000  0.35619000  1.0
  C  C98  1  0.42651000  0.89568000  0.35619000  1.0
  C  C99  1  0.92653000  0.60432000  0.64381000  1.0
  C  C100  1  0.76192000  0.12325000  0.60236000  1.0
  C  C101  1  0.26191000  0.37676000  0.39764000  1.0
  C  C102  1  0.23808000  0.87676000  0.39764000  1.0
  C  C103  1  0.73809000  0.62324000  0.60236000  1.0
  N  N104  1  0.48687000  0.19156000  0.69793000  1.0
  N  N105  1  0.98686000  0.30844000  0.30207000  1.0
  N  N106  1  0.51313000  0.80844000  0.30207000  1.0
  N  N107  1  0.01313000  0.69156000  0.69793000  1.0
  N  N108  1  0.28760000  0.04617000  0.68318000  1.0
  N  N109  1  0.78758000  0.45384000  0.31682000  1.0
  N  N110  1  0.71241000  0.95384000  0.31682000  1.0
  N  N111  1  0.21242000  0.54617000  0.68318000  1.0
  O  O112  1  0.28964000  0.84080000  0.58095000  1.0
  O  O113  1  0.78964000  0.65920000  0.41905000  1.0
  O  O114  1  0.71035000  0.15921000  0.41906000  1.0
  O  O115  1  0.21035000  0.34079000  0.58095000  1.0
  O  O116  1  0.56889000  0.87604000  0.51925000  1.0
  O  O117  1  0.06888000  0.62396000  0.48075000  1.0
  O  O118  1  0.43110000  0.12396000  0.48076000  1.0
  O  O119  1  0.93111000  0.37604000  0.51925000  1.0
  O  O120  1  0.88067000  0.04398000  0.57268000  1.0
  O  O121  1  0.38064000  0.45602000  0.42732000  1.0
  O  O122  1  0.11933000  0.95602000  0.42732000  1.0
  O  O123  1  0.61935000  0.54399000  0.57268000  1.0
  O  O124  1  0.79496000  0.22169000  0.59709000  1.0
  O  O125  1  0.29496000  0.27831000  0.40290000  1.0
  O  O126  1  0.20504000  0.77831000  0.40290000  1.0
  O  O127  1  0.70504000  0.72169000  0.59710000  1.0
  O  O128  1  0.43417000  0.59534000  0.30602000  1.0
  O  O129  1  0.93418000  0.90467000  0.69398000  1.0
  O  O130  1  0.56583000  0.40466000  0.69398000  1.0
  O  O131  1  0.06582000  0.09534000  0.30602000  1.0
