# generated using pymatgen
data_Cd3H66C70(NO4)4
_symmetry_space_group_name_H-M   'P 1'
_cell_length_a   9.36858000
_cell_length_b   14.38800000
_cell_length_c   14.75330000
_cell_angle_alpha   109.26310000
_cell_angle_beta   92.17810000
_cell_angle_gamma   91.97740000
_symmetry_Int_Tables_number   1
_chemical_formula_structural   Cd3H66C70(NO4)4
_chemical_formula_sum   'Cd3 H66 C70 N4 O16'
_cell_volume   1873.64380515
_cell_formula_units_Z   1
loop_
 _symmetry_equiv_pos_site_id
 _symmetry_equiv_pos_as_xyz
  1  'x, y, z'
loop_
 _atom_site_type_symbol
 _atom_site_label
 _atom_site_symmetry_multiplicity
 _atom_site_fract_x
 _atom_site_fract_y
 _atom_site_fract_z
 _atom_site_occupancy
  Cd  Cd0  1  0.61040000  0.61620000  0.31920000  1.0
  Cd  Cd1  1  0.38960000  0.38380000  0.68080000  1.0
  Cd  Cd2  1  0.50000000  0.50000000  0.50000000  1.0
  H  H3  1  0.97248000  0.70782000  0.60785000  1.0
  H  H4  1  0.02752000  0.29218000  0.39215000  1.0
  H  H5  1  0.02091000  0.78549000  0.78371000  1.0
  H  H6  1  0.97909000  0.21451000  0.21629000  1.0
  H  H7  1  0.57753000  0.85483000  0.81719000  1.0
  H  H8  1  0.42247000  0.14518000  0.18281000  1.0
  H  H9  1  0.52941000  0.76996000  0.64191000  1.0
  H  H10  1  0.47059000  0.23004000  0.35809000  1.0
  H  H11  1  0.98375000  0.76329000  0.92362000  1.0
  H  H12  1  0.01624000  0.23671000  0.07638000  1.0
  H  H13  1  0.93600000  0.99569000  0.19045000  1.0
  H  H14  1  0.06399000  0.00431000  0.80955000  1.0
  H  H15  1  0.69330000  0.99100000  0.93513000  1.0
  H  H16  1  0.30670000  0.00900000  0.06487000  1.0
  H  H17  1  0.01112000  0.67716000  0.02196000  1.0
  H  H18  1  0.98887000  0.32284000  0.97805000  1.0
  H  H19  1  0.19739000  0.60124000  0.09604000  1.0
  H  H20  1  0.80261000  0.39876000  0.90396000  1.0
  H  H21  1  0.33605000  0.88610000  0.29161000  1.0
  H  H22  1  0.66396000  0.11389000  0.70838000  1.0
  H  H23  1  0.15904000  0.96455000  0.21383000  1.0
  H  H24  1  0.84096000  0.03545000  0.78617000  1.0
  H  H25  1  0.75916000  0.07401000  0.26221000  1.0
  H  H26  1  0.24083000  0.92599000  0.73779000  1.0
  H  H27  1  0.70400000  0.24490000  0.35712000  1.0
  H  H28  1  0.29599000  0.75510000  0.64288000  1.0
  H  H29  1  0.67254000  0.32042000  0.09959000  1.0
  H  H30  1  0.32746000  0.67958000  0.90041000  1.0
  H  H31  1  0.72968000  0.15032000  0.00281000  1.0
  H  H32  1  0.27032000  0.84968000  0.99718000  1.0
  H  H33  1  0.04900000  0.61928000  0.43867000  1.0
  H  H34  1  0.95101000  0.38073000  0.56133000  1.0
  H  H35  1  0.21717000  0.68176000  0.44382000  1.0
  H  H36  1  0.78284000  0.31824000  0.55618000  1.0
  H  H37  1  0.19638000  0.60359000  0.51386000  1.0
  H  H38  1  0.80363000  0.39641000  0.48614000  1.0
  H  H39  1  0.13744000  0.39166000  0.14171000  1.0
  H  H40  1  0.86256000  0.60834000  0.85829000  1.0
  H  H41  1  0.26278000  0.36714000  0.22458000  1.0
  H  H42  1  0.73722000  0.63286000  0.77542000  1.0
  H  H43  1  0.30507000  0.46197000  0.17546000  1.0
  H  H44  1  0.69493000  0.53803000  0.82454000  1.0
  H  H45  1  0.96807000  0.48827000  0.19001000  1.0
  H  H46  1  0.03193000  0.51173000  0.80999000  1.0
  H  H47  1  0.03028000  0.61102000  0.25609000  1.0
  H  H48  1  0.96972000  0.38898000  0.74391000  1.0
  H  H49  1  0.93798000  0.53811000  0.31385000  1.0
  H  H50  1  0.06202000  0.46189000  0.68616000  1.0
  H  H51  1  0.66235000  0.57017000  0.98743000  1.0
  H  H52  1  0.33764000  0.42982000  0.01257000  1.0
  H  H53  1  0.61565000  0.51943000  0.07784000  1.0
  H  H54  1  0.38434000  0.48057000  0.92216000  1.0
  H  H55  1  0.79734000  0.52897000  0.05239000  1.0
  H  H56  1  0.20265000  0.47102000  0.94761000  1.0
  H  H57  1  0.58961000  0.82609000  0.04332000  1.0
  H  H58  1  0.41039000  0.17390000  0.95667000  1.0
  H  H59  1  0.49215000  0.71309000  0.02866000  1.0
  H  H60  1  0.50785000  0.28690000  0.97134000  1.0
  H  H61  1  0.66005000  0.71389000  0.97499000  1.0
  H  H62  1  0.33994000  0.28611000  0.02501000  1.0
  H  H63  1  0.66274000  0.89885000  0.18768000  1.0
  H  H64  1  0.33726000  0.10115000  0.81232000  1.0
  H  H65  1  0.79865000  0.84625000  0.24133000  1.0
  H  H66  1  0.20135000  0.15375000  0.75866000  1.0
  H  H67  1  0.61662000  0.83144000  0.26636000  1.0
  H  H68  1  0.38338000  0.16856000  0.73364000  1.0
  C  C69  1  0.74711000  0.73378000  0.61410000  1.0
  C  C70  1  0.25289000  0.26622000  0.38590000  1.0
  C  C71  1  0.88630000  0.73932000  0.65422000  1.0
  C  C72  1  0.11371000  0.26068000  0.34578000  1.0
  C  C73  1  0.91301000  0.78343000  0.75284000  1.0
  C  C74  1  0.08698000  0.21656000  0.24716000  1.0
  C  C75  1  0.80341000  0.82652000  0.81324000  1.0
  C  C76  1  0.19658000  0.17348000  0.18676000  1.0
  C  C77  1  0.66502000  0.82352000  0.77183000  1.0
  C  C78  1  0.33498000  0.17648000  0.22817000  1.0
  C  C79  1  0.63726000  0.77604000  0.67378000  1.0
  C  C80  1  0.36274000  0.22396000  0.32622000  1.0
  C  C81  1  0.83410000  0.87166000  0.91795000  1.0
  C  C82  1  0.16590000  0.12835000  0.08206000  1.0
  C  C83  1  0.93195000  0.82942000  0.96514000  1.0
  C  C84  1  0.06805000  0.17058000  0.03486000  1.0
  C  C85  1  0.96760000  0.87197000  0.06374000  1.0
  C  C86  1  0.03240000  0.12804000  0.93626000  1.0
  C  C87  1  0.90510000  0.95972000  0.11462000  1.0
  C  C88  1  0.09490000  0.04028000  0.88539000  1.0
  C  C89  1  0.80541000  0.00322000  0.06978000  1.0
  C  C90  1  0.19459000  0.99678000  0.93023000  1.0
  C  C91  1  0.76931000  0.95762000  0.97142000  1.0
  C  C92  1  0.23068000  0.04238000  0.02858000  1.0
  C  C93  1  0.07207000  0.82654000  0.11173000  1.0
  C  C94  1  0.92793000  0.17346000  0.88827000  1.0
  C  C95  1  0.08411000  0.72366000  0.07977000  1.0
  C  C96  1  0.91589000  0.27634000  0.92023000  1.0
  C  C97  1  0.18658000  0.68066000  0.12145000  1.0
  C  C98  1  0.81342000  0.31933000  0.87855000  1.0
  C  C99  1  0.27837000  0.73882000  0.19790000  1.0
  C  C100  1  0.72164000  0.26118000  0.80210000  1.0
  C  C101  1  0.26507000  0.84112000  0.23185000  1.0
  C  C102  1  0.73494000  0.15887000  0.76815000  1.0
  C  C103  1  0.16437000  0.88445000  0.18870000  1.0
  C  C104  1  0.83564000  0.11554000  0.81130000  1.0
  C  C105  1  0.75010000  0.09926000  0.12511000  1.0
  C  C106  1  0.24990000  0.90075000  0.87489000  1.0
  C  C107  1  0.73943000  0.12718000  0.22545000  1.0
  C  C108  1  0.26057000  0.87283000  0.77455000  1.0
  C  C109  1  0.70846000  0.22287000  0.27921000  1.0
  C  C110  1  0.29154000  0.77713000  0.72079000  1.0
  C  C111  1  0.68507000  0.29328000  0.23420000  1.0
  C  C112  1  0.31493000  0.70672000  0.76580000  1.0
  C  C113  1  0.68987000  0.26508000  0.13400000  1.0
  C  C114  1  0.31014000  0.73492000  0.86599000  1.0
  C  C115  1  0.72056000  0.16935000  0.08016000  1.0
  C  C116  1  0.27944000  0.83064000  0.91984000  1.0
  C  C117  1  0.71325000  0.68439000  0.50922000  1.0
  C  C118  1  0.28675000  0.31561000  0.49078000  1.0
  C  C119  1  0.39057000  0.69123000  0.24011000  1.0
  C  C120  1  0.60943000  0.30877000  0.75989000  1.0
  C  C121  1  0.65534000  0.39743000  0.29220000  1.0
  C  C122  1  0.34466000  0.60257000  0.70779000  1.0
  C  C123  1  0.22241000  0.53012000  0.36536000  1.0
  C  C124  1  0.77760000  0.46988000  0.63464000  1.0
  C  C125  1  0.16467000  0.61245000  0.44504000  1.0
  C  C126  1  0.83534000  0.38755000  0.55497000  1.0
  C  C127  1  0.21805000  0.42473000  0.20039000  1.0
  C  C128  1  0.78195000  0.57527000  0.79961000  1.0
  C  C129  1  0.01516000  0.53623000  0.25943000  1.0
  C  C130  1  0.98484000  0.46377000  0.74058000  1.0
  C  C131  1  0.71337000  0.66204000  0.13888000  1.0
  C  C132  1  0.28662000  0.33796000  0.86112000  1.0
  C  C133  1  0.69566000  0.56560000  0.05755000  1.0
  C  C134  1  0.30433000  0.43439000  0.94245000  1.0
  C  C135  1  0.59967000  0.74911000  0.03849000  1.0
  C  C136  1  0.40033000  0.25088000  0.96150000  1.0
  C  C137  1  0.68838000  0.83624000  0.21071000  1.0
  C  C138  1  0.31162000  0.16375000  0.78929000  1.0
  N  N139  1  0.14963000  0.49602000  0.27950000  1.0
  N  N140  1  0.85037000  0.50398000  0.72050000  1.0
  N  N141  1  0.67359000  0.74631000  0.12653000  1.0
  N  N142  1  0.32641000  0.25368000  0.87347000  1.0
  O  O143  1  0.58264000  0.64882000  0.48328000  1.0
  O  O144  1  0.41736000  0.35119000  0.51672000  1.0
  O  O145  1  0.80545000  0.68024000  0.44824000  1.0
  O  O146  1  0.19455000  0.31977000  0.55177000  1.0
  O  O147  1  0.42110000  0.60332000  0.19298000  1.0
  O  O148  1  0.57890000  0.39667000  0.80702000  1.0
  O  O149  1  0.45406000  0.74102000  0.32082000  1.0
  O  O150  1  0.54595000  0.25898000  0.67917000  1.0
  O  O151  1  0.64269000  0.45735000  0.24539000  1.0
  O  O152  1  0.35730000  0.54265000  0.75460000  1.0
  O  O153  1  0.64801000  0.41770000  0.38237000  1.0
  O  O154  1  0.35200000  0.58231000  0.61762000  1.0
  O  O155  1  0.34112000  0.49396000  0.37548000  1.0
  O  O156  1  0.65888000  0.50604000  0.62452000  1.0
  O  O157  1  0.76515000  0.66365000  0.21978000  1.0
  O  O158  1  0.23485000  0.33634000  0.78022000  1.0
