# generated using pymatgen
data_NaH10C12SNO11
_symmetry_space_group_name_H-M   'P 1'
_cell_length_a   6.90369000
_cell_length_b   10.10300000
_cell_length_c   12.52690000
_cell_angle_alpha   71.87770000
_cell_angle_beta   87.20530000
_cell_angle_gamma   73.65610000
_symmetry_Int_Tables_number   1
_chemical_formula_structural   NaH10C12SNO11
_chemical_formula_sum   'Na2 H20 C24 S2 N2 O22'
_cell_volume   796.10828540
_cell_formula_units_Z   2
loop_
 _symmetry_equiv_pos_site_id
 _symmetry_equiv_pos_as_xyz
  1  'x, y, z'
loop_
 _atom_site_type_symbol
 _atom_site_label
 _atom_site_symmetry_multiplicity
 _atom_site_fract_x
 _atom_site_fract_y
 _atom_site_fract_z
 _atom_site_occupancy
  Na  Na0  1  0.30657000  0.81130000  0.62583000  1.0
  Na  Na1  1  0.69344000  0.18869000  0.37417000  1.0
  H  H2  1  0.63718000  0.41022000  0.50151000  1.0
  H  H3  1  0.36282000  0.58979000  0.49849000  1.0
  H  H4  1  0.89492000  0.00761000  0.23141000  1.0
  H  H5  1  0.10508000  0.99238000  0.76859000  1.0
  H  H6  1  0.73196000  0.19101000  0.75145000  1.0
  H  H7  1  0.26804000  0.80900000  0.24855000  1.0
  H  H8  1  0.79876000  0.06924000  0.95551000  1.0
  H  H9  1  0.20125000  0.93075000  0.04448000  1.0
  H  H10  1  0.74774000  0.45559000  0.10968000  1.0
  H  H11  1  0.25226000  0.54440000  0.89032000  1.0
  H  H12  1  0.79067000  0.81643000  0.82803000  1.0
  H  H13  1  0.20933000  0.18358000  0.17197000  1.0
  H  H14  1  0.41319000  0.84904000  0.40526000  1.0
  H  H15  1  0.58681000  0.15096000  0.59474000  1.0
  H  H16  1  0.32343000  0.00774000  0.41426000  1.0
  H  H17  1  0.67657000  0.99227000  0.58574000  1.0
  H  H18  1  0.94368000  0.07219000  0.61443000  1.0
  H  H19  1  0.05632000  0.92782000  0.38557000  1.0
  H  H20  1  0.09848000  0.16226000  0.60717000  1.0
  H  H21  1  0.90152000  0.83773000  0.39283000  1.0
  C  C22  1  0.77639000  0.62782000  0.78663000  1.0
  C  C23  1  0.22361000  0.37218000  0.21337000  1.0
  C  C24  1  0.75009000  0.48542000  0.82652000  1.0
  C  C25  1  0.24991000  0.51458000  0.17348000  1.0
  C  C26  1  0.72429000  0.40140000  0.75741000  1.0
  C  C27  1  0.27571000  0.59860000  0.24259000  1.0
  C  C28  1  0.63825000  0.46189000  0.63942000  1.0
  C  C29  1  0.36176000  0.53812000  0.36057000  1.0
  C  C30  1  0.74741000  0.25408000  0.80517000  1.0
  C  C31  1  0.25260000  0.74592000  0.19483000  1.0
  C  C32  1  0.78053000  0.18508000  0.92131000  1.0
  C  C33  1  0.21948000  0.81492000  0.07869000  1.0
  C  C34  1  0.77352000  0.26658000  0.99232000  1.0
  C  C35  1  0.22649000  0.73342000  0.00768000  1.0
  C  C36  1  0.77752000  0.19198000  0.11575000  1.0
  C  C37  1  0.22248000  0.80801000  0.88425000  1.0
  C  C38  1  0.75661000  0.41859000  0.94719000  1.0
  C  C39  1  0.24339000  0.58141000  0.05281000  1.0
  C  C40  1  0.75196000  0.50274000  0.01926000  1.0
  C  C41  1  0.24805000  0.49726000  0.98074000  1.0
  C  C42  1  0.75034000  0.64564000  0.97393000  1.0
  C  C43  1  0.24966000  0.35436000  0.02608000  1.0
  C  C44  1  0.77253000  0.70756000  0.85887000  1.0
  C  C45  1  0.22746000  0.29244000  0.14113000  1.0
  S  S46  1  0.83114000  0.71653000  0.64423000  1.0
  S  S47  1  0.16885000  0.28348000  0.35577000  1.0
  N  N48  1  0.73064000  0.73489000  0.04898000  1.0
  N  N49  1  0.26935000  0.26511000  0.95102000  1.0
  O  O50  1  0.88726000  0.61023000  0.58412000  1.0
  O  O51  1  0.11274000  0.38978000  0.41588000  1.0
  O  O52  1  0.64044000  0.83308000  0.59835000  1.0
  O  O53  1  0.35955000  0.16693000  0.40165000  1.0
  O  O54  1  0.99128000  0.78024000  0.65661000  1.0
  O  O55  1  0.00871000  0.21976000  0.34339000  1.0
  O  O56  1  0.48575000  0.56894000  0.60988000  1.0
  O  O57  1  0.51425000  0.43106000  0.39012000  1.0
  O  O58  1  0.71643000  0.37831000  0.57656000  1.0
  O  O59  1  0.28357000  0.62170000  0.42343000  1.0
  O  O60  1  0.89752000  0.05700000  0.14622000  1.0
  O  O61  1  0.10248000  0.94299000  0.85378000  1.0
  O  O62  1  0.67541000  0.24988000  0.18134000  1.0
  O  O63  1  0.32461000  0.75011000  0.81866000  1.0
  O  O64  1  0.74753000  0.67338000  0.15199000  1.0
  O  O65  1  0.25246000  0.32662000  0.84801000  1.0
  O  O66  1  0.69432000  0.86805000  0.00401000  1.0
  O  O67  1  0.30566000  0.13196000  0.99599000  1.0
  O  O68  1  0.29327000  0.91275000  0.42540000  1.0
  O  O69  1  0.70673000  0.08725000  0.57460000  1.0
  O  O70  1  0.08508000  0.06395000  0.63733000  1.0
  O  O71  1  0.91492000  0.93604000  0.36266000  1.0
