# generated using pymatgen
data_ZnH24C28(NO2)2
_symmetry_space_group_name_H-M   'P 1'
_cell_length_a   10.12920000
_cell_length_b   11.10090000
_cell_length_c   11.19900000
_cell_angle_alpha   88.00220000
_cell_angle_beta   71.21000000
_cell_angle_gamma   79.56070000
_symmetry_Int_Tables_number   1
_chemical_formula_structural   ZnH24C28(NO2)2
_chemical_formula_sum   'Zn2 H48 C56 N4 O8'
_cell_volume   1172.03402009
_cell_formula_units_Z   2
loop_
 _symmetry_equiv_pos_site_id
 _symmetry_equiv_pos_as_xyz
  1  'x, y, z'
loop_
 _atom_site_type_symbol
 _atom_site_label
 _atom_site_symmetry_multiplicity
 _atom_site_fract_x
 _atom_site_fract_y
 _atom_site_fract_z
 _atom_site_occupancy
  Zn  Zn0  1  0.57206000  0.61435000  0.58572000  1.0
  Zn  Zn1  1  0.42794000  0.38565000  0.41429000  1.0
  H  H2  1  0.55826000  0.39485000  0.76377000  1.0
  H  H3  1  0.44174000  0.60515000  0.23623000  1.0
  H  H4  1  0.71491000  0.19754000  0.78155000  1.0
  H  H5  1  0.28509000  0.80246000  0.21845000  1.0
  H  H6  1  0.04906000  0.31526000  0.47557000  1.0
  H  H7  1  0.95095000  0.68474000  0.52443000  1.0
  H  H8  1  0.87619000  0.50419000  0.46862000  1.0
  H  H9  1  0.12380000  0.49581000  0.53138000  1.0
  H  H10  1  0.25644000  0.69775000  0.70343000  1.0
  H  H11  1  0.74356000  0.30225000  0.29657000  1.0
  H  H12  1  0.07089000  0.88045000  0.70777000  1.0
  H  H13  1  0.92911000  0.11954000  0.29223000  1.0
  H  H14  1  0.38667000  0.02698000  0.40912000  1.0
  H  H15  1  0.61333000  0.97301000  0.59088000  1.0
  H  H16  1  0.55919000  0.83290000  0.41619000  1.0
  H  H17  1  0.44081000  0.16709000  0.58380000  1.0
  H  H18  1  0.93551000  0.05695000  0.70260000  1.0
  H  H19  1  0.06449000  0.94305000  0.29740000  1.0
  H  H20  1  0.17122000  0.15262000  0.49033000  1.0
  H  H21  1  0.82878000  0.84738000  0.50966000  1.0
  H  H22  1  0.47778000  0.74168000  0.00574000  1.0
  H  H23  1  0.52223000  0.25832000  0.99426000  1.0
  H  H24  1  0.51598000  0.85504000  0.17826000  1.0
  H  H25  1  0.48402000  0.14496000  0.82174000  1.0
  H  H26  1  0.83203000  0.01748000  0.90146000  1.0
  H  H27  1  0.16797000  0.98252000  0.09854000  1.0
  H  H28  1  0.79311000  0.90312000  0.72970000  1.0
  H  H29  1  0.20689000  0.09689000  0.27030000  1.0
  H  H30  1  0.80438000  0.96469000  0.16690000  1.0
  H  H31  1  0.19562000  0.03531000  0.83310000  1.0
  H  H32  1  0.61982000  0.00780000  0.24430000  1.0
  H  H33  1  0.38018000  0.99220000  0.75570000  1.0
  H  H34  1  0.71080000  0.10527000  0.13124000  1.0
  H  H35  1  0.28920000  0.89473000  0.86877000  1.0
  H  H36  1  0.13783000  0.28741000  0.79335000  1.0
  H  H37  1  0.86217000  0.71259000  0.20665000  1.0
  H  H38  1  0.01697000  0.27421000  0.02507000  1.0
  H  H39  1  0.98303000  0.72579000  0.97493000  1.0
  H  H40  1  0.24497000  0.53998000  0.09605000  1.0
  H  H41  1  0.75503000  0.46003000  0.90395000  1.0
  H  H42  1  0.36136000  0.55627000  0.86574000  1.0
  H  H43  1  0.63864000  0.44374000  0.13426000  1.0
  H  H44  1  0.97245000  0.33961000  0.23771000  1.0
  H  H45  1  0.02755000  0.66039000  0.76229000  1.0
  H  H46  1  0.99616000  0.49155000  0.25591000  1.0
  H  H47  1  0.00384000  0.50845000  0.74409000  1.0
  H  H48  1  0.12816000  0.36603000  0.26492000  1.0
  H  H49  1  0.87184000  0.63397000  0.73508000  1.0
  C  C50  1  0.66760000  0.37290000  0.70165000  1.0
  C  C51  1  0.33240000  0.62710000  0.29835000  1.0
  C  C52  1  0.75552000  0.26384000  0.71130000  1.0
  C  C53  1  0.24448000  0.73616000  0.28869000  1.0
  C  C54  1  0.89588000  0.23794000  0.62890000  1.0
  C  C55  1  0.10413000  0.76206000  0.37110000  1.0
  C  C56  1  0.94129000  0.32828000  0.54152000  1.0
  C  C57  1  0.05871000  0.67172000  0.45848000  1.0
  C  C58  1  0.84634000  0.43395000  0.53735000  1.0
  C  C59  1  0.15365000  0.56605000  0.46265000  1.0
  C  C60  1  0.27933000  0.77300000  0.63941000  1.0
  C  C61  1  0.72067000  0.22700000  0.36059000  1.0
  C  C62  1  0.17747000  0.87533000  0.64093000  1.0
  C  C63  1  0.82253000  0.12466000  0.35907000  1.0
  C  C64  1  0.21462000  0.97176000  0.55916000  1.0
  C  C65  1  0.78538000  0.02823000  0.44083000  1.0
  C  C66  1  0.35416000  0.95481000  0.47474000  1.0
  C  C67  1  0.64584000  0.04518000  0.52525000  1.0
  C  C68  1  0.44954000  0.84886000  0.47854000  1.0
  C  C69  1  0.55045000  0.15113000  0.52146000  1.0
  C  C70  1  0.98572000  0.12081000  0.63392000  1.0
  C  C71  1  0.01428000  0.87919000  0.36608000  1.0
  C  C72  1  0.12146000  0.08793000  0.55850000  1.0
  C  C73  1  0.87854000  0.91207000  0.44150000  1.0
  C  C74  1  0.61135000  0.74535000  0.75679000  1.0
  C  C75  1  0.38865000  0.25465000  0.24321000  1.0
  C  C76  1  0.63238000  0.81618000  0.85802000  1.0
  C  C77  1  0.36762000  0.18382000  0.14198000  1.0
  C  C78  1  0.55445000  0.80320000  0.98457000  1.0
  C  C79  1  0.44556000  0.19680000  0.01542000  1.0
  C  C80  1  0.57650000  0.86618000  0.07969000  1.0
  C  C81  1  0.42350000  0.13382000  0.92031000  1.0
  C  C82  1  0.67652000  0.94377000  0.05127000  1.0
  C  C83  1  0.32348000  0.05623000  0.94873000  1.0
  C  C84  1  0.75399000  0.95676000  0.92414000  1.0
  C  C85  1  0.24601000  0.04325000  0.07586000  1.0
  C  C86  1  0.73262000  0.89390000  0.82861000  1.0
  C  C87  1  0.26738000  0.10610000  0.17139000  1.0
  C  C88  1  0.70384000  0.00901000  0.15352000  1.0
  C  C89  1  0.29616000  0.99099000  0.84648000  1.0
  C  C90  1  0.32597000  0.43255000  0.67635000  1.0
  C  C91  1  0.67403000  0.56745000  0.32365000  1.0
  C  C92  1  0.25711000  0.42183000  0.81496000  1.0
  C  C93  1  0.74289000  0.57818000  0.18504000  1.0
  C  C94  1  0.16048000  0.34219000  0.86094000  1.0
  C  C95  1  0.83952000  0.65781000  0.13906000  1.0
  C  C96  1  0.09365000  0.33521000  0.99018000  1.0
  C  C97  1  0.90634000  0.66479000  0.00982000  1.0
  C  C98  1  0.12277000  0.40597000  0.07664000  1.0
  C  C99  1  0.87722000  0.59404000  0.92336000  1.0
  C  C100  1  0.22093000  0.48449000  0.02976000  1.0
  C  C101  1  0.77907000  0.51551000  0.97025000  1.0
  C  C102  1  0.28686000  0.49348000  0.90081000  1.0
  C  C103  1  0.71314000  0.50652000  0.09919000  1.0
  C  C104  1  0.05107000  0.40009000  0.21603000  1.0
  C  C105  1  0.94893000  0.59991000  0.78397000  1.0
  N  N106  1  0.71101000  0.45641000  0.61466000  1.0
  N  N107  1  0.28898000  0.54359000  0.38534000  1.0
  N  N108  1  0.41386000  0.75974000  0.56071000  1.0
  N  N109  1  0.58614000  0.24026000  0.43928000  1.0
  O  O110  1  0.69180000  0.75046000  0.64265000  1.0
  O  O111  1  0.30820000  0.24954000  0.35735000  1.0
  O  O112  1  0.51471000  0.67993000  0.78564000  1.0
  O  O113  1  0.48529000  0.32007000  0.21436000  1.0
  O  O114  1  0.40696000  0.51020000  0.63736000  1.0
  O  O115  1  0.59304000  0.48980000  0.36263000  1.0
  O  O116  1  0.29932000  0.36329000  0.60073000  1.0
  O  O117  1  0.70068000  0.63671000  0.39927000  1.0
