# generated using pymatgen
data_CuH15C14N3ClO2
_symmetry_space_group_name_H-M   'P 1'
_cell_length_a   7.76334000
_cell_length_b   8.63030000
_cell_length_c   11.07380000
_cell_angle_alpha   87.32230000
_cell_angle_beta   74.36390000
_cell_angle_gamma   87.72020000
_symmetry_Int_Tables_number   1
_chemical_formula_structural   CuH15C14N3ClO2
_chemical_formula_sum   'Cu2 H30 C28 N6 Cl2 O4'
_cell_volume   713.42166643
_cell_formula_units_Z   2
loop_
 _symmetry_equiv_pos_site_id
 _symmetry_equiv_pos_as_xyz
  1  'x, y, z'
loop_
 _atom_site_type_symbol
 _atom_site_label
 _atom_site_symmetry_multiplicity
 _atom_site_fract_x
 _atom_site_fract_y
 _atom_site_fract_z
 _atom_site_occupancy
  Cu  Cu0  1  0.60803000  0.93107000  0.33797000  1.0
  Cu  Cu1  1  0.39197000  0.06893000  0.66203000  1.0
  H  H2  1  0.90720000  0.63198000  0.23960000  1.0
  H  H3  1  0.09280000  0.36802000  0.76040000  1.0
  H  H4  1  0.28103000  0.99167000  0.27835000  1.0
  H  H5  1  0.71896000  0.00833000  0.72165000  1.0
  H  H6  1  0.03008000  0.84576000  0.24326000  1.0
  H  H7  1  0.96992000  0.15424000  0.75674000  1.0
  H  H8  1  0.25444000  0.43450000  0.39323000  1.0
  H  H9  1  0.74557000  0.56550000  0.60677000  1.0
  H  H10  1  0.49147000  0.59765000  0.41973000  1.0
  H  H11  1  0.50854000  0.40235000  0.58027000  1.0
  H  H12  1  0.92319000  0.04207000  0.42578000  1.0
  H  H13  1  0.07681000  0.95793000  0.57423000  1.0
  H  H14  1  0.07465000  0.28727000  0.41359000  1.0
  H  H15  1  0.92535000  0.71273000  0.58642000  1.0
  H  H16  1  0.73120000  0.47732000  0.18825000  1.0
  H  H17  1  0.26881000  0.52267000  0.81174000  1.0
  H  H18  1  0.59824000  0.21650000  0.20765000  1.0
  H  H19  1  0.40177000  0.78350000  0.79234000  1.0
  H  H20  1  0.84232000  0.85989000  0.90381000  1.0
  H  H21  1  0.15768000  0.14012000  0.09619000  1.0
  H  H22  1  0.60748000  0.89714000  0.93842000  1.0
  H  H23  1  0.39252000  0.10286000  0.06158000  1.0
  H  H24  1  0.70049000  0.64195000  0.83653000  1.0
  H  H25  1  0.29951000  0.35806000  0.16347000  1.0
  H  H26  1  0.79900000  0.58073000  0.95759000  1.0
  H  H27  1  0.20101000  0.41927000  0.04240000  1.0
  H  H28  1  0.39812000  0.65534000  0.99250000  1.0
  H  H29  1  0.60189000  0.34465000  0.00749000  1.0
  H  H30  1  0.49496000  0.59669000  0.11393000  1.0
  H  H31  1  0.50505000  0.40331000  0.88607000  1.0
  C  C32  1  0.26910000  0.86812000  0.30198000  1.0
  C  C33  1  0.73090000  0.13188000  0.69803000  1.0
  C  C34  1  0.13019000  0.78720000  0.28313000  1.0
  C  C35  1  0.86981000  0.21280000  0.71687000  1.0
  C  C36  1  0.11774000  0.62628000  0.31340000  1.0
  C  C37  1  0.88225000  0.37373000  0.68661000  1.0
  C  C38  1  0.25026000  0.55671000  0.36533000  1.0
  C  C39  1  0.74974000  0.44329000  0.63467000  1.0
  C  C40  1  0.38604000  0.64787000  0.38080000  1.0
  C  C41  1  0.61396000  0.35213000  0.61920000  1.0
  C  C42  1  0.88724000  0.14102000  0.37192000  1.0
  C  C43  1  0.11276000  0.85898000  0.62808000  1.0
  C  C44  1  0.97139000  0.28134000  0.36471000  1.0
  C  C45  1  0.02861000  0.71866000  0.63529000  1.0
  C  C46  1  0.91562000  0.40832000  0.29871000  1.0
  C  C47  1  0.08438000  0.59168000  0.70129000  1.0
  C  C48  1  0.77768000  0.38269000  0.24118000  1.0
  C  C49  1  0.22232000  0.61731000  0.75882000  1.0
  C  C50  1  0.70323000  0.23891000  0.25214000  1.0
  C  C51  1  0.29677000  0.76109000  0.74786000  1.0
  C  C52  1  0.70957000  0.84387000  0.09797000  1.0
  C  C53  1  0.29044000  0.15613000  0.90203000  1.0
  C  C54  1  0.71137000  0.82131000  0.96244000  1.0
  C  C55  1  0.28864000  0.17869000  0.03756000  1.0
  C  C56  1  0.68809000  0.65137000  0.93734000  1.0
  C  C57  1  0.31192000  0.34863000  0.06266000  1.0
  C  C58  1  0.50962000  0.58514000  0.01289000  1.0
  C  C59  1  0.49039000  0.41486000  0.98711000  1.0
  N  N60  1  0.39804000  0.80020000  0.34962000  1.0
  N  N61  1  0.60196000  0.19980000  0.65038000  1.0
  N  N62  1  0.97755000  0.55680000  0.28544000  1.0
  N  N63  1  0.02245000  0.44320000  0.71457000  1.0
  N  N64  1  0.75568000  0.11789000  0.31731000  1.0
  N  N65  1  0.24433000  0.88211000  0.68269000  1.0
  Cl  Cl66  1  0.67096000  0.82992000  0.51493000  1.0
  Cl  Cl67  1  0.32904000  0.17008000  0.48507000  1.0
  O  O68  1  0.61422000  0.95913000  0.15312000  1.0
  O  O69  1  0.38578000  0.04087000  0.84688000  1.0
  O  O70  1  0.79641000  0.75103000  0.15219000  1.0
  O  O71  1  0.20359000  0.24897000  0.84781000  1.0
