# generated using pymatgen
data_Cd2H16C24(N2O3)3
_symmetry_space_group_name_H-M   'P 1'
_cell_length_a   10.39650000
_cell_length_b   14.28110000
_cell_length_c   20.48418684
_cell_angle_alpha   75.02502068
_cell_angle_beta   75.33304275
_cell_angle_gamma   89.97990000
_symmetry_Int_Tables_number   1
_chemical_formula_structural   Cd2H16C24(N2O3)3
_chemical_formula_sum   'Cd8 H64 C96 N24 O36'
_cell_volume   2835.43050766
_cell_formula_units_Z   4
loop_
 _symmetry_equiv_pos_site_id
 _symmetry_equiv_pos_as_xyz
  1  'x, y, z'
loop_
 _atom_site_type_symbol
 _atom_site_label
 _atom_site_symmetry_multiplicity
 _atom_site_fract_x
 _atom_site_fract_y
 _atom_site_fract_z
 _atom_site_occupancy
  Cd  Cd0  1  0.32330000  0.19865000  0.65867000  1.0
  Cd  Cd1  1  0.98142000  0.30110000  0.34169000  1.0
  Cd  Cd2  1  0.67670000  0.80134000  0.34133000  1.0
  Cd  Cd3  1  0.01858000  0.69890000  0.65831000  1.0
  Cd  Cd4  1  0.46673000  0.89224000  0.66750000  1.0
  Cd  Cd5  1  0.13327000  0.60764000  0.33272000  1.0
  Cd  Cd6  1  0.53327000  0.10776000  0.33252000  1.0
  Cd  Cd7  1  0.86674000  0.39236000  0.66728000  1.0
  H  H8  1  0.93479000  0.13660000  0.56385000  1.0
  H  H9  1  0.49829000  0.36377000  0.43620000  1.0
  H  H10  1  0.06522000  0.86339000  0.43615000  1.0
  H  H11  1  0.50172000  0.63623000  0.56380000  1.0
  H  H12  1  0.76634000  0.01628000  0.55544000  1.0
  H  H13  1  0.32180000  0.48440000  0.44450000  1.0
  H  H14  1  0.23367000  0.98372000  0.44455000  1.0
  H  H15  1  0.67822000  0.51559000  0.55550000  1.0
  H  H16  1  0.80748000  0.83984000  0.58452000  1.0
  H  H17  1  0.39212000  0.66072000  0.41538000  1.0
  H  H18  1  0.19253000  0.16016000  0.41547000  1.0
  H  H19  1  0.60789000  0.33927000  0.58463000  1.0
  H  H20  1  0.92453000  0.03828000  0.77081000  1.0
  H  H21  1  0.69397000  0.46192000  0.22921000  1.0
  H  H22  1  0.07548000  0.96171000  0.22919000  1.0
  H  H23  1  0.30603000  0.53810000  0.77074000  1.0
  H  H24  1  0.89482000  0.86082000  0.77766000  1.0
  H  H25  1  0.67076000  0.63930000  0.22249000  1.0
  H  H26  1  0.10518000  0.13917000  0.22235000  1.0
  H  H27  1  0.32926000  0.36070000  0.77752000  1.0
  H  H28  1  0.70513000  0.80488000  0.73828000  1.0
  H  H29  1  0.44167000  0.69507000  0.26211000  1.0
  H  H30  1  0.29487000  0.19512000  0.26172000  1.0
  H  H31  1  0.55835000  0.30494000  0.73791000  1.0
  H  H32  1  0.40026000  0.14740000  0.81834000  1.0
  H  H33  1  0.21734000  0.35246000  0.18237000  1.0
  H  H34  1  0.59973000  0.85260000  0.18167000  1.0
  H  H35  1  0.78266000  0.64754000  0.81764000  1.0
  H  H36  1  0.04448000  0.18496000  0.76232000  1.0
  H  H37  1  0.80568000  0.31497000  0.23788000  1.0
  H  H38  1  0.95553000  0.81506000  0.23767000  1.0
  H  H39  1  0.19431000  0.68502000  0.76213000  1.0
  H  H40  1  0.28188000  0.11873000  0.94693000  1.0
  H  H41  1  0.22779000  0.38152000  0.05368000  1.0
  H  H42  1  0.71810000  0.88127000  0.05307000  1.0
  H  H43  1  0.77222000  0.61849000  0.94632000  1.0
  H  H44  1  0.91148000  0.15593000  0.88671000  1.0
  H  H45  1  0.79740000  0.34419000  0.11335000  1.0
  H  H46  1  0.08851000  0.84407000  0.11328000  1.0
  H  H47  1  0.20259000  0.65580000  0.88666000  1.0
  H  H48  1  0.52923000  0.15801000  0.17459000  1.0
  H  H49  1  0.70527000  0.34239000  0.82471000  1.0
  H  H50  1  0.47076000  0.84199000  0.82541000  1.0
  H  H51  1  0.29474000  0.65761000  0.17529000  1.0
  H  H52  1  0.84411000  0.04877000  0.25344000  1.0
  H  H53  1  0.09900000  0.45110000  0.74681000  1.0
  H  H54  1  0.15588000  0.95122000  0.74656000  1.0
  H  H55  1  0.90101000  0.54891000  0.25319000  1.0
  H  H56  1  0.65908000  0.16663000  0.05110000  1.0
  H  H57  1  0.71068000  0.33346000  0.94841000  1.0
  H  H58  1  0.34091000  0.83338000  0.94891000  1.0
  H  H59  1  0.28934000  0.66652000  0.05159000  1.0
  H  H60  1  0.99267000  0.06511000  0.13230000  1.0
  H  H61  1  0.12543000  0.43459000  0.86826000  1.0
  H  H62  1  0.00731000  0.93489000  0.86771000  1.0
  H  H63  1  0.87458000  0.56541000  0.13174000  1.0
  H  H64  1  0.64079000  0.89552000  0.51157000  1.0
  H  H65  1  0.15246000  0.60445000  0.48848000  1.0
  H  H66  1  0.35922000  0.10454000  0.48839000  1.0
  H  H67  1  0.84754000  0.39552000  0.51156000  1.0
  H  H68  1  0.49498000  0.93037000  0.52556000  1.0
  H  H69  1  0.02049000  0.56957000  0.47466000  1.0
  H  H70  1  0.50478000  0.06923000  0.47457000  1.0
  H  H71  1  0.97947000  0.43067000  0.52527000  1.0
  C  C72  1  0.16704000  0.09374000  0.60187000  1.0
  C  C73  1  0.76863000  0.40638000  0.39826000  1.0
  C  C74  1  0.83297000  0.90626000  0.39812000  1.0
  C  C75  1  0.23138000  0.59362000  0.60175000  1.0
  C  C76  1  0.06814000  0.02549000  0.59125000  1.0
  C  C77  1  0.65919000  0.47470000  0.40881000  1.0
  C  C78  1  0.93187000  0.97451000  0.40875000  1.0
  C  C79  1  0.34082000  0.52529000  0.59120000  1.0
  C  C80  1  0.95177000  0.05940000  0.57325000  1.0
  C  C81  1  0.52485000  0.44093000  0.42676000  1.0
  C  C82  1  0.04825000  0.94060000  0.42674000  1.0
  C  C83  1  0.47516000  0.55906000  0.57324000  1.0
  C  C84  1  0.85794000  0.99312000  0.56935000  1.0
  C  C85  1  0.42729000  0.50738000  0.43063000  1.0
  C  C86  1  0.14208000  0.00688000  0.43064000  1.0
  C  C87  1  0.57273000  0.49261000  0.56937000  1.0
  C  C88  1  0.88012000  0.89426000  0.58532000  1.0
  C  C89  1  0.46549000  0.60622000  0.41462000  1.0
  C  C90  1  0.11990000  0.10574000  0.41467000  1.0
  C  C91  1  0.53452000  0.39377000  0.58539000  1.0
  C  C92  1  0.08365000  0.92535000  0.60556000  1.0
  C  C93  1  0.68911000  0.57482000  0.39442000  1.0
  C  C94  1  0.91637000  0.07465000  0.39443000  1.0
  C  C95  1  0.31090000  0.42518000  0.60560000  1.0
  C  C96  1  0.20443000  0.88396000  0.62760000  1.0
  C  C97  1  0.83186000  0.61604000  0.37237000  1.0
  C  C98  1  0.79558000  0.11602000  0.37239000  1.0
  C  C99  1  0.16815000  0.38396000  0.62765000  1.0
  C  C100  1  0.77153000  0.18070000  0.72939000  1.0
  C  C101  1  0.50015000  0.31933000  0.27082000  1.0
  C  C102  1  0.22848000  0.81930000  0.27061000  1.0
  C  C103  1  0.49983000  0.68070000  0.72913000  1.0
  C  C104  1  0.75242000  0.07493000  0.73149000  1.0
  C  C105  1  0.48272000  0.42508000  0.26869000  1.0
  C  C106  1  0.24759000  0.92506000  0.26852000  1.0
  C  C107  1  0.51727000  0.57494000  0.73129000  1.0
  C  C108  1  0.84183000  0.01027000  0.75601000  1.0
  C  C109  1  0.59643000  0.48983000  0.24410000  1.0
  C  C110  1  0.15818000  0.98972000  0.24400000  1.0
  C  C111  1  0.40358000  0.51019000  0.75587000  1.0
  C  C112  1  0.82601000  0.91243000  0.75944000  1.0
  C  C113  1  0.58388000  0.58765000  0.24076000  1.0
  C  C114  1  0.17400000  0.08756000  0.24057000  1.0
  C  C115  1  0.41614000  0.41236000  0.75923000  1.0
  C  C116  1  0.72122000  0.88061000  0.73753000  1.0
  C  C117  1  0.45717000  0.61938000  0.26278000  1.0
  C  C118  1  0.27880000  0.11939000  0.26247000  1.0
  C  C119  1  0.54285000  0.38063000  0.73722000  1.0
  C  C120  1  0.64985000  0.03720000  0.71038000  1.0
  C  C121  1  0.35906000  0.46272000  0.28988000  1.0
  C  C122  1  0.35016000  0.96280000  0.28963000  1.0
  C  C123  1  0.64093000  0.53730000  0.71011000  1.0
  C  C124  1  0.54622000  0.09975000  0.68509000  1.0
  C  C125  1  0.23049000  0.39998000  0.31516000  1.0
  C  C126  1  0.45377000  0.90024000  0.31492000  1.0
  C  C127  1  0.76950000  0.60005000  0.68484000  1.0
  C  C128  1  0.29216000  0.14841000  0.83622000  1.0
  C  C129  1  0.12723000  0.35149000  0.16435000  1.0
  C  C130  1  0.70783000  0.85159000  0.16378000  1.0
  C  C131  1  0.87276000  0.64851000  0.83566000  1.0
  C  C132  1  0.09268000  0.16856000  0.80498000  1.0
  C  C133  1  0.89658000  0.33133000  0.19531000  1.0
  C  C134  1  0.90732000  0.83144000  0.19501000  1.0
  C  C135  1  0.10341000  0.66865000  0.80470000  1.0
  C  C136  1  0.22691000  0.13271000  0.90700000  1.0
  C  C137  1  0.13289000  0.36739000  0.09354000  1.0
  C  C138  1  0.77308000  0.86728000  0.09300000  1.0
  C  C139  1  0.86710000  0.63261000  0.90647000  1.0
  C  C140  1  0.01937000  0.15326000  0.87401000  1.0
  C  C141  1  0.89247000  0.34675000  0.12621000  1.0
  C  C142  1  0.98063000  0.84674000  0.12598000  1.0
  C  C143  1  0.10753000  0.65324000  0.87379000  1.0
  C  C144  1  0.08817000  0.13576000  0.92631000  1.0
  C  C145  1  0.01364000  0.36432000  0.07406000  1.0
  C  C146  1  0.91181000  0.86424000  0.07369000  1.0
  C  C147  1  0.98635000  0.63568000  0.92594000  1.0
  C  C148  1  0.63064000  0.13573000  0.16326000  1.0
  C  C149  1  0.79510000  0.36456000  0.83628000  1.0
  C  C150  1  0.36936000  0.86427000  0.83674000  1.0
  C  C151  1  0.20490000  0.63545000  0.16372000  1.0
  C  C152  1  0.80880000  0.07854000  0.20692000  1.0
  C  C153  1  0.01697000  0.42147000  0.79318000  1.0
  C  C154  1  0.19119000  0.92146000  0.79308000  1.0
  C  C155  1  0.98304000  0.57853000  0.20682000  1.0
  C  C156  1  0.70295000  0.14213000  0.09505000  1.0
  C  C157  1  0.79864000  0.35802000  0.90461000  1.0
  C  C158  1  0.29704000  0.85788000  0.90495000  1.0
  C  C159  1  0.20138000  0.64197000  0.09539000  1.0
  C  C160  1  0.89013000  0.08552000  0.14021000  1.0
  C  C161  1  0.03100000  0.41437000  0.86004000  1.0
  C  C162  1  0.10986000  0.91449000  0.85979000  1.0
  C  C163  1  0.96902000  0.58563000  0.13996000  1.0
  C  C164  1  0.83584000  0.11830000  0.08289000  1.0
  C  C165  1  0.91908000  0.38169000  0.91711000  1.0
  C  C166  1  0.16416000  0.88171000  0.91711000  1.0
  C  C167  1  0.08094000  0.61831000  0.08289000  1.0
  N  N168  1  0.99015000  0.86130000  0.60364000  1.0
  N  N169  1  0.59383000  0.63902000  0.39625000  1.0
  N  N170  1  0.00987000  0.13870000  0.39635000  1.0
  N  N171  1  0.40619000  0.36097000  0.60376000  1.0
  N  N172  1  0.63633000  0.94212000  0.71315000  1.0
  N  N173  1  0.34811000  0.55778000  0.28717000  1.0
  N  N174  1  0.36368000  0.05788000  0.28686000  1.0
  N  N175  1  0.65191000  0.44225000  0.71282000  1.0
  N  N176  1  0.22671000  0.16661000  0.78596000  1.0
  N  N177  1  0.01150000  0.33319000  0.21448000  1.0
  N  N178  1  0.77329000  0.83339000  0.21403000  1.0
  N  N179  1  0.98849000  0.66679000  0.78553000  1.0
  N  N180  1  0.68208000  0.10455000  0.21837000  1.0
  N  N181  1  0.90190000  0.39565000  0.78140000  1.0
  N  N182  1  0.31791000  0.89545000  0.78163000  1.0
  N  N183  1  0.09810000  0.60436000  0.21860000  1.0
  N  N184  1  0.90231000  0.12955000  0.01173000  1.0
  N  N185  1  0.91389000  0.37016000  0.98837000  1.0
  N  N186  1  0.09769000  0.87046000  0.98826000  1.0
  N  N187  1  0.08612000  0.62982000  0.01163000  1.0
  N  N188  1  0.02675000  0.12206000  0.99887000  1.0
  N  N189  1  0.02515000  0.37829000  0.00145000  1.0
  N  N190  1  0.97324000  0.87793000  0.00113000  1.0
  N  N191  1  0.97486000  0.62172000  0.99855000  1.0
  O  O192  1  0.24824000  0.15107000  0.55043000  1.0
  O  O193  1  0.79838000  0.34900000  0.44975000  1.0
  O  O194  1  0.75174000  0.84896000  0.44957000  1.0
  O  O195  1  0.20161000  0.65098000  0.55026000  1.0
  O  O196  1  0.15530000  0.09037000  0.66604000  1.0
  O  O197  1  0.82096000  0.40970000  0.33412000  1.0
  O  O198  1  0.84473000  0.90959000  0.33396000  1.0
  O  O199  1  0.17907000  0.59032000  0.66589000  1.0
  O  O200  1  0.30632000  0.94284000  0.61092000  1.0
  O  O201  1  0.91690000  0.55712000  0.38936000  1.0
  O  O202  1  0.69374000  0.05711000  0.38903000  1.0
  O  O203  1  0.08311000  0.44291000  0.61071000  1.0
  O  O204  1  0.19660000  0.79622000  0.66228000  1.0
  O  O205  1  0.85877000  0.70365000  0.33745000  1.0
  O  O206  1  0.80336000  0.20379000  0.33775000  1.0
  O  O207  1  0.14124000  0.29634000  0.66254000  1.0
  O  O208  1  0.52631000  0.17887000  0.70188000  1.0
  O  O209  1  0.22775000  0.32086000  0.29833000  1.0
  O  O210  1  0.47368000  0.82113000  0.29813000  1.0
  O  O211  1  0.77223000  0.67916000  0.70167000  1.0
  O  O212  1  0.47856000  0.06909000  0.64972000  1.0
  O  O213  1  0.12737000  0.43046000  0.35056000  1.0
  O  O214  1  0.52143000  0.93089000  0.35030000  1.0
  O  O215  1  0.87264000  0.56957000  0.64944000  1.0
  O  O216  1  0.81686000  0.23886000  0.66829000  1.0
  O  O217  1  0.48455000  0.26118000  0.33193000  1.0
  O  O218  1  0.18315000  0.76113000  0.33171000  1.0
  O  O219  1  0.51549000  0.73884000  0.66801000  1.0
  O  O220  1  0.74798000  0.20066000  0.78718000  1.0
  O  O221  1  0.53469000  0.29933000  0.21305000  1.0
  O  O222  1  0.25201000  0.79935000  0.21282000  1.0
  O  O223  1  0.46524000  0.70073000  0.78689000  1.0
  O  O224  1  0.57559000  0.92782000  0.54199000  1.0
  O  O225  1  0.11748000  0.57226000  0.45804000  1.0
  O  O226  1  0.42434000  0.07222000  0.45796000  1.0
  O  O227  1  0.88248000  0.42772000  0.54199000  1.0
