# generated using pymatgen
data_Al6H82(C7O3)13
_symmetry_space_group_name_H-M   'P 1'
_cell_length_a   13.01950000
_cell_length_b   13.03666391
_cell_length_c   28.34150000
_cell_angle_alpha   89.88729684
_cell_angle_beta   88.98710000
_cell_angle_gamma   60.59000226
_symmetry_Int_Tables_number   1
_chemical_formula_structural   Al6H82(C7O3)13
_chemical_formula_sum   'Al6 H82 C91 O39'
_cell_volume   4189.71884079
_cell_formula_units_Z   1
loop_
 _symmetry_equiv_pos_site_id
 _symmetry_equiv_pos_as_xyz
  1  'x, y, z'
loop_
 _atom_site_type_symbol
 _atom_site_label
 _atom_site_symmetry_multiplicity
 _atom_site_fract_x
 _atom_site_fract_y
 _atom_site_fract_z
 _atom_site_occupancy
  Al  Al0  1  0.41460000  0.40546000  0.50245000  1.0
  Al  Al1  1  0.41897000  0.64975000  0.50102000  1.0
  Al  Al2  1  0.65076000  0.42591000  0.49981000  1.0
  Al  Al3  1  0.92530000  0.92300000  0.99826000  1.0
  Al  Al4  1  0.68149000  0.91657000  0.00170000  1.0
  Al  Al5  1  0.90760000  0.68605000  0.00268000  1.0
  H  H6  1  0.86705000  0.03518000  0.69531000  1.0
  H  H7  1  0.56807000  0.89000000  0.70660000  1.0
  H  H8  1  0.33213000  0.49711000  0.71330000  1.0
  H  H9  1  0.00862000  0.65917000  0.69418000  1.0
  H  H10  1  0.13192000  0.52010000  0.70531000  1.0
  H  H11  1  0.06115000  0.54653000  0.78390000  1.0
  H  H12  1  0.96112000  0.69710000  0.77523000  1.0
  H  H13  1  0.01452000  0.82920000  0.71464000  1.0
  H  H14  1  0.18302000  0.79879000  0.79255000  1.0
  H  H15  1  0.34841000  0.61974000  0.72707000  1.0
  H  H16  1  0.32120000  0.58702000  0.80662000  1.0
  H  H17  1  0.87294000  0.03844000  0.77829000  1.0
  H  H18  1  0.02924000  0.85429000  0.79564000  1.0
  H  H19  1  0.76927000  0.48345000  0.20437000  1.0
  H  H20  1  0.74042000  0.46974000  0.28549000  1.0
  H  H21  1  0.74523000  0.75272000  0.30236000  1.0
  H  H22  1  0.83424000  0.59763000  0.29678000  1.0
  H  H23  1  0.85143000  0.62290000  0.21562000  1.0
  H  H24  1  0.75399000  0.77596000  0.22180000  1.0
  H  H25  1  0.45598000  0.76434000  0.28668000  1.0
  H  H26  1  0.52940000  0.84793000  0.28956000  1.0
  H  H27  1  0.47878000  0.74889000  0.20531000  1.0
  H  H28  1  0.81970000  0.93759000  0.77637000  1.0
  H  H29  1  0.80041000  0.50480000  0.78152000  1.0
  H  H30  1  0.58634000  0.53570000  0.27763000  1.0
  H  H31  1  0.61591000  0.54052000  0.19690000  1.0
  H  H32  1  0.47858000  0.28092000  0.20298000  1.0
  H  H33  1  0.47689000  0.25558000  0.28446000  1.0
  H  H34  1  0.79283000  0.00392000  0.28383000  1.0
  H  H35  1  0.70970000  0.31573000  0.26954000  1.0
  H  H36  1  0.87316000  0.58837000  0.70360000  1.0
  H  H37  1  0.79467000  0.22879000  0.19620000  1.0
  H  H38  1  0.51836000  0.36562000  0.28820000  1.0
  H  H39  1  0.49191000  0.25462000  0.71509000  1.0
  H  H40  1  0.56199000  0.35437000  0.20704000  1.0
  H  H41  1  0.85540000  0.08293000  0.21721000  1.0
  H  H42  1  0.23108000  0.79474000  0.27941000  1.0
  H  H43  1  0.01101000  0.69811000  0.30182000  1.0
  H  H44  1  0.03456000  0.81999000  0.30613000  1.0
  H  H45  1  0.01948000  0.84850000  0.22459000  1.0
  H  H46  1  0.78557000  0.81034000  0.74925000  1.0
  H  H47  1  0.97120000  0.74528000  0.22209000  1.0
  H  H48  1  0.32394000  0.47349000  0.27664000  1.0
  H  H49  1  0.18676000  0.49002000  0.29609000  1.0
  H  H50  1  0.49795000  0.17067000  0.78908000  1.0
  H  H51  1  0.25647000  0.47647000  0.20040000  1.0
  H  H52  1  0.35968000  0.65407000  0.28068000  1.0
  H  H53  1  0.10836000  0.53683000  0.21982000  1.0
  H  H54  1  0.74053000  0.24786000  0.80413000  1.0
  H  H55  1  0.77368000  0.25320000  0.72245000  1.0
  H  H56  1  0.77224000  0.97371000  0.69567000  1.0
  H  H57  1  0.42359000  0.98790000  0.77468000  1.0
  H  H58  1  0.49191000  0.93089000  0.83060000  1.0
  H  H59  1  0.34271000  0.96442000  0.82149000  1.0
  H  H60  1  0.52831000  0.11832000  0.65613000  1.0
  H  H61  1  0.62038000  0.34686000  0.71879000  1.0
  H  H62  1  0.31525000  0.77412000  0.68382000  1.0
  H  H63  1  0.29518000  0.81880000  0.74477000  1.0
  H  H64  1  0.26152000  0.92480000  0.69938000  1.0
  H  H65  1  0.48833000  0.61625000  0.80605000  1.0
  H  H66  1  0.62890000  0.48414000  0.80236000  1.0
  H  H67  1  0.50156000  0.48603000  0.77871000  1.0
  H  H68  1  0.51851000  0.88848000  0.17318000  1.0
  H  H69  1  0.46984000  0.08962000  0.30028000  1.0
  H  H70  1  0.51843000  0.13559000  0.35122000  1.0
  H  H71  1  0.52596000  0.99559000  0.35058000  1.0
  H  H72  1  0.58711000  0.30777000  0.79741000  1.0
  H  H73  1  0.56030000  0.99167000  0.22492000  1.0
  H  H74  1  0.75144000  0.95169000  0.17552000  1.0
  H  H75  1  0.96185000  0.01115000  0.27960000  1.0
  H  H76  1  0.89169000  0.04875000  0.33715000  1.0
  H  H77  1  0.01294000  0.07231000  0.32375000  1.0
  H  H78  1  0.13501000  0.93133000  0.22631000  1.0
  H  H79  1  0.09929000  0.89929000  0.16888000  1.0
  H  H80  1  0.20152000  0.95254000  0.17439000  1.0
  H  H81  1  0.37688000  0.63625000  0.13336000  1.0
  H  H82  1  0.34254000  0.51977000  0.14141000  1.0
  H  H83  1  0.59359000  0.02697000  0.76708000  1.0
  H  H84  1  0.48904000  0.49271000  0.15077000  1.0
  H  H85  1  0.27793000  0.48242000  0.79155000  1.0
  H  H86  1  0.30260000  0.32155000  0.47632000  1.0
  H  H87  1  0.02262000  0.02179000  0.02489000  1.0
  C  C88  1  0.28438000  0.61340000  0.56833000  1.0
  C  C89  1  0.64606000  0.66277000  0.65005000  1.0
  C  C90  1  0.68792000  0.25930000  0.73034000  1.0
  C  C91  1  0.60133000  0.61336000  0.56481000  1.0
  C  C92  1  0.78709000  0.04179000  0.71182000  1.0
  C  C93  1  0.80005000  0.02644000  0.76581000  1.0
  C  C94  1  0.69838000  0.07756000  0.88347000  1.0
  C  C95  1  0.67988000  0.16323000  0.70102000  1.0
  C  C96  1  0.67357000  0.24124000  0.78337000  1.0
  C  C97  1  0.68481000  0.11857000  0.79109000  1.0
  C  C98  1  0.57866000  0.11753000  0.76796000  1.0
  C  C99  1  0.62934000  0.64374000  0.60957000  1.0
  C  C100  1  0.56476000  0.16277000  0.71709000  1.0
  C  C101  1  0.68954000  0.09526000  0.84123000  1.0
  C  C102  1  0.67223000  0.19265000  0.65145000  1.0
  C  C103  1  0.62379000  0.28362000  0.56589000  1.0
  C  C104  1  0.65705000  0.22531000  0.61070000  1.0
  C  C105  1  0.28874000  0.58341000  0.73114000  1.0
  C  C106  1  0.08709000  0.61323000  0.71607000  1.0
  C  C107  1  0.05300000  0.62817000  0.76918000  1.0
  C  C108  1  0.09667000  0.67435000  0.88918000  1.0
  C  C109  1  0.17149000  0.66317000  0.70535000  1.0
  C  C110  1  0.73982000  0.75933000  0.74717000  1.0
  C  C111  1  0.26350000  0.57109000  0.78367000  1.0
  C  C112  1  0.13437000  0.66201000  0.79634000  1.0
  C  C113  1  0.11157000  0.78478000  0.77980000  1.0
  C  C114  1  0.10667000  0.79165000  0.72564000  1.0
  C  C115  1  0.28937000  0.60856000  0.43447000  1.0
  C  C116  1  0.11426000  0.66476000  0.84677000  1.0
  C  C117  1  0.19720000  0.65862000  0.65532000  1.0
  C  C118  1  0.22756000  0.64557000  0.61400000  1.0
  C  C119  1  0.66404000  0.54581000  0.27017000  1.0
  C  C120  1  0.75507000  0.67467000  0.28355000  1.0
  C  C121  1  0.69998000  0.71200000  0.79180000  1.0
  C  C122  1  0.76459000  0.68894000  0.22971000  1.0
  C  C123  1  0.69049000  0.70306000  0.11150000  1.0
  C  C124  1  0.64657000  0.65949000  0.29508000  1.0
  C  C125  1  0.68157000  0.55255000  0.21630000  1.0
  C  C126  1  0.66877000  0.67389000  0.20370000  1.0
  C  C127  1  0.60252000  0.61051000  0.43474000  1.0
  C  C128  1  0.54361000  0.76903000  0.22118000  1.0
  C  C129  1  0.53577000  0.76667000  0.27529000  1.0
  C  C130  1  0.68095000  0.68624000  0.15328000  1.0
  C  C131  1  0.63449000  0.64927000  0.34563000  1.0
  C  C132  1  0.78817000  0.63718000  0.72204000  1.0
  C  C133  1  0.62490000  0.63701000  0.38776000  1.0
  C  C134  1  0.54446000  0.27805000  0.27363000  1.0
  C  C135  1  0.69697000  0.05937000  0.28139000  1.0
  C  C136  1  0.66827000  0.05714000  0.22814000  1.0
  C  C137  1  0.68557000  0.11274000  0.11160000  1.0
  C  C138  1  0.66502000  0.18816000  0.29518000  1.0
  C  C139  1  0.62139000  0.28713000  0.43336000  1.0
  C  C140  1  0.55560000  0.27780000  0.21935000  1.0
  C  C141  1  0.66833000  0.16485000  0.20303000  1.0
  C  C142  1  0.77775000  0.17126000  0.21954000  1.0
  C  C143  1  0.66501000  0.68175000  0.69747000  1.0
  C  C144  1  0.75565000  0.21904000  0.27039000  1.0
  C  C145  1  0.67356000  0.14405000  0.15267000  1.0
  C  C146  1  0.66120000  0.20791000  0.34551000  1.0
  C  C147  1  0.65241000  0.23521000  0.38694000  1.0
  C  C148  1  0.26723000  0.70137000  0.27001000  1.0
  C  C149  1  0.06286000  0.73678000  0.28709000  1.0
  C  C150  1  0.04429000  0.75779000  0.23363000  1.0
  C  C151  1  0.61753000  0.80470000  0.72380000  1.0
  C  C152  1  0.09112000  0.69949000  0.11540000  1.0
  C  C153  1  0.19503000  0.65235000  0.29602000  1.0
  C  C154  1  0.74757000  0.59035000  0.76494000  1.0
  C  C155  1  0.26529000  0.68812000  0.21613000  1.0
  C  C156  1  0.15680000  0.66939000  0.20491000  1.0
  C  C157  1  0.18816000  0.54488000  0.22300000  1.0
  C  C158  1  0.22822000  0.53047000  0.27465000  1.0
  C  C159  1  0.12640000  0.68349000  0.15561000  1.0
  C  C160  1  0.21906000  0.64331000  0.34605000  1.0
  C  C161  1  0.24201000  0.63371000  0.38775000  1.0
  C  C162  1  0.72489000  0.03853000  0.93142000  1.0
  C  C163  1  0.57443000  0.75870000  0.76674000  1.0
  C  C164  1  0.73187000  0.74062000  0.93281000  1.0
  C  C165  1  0.62415000  0.63506000  0.74195000  1.0
  C  C166  1  0.05076000  0.70635000  0.93643000  1.0
  C  C167  1  0.71414000  0.05645000  0.06585000  1.0
  C  C168  1  0.71834000  0.73002000  0.06541000  1.0
  C  C169  1  0.03705000  0.72816000  0.07003000  1.0
  C  C170  1  0.71744000  0.72672000  0.88359000  1.0
  C  C171  1  0.42970000  0.93149000  0.80467000  1.0
  C  C172  1  0.25931000  0.84447000  0.70911000  1.0
  C  C173  1  0.54507000  0.53818000  0.78433000  1.0
  C  C174  1  0.53453000  0.06050000  0.32865000  1.0
  C  C175  1  0.93430000  0.07467000  0.30926000  1.0
  C  C176  1  0.71314000  0.72230000  0.84065000  1.0
  C  C177  1  0.16983000  0.89654000  0.19061000  1.0
  C  C178  1  0.39537000  0.55843000  0.15433000  1.0
  O  O179  1  0.52491000  0.30527000  0.55044000  1.0
  O  O180  1  0.82556000  0.66188000  0.95216000  1.0
  O  O181  1  0.03100000  0.63177000  0.95945000  1.0
  O  O182  1  0.31678000  0.51021000  0.55394000  1.0
  O  O183  1  0.01639000  0.82527000  0.05215000  1.0
  O  O184  1  0.81137000  0.03414000  0.04692000  1.0
  O  O185  1  0.63932000  0.02816000  0.04948000  1.0
  O  O186  1  0.64698000  0.83035000  0.04806000  1.0
  O  O187  1  0.81622000  0.65376000  0.04625000  1.0
  O  O188  1  0.01084000  0.65303000  0.05232000  1.0
  O  O189  1  0.83678000  0.84117000  0.00169000  1.0
  O  O190  1  0.50502000  0.68417000  0.45485000  1.0
  O  O191  1  0.30181000  0.69113000  0.54680000  1.0
  O  O192  1  0.50005000  0.68400000  0.54814000  1.0
  O  O193  1  0.67752000  0.51568000  0.54577000  1.0
  O  O194  1  0.69621000  0.31264000  0.54659000  1.0
  O  O195  1  0.52141000  0.31023000  0.44969000  1.0
  O  O196  1  0.31112000  0.51127000  0.45238000  1.0
  O  O197  1  0.31017000  0.68636000  0.45329000  1.0
  O  O198  1  0.46562000  0.81356000  0.78857000  1.0
  O  O199  1  0.53916000  0.08857000  0.68840000  1.0
  O  O200  1  0.13847000  0.87348000  0.70664000  1.0
  O  O201  1  0.67895000  0.51221000  0.45215000  1.0
  O  O202  1  0.56559000  0.57204000  0.73820000  1.0
  O  O203  1  0.51622000  0.88590000  0.20762000  1.0
  O  O204  1  0.65388000  0.99985000  0.31065000  1.0
  O  O205  1  0.55696000  0.06858000  0.22084000  1.0
  O  O206  1  0.76001000  0.94841000  0.20987000  1.0
  O  O207  1  0.86032000  0.19277000  0.29458000  1.0
  O  O208  1  0.27005000  0.78147000  0.19167000  1.0
  O  O209  1  0.37408000  0.58693000  0.20383000  1.0
  O  O210  1  0.69607000  0.31018000  0.45339000  1.0
  O  O211  1  0.49566000  0.49452000  0.50077000  1.0
  O  O212  1  0.02809000  0.80670000  0.95109000  1.0
  O  O213  1  0.82674000  0.01073000  0.94532000  1.0
  O  O214  1  0.64400000  0.03115000  0.95582000  1.0
  O  O215  1  0.65208000  0.83403000  0.95359000  1.0
  O  O216  1  0.34183000  0.32273000  0.50477000  1.0
  O  O217  1  0.00470000  0.99900000  0.99506000  1.0
