# generated using pymatgen
data_NiH8C12(BrN2)2
_symmetry_space_group_name_H-M   'P 1'
_cell_length_a   3.71432000
_cell_length_b   7.07605000
_cell_length_c   26.55240000
_cell_angle_alpha   90.00070000
_cell_angle_beta   90.00010000
_cell_angle_gamma   89.99970000
_symmetry_Int_Tables_number   1
_chemical_formula_structural   NiH8C12(BrN2)2
_chemical_formula_sum   'Ni2 H16 C24 Br4 N8'
_cell_volume   697.86913611
_cell_formula_units_Z   2
loop_
 _symmetry_equiv_pos_site_id
 _symmetry_equiv_pos_as_xyz
  1  'x, y, z'
loop_
 _atom_site_type_symbol
 _atom_site_label
 _atom_site_symmetry_multiplicity
 _atom_site_fract_x
 _atom_site_fract_y
 _atom_site_fract_z
 _atom_site_occupancy
  Ni  Ni0  1  0.00000000  0.00000000  0.00000000  1.0
  Ni  Ni1  1  0.49999000  0.50000000  0.50000000  1.0
  H  H2  1  0.00000000  0.90040000  0.89019000  1.0
  H  H3  1  0.00000000  0.09960000  0.10981000  1.0
  H  H4  1  0.50000000  0.40041000  0.60981000  1.0
  H  H5  1  0.49999000  0.59959000  0.39019000  1.0
  H  H6  1  0.00000000  0.40672000  0.96802000  1.0
  H  H7  1  0.00000000  0.59329000  0.03197000  1.0
  H  H8  1  0.49999000  0.90672000  0.53198000  1.0
  H  H9  1  0.50001000  0.09328000  0.46803000  1.0
  H  H10  1  0.00000000  0.06538000  0.80669000  1.0
  H  H11  1  0.00000000  0.93461000  0.19331000  1.0
  H  H12  1  0.50000000  0.56540000  0.69331000  1.0
  H  H13  1  0.49999000  0.43460000  0.30669000  1.0
  H  H14  1  0.00001000  0.59356000  0.88925000  1.0
  H  H15  1  0.00001000  0.40645000  0.11074000  1.0
  H  H16  1  0.49999000  0.09356000  0.61075000  1.0
  H  H17  1  0.50002000  0.90644000  0.38926000  1.0
  C  C18  1  0.00000000  0.05375000  0.88795000  1.0
  C  C19  1  0.00000000  0.94625000  0.11205000  1.0
  C  C20  1  0.50000000  0.55376000  0.61205000  1.0
  C  C21  1  0.49999000  0.44624000  0.38795000  1.0
  C  C22  1  0.00000000  0.33601000  0.93172000  1.0
  C  C23  1  0.00000000  0.66400000  0.06828000  1.0
  C  C24  1  0.50000000  0.83601000  0.56828000  1.0
  C  C25  1  0.50000000  0.16399000  0.43172000  1.0
  C  C26  1  0.00000000  0.14513000  0.84168000  1.0
  C  C27  1  0.00000000  0.85486000  0.15831000  1.0
  C  C28  1  0.50000000  0.64514000  0.65832000  1.0
  C  C29  1  0.49999000  0.35485000  0.34169000  1.0
  C  C30  1  0.00001000  0.44005000  0.88740000  1.0
  C  C31  1  0.00000000  0.55995000  0.11260000  1.0
  C  C32  1  0.50000000  0.94006000  0.61260000  1.0
  C  C33  1  0.50001000  0.05994000  0.38740000  1.0
  C  C34  1  0.00001000  0.34344000  0.84132000  1.0
  C  C35  1  0.00000000  0.65656000  0.15868000  1.0
  C  C36  1  0.50000000  0.84345000  0.65868000  1.0
  C  C37  1  0.50000000  0.15655000  0.34132000  1.0
  C  C38  1  0.00000000  0.44786000  0.79535000  1.0
  C  C39  1  0.00000000  0.55213000  0.20465000  1.0
  C  C40  1  0.50000000  0.94789000  0.70466000  1.0
  C  C41  1  0.50000000  0.05212000  0.29535000  1.0
  Br  Br42  1  0.50000000  0.21718000  0.03336000  1.0
  Br  Br43  1  0.50000000  0.78283000  0.96663000  1.0
  Br  Br44  1  0.99999000  0.71718000  0.46664000  1.0
  Br  Br45  1  0.00000000  0.28282000  0.53337000  1.0
  N  N46  1  0.00000000  0.14580000  0.93241000  1.0
  N  N47  1  0.00000000  0.85421000  0.06758000  1.0
  N  N48  1  0.50000000  0.64580000  0.56759000  1.0
  N  N49  1  0.49999000  0.35420000  0.43242000  1.0
  N  N50  1  0.00000000  0.53924000  0.75875000  1.0
  N  N51  1  0.00000000  0.46075000  0.24124000  1.0
  N  N52  1  0.50000000  0.03927000  0.74125000  1.0
  N  N53  1  0.49999000  0.96073000  0.25875000  1.0
