# generated using pymatgen
data_CuH10C16(NO)4
_symmetry_space_group_name_H-M   'P 1'
_cell_length_a   13.29550000
_cell_length_b   13.97040000
_cell_length_c   14.89380000
_cell_angle_alpha   87.21850000
_cell_angle_beta   89.99940000
_cell_angle_gamma   89.99950000
_symmetry_Int_Tables_number   1
_chemical_formula_structural   CuH10C16(NO)4
_chemical_formula_sum   'Cu4 H40 C64 N16 O16'
_cell_volume   2763.16660104
_cell_formula_units_Z   4
loop_
 _symmetry_equiv_pos_site_id
 _symmetry_equiv_pos_as_xyz
  1  'x, y, z'
loop_
 _atom_site_type_symbol
 _atom_site_label
 _atom_site_symmetry_multiplicity
 _atom_site_fract_x
 _atom_site_fract_y
 _atom_site_fract_z
 _atom_site_occupancy
  Cu  Cu0  1  0.00000000  0.50000000  0.50000000  1.0
  Cu  Cu1  1  0.50000000  0.50000000  1.00000000  1.0
  Cu  Cu2  1  0.00000000  0.00000000  0.00000000  1.0
  Cu  Cu3  1  0.50000000  0.00000000  0.50000000  1.0
  H  H4  1  0.29588000  0.69492000  0.10278000  1.0
  H  H5  1  0.79587000  0.30508000  0.39722000  1.0
  H  H6  1  0.70413000  0.30508000  0.89722000  1.0
  H  H7  1  0.20413000  0.69492000  0.60278000  1.0
  H  H8  1  0.30422000  0.92339000  0.28803000  1.0
  H  H9  1  0.80423000  0.07662000  0.21197000  1.0
  H  H10  1  0.69578000  0.07662000  0.71197000  1.0
  H  H11  1  0.19577000  0.92338000  0.78803000  1.0
  H  H12  1  0.55960000  0.73699000  0.26431000  1.0
  H  H13  1  0.05961000  0.26302000  0.23569000  1.0
  H  H14  1  0.44040000  0.26302000  0.73569000  1.0
  H  H15  1  0.94039000  0.73698000  0.76431000  1.0
  H  H16  1  0.29783000  0.91886000  0.00631000  1.0
  H  H17  1  0.79783000  0.08113000  0.49369000  1.0
  H  H18  1  0.70217000  0.08114000  0.99370000  1.0
  H  H19  1  0.20217000  0.91887000  0.50631000  1.0
  H  H20  1  0.29772000  0.00348000  0.09178000  1.0
  H  H21  1  0.79772000  0.99652000  0.40821000  1.0
  H  H22  1  0.70228000  0.99652000  0.90822000  1.0
  H  H23  1  0.20228000  0.00348000  0.59179000  1.0
  H  H24  1  0.21273000  0.01794000  0.99936000  1.0
  H  H25  1  0.71273000  0.98206000  0.50064000  1.0
  H  H26  1  0.78727000  0.98206000  0.00064000  1.0
  H  H27  1  0.28727000  0.01794000  0.49936000  1.0
  H  H28  1  0.22072000  0.74339000  0.33597000  1.0
  H  H29  1  0.72073000  0.25661000  0.16403000  1.0
  H  H30  1  0.77927000  0.25661000  0.66403000  1.0
  H  H31  1  0.27927000  0.74339000  0.83597000  1.0
  H  H32  1  0.16912000  0.62412000  0.45628000  1.0
  H  H33  1  0.66912000  0.37588000  0.04372000  1.0
  H  H34  1  0.83088000  0.37588000  0.54373000  1.0
  H  H35  1  0.33088000  0.62412000  0.95628000  1.0
  H  H36  1  0.89345000  0.58003000  0.33674000  1.0
  H  H37  1  0.39345000  0.41996000  0.16326000  1.0
  H  H38  1  0.10655000  0.41996000  0.66326000  1.0
  H  H39  1  0.60655000  0.58004000  0.83674000  1.0
  H  H40  1  0.93084000  0.70153000  0.21142000  1.0
  H  H41  1  0.43084000  0.29847000  0.28858000  1.0
  H  H42  1  0.06916000  0.29847000  0.78858000  1.0
  H  H43  1  0.56916000  0.70153000  0.71142000  1.0
  C  C44  1  0.48533000  0.62884000  0.13035000  1.0
  C  C45  1  0.98532000  0.37116000  0.36965000  1.0
  C  C46  1  0.51468000  0.37116000  0.86964000  1.0
  C  C47  1  0.01468000  0.62884000  0.63035000  1.0
  C  C48  1  0.43341000  0.70782000  0.17822000  1.0
  C  C49  1  0.93341000  0.29218000  0.32178000  1.0
  C  C50  1  0.56659000  0.29218000  0.82178000  1.0
  C  C51  1  0.06659000  0.70782000  0.67822000  1.0
  C  C52  1  0.33563000  0.73467000  0.15288000  1.0
  C  C53  1  0.83563000  0.26533000  0.34712000  1.0
  C  C54  1  0.66437000  0.26533000  0.84712000  1.0
  C  C55  1  0.16436000  0.73467000  0.65288000  1.0
  C  C56  1  0.29079000  0.81249000  0.19187000  1.0
  C  C57  1  0.79079000  0.18751000  0.30813000  1.0
  C  C58  1  0.70921000  0.18751000  0.80813000  1.0
  C  C59  1  0.20921000  0.81249000  0.69187000  1.0
  C  C60  1  0.33991000  0.86290000  0.25723000  1.0
  C  C61  1  0.83991000  0.13710000  0.24277000  1.0
  C  C62  1  0.66009000  0.13710000  0.74277000  1.0
  C  C63  1  0.16009000  0.86290000  0.75723000  1.0
  C  C64  1  0.43632000  0.83395000  0.28497000  1.0
  C  C65  1  0.93632000  0.16605000  0.21503000  1.0
  C  C66  1  0.56368000  0.16605000  0.71503000  1.0
  C  C67  1  0.06368000  0.83395000  0.78497000  1.0
  C  C68  1  0.48348000  0.75763000  0.24427000  1.0
  C  C69  1  0.98348000  0.24237000  0.25573000  1.0
  C  C70  1  0.51652000  0.24237000  0.75573000  1.0
  C  C71  1  0.01652000  0.75763000  0.74427000  1.0
  C  C72  1  0.48708000  0.88437000  0.36021000  1.0
  C  C73  1  0.98708000  0.11563000  0.13979000  1.0
  C  C74  1  0.51292000  0.11563000  0.63979000  1.0
  C  C75  1  0.01292000  0.88437000  0.86022000  1.0
  C  C76  1  0.24958000  0.96549000  0.04531000  1.0
  C  C77  1  0.74958000  0.03451000  0.45469000  1.0
  C  C78  1  0.75042000  0.03451000  0.95470000  1.0
  C  C79  1  0.25042000  0.96549000  0.54531000  1.0
  C  C80  1  0.17243000  0.90847000  0.09550000  1.0
  C  C81  1  0.67243000  0.09153000  0.40450000  1.0
  C  C82  1  0.82757000  0.09153000  0.90450000  1.0
  C  C83  1  0.32757000  0.90847000  0.59550000  1.0
  C  C84  1  0.09907000  0.80542000  0.19099000  1.0
  C  C85  1  0.59907000  0.19459000  0.30901000  1.0
  C  C86  1  0.90093000  0.19458000  0.80901000  1.0
  C  C87  1  0.40093000  0.80541000  0.69099000  1.0
  C  C88  1  0.07919000  0.73307000  0.26277000  1.0
  C  C89  1  0.57919000  0.26693000  0.23723000  1.0
  C  C90  1  0.92081000  0.26692000  0.73723000  1.0
  C  C91  1  0.42081000  0.73307000  0.76277000  1.0
  C  C92  1  0.14720000  0.70974000  0.33258000  1.0
  C  C93  1  0.64720000  0.29026000  0.16742000  1.0
  C  C94  1  0.85280000  0.29026000  0.66742000  1.0
  C  C95  1  0.35280000  0.70974000  0.83258000  1.0
  C  C96  1  0.11938000  0.64299000  0.40010000  1.0
  C  C97  1  0.61938000  0.35701000  0.09990000  1.0
  C  C98  1  0.88062000  0.35701000  0.59991000  1.0
  C  C99  1  0.38062000  0.64299000  0.90010000  1.0
  C  C100  1  0.96419000  0.61940000  0.33396000  1.0
  C  C101  1  0.46419000  0.38060000  0.16604000  1.0
  C  C102  1  0.03581000  0.38059000  0.66604000  1.0
  C  C103  1  0.53581000  0.61940000  0.83396000  1.0
  C  C104  1  0.98572000  0.68588000  0.26438000  1.0
  C  C105  1  0.48572000  0.31412000  0.23562000  1.0
  C  C106  1  0.01429000  0.31411000  0.73562000  1.0
  C  C107  1  0.51428000  0.68588000  0.76438000  1.0
  N  N108  1  0.19174000  0.84141000  0.16323000  1.0
  N  N109  1  0.69175000  0.15859000  0.33677000  1.0
  N  N110  1  0.80826000  0.15859000  0.83677000  1.0
  N  N111  1  0.30825000  0.84141000  0.66323000  1.0
  N  N112  1  0.07326000  0.91212000  0.08419000  1.0
  N  N113  1  0.57326000  0.08788000  0.41581000  1.0
  N  N114  1  0.92674000  0.08788000  0.91581000  1.0
  N  N115  1  0.42674000  0.91212000  0.58419000  1.0
  N  N116  1  0.02708000  0.84892000  0.14273000  1.0
  N  N117  1  0.52708000  0.15108000  0.35727000  1.0
  N  N118  1  0.97292000  0.15108000  0.85727000  1.0
  N  N119  1  0.47292000  0.84892000  0.64273000  1.0
  N  N120  1  0.02959000  0.59870000  0.40132000  1.0
  N  N121  1  0.52960000  0.40129000  0.09868000  1.0
  N  N122  1  0.97040000  0.40129000  0.59868000  1.0
  N  N123  1  0.47041000  0.59871000  0.90132000  1.0
  O  O124  1  0.42420000  0.57729000  0.08346000  1.0
  O  O125  1  0.92419000  0.42271000  0.41654000  1.0
  O  O126  1  0.57581000  0.42271000  0.91654000  1.0
  O  O127  1  0.07580000  0.57729000  0.58346000  1.0
  O  O128  1  0.57799000  0.61864000  0.13463000  1.0
  O  O129  1  0.07799000  0.38136000  0.36537000  1.0
  O  O130  1  0.42201000  0.38136000  0.86537000  1.0
  O  O131  1  0.92201000  0.61864000  0.63463000  1.0
  O  O132  1  0.42814000  0.94401000  0.39946000  1.0
  O  O133  1  0.92815000  0.05600000  0.10054000  1.0
  O  O134  1  0.57185000  0.05599000  0.60054000  1.0
  O  O135  1  0.07185000  0.94400000  0.89946000  1.0
  O  O136  1  0.57613000  0.86683000  0.38101000  1.0
  O  O137  1  0.07614000  0.13317000  0.11899000  1.0
  O  O138  1  0.42387000  0.13317000  0.61899000  1.0
  O  O139  1  0.92386000  0.86683000  0.88101000  1.0
