# generated using pymatgen
data_ZnH16C8S2(NO2)2
_symmetry_space_group_name_H-M   'P 1'
_cell_length_a   5.25559000
_cell_length_b   9.58581000
_cell_length_c   13.29290000
_cell_angle_alpha   72.44400000
_cell_angle_beta   89.99940000
_cell_angle_gamma   89.99980000
_symmetry_Int_Tables_number   1
_chemical_formula_structural   ZnH16C8S2(NO2)2
_chemical_formula_sum   'Zn2 H32 C16 S4 N4 O8'
_cell_volume   638.49201392
_cell_formula_units_Z   2
loop_
 _symmetry_equiv_pos_site_id
 _symmetry_equiv_pos_as_xyz
  1  'x, y, z'
loop_
 _atom_site_type_symbol
 _atom_site_label
 _atom_site_symmetry_multiplicity
 _atom_site_fract_x
 _atom_site_fract_y
 _atom_site_fract_z
 _atom_site_occupancy
  Zn  Zn0  1  0.97430000  0.75795000  0.03930000  1.0
  Zn  Zn1  1  0.47429000  0.24204000  0.96070000  1.0
  H  H2  1  0.40734000  0.68332000  0.15209000  1.0
  H  H3  1  0.90732000  0.31668000  0.84790000  1.0
  H  H4  1  0.39367000  0.61406000  0.05489000  1.0
  H  H5  1  0.89366000  0.38595000  0.94511000  1.0
  H  H6  1  0.33875000  0.40912000  0.19445000  1.0
  H  H7  1  0.83871000  0.59087000  0.80555000  1.0
  H  H8  1  0.98595000  0.60122000  0.28094000  1.0
  H  H9  1  0.48595000  0.39877000  0.71907000  1.0
  H  H10  1  0.01423000  0.40814000  0.33546000  1.0
  H  H11  1  0.51421000  0.59186000  0.66453000  1.0
  H  H12  1  0.59034000  0.32263000  0.34294000  1.0
  H  H13  1  0.09032000  0.67737000  0.65706000  1.0
  H  H14  1  0.67194000  0.35775000  0.46418000  1.0
  H  H15  1  0.17193000  0.64226000  0.53582000  1.0
  H  H16  1  0.37565000  0.27317000  0.45314000  1.0
  H  H17  1  0.87563000  0.72684000  0.54687000  1.0
  H  H18  1  0.78245000  0.79341000  0.84901000  1.0
  H  H19  1  0.28244000  0.20659000  0.15099000  1.0
  H  H20  1  0.09339000  0.74765000  0.86178000  1.0
  H  H21  1  0.59339000  0.25235000  0.13822000  1.0
  H  H22  1  0.18687000  0.96802000  0.76923000  1.0
  H  H23  1  0.68688000  0.03198000  0.23077000  1.0
  H  H24  1  0.87087000  0.17784000  0.74517000  1.0
  H  H25  1  0.37085000  0.82218000  0.25483000  1.0
  H  H26  1  0.64791000  0.04729000  0.81924000  1.0
  H  H27  1  0.14793000  0.95270000  0.18077000  1.0
  H  H28  1  0.99975000  0.21619000  0.55919000  1.0
  H  H29  1  0.49975000  0.78382000  0.44081000  1.0
  H  H30  1  0.94588000  0.08797000  0.48765000  1.0
  H  H31  1  0.44590000  0.91204000  0.51235000  1.0
  H  H32  1  0.16335000  0.04463000  0.59556000  1.0
  H  H33  1  0.66336000  0.95537000  0.40443000  1.0
  C  C34  1  0.19233000  0.49417000  0.18290000  1.0
  C  C35  1  0.69228000  0.50583000  0.81711000  1.0
  C  C36  1  0.95707000  0.44359000  0.13406000  1.0
  C  C37  1  0.45708000  0.55643000  0.86593000  1.0
  C  C38  1  0.11540000  0.50766000  0.29087000  1.0
  C  C39  1  0.61539000  0.49233000  0.70912000  1.0
  C  C40  1  0.51599000  0.35392000  0.41027000  1.0
  C  C41  1  0.01598000  0.64608000  0.58973000  1.0
  C  C42  1  0.03482000  0.96772000  0.82659000  1.0
  C  C43  1  0.53481000  0.03226000  0.17341000  1.0
  C  C44  1  0.66433000  0.96718000  0.09382000  1.0
  C  C45  1  0.16430000  0.03283000  0.90617000  1.0
  C  C46  1  0.81539000  0.06217000  0.76793000  1.0
  C  C47  1  0.31539000  0.93784000  0.23206000  1.0
  C  C48  1  0.98306000  0.09956000  0.56588000  1.0
  C  C49  1  0.48307000  0.90044000  0.43412000  1.0
  S  S50  1  0.38018000  0.53511000  0.37010000  1.0
  S  S51  1  0.88016000  0.46488000  0.62990000  1.0
  S  S52  1  0.71862000  0.01902000  0.65011000  1.0
  S  S53  1  0.21863000  0.98099000  0.34990000  1.0
  N  N54  1  0.28435000  0.63447000  0.11285000  1.0
  N  N55  1  0.78433000  0.36553000  0.88716000  1.0
  N  N56  1  0.95469000  0.81528000  0.87783000  1.0
  N  N57  1  0.45469000  0.18472000  0.12217000  1.0
  O  O58  1  0.81622000  0.54260000  0.07310000  1.0
  O  O59  1  0.31623000  0.45742000  0.92690000  1.0
  O  O60  1  0.91513000  0.30781000  0.16049000  1.0
  O  O61  1  0.41513000  0.69218000  0.83952000  1.0
  O  O62  1  0.73707000  0.83314000  0.13047000  1.0
  O  O63  1  0.23707000  0.16685000  0.86954000  1.0
  O  O64  1  0.20443000  0.95242000  0.99860000  1.0
  O  O65  1  0.70444000  0.04756000  0.00140000  1.0
