# generated using pymatgen
data_CdH8C10(SN3)2
_symmetry_space_group_name_H-M   'P 1'
_cell_length_a   8.72223000
_cell_length_b   9.12070000
_cell_length_c   9.12069000
_cell_angle_alpha   66.46500000
_cell_angle_beta   89.99990000
_cell_angle_gamma   89.99950000
_symmetry_Int_Tables_number   1
_chemical_formula_structural   CdH8C10(SN3)2
_chemical_formula_sum   'Cd2 H16 C20 S4 N12'
_cell_volume   665.22067194
_cell_formula_units_Z   2
loop_
 _symmetry_equiv_pos_site_id
 _symmetry_equiv_pos_as_xyz
  1  'x, y, z'
loop_
 _atom_site_type_symbol
 _atom_site_label
 _atom_site_symmetry_multiplicity
 _atom_site_fract_x
 _atom_site_fract_y
 _atom_site_fract_z
 _atom_site_occupancy
  Cd  Cd0  1  0.00000000  0.50000000  0.50000000  1.0
  Cd  Cd1  1  0.50000000  0.00000000  1.00000000  1.0
  H  H2  1  0.05958000  0.19158000  0.41543000  1.0
  H  H3  1  0.55958000  0.30841000  0.08458000  1.0
  H  H4  1  0.94041000  0.58457000  0.80842000  1.0
  H  H5  1  0.44041000  0.91543000  0.69158000  1.0
  H  H6  1  0.94041000  0.80842000  0.58457000  1.0
  H  H7  1  0.44041000  0.69158000  0.91543000  1.0
  H  H8  1  0.05958000  0.41543000  0.19159000  1.0
  H  H9  1  0.55957000  0.08457000  0.30841000  1.0
  H  H10  1  0.25000000  0.96703000  0.46703000  1.0
  H  H11  1  0.75000000  0.53297000  0.03297000  1.0
  H  H12  1  0.74999000  0.03297000  0.53297000  1.0
  H  H13  1  0.24999000  0.46703000  0.96703000  1.0
  H  H14  1  0.25001000  0.28603000  0.78602000  1.0
  H  H15  1  0.75001000  0.21397000  0.71397000  1.0
  H  H16  1  0.75001000  0.71398000  0.21397000  1.0
  H  H17  1  0.25001000  0.78602000  0.28604000  1.0
  C  C18  1  0.29892000  0.62312000  0.62312000  1.0
  C  C19  1  0.79892000  0.87688000  0.87688000  1.0
  C  C20  1  0.70108000  0.37687000  0.37687000  1.0
  C  C21  1  0.20108000  0.12313000  0.12312000  1.0
  C  C22  1  0.14664000  0.16278000  0.50883000  1.0
  C  C23  1  0.64666000  0.33721000  0.99116000  1.0
  C  C24  1  0.85336000  0.49118000  0.83721000  1.0
  C  C25  1  0.35336000  0.00882000  0.66279000  1.0
  C  C26  1  0.85335000  0.83722000  0.49118000  1.0
  C  C27  1  0.35335000  0.66279000  0.00883000  1.0
  C  C28  1  0.14665000  0.50884000  0.16278000  1.0
  C  C29  1  0.64665000  0.99116000  0.33722000  1.0
  C  C30  1  0.24999000  0.03829000  0.53830000  1.0
  C  C31  1  0.75000000  0.46169000  0.96170000  1.0
  C  C32  1  0.75000000  0.96169000  0.46170000  1.0
  C  C33  1  0.25000000  0.53830000  0.03831000  1.0
  C  C34  1  0.25000000  0.21453000  0.71453000  1.0
  C  C35  1  0.75001000  0.28546000  0.78546000  1.0
  C  C36  1  0.75001000  0.78547000  0.28547000  1.0
  C  C37  1  0.25001000  0.71453000  0.21453000  1.0
  S  S38  1  0.48201000  0.63583000  0.63583000  1.0
  S  S39  1  0.98201000  0.86418000  0.86418000  1.0
  S  S40  1  0.51799000  0.36416000  0.36416000  1.0
  S  S41  1  0.01799000  0.13584000  0.13583000  1.0
  N  N42  1  0.16242000  0.61550000  0.61551000  1.0
  N  N43  1  0.66243000  0.88449000  0.88449000  1.0
  N  N44  1  0.83758000  0.38450000  0.38449000  1.0
  N  N45  1  0.33758000  0.11551000  0.11550000  1.0
  N  N46  1  0.15003000  0.25432000  0.59355000  1.0
  N  N47  1  0.65004000  0.24567000  0.90645000  1.0
  N  N48  1  0.84997000  0.40645000  0.74568000  1.0
  N  N49  1  0.34997000  0.09355000  0.75432000  1.0
  N  N50  1  0.84996000  0.74569000  0.40644000  1.0
  N  N51  1  0.34997000  0.75432000  0.09356000  1.0
  N  N52  1  0.15004000  0.59355000  0.25433000  1.0
  N  N53  1  0.65004000  0.90644000  0.24567000  1.0
