# generated using pymatgen
data_ZnH12PbC10(NO4)2
_symmetry_space_group_name_H-M   'P 1'
_cell_length_a   7.48360000
_cell_length_b   8.30732000
_cell_length_c   11.68260000
_cell_angle_alpha   103.29100000
_cell_angle_beta   107.16500000
_cell_angle_gamma   97.78290000
_symmetry_Int_Tables_number   1
_chemical_formula_structural   ZnH12PbC10(NO4)2
_chemical_formula_sum   'Zn2 H24 Pb2 C20 N4 O16'
_cell_volume   659.02085782
_cell_formula_units_Z   2
loop_
 _symmetry_equiv_pos_site_id
 _symmetry_equiv_pos_as_xyz
  1  'x, y, z'
loop_
 _atom_site_type_symbol
 _atom_site_label
 _atom_site_symmetry_multiplicity
 _atom_site_fract_x
 _atom_site_fract_y
 _atom_site_fract_z
 _atom_site_occupancy
  Zn  Zn0  1  0.09614000  0.65339000  0.66423000  1.0
  Zn  Zn1  1  0.90377000  0.34654000  0.33566000  1.0
  H  H2  1  0.51485000  0.52962000  0.58677000  1.0
  H  H3  1  0.48536000  0.47035000  0.41332000  1.0
  H  H4  1  0.65836000  0.69814000  0.71551000  1.0
  H  H5  1  0.34161000  0.30198000  0.28456000  1.0
  H  H6  1  0.29758000  0.35674000  0.77224000  1.0
  H  H7  1  0.70228000  0.64330000  0.22772000  1.0
  H  H8  1  0.47790000  0.33982000  0.70353000  1.0
  H  H9  1  0.52202000  0.66019000  0.29648000  1.0
  H  H10  1  0.54240000  0.79900000  0.87429000  1.0
  H  H11  1  0.45769000  0.20096000  0.12572000  1.0
  H  H12  1  0.60784000  0.61422000  0.90860000  1.0
  H  H13  1  0.39207000  0.38565000  0.09135000  1.0
  H  H14  1  0.28664000  0.52237000  0.92611000  1.0
  H  H15  1  0.71339000  0.47766000  0.07395000  1.0
  H  H16  1  0.41094000  0.72040000  0.03335000  1.0
  H  H17  1  0.58909000  0.27967000  0.96663000  1.0
  H  H18  1  0.36150000  0.96028000  0.92898000  1.0
  H  H19  1  0.63852000  0.03968000  0.07104000  1.0
  H  H20  1  0.19780000  0.95511000  0.01235000  1.0
  H  H21  1  0.80218000  0.04485000  0.98764000  1.0
  H  H22  1  0.89705000  0.72407000  0.88239000  1.0
  H  H23  1  0.10300000  0.27599000  0.11776000  1.0
  H  H24  1  0.03076000  0.62788000  0.98808000  1.0
  H  H25  1  0.96931000  0.37203000  0.01192000  1.0
  Pb  Pb26  1  0.82523000  0.08748000  0.60592000  1.0
  Pb  Pb27  1  0.17501000  0.91268000  0.39430000  1.0
  C  C28  1  0.42633000  0.76310000  0.59231000  1.0
  C  C29  1  0.57367000  0.23680000  0.40763000  1.0
  C  C30  1  0.50796000  0.63797000  0.65817000  1.0
  C  C31  1  0.49206000  0.36202000  0.34184000  1.0
  C  C32  1  0.35100000  0.39436000  0.70215000  1.0
  C  C33  1  0.64892000  0.60568000  0.29783000  1.0
  C  C34  1  0.19437000  0.31124000  0.57720000  1.0
  C  C35  1  0.80557000  0.68885000  0.42278000  1.0
  C  C36  1  0.48508000  0.66571000  0.86490000  1.0
  C  C37  1  0.51491000  0.33426000  0.13509000  1.0
  C  C38  1  0.34102000  0.65504000  0.93276000  1.0
  C  C39  1  0.65898000  0.34496000  0.06724000  1.0
  C  C40  1  0.21323000  0.90853000  0.91997000  1.0
  C  C41  1  0.78678000  0.09144000  0.08003000  1.0
  C  C42  1  0.08558000  0.98240000  0.82619000  1.0
  C  C43  1  0.91449000  0.01757000  0.17379000  1.0
  C  C44  1  0.90351000  0.47032000  0.79521000  1.0
  C  C45  1  0.09643000  0.52972000  0.20478000  1.0
  C  C46  1  0.00050000  0.64192000  0.89330000  1.0
  C  C47  1  0.99951000  0.35808000  0.10672000  1.0
  N  N48  1  0.39578000  0.57957000  0.73044000  1.0
  N  N49  1  0.60419000  0.42045000  0.26955000  1.0
  N  N50  1  0.17495000  0.72349000  0.87692000  1.0
  N  N51  1  0.82504000  0.27649000  0.12307000  1.0
  O  O52  1  0.51458000  0.82078000  0.52816000  1.0
  O  O53  1  0.48541000  0.17908000  0.47176000  1.0
  O  O54  1  0.27163000  0.80466000  0.60253000  1.0
  O  O55  1  0.72839000  0.19529000  0.39743000  1.0
  O  O56  1  0.13697000  0.40194000  0.50636000  1.0
  O  O57  1  0.86303000  0.59813000  0.49360000  1.0
  O  O58  1  0.12797000  0.15270000  0.55563000  1.0
  O  O59  1  0.87189000  0.84740000  0.44437000  1.0
  O  O60  1  0.94379000  0.44247000  0.69309000  1.0
  O  O61  1  0.05612000  0.55756000  0.30689000  1.0
  O  O62  1  0.78831000  0.36714000  0.81674000  1.0
  O  O63  1  0.21161000  0.63289000  0.18324000  1.0
  O  O64  1  0.97414000  0.87518000  0.72247000  1.0
  O  O65  1  0.02591000  0.12478000  0.27753000  1.0
  O  O66  1  0.09652000  0.13929000  0.85330000  1.0
  O  O67  1  0.90358000  0.86069000  0.14664000  1.0
