# generated using pymatgen
data_VH4C8O5
_symmetry_space_group_name_H-M   'P 1'
_cell_length_a   6.77728000
_cell_length_b   9.58233000
_cell_length_c   18.80720000
_cell_angle_alpha   89.99910000
_cell_angle_beta   90.00160000
_cell_angle_gamma   89.99920000
_symmetry_Int_Tables_number   1
_chemical_formula_structural   VH4C8O5
_chemical_formula_sum   'V4 H16 C32 O20'
_cell_volume   1221.37969171
_cell_formula_units_Z   4
loop_
 _symmetry_equiv_pos_site_id
 _symmetry_equiv_pos_as_xyz
  1  'x, y, z'
loop_
 _atom_site_type_symbol
 _atom_site_label
 _atom_site_symmetry_multiplicity
 _atom_site_fract_x
 _atom_site_fract_y
 _atom_site_fract_z
 _atom_site_occupancy
  V  V0  1  0.79760000  0.27465000  0.25000000  1.0
  V  V1  1  0.70242000  0.77466000  0.75000000  1.0
  V  V2  1  0.20240000  0.72538000  0.75000000  1.0
  V  V3  1  0.29760000  0.22536000  0.25000000  1.0
  H  H4  1  0.30632000  0.97282000  0.42797000  1.0
  H  H5  1  0.19369000  0.47281000  0.57204000  1.0
  H  H6  1  0.69371000  0.02717000  0.92796000  1.0
  H  H7  1  0.80629000  0.52716000  0.07204000  1.0
  H  H8  1  0.69368000  0.02720000  0.57203000  1.0
  H  H9  1  0.80630000  0.52721000  0.42796000  1.0
  H  H10  1  0.30633000  0.97282000  0.07205000  1.0
  H  H11  1  0.19368000  0.47279000  0.92795000  1.0
  H  H12  1  0.70340000  0.10940000  0.44531000  1.0
  H  H13  1  0.79660000  0.60940000  0.55468000  1.0
  H  H14  1  0.29664000  0.89062000  0.94532000  1.0
  H  H15  1  0.20337000  0.39060000  0.05467000  1.0
  H  H16  1  0.29660000  0.89062000  0.55470000  1.0
  H  H17  1  0.20339000  0.39062000  0.44532000  1.0
  H  H18  1  0.70340000  0.10936000  0.05469000  1.0
  H  H19  1  0.79661000  0.60936000  0.94531000  1.0
  C  C20  1  0.01154000  0.10016000  0.35561000  1.0
  C  C21  1  0.48842000  0.60018000  0.64439000  1.0
  C  C22  1  0.98843000  0.89986000  0.85561000  1.0
  C  C23  1  0.51159000  0.39982000  0.14438000  1.0
  C  C24  1  0.98841000  0.89987000  0.64439000  1.0
  C  C25  1  0.51158000  0.39982000  0.35562000  1.0
  C  C26  1  0.01159000  0.10015000  0.14439000  1.0
  C  C27  1  0.48845000  0.60016000  0.85561000  1.0
  C  C28  1  0.00480000  0.04481000  0.42931000  1.0
  C  C29  1  0.49518000  0.54486000  0.57068000  1.0
  C  C30  1  0.99520000  0.95514000  0.92933000  1.0
  C  C31  1  0.50479000  0.45515000  0.07067000  1.0
  C  C32  1  0.99517000  0.95515000  0.57068000  1.0
  C  C33  1  0.50483000  0.45515000  0.42932000  1.0
  C  C34  1  0.00482000  0.04482000  0.07069000  1.0
  C  C35  1  0.49519000  0.54484000  0.92932000  1.0
  C  C36  1  0.17320000  0.98424000  0.45999000  1.0
  C  C37  1  0.32678000  0.48425000  0.54001000  1.0
  C  C38  1  0.82680000  0.01573000  0.96000000  1.0
  C  C39  1  0.67320000  0.51573000  0.04001000  1.0
  C  C40  1  0.82677000  0.01574000  0.54000000  1.0
  C  C41  1  0.67321000  0.51575000  0.46000000  1.0
  C  C42  1  0.17323000  0.98424000  0.04002000  1.0
  C  C43  1  0.32678000  0.48424000  0.95998000  1.0
  C  C44  1  0.83176000  0.06055000  0.46976000  1.0
  C  C45  1  0.66822000  0.56058000  0.53025000  1.0
  C  C46  1  0.16825000  0.93943000  0.96977000  1.0
  C  C47  1  0.33175000  0.43943000  0.03023000  1.0
  C  C48  1  0.16821000  0.93942000  0.53024000  1.0
  C  C49  1  0.33177000  0.43943000  0.46976000  1.0
  C  C50  1  0.83178000  0.06054000  0.03025000  1.0
  C  C51  1  0.66822000  0.56055000  0.96975000  1.0
  O  O52  1  0.84857000  0.14071000  0.32836000  1.0
  O  O53  1  0.65142000  0.64074000  0.67164000  1.0
  O  O54  1  0.15140000  0.85930000  0.82836000  1.0
  O  O55  1  0.34859000  0.35926000  0.17163000  1.0
  O  O56  1  0.15139000  0.85931000  0.67164000  1.0
  O  O57  1  0.34859000  0.35928000  0.32837000  1.0
  O  O58  1  0.84860000  0.14072000  0.17164000  1.0
  O  O59  1  0.65144000  0.64072000  0.82836000  1.0
  O  O60  1  0.02700000  0.33109000  0.24999000  1.0
  O  O61  1  0.47302000  0.83104000  0.75000000  1.0
  O  O62  1  0.97299000  0.66896000  0.75000000  1.0
  O  O63  1  0.52700000  0.16895000  0.25001000  1.0
  O  O64  1  0.17988000  0.10779000  0.32518000  1.0
  O  O65  1  0.32012000  0.60778000  0.67482000  1.0
  O  O66  1  0.82011000  0.89226000  0.82518000  1.0
  O  O67  1  0.67991000  0.39225000  0.17481000  1.0
  O  O68  1  0.82010000  0.89228000  0.67483000  1.0
  O  O69  1  0.67986000  0.39225000  0.32517000  1.0
  O  O70  1  0.17990000  0.10772000  0.17483000  1.0
  O  O71  1  0.32014000  0.60776000  0.82517000  1.0
