# generated using pymatgen
data_InH8C10N2F3
_symmetry_space_group_name_H-M   'P 1'
_cell_length_a   4.23665000
_cell_length_b   8.15095000
_cell_length_c   8.15095000
_cell_angle_alpha   81.75550000
_cell_angle_beta   74.96020000
_cell_angle_gamma   74.96030000
_symmetry_Int_Tables_number   1
_chemical_formula_structural   InH8C10N2F3
_chemical_formula_sum   'In1 H8 C10 N2 F3'
_cell_volume   261.64703198
_cell_formula_units_Z   1
loop_
 _symmetry_equiv_pos_site_id
 _symmetry_equiv_pos_as_xyz
  1  'x, y, z'
loop_
 _atom_site_type_symbol
 _atom_site_label
 _atom_site_symmetry_multiplicity
 _atom_site_fract_x
 _atom_site_fract_y
 _atom_site_fract_z
 _atom_site_occupancy
  In  In0  1  0.00000000  0.49977000  0.50023000  1.0
  H  H1  1  0.98837000  0.88000000  0.52334000  1.0
  H  H2  1  0.60819000  0.52344000  0.87977000  1.0
  H  H3  1  0.01162000  0.47666000  0.11999000  1.0
  H  H4  1  0.39181000  0.12023000  0.47656000  1.0
  H  H5  1  0.78481000  0.10607000  0.73299000  1.0
  H  H6  1  0.37607000  0.73286000  0.10602000  1.0
  H  H7  1  0.21518000  0.26701000  0.89393000  1.0
  H  H8  1  0.62393000  0.89398000  0.26714000  1.0
  C  C9  1  0.85219000  0.85505000  0.65416000  1.0
  C  C10  1  0.63856000  0.65416000  0.85493000  1.0
  C  C11  1  0.14780000  0.34584000  0.14495000  1.0
  C  C12  1  0.36144000  0.14507000  0.34584000  1.0
  C  C13  1  0.73449000  0.97921000  0.76984000  1.0
  C  C14  1  0.51613000  0.76986000  0.97908000  1.0
  C  C15  1  0.26551000  0.23016000  0.02079000  1.0
  C  C16  1  0.48387000  0.02092000  0.23014000  1.0
  C  C17  1  0.56370000  0.93621000  0.93615000  1.0
  C  C18  1  0.43630000  0.06385000  0.06379000  1.0
  N  N19  1  0.80423000  0.69579000  0.69580000  1.0
  N  N20  1  0.19577000  0.30420000  0.30421000  1.0
  F  F21  1  0.00002000  0.30607000  0.69393000  1.0
  F  F22  1  0.00000000  0.69327000  0.30673000  1.0
  F  F23  1  0.50000000  0.50032000  0.49968000  1.0
