# generated using pymatgen
data_DyH9C14(NO5)2
_symmetry_space_group_name_H-M   'P 1'
_cell_length_a   9.11277000
_cell_length_b   9.20419000
_cell_length_c   9.54632000
_cell_angle_alpha   86.19820000
_cell_angle_beta   87.45030000
_cell_angle_gamma   86.68500000
_symmetry_Int_Tables_number   1
_chemical_formula_structural   DyH9C14(NO5)2
_chemical_formula_sum   'Dy2 H18 C28 N4 O20'
_cell_volume   796.94059434
_cell_formula_units_Z   2
loop_
 _symmetry_equiv_pos_site_id
 _symmetry_equiv_pos_as_xyz
  1  'x, y, z'
loop_
 _atom_site_type_symbol
 _atom_site_label
 _atom_site_symmetry_multiplicity
 _atom_site_fract_x
 _atom_site_fract_y
 _atom_site_fract_z
 _atom_site_occupancy
  Dy  Dy0  1  0.63514000  0.08867000  0.86059000  1.0
  Dy  Dy1  1  0.36486000  0.91133000  0.13941000  1.0
  H  H2  1  0.33140000  0.62574000  0.61225000  1.0
  H  H3  1  0.66861000  0.37427000  0.38775000  1.0
  H  H4  1  0.70450000  0.30349000  0.05923000  1.0
  H  H5  1  0.29549000  0.69652000  0.94077000  1.0
  H  H6  1  0.59976000  0.37430000  0.94856000  1.0
  H  H7  1  0.40025000  0.62570000  0.05143000  1.0
  H  H8  1  0.68344000  0.02898000  0.55788000  1.0
  H  H9  1  0.31655000  0.97103000  0.44212000  1.0
  H  H10  1  0.52691000  0.99346000  0.62180000  1.0
  H  H11  1  0.47309000  0.00654000  0.37819000  1.0
  H  H12  1  0.02488000  0.43695000  0.58258000  1.0
  H  H13  1  0.97512000  0.56305000  0.41742000  1.0
  H  H14  1  0.25352000  0.29934000  0.66612000  1.0
  H  H15  1  0.74648000  0.70066000  0.33388000  1.0
  H  H16  1  0.09314000  0.54191000  0.80612000  1.0
  H  H17  1  0.90687000  0.45809000  0.19388000  1.0
  H  H18  1  0.84044000  0.51472000  0.92429000  1.0
  H  H19  1  0.15956000  0.48528000  0.07571000  1.0
  C  C20  1  0.73446000  0.34097000  0.63146000  1.0
  C  C21  1  0.26554000  0.65903000  0.36855000  1.0
  C  C22  1  0.88346000  0.27100000  0.67265000  1.0
  C  C23  1  0.11654000  0.72900000  0.32735000  1.0
  C  C24  1  0.01873000  0.33062000  0.63843000  1.0
  C  C25  1  0.98127000  0.66937000  0.36158000  1.0
  C  C26  1  0.14612000  0.25292000  0.68203000  1.0
  C  C27  1  0.85388000  0.74708000  0.31798000  1.0
  C  C28  1  0.13783000  0.11260000  0.74718000  1.0
  C  C29  1  0.86217000  0.88740000  0.25282000  1.0
  C  C30  1  0.99879000  0.05259000  0.76171000  1.0
  C  C31  1  0.00121000  0.94741000  0.23830000  1.0
  C  C32  1  0.96803000  0.89757000  0.80083000  1.0
  C  C33  1  0.03197000  0.10243000  0.19917000  1.0
  C  C34  1  0.06363000  0.77455000  0.77528000  1.0
  C  C35  1  0.93637000  0.22545000  0.22472000  1.0
  C  C36  1  0.01882000  0.63642000  0.82361000  1.0
  C  C37  1  0.98118000  0.36359000  0.17639000  1.0
  C  C38  1  0.88056000  0.62066000  0.88815000  1.0
  C  C39  1  0.11945000  0.37933000  0.11185000  1.0
  C  C40  1  0.78894000  0.74605000  0.89968000  1.0
  C  C41  1  0.21106000  0.25394000  0.10032000  1.0
  C  C42  1  0.63593000  0.73836000  0.96559000  1.0
  C  C43  1  0.36407000  0.26163000  0.03440000  1.0
  C  C44  1  0.27225000  0.04150000  0.81392000  1.0
  C  C45  1  0.72775000  0.95849000  0.18607000  1.0
  C  C46  1  0.19782000  0.77774000  0.67952000  1.0
  C  C47  1  0.80217000  0.22227000  0.32048000  1.0
  N  N48  1  0.87604000  0.13642000  0.73526000  1.0
  N  N49  1  0.12396000  0.86358000  0.26474000  1.0
  N  N50  1  0.83209000  0.87956000  0.85740000  1.0
  N  N51  1  0.16791000  0.12044000  0.14260000  1.0
  O  O52  1  0.73355000  0.44092000  0.53457000  1.0
  O  O53  1  0.26645000  0.55908000  0.46544000  1.0
  O  O54  1  0.62232000  0.28392000  0.69215000  1.0
  O  O55  1  0.37768000  0.71608000  0.30786000  1.0
  O  O56  1  0.55499000  0.85953000  0.95730000  1.0
  O  O57  1  0.44501000  0.14046000  0.04271000  1.0
  O  O58  1  0.59829000  0.62152000  0.02604000  1.0
  O  O59  1  0.40172000  0.37846000  0.97395000  1.0
  O  O60  1  0.39675000  0.08232000  0.76651000  1.0
  O  O61  1  0.60325000  0.91768000  0.23349000  1.0
  O  O62  1  0.25049000  0.95282000  0.91942000  1.0
  O  O63  1  0.74951000  0.04717000  0.08058000  1.0
  O  O64  1  0.21142000  0.86992000  0.58088000  1.0
  O  O65  1  0.78858000  0.13008000  0.41912000  1.0
  O  O66  1  0.29304000  0.66396000  0.70523000  1.0
  O  O67  1  0.70696000  0.33606000  0.29477000  1.0
  O  O68  1  0.69535000  0.31650000  0.95761000  1.0
  O  O69  1  0.30465000  0.68350000  0.04239000  1.0
  O  O70  1  0.63216000  0.97065000  0.63329000  1.0
  O  O71  1  0.36784000  0.02936000  0.36671000  1.0
