# generated using pymatgen
data_MnH7C5(NO2)3
_symmetry_space_group_name_H-M   'P 1'
_cell_length_a   4.76308000
_cell_length_b   6.70962000
_cell_length_c   13.86740000
_cell_angle_alpha   98.58900000
_cell_angle_beta   97.84520000
_cell_angle_gamma   102.03000000
_symmetry_Int_Tables_number   1
_chemical_formula_structural   MnH7C5(NO2)3
_chemical_formula_sum   'Mn2 H14 C10 N6 O12'
_cell_volume   422.09941818
_cell_formula_units_Z   2
loop_
 _symmetry_equiv_pos_site_id
 _symmetry_equiv_pos_as_xyz
  1  'x, y, z'
loop_
 _atom_site_type_symbol
 _atom_site_label
 _atom_site_symmetry_multiplicity
 _atom_site_fract_x
 _atom_site_fract_y
 _atom_site_fract_z
 _atom_site_occupancy
  Mn  Mn0  1  0.50000000  0.99999000  0.00000000  1.0
  Mn  Mn1  1  0.00001000  0.49999000  0.50000000  1.0
  H  H2  1  0.53885000  0.41938000  0.13320000  1.0
  H  H3  1  0.46115000  0.58063000  0.86680000  1.0
  H  H4  1  0.38108000  0.60511000  0.08233000  1.0
  H  H5  1  0.61892000  0.39489000  0.91767000  1.0
  H  H6  1  0.33171000  0.29204000  0.29090000  1.0
  H  H7  1  0.66831000  0.70798000  0.70910000  1.0
  H  H8  1  0.34184000  0.87859000  0.59795000  1.0
  H  H9  1  0.65815000  0.12140000  0.40205000  1.0
  H  H10  1  0.58468000  0.99030000  0.20718000  1.0
  H  H11  1  0.41531000  0.00970000  0.79282000  1.0
  H  H12  1  0.53335000  0.78520000  0.52020000  1.0
  H  H13  1  0.46665000  0.21479000  0.47980000  1.0
  H  H14  1  0.25247000  0.90935000  0.16655000  1.0
  H  H15  1  0.74753000  0.09065000  0.83345000  1.0
  C  C16  1  0.01107000  0.66659000  0.31111000  1.0
  C  C17  1  0.98893000  0.33341000  0.68889000  1.0
  C  C18  1  0.23128000  0.42184000  0.28536000  1.0
  C  C19  1  0.76875000  0.57817000  0.71464000  1.0
  C  C20  1  0.33456000  0.46823000  0.11718000  1.0
  C  C21  1  0.66544000  0.53178000  0.88282000  1.0
  C  C22  1  0.84666000  0.80129000  0.36497000  1.0
  C  C23  1  0.15332000  0.19870000  0.63503000  1.0
  C  C24  1  0.10955000  0.29480000  0.04500000  1.0
  C  C25  1  0.89045000  0.70520000  0.95500000  1.0
  N  N26  1  0.09460000  0.50911000  0.35148000  1.0
  N  N27  1  0.90541000  0.49089000  0.64852000  1.0
  N  N28  1  0.23218000  0.52438000  0.20886000  1.0
  N  N29  1  0.76782000  0.47563000  0.79113000  1.0
  N  N30  1  0.09113000  0.67947000  0.22344000  1.0
  N  N31  1  0.90887000  0.32053000  0.77656000  1.0
  O  O32  1  0.77035000  0.94558000  0.32703000  1.0
  O  O33  1  0.22961000  0.05440000  0.67297000  1.0
  O  O34  1  0.79598000  0.75378000  0.44798000  1.0
  O  O35  1  0.20402000  0.24621000  0.55202000  1.0
  O  O36  1  0.38705000  0.74963000  0.56328000  1.0
  O  O37  1  0.61295000  0.25037000  0.43672000  1.0
  O  O38  1  0.20217000  0.19380000  0.97650000  1.0
  O  O39  1  0.79785000  0.80621000  0.02350000  1.0
  O  O40  1  0.84662000  0.26775000  0.05794000  1.0
  O  O41  1  0.15338000  0.73224000  0.94206000  1.0
  O  O42  1  0.42715000  0.01080000  0.15807000  1.0
  O  O43  1  0.57284000  0.98921000  0.84193000  1.0
