# generated using pymatgen
data_CuH13C6INO2
_symmetry_space_group_name_H-M   'P 1'
_cell_length_a   7.40133000
_cell_length_b   8.33518000
_cell_length_c   8.85417000
_cell_angle_alpha   113.61900000
_cell_angle_beta   102.00900000
_cell_angle_gamma   101.93000000
_symmetry_Int_Tables_number   1
_chemical_formula_structural   CuH13C6INO2
_chemical_formula_sum   'Cu2 H26 C12 I2 N2 O4'
_cell_volume   463.16311301
_cell_formula_units_Z   2
loop_
 _symmetry_equiv_pos_site_id
 _symmetry_equiv_pos_as_xyz
  1  'x, y, z'
loop_
 _atom_site_type_symbol
 _atom_site_label
 _atom_site_symmetry_multiplicity
 _atom_site_fract_x
 _atom_site_fract_y
 _atom_site_fract_z
 _atom_site_occupancy
  Cu  Cu0  1  0.37679000  0.56100000  0.55358000  1.0
  Cu  Cu1  1  0.62320000  0.43899000  0.44641000  1.0
  H  H2  1  0.10929000  0.63456000  0.69313000  1.0
  H  H3  1  0.89071000  0.36544000  0.30688000  1.0
  H  H4  1  0.47135000  0.94595000  0.83425000  1.0
  H  H5  1  0.52865000  0.05405000  0.16575000  1.0
  H  H6  1  0.24890000  0.96340000  0.87894000  1.0
  H  H7  1  0.75111000  0.03660000  0.12106000  1.0
  H  H8  1  0.07727000  0.85058000  0.56748000  1.0
  H  H9  1  0.92273000  0.14942000  0.43252000  1.0
  H  H10  1  0.28321000  0.05425000  0.64930000  1.0
  H  H11  1  0.71679000  0.94575000  0.35070000  1.0
  H  H12  1  0.33454000  0.72144000  0.25079000  1.0
  H  H13  1  0.66545000  0.27856000  0.74921000  1.0
  H  H14  1  0.34618000  0.95979000  0.35734000  1.0
  H  H15  1  0.65382000  0.04022000  0.64265000  1.0
  H  H16  1  0.99362000  0.86181000  0.32525000  1.0
  H  H17  1  0.00637000  0.13819000  0.67475000  1.0
  H  H18  1  0.03726000  0.78212000  0.12241000  1.0
  H  H19  1  0.96273000  0.21788000  0.87759000  1.0
  H  H20  1  0.70927000  0.54000000  0.01577000  1.0
  H  H21  1  0.29074000  0.45999000  0.98422000  1.0
  H  H22  1  0.69886000  0.61666000  0.23402000  1.0
  H  H23  1  0.30114000  0.38333000  0.76597000  1.0
  H  H24  1  0.27223000  0.75967000  0.00064000  1.0
  H  H25  1  0.72778000  0.24032000  0.99936000  1.0
  H  H26  1  0.48421000  0.71836000  0.94705000  1.0
  H  H27  1  0.51580000  0.28164000  0.05295000  1.0
  C  C28  1  0.31131000  0.88693000  0.78049000  1.0
  C  C29  1  0.68868000  0.11307000  0.21951000  1.0
  C  C30  1  0.23834000  0.90648000  0.61805000  1.0
  C  C31  1  0.76166000  0.09353000  0.38196000  1.0
  C  C32  1  0.27320000  0.81806000  0.33333333  1.0
  C  C33  1  0.72680000  0.18194000  0.66666667  1.0
  C  C34  1  0.05721000  0.76643000  0.24260000  1.0
  C  C35  1  0.94278000  0.23357000  0.75740000  1.0
  C  C36  1  0.75527000  0.52759000  0.13675000  1.0
  C  C37  1  0.24474000  0.47241000  0.86325000  1.0
  C  C38  1  0.32370000  0.67120000  0.89964000  1.0
  C  C39  1  0.67631000  0.32879000  0.10036000  1.0
  I  I40  1  0.23727000  0.26930000  0.26727000  1.0
  I  I41  1  0.76273000  0.73070000  0.73272000  1.0
  N  N42  1  0.25940000  0.68989000  0.73996000  1.0
  N  N43  1  0.74062000  0.31012000  0.26005000  1.0
  O  O44  1  0.32042000  0.80642000  0.49338000  1.0
  O  O45  1  0.67958000  0.19359000  0.50661000  1.0
  O  O46  1  0.96205000  0.58142000  0.20359000  1.0
  O  O47  1  0.03795000  0.41858000  0.79642000  1.0
