# generated using pymatgen
data_MnH4(CO3)2
_symmetry_space_group_name_H-M   'P 1'
_cell_length_a   5.72739000
_cell_length_b   6.63939000
_cell_length_c   8.17812000
_cell_angle_alpha   79.90270000
_cell_angle_beta   69.51430000
_cell_angle_gamma   64.48230000
_symmetry_Int_Tables_number   1
_chemical_formula_structural   MnH4(CO3)2
_chemical_formula_sum   'Mn2 H8 C4 O12'
_cell_volume   262.78919221
_cell_formula_units_Z   2
loop_
 _symmetry_equiv_pos_site_id
 _symmetry_equiv_pos_as_xyz
  1  'x, y, z'
loop_
 _atom_site_type_symbol
 _atom_site_label
 _atom_site_symmetry_multiplicity
 _atom_site_fract_x
 _atom_site_fract_y
 _atom_site_fract_z
 _atom_site_occupancy
  Mn  Mn0  1  0.92656000  0.75009000  0.25011000  1.0
  Mn  Mn1  1  0.07344000  0.24991000  0.74988000  1.0
  H  H2  1  0.62309000  0.18133000  0.35270000  1.0
  H  H3  1  0.15733000  0.31893000  0.14699000  1.0
  H  H4  1  0.37691000  0.81868000  0.64729000  1.0
  H  H5  1  0.84267000  0.68107000  0.85301000  1.0
  H  H6  1  0.67808000  0.18382000  0.14394000  1.0
  H  H7  1  0.00602000  0.31609000  0.35573000  1.0
  H  H8  1  0.32192000  0.81618000  0.85606000  1.0
  H  H9  1  0.99399000  0.68390000  0.64427000  1.0
  C  C10  1  0.47695000  0.74841000  0.14848000  1.0
  C  C11  1  0.37368000  0.75160000  0.35186000  1.0
  C  C12  1  0.52307000  0.25159000  0.85149000  1.0
  C  C13  1  0.62630000  0.24841000  0.64816000  1.0
  O  O14  1  0.71139000  0.74919000  0.07241000  1.0
  O  O15  1  0.53301000  0.75071000  0.42788000  1.0
  O  O16  1  0.28858000  0.25081000  0.92761000  1.0
  O  O17  1  0.46696000  0.24930000  0.57211000  1.0
  O  O18  1  0.31906000  0.74504000  0.07376000  1.0
  O  O19  1  0.13765000  0.75524000  0.42658000  1.0
  O  O20  1  0.68095000  0.25496000  0.92626000  1.0
  O  O21  1  0.86237000  0.24477000  0.57341000  1.0
  O  O22  1  0.75554000  0.11158000  0.24068000  1.0
  O  O23  1  0.10787000  0.38860000  0.25906000  1.0
  O  O24  1  0.24447000  0.88842000  0.75931000  1.0
  O  O25  1  0.89214000  0.61139000  0.74094000  1.0
