# generated using pymatgen
data_ZnH14C20N4O5
_symmetry_space_group_name_H-M   'P 1'
_cell_length_a   9.50970000
_cell_length_b   10.17760000
_cell_length_c   10.30390000
_cell_angle_alpha   87.11920000
_cell_angle_beta   87.49430000
_cell_angle_gamma   63.20390000
_symmetry_Int_Tables_number   1
_chemical_formula_structural   ZnH14C20N4O5
_chemical_formula_sum   'Zn2 H28 C40 N8 O10'
_cell_volume   888.80875844
_cell_formula_units_Z   2
loop_
 _symmetry_equiv_pos_site_id
 _symmetry_equiv_pos_as_xyz
  1  'x, y, z'
loop_
 _atom_site_type_symbol
 _atom_site_label
 _atom_site_symmetry_multiplicity
 _atom_site_fract_x
 _atom_site_fract_y
 _atom_site_fract_z
 _atom_site_occupancy
  Zn  Zn0  1  0.05485000  0.32478000  0.37697000  1.0
  Zn  Zn1  1  0.94515000  0.67522000  0.62303000  1.0
  H  H2  1  0.91246000  0.55838000  0.15330000  1.0
  H  H3  1  0.08754000  0.44162000  0.84670000  1.0
  H  H4  1  0.44386000  0.61391000  0.08592000  1.0
  H  H5  1  0.55614000  0.38609000  0.91408000  1.0
  H  H6  1  0.49190000  0.41353000  0.25541000  1.0
  H  H7  1  0.50810000  0.58647000  0.74458000  1.0
  H  H8  1  0.75166000  0.29823000  0.36890000  1.0
  H  H9  1  0.24834000  0.70177000  0.63110000  1.0
  H  H10  1  0.19036000  0.07632000  0.58295000  1.0
  H  H11  1  0.80965000  0.92368000  0.41705000  1.0
  H  H12  1  0.62979000  0.88833000  0.82396000  1.0
  H  H13  1  0.37022000  0.11168000  0.17604000  1.0
  H  H14  1  0.08734000  0.85272000  0.40550000  1.0
  H  H15  1  0.91266000  0.14727000  0.59450000  1.0
  H  H16  1  0.17453000  0.99185000  0.02138000  1.0
  H  H17  1  0.82548000  0.00814000  0.97862000  1.0
  H  H18  1  0.14614000  0.58282000  0.07957000  1.0
  H  H19  1  0.85386000  0.41718000  0.92044000  1.0
  H  H20  1  0.35292000  0.36301000  0.41793000  1.0
  H  H21  1  0.64708000  0.63699000  0.58206000  1.0
  H  H22  1  0.59051000  0.09261000  0.75000000  1.0
  H  H23  1  0.40948000  0.90740000  0.25000000  1.0
  H  H24  1  0.57239000  0.27857000  0.57704000  1.0
  H  H25  1  0.42761000  0.72144000  0.42296000  1.0
  H  H26  1  0.76253000  0.73422000  0.98268000  1.0
  H  H27  1  0.23747000  0.26578000  0.01732000  1.0
  H  H28  1  0.18123000  0.77005000  0.93036000  1.0
  H  H29  1  0.81878000  0.22995000  0.06964000  1.0
  C  C30  1  0.81488000  0.53131000  0.17370000  1.0
  C  C31  1  0.18512000  0.46869000  0.82630000  1.0
  C  C32  1  0.67453000  0.60234000  0.10511000  1.0
  C  C33  1  0.32548000  0.39766000  0.89489000  1.0
  C  C34  1  0.55458000  0.56065000  0.13696000  1.0
  C  C35  1  0.44542000  0.43935000  0.86304000  1.0
  C  C36  1  0.58067000  0.45134000  0.23220000  1.0
  C  C37  1  0.41933000  0.54866000  0.76780000  1.0
  C  C38  1  0.72426000  0.38659000  0.29556000  1.0
  C  C39  1  0.27574000  0.61341000  0.70444000  1.0
  C  C40  1  0.10847000  0.58666000  0.33934000  1.0
  C  C41  1  0.89153000  0.41334000  0.66066000  1.0
  C  C42  1  0.12752000  0.93730000  0.21850000  1.0
  C  C43  1  0.87248000  0.06269000  0.78150000  1.0
  C  C44  1  0.27653000  0.11924000  0.58446000  1.0
  C  C45  1  0.72347000  0.88077000  0.41554000  1.0
  C  C46  1  0.39457000  0.06515000  0.67739000  1.0
  C  C47  1  0.60543000  0.93485000  0.32261000  1.0
  C  C48  1  0.10973000  0.83252000  0.30190000  1.0
  C  C49  1  0.89026000  0.16749000  0.69811000  1.0
  C  C50  1  0.15693000  0.91199000  0.08544000  1.0
  C  C51  1  0.84307000  0.08801000  0.91457000  1.0
  C  C52  1  0.11330000  0.07699000  0.27063000  1.0
  C  C53  1  0.88670000  0.92301000  0.72937000  1.0
  C  C54  1  0.14129000  0.68283000  0.11701000  1.0
  C  C55  1  0.85871000  0.31717000  0.88299000  1.0
  C  C56  1  0.36901000  0.27841000  0.49261000  1.0
  C  C57  1  0.63099000  0.72159000  0.50739000  1.0
  C  C58  1  0.50105000  0.12533000  0.67644000  1.0
  C  C59  1  0.49895000  0.87467000  0.32356000  1.0
  C  C60  1  0.39295000  0.95030000  0.77363000  1.0
  C  C61  1  0.60705000  0.04970000  0.22636000  1.0
  C  C62  1  0.48987000  0.23122000  0.58096000  1.0
  C  C63  1  0.51013000  0.76878000  0.41904000  1.0
  C  C64  1  0.66053000  0.71224000  0.00363000  1.0
  C  C65  1  0.33947000  0.28776000  0.99636000  1.0
  C  C66  1  0.11986000  0.70331000  0.25155000  1.0
  C  C67  1  0.88014000  0.29669000  0.74845000  1.0
  C  C68  1  0.16035000  0.78629000  0.03430000  1.0
  C  C69  1  0.83966000  0.21371000  0.96570000  1.0
  N  N70  1  0.83901000  0.42696000  0.26700000  1.0
  N  N71  1  0.16099000  0.57304000  0.73300000  1.0
  N  N72  1  0.26265000  0.22485000  0.49530000  1.0
  N  N73  1  0.73734000  0.77516000  0.50470000  1.0
  N  N74  1  0.52657000  0.87902000  0.84651000  1.0
  N  N75  1  0.47343000  0.12098000  0.15349000  1.0
  N  N76  1  0.53107000  0.77915000  0.94015000  1.0
  N  N77  1  0.46893000  0.22085000  0.05984000  1.0
  O  O78  1  0.09118000  0.60484000  0.46062000  1.0
  O  O79  1  0.90882000  0.39516000  0.53939000  1.0
  O  O80  1  0.12329000  0.46999000  0.28524000  1.0
  O  O81  1  0.87672000  0.53000000  0.71476000  1.0
  O  O82  1  0.04283000  0.11944000  0.37999000  1.0
  O  O83  1  0.95717000  0.88056000  0.62001000  1.0
  O  O84  1  0.17075000  0.15240000  0.20466000  1.0
  O  O85  1  0.82924000  0.84761000  0.79535000  1.0
  O  O86  1  0.27817000  0.92406000  0.78526000  1.0
  O  O87  1  0.72183000  0.07594000  0.21474000  1.0
