# generated using pymatgen
data_Zn3H28C30(NO7)2
_symmetry_space_group_name_H-M   'P 1'
_cell_length_a   8.08259000
_cell_length_b   9.87603000
_cell_length_c   11.46160000
_cell_angle_alpha   106.80900000
_cell_angle_beta   90.63220000
_cell_angle_gamma   113.91700000
_symmetry_Int_Tables_number   1
_chemical_formula_structural   Zn3H28C30(NO7)2
_chemical_formula_sum   'Zn3 H28 C30 N2 O14'
_cell_volume   791.96789091
_cell_formula_units_Z   1
loop_
 _symmetry_equiv_pos_site_id
 _symmetry_equiv_pos_as_xyz
  1  'x, y, z'
loop_
 _atom_site_type_symbol
 _atom_site_label
 _atom_site_symmetry_multiplicity
 _atom_site_fract_x
 _atom_site_fract_y
 _atom_site_fract_z
 _atom_site_occupancy
  Zn  Zn0  1  0.50000000  0.50000000  0.00000000  1.0
  Zn  Zn1  1  0.13754000  0.58987000  0.12565000  1.0
  Zn  Zn2  1  0.86246000  0.41013000  0.87435000  1.0
  H  H3  1  0.65325000  0.43319000  0.31920000  1.0
  H  H4  1  0.34675000  0.56681000  0.68080000  1.0
  H  H5  1  0.25205000  0.58279000  0.47717000  1.0
  H  H6  1  0.74795000  0.41720000  0.52283000  1.0
  H  H7  1  0.30549000  0.10162000  0.43163000  1.0
  H  H8  1  0.69451000  0.89839000  0.56837000  1.0
  H  H9  1  0.77406000  0.72707000  0.39274000  1.0
  H  H10  1  0.22594000  0.27293000  0.60726000  1.0
  H  H11  1  0.63203000  0.81078000  0.93262000  1.0
  H  H12  1  0.36796000  0.18922000  0.06738000  1.0
  H  H13  1  0.59920000  0.96415000  0.79940000  1.0
  H  H14  1  0.40080000  0.03585000  0.20060000  1.0
  H  H15  1  0.02303000  0.96012000  0.85514000  1.0
  H  H16  1  0.97697000  0.03988000  0.14486000  1.0
  H  H17  1  0.89097000  0.77455000  0.87360000  1.0
  H  H18  1  0.10903000  0.22545000  0.12640000  1.0
  H  H19  1  0.94777000  0.78621000  0.72721000  1.0
  H  H20  1  0.05223000  0.21379000  0.27278000  1.0
  H  H21  1  0.45008000  0.04156000  0.70511000  1.0
  H  H22  1  0.54992000  0.95844000  0.29489000  1.0
  H  H23  1  0.28109000  0.08609000  0.78537000  1.0
  H  H24  1  0.71892000  0.91391000  0.21463000  1.0
  H  H25  1  0.21186000  0.91650000  0.65147000  1.0
  H  H26  1  0.78814000  0.08350000  0.34853000  1.0
  H  H27  1  0.14026000  0.30865000  0.97141000  1.0
  H  H28  1  0.85974000  0.69135000  0.02859000  1.0
  H  H29  1  0.20570000  0.32102000  0.84867000  1.0
  H  H30  1  0.79430000  0.67898000  0.15133000  1.0
  C  C31  1  0.38924000  0.51747000  0.26515000  1.0
  C  C32  1  0.61076000  0.48253000  0.73485000  1.0
  C  C33  1  0.44611000  0.50750000  0.38644000  1.0
  C  C34  1  0.55389000  0.49249000  0.61356000  1.0
  C  C35  1  0.58588000  0.46055000  0.39862000  1.0
  C  C36  1  0.41413000  0.53945000  0.60138000  1.0
  C  C37  1  0.36061000  0.54691000  0.48846000  1.0
  C  C38  1  0.63939000  0.45309000  0.51154000  1.0
  C  C39  1  0.08932000  0.80040000  0.29691000  1.0
  C  C40  1  0.91069000  0.19960000  0.70309000  1.0
  C  C41  1  0.04357000  0.90394000  0.40160000  1.0
  C  C42  1  0.95643000  0.09606000  0.59840000  1.0
  C  C43  1  0.17196000  0.05807000  0.46183000  1.0
  C  C44  1  0.82804000  0.94193000  0.53817000  1.0
  C  C45  1  0.87179000  0.84684000  0.44034000  1.0
  C  C46  1  0.12821000  0.15317000  0.55966000  1.0
  C  C47  1  0.17707000  0.72982000  0.92845000  1.0
  C  C48  1  0.82293000  0.27018000  0.07155000  1.0
  C  C49  1  0.34744000  0.72473000  0.95723000  1.0
  C  C50  1  0.65256000  0.27527000  0.04276000  1.0
  C  C51  1  0.50109000  0.81120000  0.91099000  1.0
  C  C52  1  0.49891000  0.18880000  0.08901000  1.0
  C  C53  1  0.48510000  0.89524000  0.83809000  1.0
  C  C54  1  0.51490000  0.10475000  0.16191000  1.0
  C  C55  1  0.16849000  0.81993000  0.85641000  1.0
  C  C56  1  0.83151000  0.18007000  0.14359000  1.0
  C  C57  1  0.99870000  0.83642000  0.82659000  1.0
  C  C58  1  0.00130000  0.16358000  0.17341000  1.0
  C  C59  1  0.31544000  0.99129000  0.73307000  1.0
  C  C60  1  0.68456000  0.00871000  0.26693000  1.0
  N  N61  1  0.32336000  0.89879000  0.81130000  1.0
  N  N62  1  0.67664000  0.10121000  0.18870000  1.0
  O  O63  1  0.48663000  0.50013000  0.18068000  1.0
  O  O64  1  0.51336000  0.49987000  0.81932000  1.0
  O  O65  1  0.24639000  0.54104000  0.25777000  1.0
  O  O66  1  0.75361000  0.45896000  0.74223000  1.0
  O  O67  1  0.24509000  0.84988000  0.26293000  1.0
  O  O68  1  0.75491000  0.15013000  0.73708000  1.0
  O  O69  1  0.96575000  0.65993000  0.24227000  1.0
  O  O70  1  0.03425000  0.34007000  0.75773000  1.0
  O  O71  1  0.35246000  0.64126000  0.02677000  1.0
  O  O72  1  0.64754000  0.35874000  0.97323000  1.0
  O  O73  1  0.03244000  0.64713000  0.97477000  1.0
  O  O74  1  0.96756000  0.35287000  0.02523000  1.0
  O  O75  1  0.24075000  0.30126000  0.92331000  1.0
  O  O76  1  0.75925000  0.69874000  0.07669000  1.0
