# generated using pymatgen
data_Cu3H10C13(BrN)3
_symmetry_space_group_name_H-M   'P 1'
_cell_length_a   7.15663000
_cell_length_b   12.17540000
_cell_length_c   17.51910000
_cell_angle_alpha   90.00000000
_cell_angle_beta   90.00000000
_cell_angle_gamma   103.96400000
_symmetry_Int_Tables_number   1
_chemical_formula_structural   Cu3H10C13(BrN)3
_chemical_formula_sum   'Cu12 H40 C52 Br12 N12'
_cell_volume   1481.41131413
_cell_formula_units_Z   4
loop_
 _symmetry_equiv_pos_site_id
 _symmetry_equiv_pos_as_xyz
  1  'x, y, z'
loop_
 _atom_site_type_symbol
 _atom_site_label
 _atom_site_symmetry_multiplicity
 _atom_site_fract_x
 _atom_site_fract_y
 _atom_site_fract_z
 _atom_site_occupancy
  Cu  Cu0  1  0.09608000  0.74951000  0.11721000  1.0
  Cu  Cu1  1  0.40394000  0.25049000  0.61721000  1.0
  Cu  Cu2  1  0.90394000  0.25049000  0.88279000  1.0
  Cu  Cu3  1  0.59605000  0.74950000  0.38279000  1.0
  Cu  Cu4  1  0.83852000  0.72705000  0.27676000  1.0
  Cu  Cu5  1  0.66146000  0.27295000  0.77676000  1.0
  Cu  Cu6  1  0.16145000  0.27295000  0.72324000  1.0
  Cu  Cu7  1  0.33854000  0.72705000  0.22324000  1.0
  Cu  Cu8  1  0.71860000  0.94222000  0.10948000  1.0
  Cu  Cu9  1  0.78138000  0.05777000  0.60948000  1.0
  Cu  Cu10  1  0.28140000  0.05778000  0.89052000  1.0
  Cu  Cu11  1  0.21859000  0.94222000  0.39052000  1.0
  H  H12  1  0.79558000  0.55130000  0.10692000  1.0
  H  H13  1  0.70444000  0.44870000  0.60691000  1.0
  H  H14  1  0.20446000  0.44870000  0.89308000  1.0
  H  H15  1  0.29553000  0.55130000  0.39309000  1.0
  H  H16  1  0.61853000  0.41938000  0.00602000  1.0
  H  H17  1  0.88149000  0.58063000  0.50602000  1.0
  H  H18  1  0.38149000  0.58063000  0.99398000  1.0
  H  H19  1  0.11850000  0.41937000  0.49398000  1.0
  H  H20  1  0.66157000  0.47878000  0.86876000  1.0
  H  H21  1  0.83843000  0.52122000  0.36875000  1.0
  H  H22  1  0.33842000  0.52123000  0.13125000  1.0
  H  H23  1  0.16158000  0.47876000  0.63125000  1.0
  H  H24  1  0.88899000  0.66565000  0.83832000  1.0
  H  H25  1  0.61101000  0.33435000  0.33832000  1.0
  H  H26  1  0.11101000  0.33436000  0.16168000  1.0
  H  H27  1  0.38899000  0.66564000  0.66169000  1.0
  H  H28  1  0.21233000  0.62805000  0.88108000  1.0
  H  H29  1  0.28769000  0.37195000  0.38109000  1.0
  H  H30  1  0.78769000  0.37195000  0.11891000  1.0
  H  H31  1  0.71231000  0.62805000  0.61892000  1.0
  H  H32  1  0.49635000  0.64054000  0.79876000  1.0
  H  H33  1  0.00367000  0.35947000  0.29877000  1.0
  H  H34  1  0.50366000  0.35947000  0.20123000  1.0
  H  H35  1  0.99635000  0.64054000  0.70123000  1.0
  H  H36  1  0.70901000  0.83553000  0.76760000  1.0
  H  H37  1  0.79100000  0.16449000  0.26760000  1.0
  H  H38  1  0.29099000  0.16448000  0.23239000  1.0
  H  H39  1  0.20900000  0.83553000  0.73240000  1.0
  H  H40  1  0.60865000  0.00440000  0.81657000  1.0
  H  H41  1  0.89136000  0.99561000  0.31657000  1.0
  H  H42  1  0.39136000  0.99560000  0.18343000  1.0
  H  H43  1  0.10862000  0.00440000  0.68343000  1.0
  H  H44  1  0.75365000  0.84663000  0.93811000  1.0
  H  H45  1  0.74634000  0.15336000  0.43810000  1.0
  H  H46  1  0.24635000  0.15337000  0.06190000  1.0
  H  H47  1  0.25364000  0.84663000  0.56190000  1.0
  H  H48  1  0.33394000  0.97796000  0.01936000  1.0
  H  H49  1  0.16606000  0.02204000  0.51936000  1.0
  H  H50  1  0.66606000  0.02203000  0.98064000  1.0
  H  H51  1  0.83393000  0.97795000  0.48064000  1.0
  C  C52  1  0.81417000  0.57129000  0.04628000  1.0
  C  C53  1  0.68585000  0.42872000  0.54627000  1.0
  C  C54  1  0.18585000  0.42871000  0.95373000  1.0
  C  C55  1  0.31414000  0.57128000  0.45373000  1.0
  C  C56  1  0.71538000  0.49958000  0.99035000  1.0
  C  C57  1  0.78464000  0.50042000  0.49035000  1.0
  C  C58  1  0.28464000  0.50042000  0.00965000  1.0
  C  C59  1  0.21534000  0.49958000  0.50965000  1.0
  C  C60  1  0.74018000  0.53217000  0.91396000  1.0
  C  C61  1  0.75983000  0.46784000  0.41396000  1.0
  C  C62  1  0.25983000  0.46785000  0.08604000  1.0
  C  C63  1  0.24018000  0.53215000  0.58604000  1.0
  C  C64  1  0.86619000  0.63527000  0.89686000  1.0
  C  C65  1  0.63382000  0.36474000  0.39685000  1.0
  C  C66  1  0.13381000  0.36474000  0.10315000  1.0
  C  C67  1  0.36617000  0.63525000  0.60315000  1.0
  C  C68  1  0.96710000  0.70047000  0.95597000  1.0
  C  C69  1  0.53292000  0.29953000  0.45596000  1.0
  C  C70  1  0.03292000  0.29954000  0.04404000  1.0
  C  C71  1  0.46707000  0.70046000  0.54404000  1.0
  C  C72  1  0.25636000  0.80989000  0.89224000  1.0
  C  C73  1  0.24364000  0.19011000  0.39224000  1.0
  C  C74  1  0.74364000  0.19011000  0.10776000  1.0
  C  C75  1  0.75635000  0.80989000  0.60776000  1.0
  C  C76  1  0.30258000  0.71021000  0.86587000  1.0
  C  C77  1  0.19743000  0.28979000  0.36588000  1.0
  C  C78  1  0.69742000  0.28979000  0.13412000  1.0
  C  C79  1  0.80257000  0.71021000  0.63412000  1.0
  C  C80  1  0.46234000  0.71803000  0.81958000  1.0
  C  C81  1  0.03767000  0.28197000  0.31959000  1.0
  C  C82  1  0.53765000  0.28197000  0.18041000  1.0
  C  C83  1  0.96234000  0.71803000  0.68041000  1.0
  C  C84  1  0.57810000  0.82484000  0.80119000  1.0
  C  C85  1  0.92192000  0.17517000  0.30119000  1.0
  C  C86  1  0.42190000  0.17517000  0.19880000  1.0
  C  C87  1  0.07809000  0.82484000  0.69881000  1.0
  C  C88  1  0.52316000  0.91923000  0.82842000  1.0
  C  C89  1  0.97685000  0.08077000  0.32842000  1.0
  C  C90  1  0.47685000  0.08077000  0.17158000  1.0
  C  C91  1  0.02313000  0.91923000  0.67158000  1.0
  C  C92  1  0.05188000  0.90385000  0.97078000  1.0
  C  C93  1  0.44812000  0.09614000  0.47078000  1.0
  C  C94  1  0.94813000  0.09614000  0.02922000  1.0
  C  C95  1  0.55186000  0.90385000  0.52922000  1.0
  C  C96  1  0.86086000  0.91244000  0.96658000  1.0
  C  C97  1  0.63913000  0.08755000  0.46658000  1.0
  C  C98  1  0.13914000  0.08756000  0.03342000  1.0
  C  C99  1  0.36085000  0.91244000  0.53342000  1.0
  C  C100  1  0.19372000  0.99213000  0.00456000  1.0
  C  C101  1  0.30627000  0.00787000  0.50456000  1.0
  C  C102  1  0.80628000  0.00786000  0.99544000  1.0
  C  C103  1  0.69371000  0.99213000  0.49543000  1.0
  Br  Br104  1  0.03091000  0.59034000  0.23049000  1.0
  Br  Br105  1  0.46907000  0.40966000  0.73048000  1.0
  Br  Br106  1  0.96908000  0.40966000  0.76952000  1.0
  Br  Br107  1  0.53091000  0.59033000  0.26952000  1.0
  Br  Br108  1  0.96168000  0.88644000  0.18696000  1.0
  Br  Br109  1  0.53831000  0.11355000  0.68696000  1.0
  Br  Br110  1  0.03832000  0.11356000  0.81304000  1.0
  Br  Br111  1  0.46166000  0.88644000  0.31304000  1.0
  Br  Br112  1  0.44814000  0.77898000  0.09016000  1.0
  Br  Br113  1  0.05191000  0.22100000  0.59015000  1.0
  Br  Br114  1  0.55191000  0.22101000  0.90985000  1.0
  Br  Br115  1  0.94809000  0.77899000  0.40985000  1.0
  N  N116  1  0.94290000  0.66968000  0.03021000  1.0
  N  N117  1  0.55713000  0.33032000  0.53021000  1.0
  N  N118  1  0.05713000  0.33032000  0.96979000  1.0
  N  N119  1  0.44285000  0.66968000  0.46979000  1.0
  N  N120  1  0.09972000  0.80545000  0.94041000  1.0
  N  N121  1  0.40029000  0.19456000  0.44041000  1.0
  N  N122  1  0.90030000  0.19455000  0.05959000  1.0
  N  N123  1  0.59970000  0.80544000  0.55959000  1.0
  N  N124  1  0.36356000  0.91312000  0.87121000  1.0
  N  N125  1  0.13645000  0.08688000  0.37121000  1.0
  N  N126  1  0.63646000  0.08688000  0.12880000  1.0
  N  N127  1  0.86353000  0.91312000  0.62879000  1.0
