# generated using pymatgen
data_ZnCuH8C13(NO3)2
_symmetry_space_group_name_H-M   'P 1'
_cell_length_a   10.11700000
_cell_length_b   14.82990000
_cell_length_c   20.00650000
_cell_angle_alpha   89.99920000
_cell_angle_beta   85.10180000
_cell_angle_gamma   89.99990000
_symmetry_Int_Tables_number   1
_chemical_formula_structural   ZnCuH8C13(NO3)2
_chemical_formula_sum   'Zn8 Cu8 H64 C104 N16 O48'
_cell_volume   2990.69507272
_cell_formula_units_Z   8
loop_
 _symmetry_equiv_pos_site_id
 _symmetry_equiv_pos_as_xyz
  1  'x, y, z'
loop_
 _atom_site_type_symbol
 _atom_site_label
 _atom_site_symmetry_multiplicity
 _atom_site_fract_x
 _atom_site_fract_y
 _atom_site_fract_z
 _atom_site_occupancy
  Zn  Zn0  1  0.99319000  0.04222000  0.76592000  1.0
  Zn  Zn1  1  0.50681000  0.54222000  0.73408000  1.0
  Zn  Zn2  1  0.00681000  0.95778000  0.23408000  1.0
  Zn  Zn3  1  0.49319000  0.45778000  0.26592000  1.0
  Zn  Zn4  1  0.00489000  0.67164000  0.74754000  1.0
  Zn  Zn5  1  0.49511000  0.17164000  0.75247000  1.0
  Zn  Zn6  1  0.99511000  0.32836000  0.25246000  1.0
  Zn  Zn7  1  0.50489000  0.82836000  0.24754000  1.0
  Cu  Cu8  1  0.00948000  0.88935000  0.94041000  1.0
  Cu  Cu9  1  0.49052000  0.38934000  0.55959000  1.0
  Cu  Cu10  1  0.99052000  0.11066000  0.05958000  1.0
  Cu  Cu11  1  0.50948000  0.61066000  0.44041000  1.0
  Cu  Cu12  1  0.00208000  0.62655000  0.00551000  1.0
  Cu  Cu13  1  0.49792000  0.12655000  0.49448000  1.0
  Cu  Cu14  1  0.99792000  0.37345000  0.99448000  1.0
  Cu  Cu15  1  0.50208000  0.87345000  0.50552000  1.0
  H  H16  1  0.24704000  0.94710000  0.85923000  1.0
  H  H17  1  0.25296000  0.44710000  0.64077000  1.0
  H  H18  1  0.75296000  0.05290000  0.14077000  1.0
  H  H19  1  0.74703000  0.55289000  0.35923000  1.0
  H  H20  1  0.47063000  0.00161000  0.88206000  1.0
  H  H21  1  0.02938000  0.50161000  0.61795000  1.0
  H  H22  1  0.52938000  0.99839000  0.11795000  1.0
  H  H23  1  0.97062000  0.49839000  0.38205000  1.0
  H  H24  1  0.35338000  0.95844000  0.09332000  1.0
  H  H25  1  0.14662000  0.45844000  0.40669000  1.0
  H  H26  1  0.64662000  0.04155000  0.90669000  1.0
  H  H27  1  0.85338000  0.54156000  0.59331000  1.0
  H  H28  1  0.13625000  0.91114000  0.06211000  1.0
  H  H29  1  0.36374000  0.41113000  0.43789000  1.0
  H  H30  1  0.86375000  0.08886000  0.93789000  1.0
  H  H31  1  0.63625000  0.58886000  0.56211000  1.0
  H  H32  1  0.83819000  0.83249000  0.05631000  1.0
  H  H33  1  0.66181000  0.33248000  0.44370000  1.0
  H  H34  1  0.16182000  0.16752000  0.94369000  1.0
  H  H35  1  0.33819000  0.66751000  0.55631000  1.0
  H  H36  1  0.61597000  0.77135000  0.07650000  1.0
  H  H37  1  0.88403000  0.27135000  0.42350000  1.0
  H  H38  1  0.38404000  0.22865000  0.92349000  1.0
  H  H39  1  0.11597000  0.72866000  0.57650000  1.0
  H  H40  1  0.57906000  0.79174000  0.86203000  1.0
  H  H41  1  0.92095000  0.29175000  0.63797000  1.0
  H  H42  1  0.42095000  0.20826000  0.13797000  1.0
  H  H43  1  0.07905000  0.70825000  0.36203000  1.0
  H  H44  1  0.80203000  0.85666000  0.85117000  1.0
  H  H45  1  0.69798000  0.35666000  0.64884000  1.0
  H  H46  1  0.19797000  0.14334000  0.14883000  1.0
  H  H47  1  0.30202000  0.64334000  0.35117000  1.0
  H  H48  1  0.18127000  0.66356000  0.89326000  1.0
  H  H49  1  0.31874000  0.16356000  0.60674000  1.0
  H  H50  1  0.81874000  0.33644000  0.10674000  1.0
  H  H51  1  0.68126000  0.83644000  0.39326000  1.0
  H  H52  1  0.41133000  0.71743000  0.87345000  1.0
  H  H53  1  0.08868000  0.21744000  0.62655000  1.0
  H  H54  1  0.58868000  0.28257000  0.12654000  1.0
  H  H55  1  0.91132000  0.78257000  0.37345000  1.0
  H  H56  1  0.41912000  0.73835000  0.09006000  1.0
  H  H57  1  0.08088000  0.23835000  0.40993000  1.0
  H  H58  1  0.58088000  0.26165000  0.90993000  1.0
  H  H59  1  0.91912000  0.76165000  0.59007000  1.0
  H  H60  1  0.19446000  0.67961000  0.10073000  1.0
  H  H61  1  0.30554000  0.17961000  0.39927000  1.0
  H  H62  1  0.80555000  0.32039000  0.89926000  1.0
  H  H63  1  0.69446000  0.82039000  0.60073000  1.0
  H  H64  1  0.79398000  0.57391000  0.11139000  1.0
  H  H65  1  0.70603000  0.07391000  0.38861000  1.0
  H  H66  1  0.20602000  0.42609000  0.88861000  1.0
  H  H67  1  0.29398000  0.92609000  0.61139000  1.0
  H  H68  1  0.56711000  0.52035000  0.11088000  1.0
  H  H69  1  0.93289000  0.02034000  0.38912000  1.0
  H  H70  1  0.43290000  0.47966000  0.88912000  1.0
  H  H71  1  0.06711000  0.97966000  0.61088000  1.0
  H  H72  1  0.61722000  0.52628000  0.89282000  1.0
  H  H73  1  0.88278000  0.02627000  0.60718000  1.0
  H  H74  1  0.38277000  0.47374000  0.10718000  1.0
  H  H75  1  0.11722000  0.97372000  0.39282000  1.0
  H  H76  1  0.84037000  0.58639000  0.90211000  1.0
  H  H77  1  0.65964000  0.08639000  0.59789000  1.0
  H  H78  1  0.15963000  0.41362000  0.09789000  1.0
  H  H79  1  0.34036000  0.91361000  0.40211000  1.0
  C  C80  1  0.02906000  0.85239000  0.79080000  1.0
  C  C81  1  0.47094000  0.35239000  0.70920000  1.0
  C  C82  1  0.97094000  0.14761000  0.20919000  1.0
  C  C83  1  0.52905000  0.64761000  0.29080000  1.0
  C  C84  1  0.95887000  0.85807000  0.72407000  1.0
  C  C85  1  0.54113000  0.35807000  0.77593000  1.0
  C  C86  1  0.04113000  0.14193000  0.27593000  1.0
  C  C87  1  0.45887000  0.64193000  0.22407000  1.0
  C  C88  1  0.22798000  0.13015000  0.79588000  1.0
  C  C89  1  0.27201000  0.63015000  0.70412000  1.0
  C  C90  1  0.77200000  0.86985000  0.20412000  1.0
  C  C91  1  0.72799000  0.36985000  0.29588000  1.0
  C  C92  1  0.26337000  0.07764000  0.72859000  1.0
  C  C93  1  0.23662000  0.57764000  0.77141000  1.0
  C  C94  1  0.73662000  0.92236000  0.27141000  1.0
  C  C95  1  0.76338000  0.42236000  0.22859000  1.0
  C  C96  1  0.77022000  0.13379000  0.72349000  1.0
  C  C97  1  0.72978000  0.63379000  0.77651000  1.0
  C  C98  1  0.22978000  0.86621000  0.27651000  1.0
  C  C99  1  0.27022000  0.36621000  0.22349000  1.0
  C  C100  1  0.72399000  0.08305000  0.78969000  1.0
  C  C101  1  0.77601000  0.58305000  0.71032000  1.0
  C  C102  1  0.27601000  0.91695000  0.21032000  1.0
  C  C103  1  0.22399000  0.41695000  0.28969000  1.0
  C  C104  1  0.27652000  0.95115000  0.91020000  1.0
  C  C105  1  0.22348000  0.45115000  0.58980000  1.0
  C  C106  1  0.72348000  0.04885000  0.08980000  1.0
  C  C107  1  0.77652000  0.54885000  0.41020000  1.0
  C  C108  1  0.40143000  0.98064000  0.92392000  1.0
  C  C109  1  0.09857000  0.48064000  0.57608000  1.0
  C  C110  1  0.59857000  0.01936000  0.07608000  1.0
  C  C111  1  0.90143000  0.51936000  0.42392000  1.0
  C  C112  1  0.43443000  0.98462000  0.99088000  1.0
  C  C113  1  0.06556000  0.48463000  0.50912000  1.0
  C  C114  1  0.56557000  0.01537000  0.00912000  1.0
  C  C115  1  0.93443000  0.51537000  0.49088000  1.0
  C  C116  1  0.33640000  0.95792000  0.04048000  1.0
  C  C117  1  0.16360000  0.45792000  0.45952000  1.0
  C  C118  1  0.66360000  0.04207000  0.95952000  1.0
  C  C119  1  0.83639000  0.54208000  0.54048000  1.0
  C  C120  1  0.21297000  0.93032000  0.02320000  1.0
  C  C121  1  0.28702000  0.43031000  0.47680000  1.0
  C  C122  1  0.78703000  0.06968000  0.97680000  1.0
  C  C123  1  0.71297000  0.56968000  0.52320000  1.0
  C  C124  1  0.77860000  0.82179000  0.01405000  1.0
  C  C125  1  0.72140000  0.32179000  0.48595000  1.0
  C  C126  1  0.22141000  0.17822000  0.98594000  1.0
  C  C127  1  0.27860000  0.67821000  0.51405000  1.0
  C  C128  1  0.65127000  0.78694000  0.02486000  1.0
  C  C129  1  0.84873000  0.28694000  0.47514000  1.0
  C  C130  1  0.34874000  0.21306000  0.97513000  1.0
  C  C131  1  0.15127000  0.71306000  0.52486000  1.0
  C  C132  1  0.57380000  0.77396000  0.97054000  1.0
  C  C133  1  0.92620000  0.27396000  0.52946000  1.0
  C  C134  1  0.42621000  0.22604000  0.02946000  1.0
  C  C135  1  0.07380000  0.72604000  0.47054000  1.0
  C  C136  1  0.63101000  0.79971000  0.90703000  1.0
  C  C137  1  0.86899000  0.29972000  0.59297000  1.0
  C  C138  1  0.36899000  0.20028000  0.09297000  1.0
  C  C139  1  0.13101000  0.70028000  0.40703000  1.0
  C  C140  1  0.75818000  0.83506000  0.89995000  1.0
  C  C141  1  0.74182000  0.33506000  0.60005000  1.0
  C  C142  1  0.24182000  0.16494000  0.10005000  1.0
  C  C143  1  0.25817000  0.66494000  0.39995000  1.0
  C  C144  1  0.23798000  0.68122000  0.93528000  1.0
  C  C145  1  0.26203000  0.18123000  0.56472000  1.0
  C  C146  1  0.76203000  0.31878000  0.06472000  1.0
  C  C147  1  0.73797000  0.81878000  0.43528000  1.0
  C  C148  1  0.36691000  0.71319000  0.92486000  1.0
  C  C149  1  0.13310000  0.21320000  0.57514000  1.0
  C  C150  1  0.63310000  0.28680000  0.07514000  1.0
  C  C151  1  0.86691000  0.78681000  0.42486000  1.0
  C  C152  1  0.43780000  0.73685000  0.97973000  1.0
  C  C153  1  0.06220000  0.23686000  0.52027000  1.0
  C  C154  1  0.56220000  0.26314000  0.02026000  1.0
  C  C155  1  0.93780000  0.76315000  0.47973000  1.0
  C  C156  1  0.37293000  0.72379000  0.04401000  1.0
  C  C157  1  0.12708000  0.22380000  0.45599000  1.0
  C  C158  1  0.62708000  0.27620000  0.95598000  1.0
  C  C159  1  0.87292000  0.77620000  0.54401000  1.0
  C  C160  1  0.24469000  0.69033000  0.05101000  1.0
  C  C161  1  0.25531000  0.19034000  0.44899000  1.0
  C  C162  1  0.75531000  0.30966000  0.94899000  1.0
  C  C163  1  0.74469000  0.80967000  0.55101000  1.0
  C  C164  1  0.75110000  0.56433000  0.06380000  1.0
  C  C165  1  0.74890000  0.06432000  0.43620000  1.0
  C  C166  1  0.24890000  0.43568000  0.93620000  1.0
  C  C167  1  0.25110000  0.93567000  0.56380000  1.0
  C  C168  1  0.62222000  0.53290000  0.06275000  1.0
  C  C169  1  0.87777000  0.03289000  0.43725000  1.0
  C  C170  1  0.37778000  0.46711000  0.93725000  1.0
  C  C171  1  0.12223000  0.96710000  0.56275000  1.0
  C  C172  1  0.56826000  0.51745000  0.00134000  1.0
  C  C173  1  0.93174000  0.01744000  0.49866000  1.0
  C  C174  1  0.43174000  0.48256000  0.99866000  1.0
  C  C175  1  0.06826000  0.98255000  0.50134000  1.0
  C  C176  1  0.65013000  0.53644000  0.94265000  1.0
  C  C177  1  0.84987000  0.03644000  0.55735000  1.0
  C  C178  1  0.34987000  0.46356000  0.05735000  1.0
  C  C179  1  0.15013000  0.96355000  0.44265000  1.0
  C  C180  1  0.77753000  0.56898000  0.94719000  1.0
  C  C181  1  0.72247000  0.06898000  0.55281000  1.0
  C  C182  1  0.22248000  0.43102000  0.05282000  1.0
  C  C183  1  0.27752000  0.93102000  0.44718000  1.0
  N  N184  1  0.18176000  0.92638000  0.95881000  1.0
  N  N185  1  0.31824000  0.42638000  0.54119000  1.0
  N  N186  1  0.81824000  0.07362000  0.04119000  1.0
  N  N187  1  0.68176000  0.57362000  0.45881000  1.0
  N  N188  1  0.83342000  0.84550000  0.95215000  1.0
  N  N189  1  0.66658000  0.34550000  0.54785000  1.0
  N  N190  1  0.16659000  0.15450000  0.04784000  1.0
  N  N191  1  0.33342000  0.65450000  0.45215000  1.0
  N  N192  1  0.17602000  0.66992000  0.99763000  1.0
  N  N193  1  0.32398000  0.16992000  0.50237000  1.0
  N  N194  1  0.82399000  0.33008000  0.00236000  1.0
  N  N195  1  0.67602000  0.83008000  0.49763000  1.0
  N  N196  1  0.82895000  0.58267000  0.00689000  1.0
  N  N197  1  0.67105000  0.08267000  0.49311000  1.0
  N  N198  1  0.17105000  0.41734000  0.99311000  1.0
  N  N199  1  0.32895000  0.91733000  0.50689000  1.0
  O  O200  1  0.04046000  0.92548000  0.82341000  1.0
  O  O201  1  0.45955000  0.42549000  0.67659000  1.0
  O  O202  1  0.95955000  0.07452000  0.17659000  1.0
  O  O203  1  0.54045000  0.57451000  0.32341000  1.0
  O  O204  1  0.06611000  0.77620000  0.81013000  1.0
  O  O205  1  0.43389000  0.27621000  0.68987000  1.0
  O  O206  1  0.93390000  0.22379000  0.18986000  1.0
  O  O207  1  0.56610000  0.72379000  0.31013000  1.0
  O  O208  1  0.92616000  0.93532000  0.70444000  1.0
  O  O209  1  0.57384000  0.43533000  0.79556000  1.0
  O  O210  1  0.07383000  0.06467000  0.29556000  1.0
  O  O211  1  0.42616000  0.56468000  0.20444000  1.0
  O  O212  1  0.93804000  0.78418000  0.69504000  1.0
  O  O213  1  0.56196000  0.28419000  0.80497000  1.0
  O  O214  1  0.06195000  0.21581000  0.30497000  1.0
  O  O215  1  0.43804000  0.71582000  0.19504000  1.0
  O  O216  1  0.32078000  0.17331000  0.81976000  1.0
  O  O217  1  0.17921000  0.67331000  0.68024000  1.0
  O  O218  1  0.67921000  0.82669000  0.18024000  1.0
  O  O219  1  0.82079000  0.32669000  0.31976000  1.0
  O  O220  1  0.10916000  0.12512000  0.82181000  1.0
  O  O221  1  0.39084000  0.62512000  0.67820000  1.0
  O  O222  1  0.89083000  0.87488000  0.17820000  1.0
  O  O223  1  0.60916000  0.37488000  0.32180000  1.0
  O  O224  1  0.38188000  0.08119000  0.70230000  1.0
  O  O225  1  0.11812000  0.58118000  0.79770000  1.0
  O  O226  1  0.61812000  0.91881000  0.29770000  1.0
  O  O227  1  0.88188000  0.41882000  0.20230000  1.0
  O  O228  1  0.17037000  0.03495000  0.70432000  1.0
  O  O229  1  0.32962000  0.53495000  0.79569000  1.0
  O  O230  1  0.82962000  0.96505000  0.29568000  1.0
  O  O231  1  0.67038000  0.46506000  0.20432000  1.0
  O  O232  1  0.68015000  0.16872000  0.69173000  1.0
  O  O233  1  0.81985000  0.66872000  0.80828000  1.0
  O  O234  1  0.31985000  0.83127000  0.30828000  1.0
  O  O235  1  0.18015000  0.33127000  0.19173000  1.0
  O  O236  1  0.89386000  0.13530000  0.70627000  1.0
  O  O237  1  0.60613000  0.63530000  0.79372000  1.0
  O  O238  1  0.10613000  0.86470000  0.29372000  1.0
  O  O239  1  0.39386000  0.36470000  0.20628000  1.0
  O  O240  1  0.60072000  0.08189000  0.80774000  1.0
  O  O241  1  0.89928000  0.58189000  0.69226000  1.0
  O  O242  1  0.39928000  0.91811000  0.19226000  1.0
  O  O243  1  0.10072000  0.41811000  0.30774000  1.0
  O  O244  1  0.81210000  0.04597000  0.82159000  1.0
  O  O245  1  0.68789000  0.54598000  0.67841000  1.0
  O  O246  1  0.18789000  0.95402000  0.17841000  1.0
  O  O247  1  0.31210000  0.45402000  0.32159000  1.0
