# generated using pymatgen
data_Zn3H4C18(O3F2)4
_symmetry_space_group_name_H-M   'P 1'
_cell_length_a   16.97130000
_cell_length_b   17.01060000
_cell_length_c   17.01240000
_cell_angle_alpha   100.35000000
_cell_angle_beta   114.13600000
_cell_angle_gamma   114.16100000
_symmetry_Int_Tables_number   1
_chemical_formula_structural   Zn3H4C18(O3F2)4
_chemical_formula_sum   'Zn6 H8 C36 O24 F16'
_cell_volume   3717.25286048
_cell_formula_units_Z   2
loop_
 _symmetry_equiv_pos_site_id
 _symmetry_equiv_pos_as_xyz
  1  'x, y, z'
loop_
 _atom_site_type_symbol
 _atom_site_label
 _atom_site_symmetry_multiplicity
 _atom_site_fract_x
 _atom_site_fract_y
 _atom_site_fract_z
 _atom_site_occupancy
  Zn  Zn0  1  0.07315000  0.00287000  0.07098000  1.0
  Zn  Zn1  1  0.92685000  0.99712000  0.92902000  1.0
  Zn  Zn2  1  0.92940000  0.42999000  0.50116000  1.0
  Zn  Zn3  1  0.07058000  0.57001000  0.49883000  1.0
  Zn  Zn4  1  0.49796000  0.43852000  0.93923000  1.0
  Zn  Zn5  1  0.50203000  0.56147000  0.06074000  1.0
  H  H6  1  0.83996000  0.72358000  0.71657000  1.0
  H  H7  1  0.16007000  0.27651000  0.28339000  1.0
  H  H8  1  0.05191000  0.13641000  0.29574000  1.0
  H  H9  1  0.94825000  0.86370000  0.70434000  1.0
  H  H10  1  0.08401000  0.76280000  0.90358000  1.0
  H  H11  1  0.91587000  0.23710000  0.09640000  1.0
  H  H12  1  0.83067000  0.13109000  0.09480000  1.0
  H  H13  1  0.16932000  0.86882000  0.90527000  1.0
  C  C14  1  0.86277000  0.85665000  0.99733000  1.0
  C  C15  1  0.13719000  0.14335000  0.00264000  1.0
  C  C16  1  0.72259000  0.71474000  0.00218000  1.0
  C  C17  1  0.27740000  0.28529000  0.99785000  1.0
  C  C18  1  0.13916000  0.50133000  0.64077000  1.0
  C  C19  1  0.86082000  0.49865000  0.35921000  1.0
  C  C20  1  0.99405000  0.61546000  0.61503000  1.0
  C  C21  1  0.00593000  0.38454000  0.38497000  1.0
  C  C22  1  0.36315000  0.50305000  0.86134000  1.0
  C  C23  1  0.63683000  0.49685000  0.13855000  1.0
  C  C24  1  0.64356000  0.63845000  0.00274000  1.0
  C  C25  1  0.35643000  0.36162000  0.99732000  1.0
  C  C26  1  0.21763000  0.50223000  0.71892000  1.0
  C  C27  1  0.78235000  0.49772000  0.28101000  1.0
  C  C28  1  0.28443000  0.50290000  0.78432000  1.0
  C  C29  1  0.71556000  0.49703000  0.21559000  1.0
  C  C30  1  0.00825000  0.88682000  0.88389000  1.0
  C  C31  1  0.99178000  0.11318000  0.11615000  1.0
  C  C32  1  0.90460000  0.71997000  0.76412000  1.0
  C  C33  1  0.09539000  0.28007000  0.23585000  1.0
  C  C34  1  0.99253000  0.15259000  0.26596000  1.0
  C  C35  1  0.00758000  0.84747000  0.73412000  1.0
  C  C36  1  0.90899000  0.64221000  0.70516000  1.0
  C  C37  1  0.09096000  0.35781000  0.29479000  1.0
  C  C38  1  0.01423000  0.23365000  0.34740000  1.0
  C  C39  1  0.98586000  0.76641000  0.65266000  1.0
  C  C40  1  0.09586000  0.80088000  0.85985000  1.0
  C  C41  1  0.90410000  0.19905000  0.14018000  1.0
  C  C42  1  0.00698000  0.81560000  0.81301000  1.0
  C  C43  1  0.99305000  0.18441000  0.18702000  1.0
  C  C44  1  0.99574000  0.68864000  0.68516000  1.0
  C  C45  1  0.00426000  0.31136000  0.31485000  1.0
  C  C46  1  0.10000000  0.74290000  0.78346000  1.0
  C  C47  1  0.89996000  0.25704000  0.21656000  1.0
  C  C48  1  0.78767000  0.77910000  0.00007000  1.0
  C  C49  1  0.21230000  0.22092000  0.99993000  1.0
  O  O50  1  0.95664000  0.89038000  0.05867000  1.0
  O  O51  1  0.04332000  0.10969000  0.94137000  1.0
  O  O52  1  0.17203000  0.11531000  0.06596000  1.0
  O  O53  1  0.82794000  0.88461000  0.93393000  1.0
  O  O54  1  0.07228000  0.91587000  0.97122000  1.0
  O  O55  1  0.92767000  0.08403000  0.02881000  1.0
  O  O56  1  0.05726000  0.09106000  0.15248000  1.0
  O  O57  1  0.94286000  0.90904000  0.84757000  1.0
  O  O58  1  0.04681000  0.43978000  0.61121000  1.0
  O  O59  1  0.95317000  0.56032000  0.38886000  1.0
  O  O60  1  0.17025000  0.56203000  0.60885000  1.0
  O  O61  1  0.82974000  0.43790000  0.39106000  1.0
  O  O62  1  0.93336000  0.52872000  0.59158000  1.0
  O  O63  1  0.06652000  0.47128000  0.40831000  1.0
  O  O64  1  0.05618000  0.64964000  0.58935000  1.0
  O  O65  1  0.94389000  0.35036000  0.41074000  1.0
  O  O66  1  0.39225000  0.44929000  0.83841000  1.0
  O  O67  1  0.60773000  0.55061000  0.16146000  1.0
  O  O68  1  0.39590000  0.55675000  0.94474000  1.0
  O  O69  1  0.60409000  0.44314000  0.05515000  1.0
  O  O70  1  0.61059000  0.55482000  0.94958000  1.0
  O  O71  1  0.38939000  0.44524000  0.05048000  1.0
  O  O72  1  0.61449000  0.66250000  0.05595000  1.0
  O  O73  1  0.38550000  0.33758000  0.94411000  1.0
  F  F74  1  0.88687000  0.69567000  0.83199000  1.0
  F  F75  1  0.11304000  0.30432000  0.16793000  1.0
  F  F76  1  0.89781000  0.07050000  0.22846000  1.0
  F  F77  1  0.10234000  0.92953000  0.77165000  1.0
  F  F78  1  0.81446000  0.58128000  0.62295000  1.0
  F  F79  1  0.18550000  0.41880000  0.37697000  1.0
  F  F80  1  0.11478000  0.27524000  0.42172000  1.0
  F  F81  1  0.88533000  0.72488000  0.57832000  1.0
  F  F82  1  0.92772000  0.58999000  0.75471000  1.0
  F  F83  1  0.07214000  0.40997000  0.24520000  1.0
  F  F84  1  0.95399000  0.19665000  0.38075000  1.0
  F  F85  1  0.04613000  0.80339000  0.61933000  1.0
  F  F86  1  0.12403000  0.67921000  0.80858000  1.0
  F  F87  1  0.87586000  0.32068000  0.19142000  1.0
  F  F88  1  0.82231000  0.19804000  0.22559000  1.0
  F  F89  1  0.17771000  0.80190000  0.77450000  1.0
