# generated using pymatgen
data_Zn2H20C25N8
_symmetry_space_group_name_H-M   'P 1'
_cell_length_a   14.77960000
_cell_length_b   14.80680000
_cell_length_c   14.91740000
_cell_angle_alpha   102.82900000
_cell_angle_beta   112.70100000
_cell_angle_gamma   112.36800000
_symmetry_Int_Tables_number   1
_chemical_formula_structural   Zn2H20C25N8
_chemical_formula_sum   'Zn4 H40 C50 N16'
_cell_volume   2511.16457483
_cell_formula_units_Z   2
loop_
 _symmetry_equiv_pos_site_id
 _symmetry_equiv_pos_as_xyz
  1  'x, y, z'
loop_
 _atom_site_type_symbol
 _atom_site_label
 _atom_site_symmetry_multiplicity
 _atom_site_fract_x
 _atom_site_fract_y
 _atom_site_fract_z
 _atom_site_occupancy
  Zn  Zn0  1  0.14188000  0.00492000  0.14088000  1.0
  Zn  Zn1  1  0.86237000  0.87025000  0.00356000  1.0
  Zn  Zn2  1  0.85823000  0.00416000  0.85819000  1.0
  Zn  Zn3  1  0.14125000  0.14352000  0.99986000  1.0
  H  H4  1  0.18406000  0.82395000  0.22576000  1.0
  H  H5  1  0.81771000  0.99930000  0.17137000  1.0
  H  H6  1  0.39751000  0.87161000  0.78490000  1.0
  H  H7  1  0.34391000  0.92628000  0.88177000  1.0
  H  H8  1  0.18920000  0.24146000  0.67489000  1.0
  H  H9  1  0.80935000  0.32412000  0.02597000  1.0
  H  H10  1  0.19005000  0.22537000  0.50881000  1.0
  H  H11  1  0.81071000  0.49278000  0.04430000  1.0
  H  H12  1  0.82288000  0.07992000  0.33183000  1.0
  H  H13  1  0.17610000  0.67542000  0.26729000  1.0
  H  H14  1  0.82213000  0.09617000  0.49850000  1.0
  H  H15  1  0.17473000  0.50612000  0.24912000  1.0
  H  H16  1  0.47730000  0.51008000  0.36419000  1.0
  H  H17  1  0.62873000  0.67656000  0.53163000  1.0
  H  H18  1  0.81642000  0.05019000  0.63986000  1.0
  H  H19  1  0.18116000  0.35151000  0.17023000  1.0
  H  H20  1  0.81496000  0.65162000  0.83607000  1.0
  H  H21  1  0.40311000  0.18053000  0.36213000  1.0
  H  H22  1  0.19906000  0.02055000  0.83901000  1.0
  H  H23  1  0.57853000  0.93966000  0.75015000  1.0
  H  H24  1  0.83020000  0.84184000  0.65384000  1.0
  H  H25  1  0.40217000  0.36974000  0.17935000  1.0
  H  H26  1  0.16190000  0.81709000  0.00670000  1.0
  H  H27  1  0.59746000  0.77316000  0.95516000  1.0
  H  H28  1  0.18740000  0.23484000  0.82725000  1.0
  H  H29  1  0.80926000  0.16423000  0.98707000  1.0
  H  H30  1  0.81309000  0.65016000  0.04876000  1.0
  H  H31  1  0.18973000  0.18117000  0.35019000  1.0
  H  H32  1  0.89430000  0.59191000  0.72896000  1.0
  H  H33  1  0.80303000  0.45465000  0.69695000  1.0
  H  H34  1  0.87372000  0.48497000  0.62621000  1.0
  H  H35  1  0.63969000  0.27829000  0.51762000  1.0
  H  H36  1  0.59441000  0.25514000  0.38147000  1.0
  H  H37  1  0.74199000  0.33696000  0.48316000  1.0
  H  H38  1  0.28516000  0.58674000  0.82520000  1.0
  H  H39  1  0.41856000  0.64332000  0.83249000  1.0
  H  H40  1  0.41129000  0.68573000  0.94980000  1.0
  H  H41  1  0.12068000  0.59280000  0.75090000  1.0
  H  H42  1  0.18028000  0.63904000  0.89155000  1.0
  H  H43  1  0.08923000  0.68028000  0.81908000  1.0
  C  C44  1  0.09340000  0.79615000  0.18042000  1.0
  C  C45  1  0.90871000  0.03655000  0.20064000  1.0
  C  C46  1  0.00269000  0.15300000  0.69356000  1.0
  C  C47  1  0.99442000  0.30114000  0.09982000  1.0
  C  C48  1  0.79884000  0.70381000  0.70197000  1.0
  C  C49  1  0.44991000  0.31571000  0.31128000  1.0
  C  C50  1  0.20128000  0.89552000  0.90198000  1.0
  C  C51  1  0.53437000  0.83962000  0.83740000  1.0
  C  C52  1  0.35043000  0.74921000  0.83626000  1.0
  C  C53  1  0.25759000  0.76072000  0.84256000  1.0
  C  C54  1  0.42217000  0.81876000  0.81511000  1.0
  C  C55  1  0.26853000  0.85983000  0.87111000  1.0
  C  C56  1  0.10804000  0.20614000  0.59994000  1.0
  C  C57  1  0.89040000  0.40092000  0.08013000  1.0
  C  C58  1  0.10856000  0.19716000  0.50549000  1.0
  C  C59  1  0.89125000  0.49678000  0.09031000  1.0
  C  C60  1  0.00579000  0.14569000  0.40525000  1.0
  C  C61  1  0.99447000  0.59782000  0.15294000  1.0
  C  C62  1  0.90401000  0.11536000  0.40683000  1.0
  C  C63  1  0.09504000  0.59839000  0.21374000  1.0
  C  C64  1  0.90352000  0.12440000  0.50148000  1.0
  C  C65  1  0.09418000  0.50231000  0.20354000  1.0
  C  C66  1  0.90723000  0.09323000  0.70017000  1.0
  C  C67  1  0.09030000  0.29111000  0.11822000  1.0
  C  C68  1  0.00483000  0.16438000  0.59945000  1.0
  C  C69  1  0.99274000  0.40094000  0.13188000  1.0
  C  C70  1  0.54987000  0.51067000  0.42346000  1.0
  C  C71  1  0.63482000  0.60417000  0.51734000  1.0
  C  C72  1  0.72472000  0.60534000  0.59927000  1.0
  C  C73  1  0.55093000  0.41391000  0.40666000  1.0
  C  C74  1  0.73140000  0.51092000  0.58072000  1.0
  C  C75  1  0.64500000  0.41538000  0.48422000  1.0
  C  C76  1  0.82678000  0.71345000  0.80655000  1.0
  C  C77  1  0.38602000  0.21190000  0.30214000  1.0
  C  C78  1  0.18356000  0.97982000  0.88835000  1.0
  C  C79  1  0.60167000  0.90321000  0.80431000  1.0
  C  C80  1  0.83332000  0.81033000  0.71346000  1.0
  C  C81  1  0.38428000  0.30852000  0.20935000  1.0
  C  C82  1  0.16273000  0.87452000  0.97219000  1.0
  C  C83  1  0.61021000  0.81730000  0.90780000  1.0
  C  C84  1  0.09601000  0.18664000  0.79532000  1.0
  C  C85  1  0.90078000  0.19601000  0.02458000  1.0
  C  C86  1  0.90455000  0.70737000  0.08963000  1.0
  C  C87  1  0.09830000  0.12879000  0.29204000  1.0
  C  C88  1  0.99749000  0.69555000  0.14572000  1.0
  C  C89  1  0.00430000  0.11201000  0.30457000  1.0
  C  C90  1  0.83064000  0.51095000  0.66271000  1.0
  C  C91  1  0.65527000  0.31629000  0.46526000  1.0
  C  C92  1  0.36762000  0.66203000  0.86224000  1.0
  C  C93  1  0.15689000  0.66338000  0.82537000  1.0
  N  N94  1  0.05989000  0.86155000  0.14742000  1.0
  N  N95  1  0.94415000  0.00975000  0.13371000  1.0
  N  N96  1  0.94128000  0.09162000  0.79728000  1.0
  N  N97  1  0.05545000  0.18918000  0.05667000  1.0
  N  N98  1  0.87121000  0.81697000  0.87303000  1.0
  N  N99  1  0.29045000  0.14885000  0.20325000  1.0
  N  N100  1  0.13957000  0.00651000  0.94657000  1.0
  N  N101  1  0.70708000  0.91677000  0.85044000  1.0
  N  N102  1  0.87568000  0.87668000  0.81595000  1.0
  N  N103  1  0.28960000  0.20914000  0.14534000  1.0
  N  N104  1  0.12811000  0.94290000  0.99930000  1.0
  N  N105  1  0.71210000  0.86329000  0.91506000  1.0
  N  N106  1  0.05907000  0.14987000  0.85661000  1.0
  N  N107  1  0.93902000  0.13077000  0.99922000  1.0
  N  N108  1  0.94215000  0.80606000  0.09077000  1.0
  N  N109  1  0.06061000  0.06637000  0.18987000  1.0
