# generated using pymatgen
data_MnH6C4N7ClO
_symmetry_space_group_name_H-M   'P 1'
_cell_length_a   7.26252000
_cell_length_b   7.63190642
_cell_length_c   17.03920000
_cell_angle_alpha   98.28902232
_cell_angle_beta   90.00300000
_cell_angle_gamma   118.39580170
_symmetry_Int_Tables_number   1
_chemical_formula_structural   MnH6C4N7ClO
_chemical_formula_sum   'Mn4 H24 C16 N28 Cl4 O4'
_cell_volume   819.56232004
_cell_formula_units_Z   4
loop_
 _symmetry_equiv_pos_site_id
 _symmetry_equiv_pos_as_xyz
  1  'x, y, z'
loop_
 _atom_site_type_symbol
 _atom_site_label
 _atom_site_symmetry_multiplicity
 _atom_site_fract_x
 _atom_site_fract_y
 _atom_site_fract_z
 _atom_site_occupancy
  Mn  Mn0  1  0.16981000  0.00031000  0.75000000  1.0
  Mn  Mn1  1  0.81324000  0.99985000  0.25003000  1.0
  Mn  Mn2  1  0.00806000  0.50765000  0.00636000  1.0
  Mn  Mn3  1  0.50022000  0.49204000  0.49378000  1.0
  H  H4  1  0.11014000  0.00389000  0.90622000  1.0
  H  H5  1  0.10666000  0.99633000  0.59378000  1.0
  H  H6  1  0.90039000  0.01432000  0.10353000  1.0
  H  H7  1  0.88526000  0.98529000  0.39654000  1.0
  H  H8  1  0.98238000  0.75410000  0.86463000  1.0
  H  H9  1  0.22849000  0.24614000  0.63529000  1.0
  H  H10  1  0.01919000  0.25650000  0.15011000  1.0
  H  H11  1  0.76208000  0.74313000  0.34993000  1.0
  H  H12  1  0.47221000  0.62299000  0.96447000  1.0
  H  H13  1  0.84935000  0.37742000  0.53548000  1.0
  H  H14  1  0.53613000  0.38464000  0.03795000  1.0
  H  H15  1  0.15105000  0.61494000  0.46209000  1.0
  H  H16  1  0.77085000  0.94972000  0.93211000  1.0
  H  H17  1  0.82158000  0.05072000  0.56784000  1.0
  H  H18  1  0.23505000  0.05805000  0.06890000  1.0
  H  H19  1  0.17599000  0.94123000  0.43095000  1.0
  H  H20  1  0.81680000  0.72339000  0.65293000  1.0
  H  H21  1  0.09370000  0.27721000  0.84706000  1.0
  H  H22  1  0.14560000  0.25166000  0.34786000  1.0
  H  H23  1  0.89378000  0.74803000  0.15229000  1.0
  H  H24  1  0.74844000  0.64214000  0.73361000  1.0
  H  H25  1  0.10660000  0.35867000  0.76645000  1.0
  H  H26  1  0.20507000  0.32355000  0.26524000  1.0
  H  H27  1  0.88156000  0.67627000  0.23494000  1.0
  C  C28  1  0.28789000  0.86671000  0.89581000  1.0
  C  C29  1  0.42153000  0.13361000  0.60420000  1.0
  C  C30  1  0.71619000  0.14472000  0.11198000  1.0
  C  C31  1  0.57068000  0.85482000  0.38794000  1.0
  C  C32  1  0.59243000  0.18978000  0.86382000  1.0
  C  C33  1  0.40338000  0.81067000  0.63622000  1.0
  C  C34  1  0.41863000  0.82413000  0.14328000  1.0
  C  C35  1  0.59359000  0.17536000  0.35657000  1.0
  C  C36  1  0.50479000  0.99942000  0.89269000  1.0
  C  C37  1  0.50596000  0.00098000  0.60735000  1.0
  C  C38  1  0.49933000  0.01080000  0.11268000  1.0
  C  C39  1  0.48746000  0.98857000  0.38712000  1.0
  C  C40  1  0.60592000  0.90514000  0.92313000  1.0
  C  C41  1  0.70120000  0.09526000  0.57686000  1.0
  C  C42  1  0.39964000  0.10332000  0.07996000  1.0
  C  C43  1  0.29540000  0.89606000  0.41991000  1.0
  N  N44  1  0.25837000  0.70465000  0.92765000  1.0
  N  N45  1  0.55385000  0.29557000  0.57228000  1.0
  N  N46  1  0.74856000  0.30580000  0.07921000  1.0
  N  N47  1  0.44225000  0.69387000  0.42079000  1.0
  N  N48  1  0.49856000  0.22193000  0.80313000  1.0
  N  N49  1  0.27729000  0.77866000  0.69689000  1.0
  N  N50  1  0.52901000  0.80178000  0.20183000  1.0
  N  N51  1  0.72663000  0.19778000  0.29813000  1.0
  N  N52  1  0.62390000  0.41567000  0.79434000  1.0
  N  N53  1  0.20860000  0.58483000  0.70564000  1.0
  N  N54  1  0.41416000  0.60711000  0.21359000  1.0
  N  N55  1  0.80680000  0.39254000  0.28648000  1.0
  N  N56  1  0.78411000  0.49591000  0.84747000  1.0
  N  N57  1  0.28840000  0.50440000  0.65251000  1.0
  N  N58  1  0.24528000  0.51827000  0.16378000  1.0
  N  N59  1  0.72681000  0.48148000  0.33632000  1.0
  N  N60  1  0.77038000  0.36017000  0.89288000  1.0
  N  N61  1  0.41060000  0.64010000  0.60713000  1.0
  N  N62  1  0.24244000  0.64857000  0.11848000  1.0
  N  N63  1  0.59334000  0.35109000  0.38149000  1.0
  N  N64  1  0.12110000  0.89121000  0.86829000  1.0
  N  N65  1  0.23025000  0.10907000  0.63169000  1.0
  N  N66  1  0.88020000  0.11866000  0.14332000  1.0
  N  N67  1  0.76086000  0.88098000  0.35670000  1.0
  N  N68  1  0.45491000  0.73140000  0.94206000  1.0
  N  N69  1  0.72371000  0.26892000  0.55786000  1.0
  N  N70  1  0.55269000  0.27737000  0.06164000  1.0
  N  N71  1  0.27474000  0.72220000  0.43836000  1.0
  Cl  Cl72  1  0.84478000  0.72921000  0.03089000  1.0
  Cl  Cl73  1  0.11556000  0.27040000  0.46917000  1.0
  Cl  Cl74  1  0.16342000  0.28407000  0.97457000  1.0
  Cl  Cl75  1  0.87903000  0.71626000  0.52538000  1.0
  O  O76  1  0.83595000  0.76620000  0.71109000  1.0
  O  O77  1  0.06993000  0.23449000  0.78890000  1.0
  O  O78  1  0.12608000  0.20256000  0.28968000  1.0
  O  O79  1  0.92366000  0.79723000  0.21046000  1.0
