# generated using pymatgen
data_AlH8C14Cl2O5
_symmetry_space_group_name_H-M   'P 1'
_cell_length_a   6.87782000
_cell_length_b   11.07048923
_cell_length_c   15.13430000
_cell_angle_alpha   89.41009324
_cell_angle_beta   79.91140000
_cell_angle_gamma   72.66274873
_symmetry_Int_Tables_number   1
_chemical_formula_structural   AlH8C14Cl2O5
_chemical_formula_sum   'Al2 H16 C28 Cl4 O10'
_cell_volume   1081.89933201
_cell_formula_units_Z   2
loop_
 _symmetry_equiv_pos_site_id
 _symmetry_equiv_pos_as_xyz
  1  'x, y, z'
loop_
 _atom_site_type_symbol
 _atom_site_label
 _atom_site_symmetry_multiplicity
 _atom_site_fract_x
 _atom_site_fract_y
 _atom_site_fract_z
 _atom_site_occupancy
  Al  Al0  1  0.99672000  0.50131000  0.49982000  1.0
  Al  Al1  1  0.49748000  0.49891000  0.49938000  1.0
  H  H2  1  0.33792000  0.35389000  0.43723000  1.0
  H  H3  1  0.64673000  0.64881000  0.55723000  1.0
  H  H4  1  0.65924000  0.49248000  0.04723000  1.0
  H  H5  1  0.34552000  0.49731000  0.95166000  1.0
  H  H6  1  0.84593000  0.50274000  0.75487000  1.0
  H  H7  1  0.73352000  0.50256000  0.91887000  1.0
  H  H8  1  0.14574000  0.50926000  0.24549000  1.0
  H  H9  1  0.25940000  0.50927000  0.08147000  1.0
  H  H10  1  0.56969000  0.23754000  0.62358000  1.0
  H  H11  1  0.81633000  0.76676000  0.62030000  1.0
  H  H12  1  0.37897000  0.58646000  0.19626000  1.0
  H  H13  1  0.44756000  0.48755000  0.28539000  1.0
  H  H14  1  0.45986000  0.41979000  0.17723000  1.0
  H  H15  1  0.53903000  0.57793000  0.82039000  1.0
  H  H16  1  0.55271000  0.50794000  0.71326000  1.0
  H  H17  1  0.62187000  0.41095000  0.80365000  1.0
  C  C18  1  0.86231000  0.27652000  0.50637000  1.0
  C  C19  1  0.79823000  0.50396000  0.33962000  1.0
  C  C20  1  0.13475000  0.72447000  0.49544000  1.0
  C  C21  1  0.19757000  0.49717000  0.66011000  1.0
  C  C22  1  0.84293000  0.50431000  0.23941000  1.0
  C  C23  1  0.15350000  0.49833000  0.76022000  1.0
  C  C24  1  0.70331000  0.49997000  0.18240000  1.0
  C  C25  1  0.77021000  0.49747000  0.08934000  1.0
  C  C26  1  0.29634000  0.49748000  0.81676000  1.0
  C  C27  1  0.23132000  0.49784000  0.90985000  1.0
  C  C28  1  0.95251000  0.50081000  0.80010000  1.0
  C  C29  1  0.89176000  0.50072000  0.89215000  1.0
  C  C30  1  0.04176000  0.50669000  0.19992000  1.0
  C  C31  1  0.10365000  0.50596000  0.10784000  1.0
  C  C32  1  0.96812000  0.50080000  0.04923000  1.0
  C  C33  1  0.03111000  0.49933000  0.95037000  1.0
  C  C34  1  0.93219000  0.13451000  0.50519000  1.0
  C  C35  1  0.81181000  0.06913000  0.56193000  1.0
  C  C36  1  0.11116000  0.06719000  0.44731000  1.0
  C  C37  1  0.62589000  0.13455000  0.62072000  1.0
  C  C38  1  0.50933000  0.06974000  0.67360000  1.0
  C  C39  1  0.06582000  0.86657000  0.49957000  1.0
  C  C40  1  0.17810000  0.93225000  0.44405000  1.0
  C  C41  1  0.88100000  0.93335000  0.55976000  1.0
  C  C42  1  0.76299000  0.86942000  0.61786000  1.0
  C  C43  1  0.57935000  0.93502000  0.67224000  1.0
  C  C44  1  0.48615000  0.49736000  0.21330000  1.0
  C  C45  1  0.51400000  0.49893000  0.78545000  1.0
  Cl  Cl46  1  0.39272000  0.85237000  0.36718000  1.0
  Cl  Cl47  1  0.24934000  0.14410000  0.37321000  1.0
  Cl  Cl48  1  0.28035000  0.15318000  0.74096000  1.0
  Cl  Cl49  1  0.43621000  0.85194000  0.73752000  1.0
  O  O50  1  0.99022000  0.33201000  0.52240000  1.0
  O  O51  1  0.61134000  0.52192000  0.37934000  1.0
  O  O52  1  0.31559000  0.66963000  0.51039000  1.0
  O  O53  1  0.04113000  0.52215000  0.62041000  1.0
  O  O54  1  0.00287000  0.67163000  0.47957000  1.0
  O  O55  1  0.38567000  0.47215000  0.61978000  1.0
  O  O56  1  0.68060000  0.32856000  0.49092000  1.0
  O  O57  1  0.95360000  0.48423000  0.37949000  1.0
  O  O58  1  0.28961000  0.44188000  0.45912000  1.0
  O  O59  1  0.70262000  0.55897000  0.54067000  1.0
