# generated using pymatgen
data_CuH5C6(NO)2
_symmetry_space_group_name_H-M   'P 1'
_cell_length_a   6.50952000
_cell_length_b   9.65211000
_cell_length_c   9.89435000
_cell_angle_alpha   78.43300000
_cell_angle_beta   89.99990000
_cell_angle_gamma   89.99970000
_symmetry_Int_Tables_number   1
_chemical_formula_structural   CuH5C6(NO)2
_chemical_formula_sum   'Cu4 H20 C24 N8 O8'
_cell_volume   609.04246033
_cell_formula_units_Z   4
loop_
 _symmetry_equiv_pos_site_id
 _symmetry_equiv_pos_as_xyz
  1  'x, y, z'
loop_
 _atom_site_type_symbol
 _atom_site_label
 _atom_site_symmetry_multiplicity
 _atom_site_fract_x
 _atom_site_fract_y
 _atom_site_fract_z
 _atom_site_occupancy
  Cu  Cu0  1  0.02157000  0.96961000  0.65955000  1.0
  Cu  Cu1  1  0.52158000  0.53039000  0.84045000  1.0
  Cu  Cu2  1  0.97843000  0.03039000  0.34045000  1.0
  Cu  Cu3  1  0.47843000  0.46960000  0.15954000  1.0
  H  H4  1  0.33309000  0.79358000  0.56874000  1.0
  H  H5  1  0.83309000  0.70642000  0.93125000  1.0
  H  H6  1  0.66691000  0.20642000  0.43126000  1.0
  H  H7  1  0.16691000  0.29358000  0.06874000  1.0
  H  H8  1  0.70904000  0.08341000  0.83493000  1.0
  H  H9  1  0.20905000  0.41659000  0.66507000  1.0
  H  H10  1  0.29096000  0.91659000  0.16507000  1.0
  H  H11  1  0.79095000  0.58341000  0.33493000  1.0
  H  H12  1  0.18853000  0.17731000  0.78784000  1.0
  H  H13  1  0.68853000  0.32269000  0.71215000  1.0
  H  H14  1  0.81148000  0.82269000  0.21215000  1.0
  H  H15  1  0.31147000  0.67731000  0.28784000  1.0
  H  H16  1  0.38730000  0.16330000  0.91368000  1.0
  H  H17  1  0.88730000  0.33670000  0.58632000  1.0
  H  H18  1  0.61271000  0.83670000  0.08632000  1.0
  H  H19  1  0.11270000  0.66330000  0.41368000  1.0
  H  H20  1  0.18672000  0.03218000  0.92892000  1.0
  H  H21  1  0.68673000  0.46782000  0.57108000  1.0
  H  H22  1  0.81328000  0.96782000  0.07108000  1.0
  H  H23  1  0.31327000  0.53218000  0.42891000  1.0
  C  C24  1  0.62931000  0.86740000  0.62012000  1.0
  C  C25  1  0.12931000  0.63260000  0.87988000  1.0
  C  C26  1  0.37069000  0.13260000  0.37988000  1.0
  C  C27  1  0.87069000  0.36740000  0.12012000  1.0
  C  C28  1  0.41666000  0.85922000  0.62759000  1.0
  C  C29  1  0.91666000  0.64078000  0.87240000  1.0
  C  C30  1  0.58334000  0.14078000  0.37241000  1.0
  C  C31  1  0.08334000  0.35922000  0.12759000  1.0
  C  C32  1  0.40996000  0.01814000  0.77588000  1.0
  C  C33  1  0.90996000  0.48186000  0.72412000  1.0
  C  C34  1  0.59004000  0.98186000  0.22412000  1.0
  C  C35  1  0.09004000  0.51814000  0.27588000  1.0
  C  C36  1  0.62432000  0.02047000  0.77321000  1.0
  C  C37  1  0.12433000  0.47953000  0.72679000  1.0
  C  C38  1  0.37568000  0.97952000  0.22679000  1.0
  C  C39  1  0.87568000  0.52047000  0.27321000  1.0
  C  C40  1  0.74686000  0.79593000  0.52128000  1.0
  C  C41  1  0.24686000  0.70408000  0.97872000  1.0
  C  C42  1  0.25314000  0.20408000  0.47872000  1.0
  C  C43  1  0.75314000  0.29592000  0.02128000  1.0
  C  C44  1  0.28804000  0.10277000  0.85709000  1.0
  C  C45  1  0.78805000  0.39723000  0.64291000  1.0
  C  C46  1  0.71196000  0.89723000  0.14291000  1.0
  C  C47  1  0.21195000  0.60277000  0.35709000  1.0
  N  N48  1  0.73402000  0.94967000  0.69303000  1.0
  N  N49  1  0.23402000  0.55033000  0.80697000  1.0
  N  N50  1  0.26598000  0.05033000  0.30697000  1.0
  N  N51  1  0.76598000  0.44967000  0.19303000  1.0
  N  N52  1  0.30575000  0.93761000  0.70018000  1.0
  N  N53  1  0.80575000  0.56239000  0.79982000  1.0
  N  N54  1  0.69425000  0.06239000  0.29982000  1.0
  N  N55  1  0.19425000  0.43761000  0.20018000  1.0
  O  O56  1  0.93603000  0.83630000  0.49868000  1.0
  O  O57  1  0.43603000  0.66370000  0.00132000  1.0
  O  O58  1  0.06397000  0.16370000  0.50132000  1.0
  O  O59  1  0.56397000  0.33630000  0.99868000  1.0
  O  O60  1  0.65301000  0.70918000  0.46594000  1.0
  O  O61  1  0.15301000  0.79082000  0.03406000  1.0
  O  O62  1  0.34699000  0.29081000  0.53406000  1.0
  O  O63  1  0.84699000  0.20918000  0.96594000  1.0
