# generated using pymatgen
data_SmPH15C21NO11
_symmetry_space_group_name_H-M   'P 1'
_cell_length_a   11.73000000
_cell_length_b   14.69160000
_cell_length_c   17.62360000
_cell_angle_alpha   90.00010000
_cell_angle_beta   90.00020000
_cell_angle_gamma   87.79210000
_symmetry_Int_Tables_number   1
_chemical_formula_structural   SmPH15C21NO11
_chemical_formula_sum   'Sm4 P4 H60 C84 N4 O44'
_cell_volume   3034.86376867
_cell_formula_units_Z   4
loop_
 _symmetry_equiv_pos_site_id
 _symmetry_equiv_pos_as_xyz
  1  'x, y, z'
loop_
 _atom_site_type_symbol
 _atom_site_label
 _atom_site_symmetry_multiplicity
 _atom_site_fract_x
 _atom_site_fract_y
 _atom_site_fract_z
 _atom_site_occupancy
  Sm  Sm0  1  0.07339000  0.90763000  0.07121000  1.0
  Sm  Sm1  1  0.42661000  0.59237000  0.57121000  1.0
  Sm  Sm2  1  0.92662000  0.09237000  0.92879000  1.0
  Sm  Sm3  1  0.57339000  0.40763000  0.42879000  1.0
  P  P4  1  0.33559000  0.74816000  0.08228000  1.0
  P  P5  1  0.16441000  0.75184000  0.58228000  1.0
  P  P6  1  0.66441000  0.25184000  0.91772000  1.0
  P  P7  1  0.83559000  0.24816000  0.41772000  1.0
  H  H8  1  0.11079000  0.36397000  0.82837000  1.0
  H  H9  1  0.38921000  0.13603000  0.32837000  1.0
  H  H10  1  0.88921000  0.63603000  0.17163000  1.0
  H  H11  1  0.61079000  0.86397000  0.67163000  1.0
  H  H12  1  0.17777000  0.01429000  0.22402000  1.0
  H  H13  1  0.32222000  0.48571000  0.72402000  1.0
  H  H14  1  0.82222000  0.98571000  0.77598000  1.0
  H  H15  1  0.67778000  0.51429000  0.27598000  1.0
  H  H16  1  0.23595000  0.01364000  0.14350000  1.0
  H  H17  1  0.26404000  0.48636000  0.64350000  1.0
  H  H18  1  0.76405000  0.98636000  0.85650000  1.0
  H  H19  1  0.73596000  0.51364000  0.35650000  1.0
  H  H20  1  0.57136000  0.70085000  0.13598000  1.0
  H  H21  1  0.92865000  0.79915000  0.63598000  1.0
  H  H22  1  0.42864000  0.29915000  0.86402000  1.0
  H  H23  1  0.07136000  0.20085000  0.36402000  1.0
  H  H24  1  0.75602000  0.76955000  0.10519000  1.0
  H  H25  1  0.74398000  0.73045000  0.60519000  1.0
  H  H26  1  0.24398000  0.23045000  0.89482000  1.0
  H  H27  1  0.25601000  0.26955000  0.39481000  1.0
  H  H28  1  0.58693000  0.95528000  0.95015000  1.0
  H  H29  1  0.91307000  0.54472000  0.45015000  1.0
  H  H30  1  0.41307000  0.04472000  0.04985000  1.0
  H  H31  1  0.08693000  0.45528000  0.54985000  1.0
  H  H32  1  0.39982000  0.88761000  0.98000000  1.0
  H  H33  1  0.10018000  0.61240000  0.48000000  1.0
  H  H34  1  0.60018000  0.11239000  0.02000000  1.0
  H  H35  1  0.89982000  0.38760000  0.52000000  1.0
  H  H36  1  0.46773000  0.66138000  0.95771000  1.0
  H  H37  1  0.03227000  0.83862000  0.45771000  1.0
  H  H38  1  0.53227000  0.33862000  0.04229000  1.0
  H  H39  1  0.96773000  0.16138000  0.54229000  1.0
  H  H40  1  0.41892000  0.54124000  0.86470000  1.0
  H  H41  1  0.08108000  0.95876000  0.36470000  1.0
  H  H42  1  0.58108000  0.45876000  0.13530000  1.0
  H  H43  1  0.91892000  0.04124000  0.63530000  1.0
  H  H44  1  0.09089000  0.51812000  0.97050000  1.0
  H  H45  1  0.40911000  0.98188000  0.47050000  1.0
  H  H46  1  0.90912000  0.48188000  0.02950000  1.0
  H  H47  1  0.59088000  0.01812000  0.52950000  1.0
  H  H48  1  0.13667000  0.63901000  0.06295000  1.0
  H  H49  1  0.36333000  0.86099000  0.56295000  1.0
  H  H50  1  0.86333000  0.36099000  0.93705000  1.0
  H  H51  1  0.63667000  0.13901000  0.43705000  1.0
  H  H52  1  0.40289000  0.56517000  0.14513000  1.0
  H  H53  1  0.09712000  0.93483000  0.64513000  1.0
  H  H54  1  0.59711000  0.43484000  0.85487000  1.0
  H  H55  1  0.90288000  0.06516000  0.35487000  1.0
  H  H56  1  0.44205000  0.51728000  0.27843000  1.0
  H  H57  1  0.05795000  0.98272000  0.77843000  1.0
  H  H58  1  0.55795000  0.48272000  0.72157000  1.0
  H  H59  1  0.94205000  0.01728000  0.22157000  1.0
  H  H60  1  0.33273000  0.78332000  0.35766000  1.0
  H  H61  1  0.16726000  0.71668000  0.85766000  1.0
  H  H62  1  0.66726000  0.21668000  0.64234000  1.0
  H  H63  1  0.83274000  0.28332000  0.14234000  1.0
  H  H64  1  0.29118000  0.83251000  0.22345000  1.0
  H  H65  1  0.20882000  0.66750000  0.72346000  1.0
  H  H66  1  0.70882000  0.16750000  0.77654000  1.0
  H  H67  1  0.79118000  0.33250000  0.27654000  1.0
  C  C68  1  0.47405000  0.78924000  0.05888000  1.0
  C  C69  1  0.02595000  0.71076000  0.55888000  1.0
  C  C70  1  0.52595000  0.21076000  0.94112000  1.0
  C  C71  1  0.97405000  0.28924000  0.44112000  1.0
  C  C72  1  0.57410000  0.75549000  0.09425000  1.0
  C  C73  1  0.92590000  0.74451000  0.59425000  1.0
  C  C74  1  0.42589000  0.24452000  0.90575000  1.0
  C  C75  1  0.07410000  0.25549000  0.40575000  1.0
  C  C76  1  0.67778000  0.79386000  0.07743000  1.0
  C  C77  1  0.82222000  0.70614000  0.57743000  1.0
  C  C78  1  0.32222000  0.20614000  0.92257000  1.0
  C  C79  1  0.17778000  0.29386000  0.42257000  1.0
  C  C80  1  0.68236000  0.86616000  0.02583000  1.0
  C  C81  1  0.81764000  0.63383000  0.52584000  1.0
  C  C82  1  0.31764000  0.13383000  0.97416000  1.0
  C  C83  1  0.18236000  0.36616000  0.47416000  1.0
  C  C84  1  0.58242000  0.89859000  0.98972000  1.0
  C  C85  1  0.91758000  0.60141000  0.48972000  1.0
  C  C86  1  0.41758000  0.10141000  0.01028000  1.0
  C  C87  1  0.08242000  0.39859000  0.51028000  1.0
  C  C88  1  0.47840000  0.86060000  0.00607000  1.0
  C  C89  1  0.02160000  0.63940000  0.50607000  1.0
  C  C90  1  0.52160000  0.13940000  0.99393000  1.0
  C  C91  1  0.97840000  0.36060000  0.49393000  1.0
  C  C92  1  0.79356000  0.91086000  0.01195000  1.0
  C  C93  1  0.70643000  0.58914000  0.51195000  1.0
  C  C94  1  0.20644000  0.08914000  0.98805000  1.0
  C  C95  1  0.29356000  0.41086000  0.48805000  1.0
  C  C96  1  0.30608000  0.65720000  0.01678000  1.0
  C  C97  1  0.19392000  0.84280000  0.51678000  1.0
  C  C98  1  0.69392000  0.34280000  0.98322000  1.0
  C  C99  1  0.80608000  0.15720000  0.48322000  1.0
  C  C100  1  0.38538000  0.62968000  0.96090000  1.0
  C  C101  1  0.11462000  0.87032000  0.46090000  1.0
  C  C102  1  0.61463000  0.37031000  0.03911000  1.0
  C  C103  1  0.88538000  0.12968000  0.53910000  1.0
  C  C104  1  0.35853000  0.56238000  0.90889000  1.0
  C  C105  1  0.14148000  0.93761000  0.40889000  1.0
  C  C106  1  0.64148000  0.43762000  0.09111000  1.0
  C  C107  1  0.85853000  0.06238000  0.59111000  1.0
  C  C108  1  0.25246000  0.52187000  0.91251000  1.0
  C  C109  1  0.24754000  0.97813000  0.41251000  1.0
  C  C110  1  0.74754000  0.47813000  0.08749000  1.0
  C  C111  1  0.75246000  0.02187000  0.58749000  1.0
  C  C112  1  0.17331000  0.54955000  0.96854000  1.0
  C  C113  1  0.32669000  0.95045000  0.46854000  1.0
  C  C114  1  0.82670000  0.45045000  0.03146000  1.0
  C  C115  1  0.67331000  0.04955000  0.53146000  1.0
  C  C116  1  0.19951000  0.61688000  0.02052000  1.0
  C  C117  1  0.30049000  0.88312000  0.52052000  1.0
  C  C118  1  0.80049000  0.38313000  0.97948000  1.0
  C  C119  1  0.69951000  0.11688000  0.47948000  1.0
  C  C120  1  0.22657000  0.44962000  0.85625000  1.0
  C  C121  1  0.27344000  0.05038000  0.35624000  1.0
  C  C122  1  0.77343000  0.55038000  0.14375000  1.0
  C  C123  1  0.72656000  0.94962000  0.64375000  1.0
  C  C124  1  0.34749000  0.70220000  0.17653000  1.0
  C  C125  1  0.15251000  0.79780000  0.67653000  1.0
  C  C126  1  0.65251000  0.29780000  0.82347000  1.0
  C  C127  1  0.84748000  0.20220000  0.32347000  1.0
  C  C128  1  0.38813000  0.61315000  0.19162000  1.0
  C  C129  1  0.11187000  0.88685000  0.69162000  1.0
  C  C130  1  0.61186000  0.38685000  0.80838000  1.0
  C  C131  1  0.88813000  0.11315000  0.30838000  1.0
  C  C132  1  0.41085000  0.58644000  0.26614000  1.0
  C  C133  1  0.08915000  0.91356000  0.76614000  1.0
  C  C134  1  0.58915000  0.41356000  0.73386000  1.0
  C  C135  1  0.91085000  0.08644000  0.23386000  1.0
  C  C136  1  0.39311000  0.64902000  0.32531000  1.0
  C  C137  1  0.10689000  0.85098000  0.82531000  1.0
  C  C138  1  0.60689000  0.35098000  0.67469000  1.0
  C  C139  1  0.89311000  0.14902000  0.17469000  1.0
  C  C140  1  0.34797000  0.73695000  0.31020000  1.0
  C  C141  1  0.15203000  0.76306000  0.81020000  1.0
  C  C142  1  0.65202000  0.26306000  0.68980000  1.0
  C  C143  1  0.84797000  0.23694000  0.18980000  1.0
  C  C144  1  0.32514000  0.76395000  0.23605000  1.0
  C  C145  1  0.17486000  0.73605000  0.73605000  1.0
  C  C146  1  0.67485000  0.23605000  0.76395000  1.0
  C  C147  1  0.82514000  0.26395000  0.26395000  1.0
  C  C148  1  0.42128000  0.62476000  0.40552000  1.0
  C  C149  1  0.07872000  0.87524000  0.90552000  1.0
  C  C150  1  0.57872000  0.37524000  0.59448000  1.0
  C  C151  1  0.92128000  0.12476000  0.09448000  1.0
  N  N152  1  0.97690000  0.77937000  0.18225000  1.0
  N  N153  1  0.52310000  0.72063000  0.68225000  1.0
  N  N154  1  0.02310000  0.22063000  0.81775000  1.0
  N  N155  1  0.47690000  0.27937000  0.31775000  1.0
  O  O156  1  0.24813000  0.82599000  0.07993000  1.0
  O  O157  1  0.25187000  0.67401000  0.57993000  1.0
  O  O158  1  0.75187000  0.17401000  0.92007000  1.0
  O  O159  1  0.74813000  0.32598000  0.42007000  1.0
  O  O160  1  0.79077000  0.98275000  0.97105000  1.0
  O  O161  1  0.70923000  0.51725000  0.47105000  1.0
  O  O162  1  0.20923000  0.01725000  0.02895000  1.0
  O  O163  1  0.29077000  0.48275000  0.52895000  1.0
  O  O164  1  0.88180000  0.87461000  0.04257000  1.0
  O  O165  1  0.61820000  0.62539000  0.54257000  1.0
  O  O166  1  0.11820000  0.12539000  0.95744000  1.0
  O  O167  1  0.38180000  0.37461000  0.45743000  1.0
  O  O168  1  0.29497000  0.42409000  0.80624000  1.0
  O  O169  1  0.20504000  0.07591000  0.30624000  1.0
  O  O170  1  0.70503000  0.57591000  0.19375000  1.0
  O  O171  1  0.79496000  0.92409000  0.69376000  1.0
  O  O172  1  0.12445000  0.41516000  0.86565000  1.0
  O  O173  1  0.37556000  0.08484000  0.36565000  1.0
  O  O174  1  0.87555000  0.58484000  0.13435000  1.0
  O  O175  1  0.62444000  0.91516000  0.63435000  1.0
  O  O176  1  0.46602000  0.54581000  0.42124000  1.0
  O  O177  1  0.03398000  0.95419000  0.92124000  1.0
  O  O178  1  0.53398000  0.45419000  0.57876000  1.0
  O  O179  1  0.96602000  0.04581000  0.07876000  1.0
  O  O180  1  0.39866000  0.68250000  0.45722000  1.0
  O  O181  1  0.10134000  0.81750000  0.95722000  1.0
  O  O182  1  0.60133000  0.31750000  0.54278000  1.0
  O  O183  1  0.89867000  0.18250000  0.04278000  1.0
  O  O184  1  0.02844000  0.74913000  0.12332000  1.0
  O  O185  1  0.47156000  0.75087000  0.62332000  1.0
  O  O186  1  0.97156000  0.25087000  0.87668000  1.0
  O  O187  1  0.52844000  0.24913000  0.37668000  1.0
  O  O188  1  0.98679000  0.86338000  0.19868000  1.0
  O  O189  1  0.51321000  0.63662000  0.69868000  1.0
  O  O190  1  0.01321000  0.13662000  0.80132000  1.0
  O  O191  1  0.48680000  0.36338000  0.30132000  1.0
  O  O192  1  0.91713000  0.72888000  0.22224000  1.0
  O  O193  1  0.58287000  0.77112000  0.72224000  1.0
  O  O194  1  0.08287000  0.27112000  0.77776000  1.0
  O  O195  1  0.41713000  0.22888000  0.27777000  1.0
  O  O196  1  0.18659000  0.97887000  0.17648000  1.0
  O  O197  1  0.31341000  0.52113000  0.67648000  1.0
  O  O198  1  0.81341000  0.02113000  0.82352000  1.0
  O  O199  1  0.68659000  0.47887000  0.32352000  1.0
