# generated using pymatgen
data_UAgH14C22(NO4)2
_symmetry_space_group_name_H-M   'P 1'
_cell_length_a   8.92448000
_cell_length_b   10.10250000
_cell_length_c   12.06720000
_cell_angle_alpha   79.43880000
_cell_angle_beta   86.07030000
_cell_angle_gamma   79.08250000
_symmetry_Int_Tables_number   1
_chemical_formula_structural   UAgH14C22(NO4)2
_chemical_formula_sum   'U2 Ag2 H28 C44 N4 O16'
_cell_volume   1049.54032249
_cell_formula_units_Z   2
loop_
 _symmetry_equiv_pos_site_id
 _symmetry_equiv_pos_as_xyz
  1  'x, y, z'
loop_
 _atom_site_type_symbol
 _atom_site_label
 _atom_site_symmetry_multiplicity
 _atom_site_fract_x
 _atom_site_fract_y
 _atom_site_fract_z
 _atom_site_occupancy
  U  U0  1  0.33159000  0.07214000  0.30814000  1.0
  U  U1  1  0.66840000  0.92786000  0.69186000  1.0
  Ag  Ag2  1  0.60839000  0.79238000  0.15277000  1.0
  Ag  Ag3  1  0.39160000  0.20762000  0.84723000  1.0
  H  H4  1  0.53107000  0.50863000  0.08219000  1.0
  H  H5  1  0.46893000  0.49137000  0.91781000  1.0
  H  H6  1  0.60994000  0.25366000  0.13419000  1.0
  H  H7  1  0.39006000  0.74635000  0.86581000  1.0
  H  H8  1  0.81721000  0.16289000  0.27553000  1.0
  H  H9  1  0.18279000  0.83711000  0.72446000  1.0
  H  H10  1  0.93565000  0.32558000  0.35390000  1.0
  H  H11  1  0.06435000  0.67442000  0.64610000  1.0
  H  H12  1  0.06778000  0.47454000  0.36434000  1.0
  H  H13  1  0.93222000  0.52547000  0.63566000  1.0
  H  H14  1  0.15296000  0.65033000  0.45282000  1.0
  H  H15  1  0.84705000  0.34968000  0.54717000  1.0
  H  H16  1  0.98779000  0.88385000  0.44029000  1.0
  H  H17  1  0.01221000  0.11615000  0.55970000  1.0
  H  H18  1  0.74960000  0.93226000  0.32938000  1.0
  H  H19  1  0.25040000  0.06775000  0.67062000  1.0
  H  H20  1  0.02922000  0.25244000  0.99078000  1.0
  H  H21  1  0.97078000  0.74755000  0.00922000  1.0
  H  H22  1  0.15853000  0.57508000  0.13064000  1.0
  H  H23  1  0.84147000  0.42492000  0.86936000  1.0
  H  H24  1  0.61580000  0.32250000  0.65717000  1.0
  H  H25  1  0.38419000  0.67749000  0.34283000  1.0
  H  H26  1  0.37939000  0.42944000  0.34497000  1.0
  H  H27  1  0.62061000  0.57055000  0.65503000  1.0
  H  H28  1  0.01992000  0.95226000  0.20795000  1.0
  H  H29  1  0.98008000  0.04774000  0.79205000  1.0
  H  H30  1  0.23661000  0.96186000  0.87897000  1.0
  H  H31  1  0.76338000  0.03815000  0.12104000  1.0
  C  C32  1  0.62120000  0.46341000  0.14179000  1.0
  C  C33  1  0.37880000  0.53660000  0.85821000  1.0
  C  C34  1  0.66417000  0.32209000  0.17142000  1.0
  C  C35  1  0.33583000  0.67791000  0.82858000  1.0
  C  C36  1  0.77887000  0.27245000  0.24922000  1.0
  C  C37  1  0.22113000  0.72756000  0.75078000  1.0
  C  C38  1  0.84573000  0.36427000  0.29357000  1.0
  C  C39  1  0.15426000  0.63573000  0.70643000  1.0
  C  C40  1  0.79645000  0.50519000  0.25847000  1.0
  C  C41  1  0.20355000  0.49481000  0.74153000  1.0
  C  C42  1  0.85994000  0.60924000  0.30411000  1.0
  C  C43  1  0.14006000  0.39077000  0.69589000  1.0
  C  C44  1  0.99768000  0.57592000  0.36048000  1.0
  C  C45  1  0.00232000  0.42408000  0.63952000  1.0
  C  C46  1  0.04573000  0.67480000  0.40927000  1.0
  C  C47  1  0.95427000  0.32521000  0.59073000  1.0
  C  C48  1  0.95583000  0.80452000  0.40157000  1.0
  C  C49  1  0.04417000  0.19548000  0.59842000  1.0
  C  C50  1  0.82343000  0.83189000  0.34034000  1.0
  C  C51  1  0.17658000  0.16812000  0.65966000  1.0
  C  C52  1  0.10436000  0.40400000  0.06732000  1.0
  C  C53  1  0.89565000  0.59599000  0.93268000  1.0
  C  C54  1  0.01553000  0.36113000  0.99379000  1.0
  C  C55  1  0.98448000  0.63886000  0.00620000  1.0
  C  C56  1  0.08887000  0.54320000  0.07317000  1.0
  C  C57  1  0.91113000  0.45680000  0.92683000  1.0
  C  C58  1  0.20932000  0.29868000  0.14183000  1.0
  C  C59  1  0.79069000  0.70131000  0.85817000  1.0
  C  C60  1  0.49849000  0.36182000  0.50083000  1.0
  C  C61  1  0.50151000  0.63817000  0.49917000  1.0
  C  C62  1  0.56635000  0.40105000  0.58835000  1.0
  C  C63  1  0.43365000  0.59894000  0.41165000  1.0
  C  C64  1  0.43149000  0.46129000  0.41255000  1.0
  C  C65  1  0.56851000  0.53870000  0.58745000  1.0
  C  C66  1  0.49960000  0.21377000  0.50135000  1.0
  C  C67  1  0.50040000  0.78622000  0.49865000  1.0
  C  C68  1  0.14170000  0.95023000  0.04878000  1.0
  C  C69  1  0.85830000  0.04977000  0.95122000  1.0
  C  C70  1  0.00907000  0.97296000  0.11697000  1.0
  C  C71  1  0.99092000  0.02705000  0.88304000  1.0
  C  C72  1  0.13231000  0.97810000  0.93110000  1.0
  C  C73  1  0.86769000  0.02191000  0.06890000  1.0
  C  C74  1  0.29231000  0.90067000  0.10216000  1.0
  C  C75  1  0.70769000  0.09933000  0.89785000  1.0
  N  N76  1  0.68598000  0.55220000  0.18305000  1.0
  N  N77  1  0.31402000  0.44781000  0.81695000  1.0
  N  N78  1  0.77763000  0.73809000  0.29127000  1.0
  N  N79  1  0.22237000  0.26192000  0.70873000  1.0
  O  O80  1  0.25923000  0.32416000  0.23138000  1.0
  O  O81  1  0.74077000  0.67584000  0.76862000  1.0
  O  O82  1  0.24424000  0.17718000  0.11960000  1.0
  O  O83  1  0.75576000  0.82281000  0.88040000  1.0
  O  O84  1  0.40135000  0.18177000  0.44419000  1.0
  O  O85  1  0.59865000  0.81822000  0.55581000  1.0
  O  O86  1  0.59919000  0.12567000  0.55897000  1.0
  O  O87  1  0.40081000  0.87433000  0.44103000  1.0
  O  O88  1  0.29710000  0.90156000  0.20918000  1.0
  O  O89  1  0.70290000  0.09844000  0.79082000  1.0
  O  O90  1  0.40834000  0.86006000  0.04326000  1.0
  O  O91  1  0.59166000  0.13994000  0.95674000  1.0
  O  O92  1  0.52806000  0.05864000  0.25405000  1.0
  O  O93  1  0.47194000  0.94136000  0.74596000  1.0
  O  O94  1  0.13628000  0.08558000  0.36486000  1.0
  O  O95  1  0.86372000  0.91442000  0.63514000  1.0
