# generated using pymatgen
data_CuH8C18N2(OF)4
_symmetry_space_group_name_H-M   'P 1'
_cell_length_a   8.17842000
_cell_length_b   9.52229000
_cell_length_c   11.32090000
_cell_angle_alpha   74.36990000
_cell_angle_beta   70.45360000
_cell_angle_gamma   75.08060000
_symmetry_Int_Tables_number   1
_chemical_formula_structural   CuH8C18N2(OF)4
_chemical_formula_sum   'Cu2 H16 C36 N4 O8 F8'
_cell_volume   786.39348543
_cell_formula_units_Z   2
loop_
 _symmetry_equiv_pos_site_id
 _symmetry_equiv_pos_as_xyz
  1  'x, y, z'
loop_
 _atom_site_type_symbol
 _atom_site_label
 _atom_site_symmetry_multiplicity
 _atom_site_fract_x
 _atom_site_fract_y
 _atom_site_fract_z
 _atom_site_occupancy
  Cu  Cu0  1  0.53237000  0.80867000  0.57388000  1.0
  Cu  Cu1  1  0.46764000  0.19133000  0.42612000  1.0
  H  H2  1  0.44721000  0.70693000  0.86429000  1.0
  H  H3  1  0.55280000  0.29305000  0.13572000  1.0
  H  H4  1  0.27132000  0.52055000  0.02701000  1.0
  H  H5  1  0.72870000  0.47943000  0.97299000  1.0
  H  H6  1  0.11375000  0.38641000  0.94972000  1.0
  H  H7  1  0.88626000  0.61358000  0.05027000  1.0
  H  H8  1  0.13340000  0.44044000  0.71798000  1.0
  H  H9  1  0.86660000  0.55957000  0.28202000  1.0
  H  H10  1  0.16426000  0.49876000  0.52119000  1.0
  H  H11  1  0.83573000  0.50124000  0.47881000  1.0
  H  H12  1  0.22592000  0.57330000  0.28615000  1.0
  H  H13  1  0.77406000  0.42671000  0.71386000  1.0
  H  H14  1  0.42348000  0.76285000  0.16672000  1.0
  H  H15  1  0.57651000  0.23716000  0.83329000  1.0
  H  H16  1  0.54397000  0.87028000  0.29176000  1.0
  H  H17  1  0.45603000  0.12972000  0.70824000  1.0
  C  C18  1  0.37575000  0.64512000  0.83692000  1.0
  C  C19  1  0.62427000  0.35486000  0.16309000  1.0
  C  C20  1  0.27820000  0.54250000  0.92599000  1.0
  C  C21  1  0.72181000  0.45748000  0.07401000  1.0
  C  C22  1  0.19040000  0.46785000  0.88276000  1.0
  C  C23  1  0.80960000  0.53214000  0.11724000  1.0
  C  C24  1  0.20082000  0.49776000  0.75338000  1.0
  C  C25  1  0.79918000  0.50225000  0.24661000  1.0
  C  C26  1  0.30192000  0.60136000  0.66918000  1.0
  C  C27  1  0.69808000  0.39863000  0.33082000  1.0
  C  C28  1  0.32562000  0.64085000  0.53048000  1.0
  C  C29  1  0.67438000  0.35915000  0.46952000  1.0
  C  C30  1  0.24758000  0.58065000  0.46814000  1.0
  C  C31  1  0.75242000  0.41935000  0.53187000  1.0
  C  C32  1  0.28208000  0.62371000  0.33564000  1.0
  C  C33  1  0.71791000  0.37630000  0.66436000  1.0
  C  C34  1  0.39092000  0.72757000  0.27004000  1.0
  C  C35  1  0.60908000  0.27244000  0.72996000  1.0
  C  C36  1  0.46165000  0.78629000  0.33829000  1.0
  C  C37  1  0.53834000  0.21371000  0.66171000  1.0
  C  C38  1  0.82388000  0.86625000  0.37447000  1.0
  C  C39  1  0.17612000  0.13375000  0.62553000  1.0
  C  C40  1  0.95720000  0.95279000  0.27422000  1.0
  C  C41  1  0.04280000  0.04722000  0.72578000  1.0
  C  C42  1  0.01716000  0.06331000  0.29948000  1.0
  C  C43  1  0.98284000  0.93669000  0.70052000  1.0
  C  C44  1  0.15947000  0.12862000  0.21723000  1.0
  C  C45  1  0.84053000  0.87138000  0.78277000  1.0
  C  C46  1  0.23686000  0.08645000  0.09977000  1.0
  C  C47  1  0.76314000  0.91356000  0.90023000  1.0
  C  C48  1  0.18075000  0.97950000  0.06724000  1.0
  C  C49  1  0.81924000  0.02051000  0.93276000  1.0
  C  C50  1  0.04462000  0.91179000  0.15598000  1.0
  C  C51  1  0.95538000  0.08822000  0.84401000  1.0
  C  C52  1  0.24178000  0.22542000  0.26078000  1.0
  C  C53  1  0.75822000  0.77459000  0.73922000  1.0
  N  N54  1  0.38751000  0.67307000  0.71195000  1.0
  N  N55  1  0.61250000  0.32692000  0.28805000  1.0
  N  N56  1  0.43101000  0.74253000  0.46523000  1.0
  N  N57  1  0.56899000  0.25746000  0.53477000  1.0
  O  O58  1  0.67352000  0.94223000  0.42669000  1.0
  O  O59  1  0.32648000  0.05777000  0.57331000  1.0
  O  O60  1  0.86744000  0.72885000  0.40078000  1.0
  O  O61  1  0.13256000  0.27115000  0.59923000  1.0
  O  O62  1  0.19866000  0.36238000  0.23789000  1.0
  O  O63  1  0.80134000  0.63763000  0.76210000  1.0
  O  O64  1  0.35580000  0.14212000  0.31806000  1.0
  O  O65  1  0.64421000  0.85789000  0.68194000  1.0
  F  F66  1  0.93964000  0.10517000  0.41386000  1.0
  F  F67  1  0.06037000  0.89482000  0.58614000  1.0
  F  F68  1  0.37567000  0.14649000  0.01483000  1.0
  F  F69  1  0.62433000  0.85351000  0.98517000  1.0
  F  F70  1  0.26174000  0.93865000  0.95268000  1.0
  F  F71  1  0.73826000  0.06137000  0.04731000  1.0
  F  F72  1  0.99836000  0.80306000  0.12401000  1.0
  F  F73  1  0.00163000  0.19695000  0.87598000  1.0
