# generated using pymatgen
data_AgH10C10(NO)3
_symmetry_space_group_name_H-M   'P 1'
_cell_length_a   5.87040000
_cell_length_b   10.20890000
_cell_length_c   10.20980000
_cell_angle_alpha   87.28770000
_cell_angle_beta   79.32880000
_cell_angle_gamma   79.32820000
_symmetry_Int_Tables_number   1
_chemical_formula_structural   AgH10C10(NO)3
_chemical_formula_sum   'Ag2 H20 C20 N6 O6'
_cell_volume   590.84110266
_cell_formula_units_Z   2
loop_
 _symmetry_equiv_pos_site_id
 _symmetry_equiv_pos_as_xyz
  1  'x, y, z'
loop_
 _atom_site_type_symbol
 _atom_site_label
 _atom_site_symmetry_multiplicity
 _atom_site_fract_x
 _atom_site_fract_y
 _atom_site_fract_z
 _atom_site_occupancy
  Ag  Ag0  1  0.25002000  0.12279000  0.87722000  1.0
  Ag  Ag1  1  0.74995000  0.87722000  0.12278000  1.0
  H  H2  1  0.08448000  0.00458000  0.65470000  1.0
  H  H3  1  0.41557000  0.34530000  0.99540000  1.0
  H  H4  1  0.91553000  0.99540000  0.34530000  1.0
  H  H5  1  0.58444000  0.65468000  0.00459000  1.0
  H  H6  1  0.23657000  0.83422000  0.47437000  1.0
  H  H7  1  0.26349000  0.52565000  0.16576000  1.0
  H  H8  1  0.76342000  0.16577000  0.52564000  1.0
  H  H9  1  0.73655000  0.47434000  0.83423000  1.0
  H  H10  1  0.65317000  0.71277000  0.45238000  1.0
  H  H11  1  0.84691000  0.54762000  0.28720000  1.0
  H  H12  1  0.34683000  0.28723000  0.54762000  1.0
  H  H13  1  0.15313000  0.45238000  0.71279000  1.0
  H  H14  1  0.89494000  0.75736000  0.61968000  1.0
  H  H15  1  0.60511000  0.38032000  0.24263000  1.0
  H  H16  1  0.10504000  0.24264000  0.38032000  1.0
  H  H17  1  0.39487000  0.61969000  0.75738000  1.0
  H  H18  1  0.71174000  0.92632000  0.79697000  1.0
  H  H19  1  0.78832000  0.20300000  0.07368000  1.0
  H  H20  1  0.28824000  0.07368000  0.20303000  1.0
  H  H21  1  0.21167000  0.79700000  0.92632000  1.0
  C  C22  1  0.26137000  0.94544000  0.64373000  1.0
  C  C23  1  0.23867000  0.35628000  0.05456000  1.0
  C  C24  1  0.73861000  0.05456000  0.35627000  1.0
  C  C25  1  0.76134000  0.64371000  0.94544000  1.0
  C  C26  1  0.34834000  0.85238000  0.54324000  1.0
  C  C27  1  0.15167000  0.45680000  0.14762000  1.0
  C  C28  1  0.65165000  0.14762000  0.45676000  1.0
  C  C29  1  0.84831000  0.54322000  0.85239000  1.0
  C  C30  1  0.57940000  0.78348000  0.53241000  1.0
  C  C31  1  0.92063000  0.46760000  0.21651000  1.0
  C  C32  1  0.42061000  0.21652000  0.46758000  1.0
  C  C33  1  0.07936000  0.53241000  0.78349000  1.0
  C  C34  1  0.71388000  0.80879000  0.62443000  1.0
  C  C35  1  0.78619000  0.37559000  0.19121000  1.0
  C  C36  1  0.28612000  0.19122000  0.37556000  1.0
  C  C37  1  0.21383000  0.62444000  0.80879000  1.0
  C  C38  1  0.61392000  0.90220000  0.72334000  1.0
  C  C39  1  0.88615000  0.27665000  0.09781000  1.0
  C  C40  1  0.38609000  0.09780000  0.27667000  1.0
  C  C41  1  0.11385000  0.72335000  0.90221000  1.0
  N  N42  1  0.39133000  0.97028000  0.73267000  1.0
  N  N43  1  0.10874000  0.26731000  0.02972000  1.0
  N  N44  1  0.60866000  0.02972000  0.26733000  1.0
  N  N45  1  0.89129000  0.73267000  0.97027000  1.0
  N  N46  1  0.75000000  0.23211000  0.76789000  1.0
  N  N47  1  0.25000000  0.76789000  0.23211000  1.0
  O  O48  1  0.93894000  0.24083000  0.68692000  1.0
  O  O49  1  0.56105000  0.31308000  0.75916000  1.0
  O  O50  1  0.06106000  0.75916000  0.31308000  1.0
  O  O51  1  0.43895000  0.68691000  0.24084000  1.0
  O  O52  1  0.75001000  0.14156000  0.85845000  1.0
  O  O53  1  0.24999000  0.85844000  0.14155000  1.0
