# generated using pymatgen
data_ZnP2H12C8(NO2)4
_symmetry_space_group_name_H-M   'P 1'
_cell_length_a   7.07472000
_cell_length_b   12.40020000
_cell_length_c   15.59380000
_cell_angle_alpha   90.00010000
_cell_angle_beta   90.00010000
_cell_angle_gamma   89.99980000
_symmetry_Int_Tables_number   1
_chemical_formula_structural   ZnP2H12C8(NO2)4
_chemical_formula_sum   'Zn4 P8 H48 C32 N16 O32'
_cell_volume   1368.01199667
_cell_formula_units_Z   4
loop_
 _symmetry_equiv_pos_site_id
 _symmetry_equiv_pos_as_xyz
  1  'x, y, z'
loop_
 _atom_site_type_symbol
 _atom_site_label
 _atom_site_symmetry_multiplicity
 _atom_site_fract_x
 _atom_site_fract_y
 _atom_site_fract_z
 _atom_site_occupancy
  Zn  Zn0  1  0.00000000  0.50000000  0.50000000  1.0
  Zn  Zn1  1  0.00000000  0.00000000  0.00000000  1.0
  Zn  Zn2  1  0.50000000  0.00000000  0.50000000  1.0
  Zn  Zn3  1  0.50000000  0.50000000  0.00000000  1.0
  P  P4  1  0.75462000  0.64096000  0.84278000  1.0
  P  P5  1  0.24537000  0.85903000  0.34278000  1.0
  P  P6  1  0.74537000  0.14097000  0.15722000  1.0
  P  P7  1  0.25463000  0.35903000  0.65722000  1.0
  P  P8  1  0.24537000  0.35904000  0.15722000  1.0
  P  P9  1  0.75463000  0.14097000  0.65722000  1.0
  P  P10  1  0.25462000  0.85903000  0.84278000  1.0
  P  P11  1  0.74537000  0.64097000  0.34278000  1.0
  H  H12  1  0.97214000  0.56157000  0.69082000  1.0
  H  H13  1  0.02786000  0.93843000  0.19082000  1.0
  H  H14  1  0.52786000  0.06157000  0.30918000  1.0
  H  H15  1  0.47214000  0.43843000  0.80918000  1.0
  H  H16  1  0.02786000  0.43843000  0.30918000  1.0
  H  H17  1  0.97214000  0.06157000  0.80918000  1.0
  H  H18  1  0.47214000  0.93843000  0.69082000  1.0
  H  H19  1  0.52786000  0.56157000  0.19082000  1.0
  H  H20  1  0.40341000  0.67435000  0.73948000  1.0
  H  H21  1  0.59658000  0.82565000  0.23948000  1.0
  H  H22  1  0.09658000  0.17435000  0.26052000  1.0
  H  H23  1  0.90342000  0.32565000  0.76052000  1.0
  H  H24  1  0.59659000  0.32565000  0.26052000  1.0
  H  H25  1  0.40342000  0.17435000  0.76052000  1.0
  H  H26  1  0.90342000  0.82565000  0.73948000  1.0
  H  H27  1  0.09658000  0.67435000  0.23948000  1.0
  H  H28  1  0.57919000  0.58658000  0.49553000  1.0
  H  H29  1  0.42081000  0.91342000  0.99553000  1.0
  H  H30  1  0.92080000  0.08658000  0.50447000  1.0
  H  H31  1  0.07919000  0.41342000  0.00447000  1.0
  H  H32  1  0.42081000  0.41342000  0.50447000  1.0
  H  H33  1  0.57919000  0.08658000  0.00447000  1.0
  H  H34  1  0.07919000  0.91342000  0.49553000  1.0
  H  H35  1  0.92081000  0.58658000  0.99553000  1.0
  H  H36  1  0.73509000  0.35539000  0.44544000  1.0
  H  H37  1  0.26491000  0.14461000  0.94544000  1.0
  H  H38  1  0.76490000  0.85539000  0.55456000  1.0
  H  H39  1  0.23510000  0.64461000  0.05456000  1.0
  H  H40  1  0.26491000  0.64461000  0.55456000  1.0
  H  H41  1  0.73509000  0.85539000  0.05456000  1.0
  H  H42  1  0.23509000  0.14461000  0.44544000  1.0
  H  H43  1  0.76490000  0.35539000  0.94544000  1.0
  H  H44  1  0.80973000  0.31880000  0.53877000  1.0
  H  H45  1  0.19027000  0.18120000  0.03877000  1.0
  H  H46  1  0.69027000  0.81880000  0.46123000  1.0
  H  H47  1  0.30973000  0.68120000  0.96123000  1.0
  H  H48  1  0.19027000  0.68120000  0.46123000  1.0
  H  H49  1  0.80973000  0.81880000  0.96123000  1.0
  H  H50  1  0.30973000  0.18120000  0.53877000  1.0
  H  H51  1  0.69027000  0.31880000  0.03877000  1.0
  H  H52  1  0.07060000  0.66858000  0.85344000  1.0
  H  H53  1  0.92939000  0.83142000  0.35345000  1.0
  H  H54  1  0.42940000  0.16858000  0.14655000  1.0
  H  H55  1  0.57060000  0.33142000  0.64655000  1.0
  H  H56  1  0.92940000  0.33142000  0.14656000  1.0
  H  H57  1  0.07061000  0.16858000  0.64655000  1.0
  H  H58  1  0.57060000  0.83142000  0.85345000  1.0
  H  H59  1  0.42939000  0.66858000  0.35345000  1.0
  C  C60  1  0.82957000  0.58405000  0.67149000  1.0
  C  C61  1  0.17043000  0.91595000  0.17149000  1.0
  C  C62  1  0.67043000  0.08405000  0.32851000  1.0
  C  C63  1  0.32957000  0.41595000  0.82851000  1.0
  C  C64  1  0.17043000  0.41595000  0.32851000  1.0
  C  C65  1  0.82957000  0.08406000  0.82851000  1.0
  C  C66  1  0.32957000  0.91595000  0.67149000  1.0
  C  C67  1  0.67043000  0.58405000  0.17149000  1.0
  C  C68  1  0.69747000  0.62375000  0.73007000  1.0
  C  C69  1  0.30252000  0.87625000  0.23007000  1.0
  C  C70  1  0.80252000  0.12375000  0.26993000  1.0
  C  C71  1  0.19748000  0.37625000  0.76993000  1.0
  C  C72  1  0.30253000  0.37626000  0.26993000  1.0
  C  C73  1  0.69748000  0.12375000  0.76993000  1.0
  C  C74  1  0.19748000  0.87625000  0.73007000  1.0
  C  C75  1  0.80252000  0.62375000  0.23007000  1.0
  C  C76  1  0.51725000  0.64671000  0.69742000  1.0
  C  C77  1  0.48274000  0.85329000  0.19742000  1.0
  C  C78  1  0.98274000  0.14671000  0.30258000  1.0
  C  C79  1  0.01726000  0.35329000  0.80258000  1.0
  C  C80  1  0.48275000  0.35329000  0.30258000  1.0
  C  C81  1  0.51726000  0.14671000  0.80258000  1.0
  C  C82  1  0.01726000  0.85329000  0.69742000  1.0
  C  C83  1  0.98274000  0.64671000  0.19742000  1.0
  C  C84  1  0.61281000  0.59690000  0.56320000  1.0
  C  C85  1  0.38719000  0.90310000  0.06320000  1.0
  C  C86  1  0.88718000  0.09689000  0.43680000  1.0
  C  C87  1  0.11281000  0.40310000  0.93680000  1.0
  C  C88  1  0.38719000  0.40310000  0.43680000  1.0
  C  C89  1  0.61281000  0.09690000  0.93680000  1.0
  C  C90  1  0.11281000  0.90310000  0.56320000  1.0
  C  C91  1  0.88719000  0.59690000  0.06320000  1.0
  N  N92  1  0.78689000  0.56936000  0.58832000  1.0
  N  N93  1  0.21310000  0.93064000  0.08832000  1.0
  N  N94  1  0.71310000  0.06936000  0.41168000  1.0
  N  N95  1  0.28690000  0.43064000  0.91168000  1.0
  N  N96  1  0.21310000  0.43064000  0.41168000  1.0
  N  N97  1  0.78690000  0.06936000  0.91168000  1.0
  N  N98  1  0.28689000  0.93064000  0.58832000  1.0
  N  N99  1  0.71311000  0.56936000  0.08832000  1.0
  N  N100  1  0.47615000  0.63494000  0.61414000  1.0
  N  N101  1  0.52384000  0.86506000  0.11414000  1.0
  N  N102  1  0.02384000  0.13494000  0.38586000  1.0
  N  N103  1  0.97616000  0.36506000  0.88586000  1.0
  N  N104  1  0.52385000  0.36506000  0.38586000  1.0
  N  N105  1  0.47616000  0.13494000  0.88586000  1.0
  N  N106  1  0.97616000  0.86506000  0.61414000  1.0
  N  N107  1  0.02385000  0.63494000  0.11414000  1.0
  O  O108  1  0.63468000  0.56136000  0.89125000  1.0
  O  O109  1  0.36532000  0.93864000  0.39125000  1.0
  O  O110  1  0.86532000  0.06136000  0.10876000  1.0
  O  O111  1  0.13468000  0.43864000  0.60876000  1.0
  O  O112  1  0.36532000  0.43864000  0.10875000  1.0
  O  O113  1  0.63468000  0.06136000  0.60876000  1.0
  O  O114  1  0.13467000  0.93863000  0.89124000  1.0
  O  O115  1  0.86532000  0.56137000  0.39125000  1.0
  O  O116  1  0.96938000  0.60766000  0.84935000  1.0
  O  O117  1  0.03061000  0.89234000  0.34935000  1.0
  O  O118  1  0.53062000  0.10766000  0.15065000  1.0
  O  O119  1  0.46938000  0.39234000  0.65065000  1.0
  O  O120  1  0.03062000  0.39234000  0.15065000  1.0
  O  O121  1  0.96939000  0.10766000  0.65065000  1.0
  O  O122  1  0.46938000  0.89234000  0.84935000  1.0
  O  O123  1  0.53061000  0.60766000  0.34935000  1.0
  O  O124  1  0.73398000  0.76060000  0.86444000  1.0
  O  O125  1  0.26602000  0.73939000  0.36444000  1.0
  O  O126  1  0.76602000  0.26060000  0.13556000  1.0
  O  O127  1  0.23398000  0.23939000  0.63556000  1.0
  O  O128  1  0.26603000  0.23940000  0.13556000  1.0
  O  O129  1  0.73398000  0.26061000  0.63556000  1.0
  O  O130  1  0.23398000  0.73939000  0.86444000  1.0
  O  O131  1  0.76601000  0.76061000  0.36444000  1.0
  O  O132  1  0.84798000  0.35420000  0.48437000  1.0
  O  O133  1  0.15202000  0.14580000  0.98437000  1.0
  O  O134  1  0.65201000  0.85420000  0.51563000  1.0
  O  O135  1  0.34798000  0.64580000  0.01563000  1.0
  O  O136  1  0.15202000  0.64580000  0.51563000  1.0
  O  O137  1  0.84798000  0.85420000  0.01563000  1.0
  O  O138  1  0.34798000  0.14580000  0.48437000  1.0
  O  O139  1  0.65202000  0.35420000  0.98437000  1.0
