# generated using pymatgen
data_MgH3C7NO3
_symmetry_space_group_name_H-M   'P 1'
_cell_length_a   6.85815000
_cell_length_b   24.78960000
_cell_length_c   24.79020000
_cell_angle_alpha   119.15000000
_cell_angle_beta   95.29270000
_cell_angle_gamma   95.27640000
_symmetry_Int_Tables_number   1
_chemical_formula_structural   MgH3C7NO3
_chemical_formula_sum   'Mg6 H18 C42 N6 O18'
_cell_volume   3619.42350347
_cell_formula_units_Z   6
loop_
 _symmetry_equiv_pos_site_id
 _symmetry_equiv_pos_as_xyz
  1  'x, y, z'
loop_
 _atom_site_type_symbol
 _atom_site_label
 _atom_site_symmetry_multiplicity
 _atom_site_fract_x
 _atom_site_fract_y
 _atom_site_fract_z
 _atom_site_occupancy
  Mg  Mg0  1  0.64974000  0.62043000  0.29611000  1.0
  Mg  Mg1  1  0.06223000  0.37902000  0.70462000  1.0
  Mg  Mg2  1  0.02933000  0.67571000  0.37954000  1.0
  Mg  Mg3  1  0.68335000  0.32544000  0.62082000  1.0
  Mg  Mg4  1  0.35356000  0.70386000  0.32424000  1.0
  Mg  Mg5  1  0.35775000  0.29524000  0.67440000  1.0
  H  H6  1  0.32444000  0.59860000  0.47873000  1.0
  H  H7  1  0.52779000  0.54329000  0.51932000  1.0
  H  H8  1  0.73041000  0.44783000  0.58852000  1.0
  H  H9  1  0.39115000  0.40682000  0.52558000  1.0
  H  H10  1  0.18789000  0.46321000  0.48645000  1.0
  H  H11  1  0.98332000  0.55536000  0.41524000  1.0
  H  H12  1  0.72570000  0.88029000  0.40188000  1.0
  H  H13  1  0.98447000  0.97610000  0.45722000  1.0
  H  H14  1  0.28267000  0.14055000  0.55203000  1.0
  H  H15  1  0.98423000  0.11865000  0.59333000  1.0
  H  H16  1  0.72464000  0.02313000  0.53698000  1.0
  H  H17  1  0.42786000  0.85979000  0.44466000  1.0
  H  H18  1  0.84527000  0.52158000  0.11971000  1.0
  H  H19  1  0.00828000  0.48108000  0.02387000  1.0
  H  H20  1  0.14132000  0.41148000  0.85929000  1.0
  H  H21  1  0.86494000  0.47439000  0.88115000  1.0
  H  H22  1  0.70077000  0.51355000  0.97666000  1.0
  H  H23  1  0.56784000  0.58494000  0.14011000  1.0
  C  C24  1  0.72469000  0.59463000  0.40405000  1.0
  C  C25  1  0.53504000  0.60682000  0.42312000  1.0
  C  C26  1  0.46865000  0.58810000  0.46476000  1.0
  C  C27  1  0.57976000  0.55773000  0.48744000  1.0
  C  C28  1  0.76667000  0.54573000  0.46869000  1.0
  C  C29  1  0.94782000  0.45907000  0.53605000  1.0
  C  C30  1  0.87634000  0.43902000  0.57528000  1.0
  C  C31  1  0.98938000  0.40833000  0.59899000  1.0
  C  C32  1  0.17947000  0.39673000  0.58000000  1.0
  C  C33  1  0.24647000  0.41680000  0.53941000  1.0
  C  C34  1  0.13539000  0.44778000  0.51754000  1.0
  C  C35  1  0.30984000  0.36376000  0.60028000  1.0
  C  C36  1  0.83777000  0.56464000  0.42858000  1.0
  C  C37  1  0.40425000  0.63892000  0.40176000  1.0
  C  C38  1  0.12981000  0.80942000  0.40545000  1.0
  C  C39  1  0.92800000  0.81640000  0.39339000  1.0
  C  C40  1  0.88038000  0.87679000  0.41226000  1.0
  C  C41  1  0.02192000  0.92976000  0.44263000  1.0
  C  C42  1  0.22084000  0.92291000  0.45445000  1.0
  C  C43  1  0.48890000  0.07689000  0.54096000  1.0
  C  C44  1  0.43740000  0.13614000  0.56090000  1.0
  C  C45  1  0.58104000  0.19051000  0.59157000  1.0
  C  C46  1  0.78264000  0.18309000  0.60322000  1.0
  C  C47  1  0.82965000  0.12245000  0.58325000  1.0
  C  C48  1  0.68764000  0.06963000  0.55230000  1.0
  C  C49  1  0.94590000  0.23634000  0.63612000  1.0
  C  C50  1  0.27302000  0.86387000  0.43545000  1.0
  C  C51  1  0.76517000  0.76294000  0.36121000  1.0
  C  C52  1  0.32028000  0.59607000  0.19050000  1.0
  C  C53  1  0.11151000  0.57704000  0.18357000  1.0
  C  C54  1  0.00346000  0.53550000  0.12320000  1.0
  C  C55  1  0.09200000  0.51289000  0.07020000  1.0
  C  C56  1  0.29773000  0.53158000  0.07697000  1.0
  C  C57  1  0.41119000  0.46396000  0.92295000  1.0
  C  C58  1  0.30045000  0.42470000  0.86370000  1.0
  C  C59  1  0.38980000  0.40091000  0.80932000  1.0
  C  C60  1  0.59884000  0.41992000  0.81669000  1.0
  C  C61  1  0.70648000  0.46055000  0.87731000  1.0
  C  C62  1  0.61725000  0.48243000  0.93014000  1.0
  C  C63  1  0.70904000  0.39964000  0.76345000  1.0
  C  C64  1  0.40891000  0.57162000  0.13599000  1.0
  C  C65  1  0.00215000  0.59831000  0.23706000  1.0
  N  N66  1  0.89556000  0.51492000  0.48813000  1.0
  N  N67  1  0.81870000  0.49006000  0.51692000  1.0
  N  N68  1  0.38056000  0.97311000  0.48522000  1.0
  N  N69  1  0.32877000  0.02679000  0.50999000  1.0
  N  N70  1  0.40711000  0.51212000  0.02672000  1.0
  N  N71  1  0.30133000  0.48317000  0.97310000  1.0
  O  O72  1  0.24266000  0.65271000  0.42288000  1.0
  O  O73  1  0.45674000  0.65211000  0.36010000  1.0
  O  O74  1  0.80032000  0.61007000  0.36444000  1.0
  O  O75  1  0.47156000  0.35042000  0.57907000  1.0
  O  O76  1  0.25664000  0.34917000  0.64093000  1.0
  O  O77  1  0.91320000  0.39172000  0.63774000  1.0
  O  O78  1  0.58979000  0.77028000  0.34744000  1.0
  O  O79  1  0.80446000  0.70805000  0.34783000  1.0
  O  O80  1  0.19010000  0.75436000  0.38990000  1.0
  O  O81  1  0.12105000  0.22849000  0.64939000  1.0
  O  O82  1  0.90744000  0.29161000  0.65073000  1.0
  O  O83  1  0.52148000  0.24587000  0.60813000  1.0
  O  O84  1  0.81945000  0.57717000  0.22972000  1.0
  O  O85  1  0.09640000  0.63984000  0.29191000  1.0
  O  O86  1  0.43556000  0.63555000  0.24557000  1.0
  O  O87  1  0.89201000  0.42080000  0.77134000  1.0
  O  O88  1  0.61537000  0.35897000  0.70819000  1.0
  O  O89  1  0.27509000  0.36207000  0.75396000  1.0
