# generated using pymatgen
data_ZnH9C11S2(NO2)2
_symmetry_space_group_name_H-M   'P 1'
_cell_length_a   10.93080000
_cell_length_b   11.43370000
_cell_length_c   12.72510000
_cell_angle_alpha   89.80360000
_cell_angle_beta   87.20270000
_cell_angle_gamma   89.38750000
_symmetry_Int_Tables_number   1
_chemical_formula_structural   ZnH9C11S2(NO2)2
_chemical_formula_sum   'Zn2 H18 C22 S4 N4 O8'
_cell_volume   1588.38396193
_cell_formula_units_Z   2
loop_
 _symmetry_equiv_pos_site_id
 _symmetry_equiv_pos_as_xyz
  1  'x, y, z'
loop_
 _atom_site_type_symbol
 _atom_site_label
 _atom_site_symmetry_multiplicity
 _atom_site_fract_x
 _atom_site_fract_y
 _atom_site_fract_z
 _atom_site_occupancy
  Zn  Zn0  1  0.50406000  0.62317000  0.50062000  1.0
  Zn  Zn1  1  0.50273000  0.38097000  0.50095000  1.0
  H  H2  1  0.64947000  0.16837000  0.58753000  1.0
  H  H3  1  0.49355000  0.31099000  0.85981000  1.0
  H  H4  1  0.88850000  0.47727000  0.66328000  1.0
  H  H5  1  0.88930000  0.62487000  0.62166000  1.0
  H  H6  1  0.10330000  0.62137000  0.62416000  1.0
  H  H7  1  0.10194000  0.47116000  0.65748000  1.0
  H  H8  1  0.09966000  0.68408000  0.43666000  1.0
  H  H9  1  0.11519000  0.58126000  0.33318000  1.0
  H  H10  1  0.88744000  0.67422000  0.42611000  1.0
  H  H11  1  0.90295000  0.56055000  0.33274000  1.0
  H  H12  1  0.90331000  0.31620000  0.52758000  1.0
  H  H13  1  0.89914000  0.34931000  0.39269000  1.0
  H  H14  1  0.11285000  0.36337000  0.37887000  1.0
  H  H15  1  0.11739000  0.31804000  0.51101000  1.0
  H  H16  1  0.26092000  0.88650000  0.38110000  1.0
  H  H17  1  0.30277000  0.74433000  0.41849000  1.0
  H  H18  1  0.52673000  0.77049000  0.09543000  1.0
  H  H19  1  0.51399000  0.71844000  0.22369000  1.0
  C  C20  1  0.49086000  0.49365000  0.70571000  1.0
  C  C21  1  0.74225000  0.50118000  0.49941000  1.0
  C  C22  1  0.50602000  0.49788000  0.29413000  1.0
  C  C23  1  0.26097000  0.50708000  0.49289000  1.0
  C  C24  1  0.41941000  0.87370000  0.45865000  1.0
  C  C25  1  0.57555000  0.12941000  0.54570000  1.0
  C  C26  1  0.55088000  0.00945000  0.53153000  1.0
  C  C27  1  0.44680000  0.99484000  0.47288000  1.0
  C  C28  1  0.49716000  0.59501000  0.11335000  1.0
  C  C29  1  0.49245000  0.40042000  0.88867000  1.0
  C  C30  1  0.49924000  0.49749000  0.18039000  1.0
  C  C31  1  0.49045000  0.49568000  0.82157000  1.0
  C  C32  1  0.49332000  0.43580000  0.99486000  1.0
  C  C33  1  0.49310000  0.55806000  0.00681000  1.0
  C  C34  1  0.92645000  0.53739000  0.60267000  1.0
  C  C35  1  0.06829000  0.53578000  0.60128000  1.0
  C  C36  1  0.12162000  0.50530000  0.48954000  1.0
  C  C37  1  0.07253000  0.59635000  0.41215000  1.0
  C  C38  1  0.93106000  0.58869000  0.41050000  1.0
  C  C39  1  0.88221000  0.50040000  0.49414000  1.0
  C  C40  1  0.93558000  0.37882000  0.46694000  1.0
  C  C41  1  0.07704000  0.38327000  0.45922000  1.0
  S  S42  1  0.61022000  0.87528000  0.56448000  1.0
  S  S43  1  0.38854000  0.12878000  0.43975000  1.0
  S  S44  1  0.49508000  0.36397000  0.11419000  1.0
  S  S45  1  0.48889000  0.62901000  0.88713000  1.0
  N  N46  1  0.50083000  0.80328000  0.50362000  1.0
  N  N47  1  0.49637000  0.20016000  0.50073000  1.0
  N  N48  1  0.32611000  0.83071000  0.40533000  1.0
  N  N49  1  0.49429000  0.70894000  0.14665000  1.0
  O  O50  1  0.47867000  0.59206000  0.65919000  1.0
  O  O51  1  0.50368000  0.39393000  0.66192000  1.0
  O  O52  1  0.68847000  0.40339000  0.49359000  1.0
  O  O53  1  0.68893000  0.60050000  0.51047000  1.0
  O  O54  1  0.49825000  0.39913000  0.34153000  1.0
  O  O55  1  0.51959000  0.59738000  0.33928000  1.0
  O  O56  1  0.31449000  0.60589000  0.48247000  1.0
  O  O57  1  0.31591000  0.41111000  0.50957000  1.0
