# generated using pymatgen
data_GdH6(CO3)3
_symmetry_space_group_name_H-M   'P 1'
_cell_length_a   9.23760000
_cell_length_b   9.94470000
_cell_length_c   11.24060000
_cell_angle_alpha   114.41000000
_cell_angle_beta   90.00000000
_cell_angle_gamma   90.00000000
_symmetry_Int_Tables_number   1
_chemical_formula_structural   GdH6(CO3)3
_chemical_formula_sum   'Gd4 H24 C12 O36'
_cell_volume   940.31526326
_cell_formula_units_Z   4
loop_
 _symmetry_equiv_pos_site_id
 _symmetry_equiv_pos_as_xyz
  1  'x, y, z'
loop_
 _atom_site_type_symbol
 _atom_site_label
 _atom_site_symmetry_multiplicity
 _atom_site_fract_x
 _atom_site_fract_y
 _atom_site_fract_z
 _atom_site_occupancy
  Gd  Gd0  1  0.04219000  0.16239000  0.80303000  1.0
  Gd  Gd1  1  0.54219000  0.33761000  0.19697000  1.0
  Gd  Gd2  1  0.95781000  0.83760000  0.19696000  1.0
  Gd  Gd3  1  0.45781000  0.66240000  0.80304000  1.0
  H  H4  1  0.32458000  0.01283000  0.78968000  1.0
  H  H5  1  0.82459000  0.48716000  0.21031000  1.0
  H  H6  1  0.67543000  0.98716000  0.21031000  1.0
  H  H7  1  0.17543000  0.51283000  0.78968000  1.0
  H  H8  1  0.36614000  0.18484000  0.88187000  1.0
  H  H9  1  0.86614000  0.31514000  0.11812000  1.0
  H  H10  1  0.63386000  0.81515000  0.11812000  1.0
  H  H11  1  0.13386000  0.68484000  0.88187000  1.0
  H  H12  1  0.77748000  0.95478000  0.74918000  1.0
  H  H13  1  0.27749000  0.54521000  0.25082000  1.0
  H  H14  1  0.22250000  0.04521000  0.25082000  1.0
  H  H15  1  0.72251000  0.45479000  0.74918000  1.0
  H  H16  1  0.74857000  0.09698000  0.87253000  1.0
  H  H17  1  0.24857000  0.40302000  0.12747000  1.0
  H  H18  1  0.25144000  0.90302000  0.12747000  1.0
  H  H19  1  0.75144000  0.59698000  0.87253000  1.0
  H  H20  1  0.29363000  0.33071000  0.75159000  1.0
  H  H21  1  0.79363000  0.16929000  0.24840000  1.0
  H  H22  1  0.70637000  0.66929000  0.24840000  1.0
  H  H23  1  0.20637000  0.83071000  0.75159000  1.0
  H  H24  1  0.20184000  0.29742000  0.62572000  1.0
  H  H25  1  0.70184000  0.20258000  0.37428000  1.0
  H  H26  1  0.79816000  0.70258000  0.37428000  1.0
  H  H27  1  0.29816000  0.79742000  0.62572000  1.0
  C  C28  1  0.97438000  0.07368000  0.05357000  1.0
  C  C29  1  0.47438000  0.42631000  0.94642000  1.0
  C  C30  1  0.02562000  0.92630000  0.94642000  1.0
  C  C31  1  0.52562000  0.57370000  0.05357000  1.0
  C  C32  1  0.07431000  0.50244000  0.03240000  1.0
  C  C33  1  0.57431000  0.99755000  0.96760000  1.0
  C  C34  1  0.92569000  0.49754000  0.96760000  1.0
  C  C35  1  0.42569000  0.00245000  0.03240000  1.0
  C  C36  1  0.94806000  0.06253000  0.50194000  1.0
  C  C37  1  0.44807000  0.43750000  0.49808000  1.0
  C  C38  1  0.05192000  0.93749000  0.49807000  1.0
  C  C39  1  0.55194000  0.56254000  0.50196000  1.0
  O  O40  1  0.97183000  0.18325000  0.02339000  1.0
  O  O41  1  0.47183000  0.31673000  0.97660000  1.0
  O  O42  1  0.02817000  0.81673000  0.97661000  1.0
  O  O43  1  0.52816000  0.68326000  0.02340000  1.0
  O  O44  1  0.11091000  0.62253000  0.12501000  1.0
  O  O45  1  0.61091000  0.87748000  0.87501000  1.0
  O  O46  1  0.88909000  0.37746000  0.87501000  1.0
  O  O47  1  0.38908000  0.12255000  0.12501000  1.0
  O  O48  1  0.14745000  0.38363000  0.98806000  1.0
  O  O49  1  0.64745000  0.11638000  0.01195000  1.0
  O  O50  1  0.85255000  0.61637000  0.01194000  1.0
  O  O51  1  0.35255000  0.88365000  0.98807000  1.0
  O  O52  1  0.28754000  0.11455000  0.83268000  1.0
  O  O53  1  0.78754000  0.38545000  0.16732000  1.0
  O  O54  1  0.71246000  0.88545000  0.16732000  1.0
  O  O55  1  0.21246000  0.61455000  0.83268000  1.0
  O  O56  1  0.19244000  0.31091000  0.71640000  1.0
  O  O57  1  0.69244000  0.18909000  0.28359000  1.0
  O  O58  1  0.80757000  0.68908000  0.28359000  1.0
  O  O59  1  0.30756000  0.81092000  0.71640000  1.0
  O  O60  1  0.93035000  0.17044000  0.61074000  1.0
  O  O61  1  0.43036000  0.32957000  0.38926000  1.0
  O  O62  1  0.06963000  0.82956000  0.38925000  1.0
  O  O63  1  0.56965000  0.67045000  0.61075000  1.0
  O  O64  1  0.89009000  0.04484000  0.39394000  1.0
  O  O65  1  0.39009000  0.45517000  0.60605000  1.0
  O  O66  1  0.10990000  0.95517000  0.60605000  1.0
  O  O67  1  0.60992000  0.54484000  0.39396000  1.0
  O  O68  1  0.06086000  0.92643000  0.83790000  1.0
  O  O69  1  0.56087000  0.57356000  0.16210000  1.0
  O  O70  1  0.93913000  0.07355000  0.16210000  1.0
  O  O71  1  0.43913000  0.42644000  0.83791000  1.0
  O  O72  1  0.79877000  0.06036000  0.78641000  1.0
  O  O73  1  0.29877000  0.43963000  0.21359000  1.0
  O  O74  1  0.20123000  0.93962000  0.21358000  1.0
  O  O75  1  0.70124000  0.56037000  0.78642000  1.0
