# generated using pymatgen
data_ZnH12C16(NO4)2
_symmetry_space_group_name_H-M   'P 1'
_cell_length_a   6.97957000
_cell_length_b   7.86359000
_cell_length_c   8.19551000
_cell_angle_alpha   110.35200000
_cell_angle_beta   94.28570000
_cell_angle_gamma   98.62080000
_symmetry_Int_Tables_number   1
_chemical_formula_structural   ZnH12C16(NO4)2
_chemical_formula_sum   'Zn1 H12 C16 N2 O8'
_cell_volume   413.03877405
_cell_formula_units_Z   1
loop_
 _symmetry_equiv_pos_site_id
 _symmetry_equiv_pos_as_xyz
  1  'x, y, z'
loop_
 _atom_site_type_symbol
 _atom_site_label
 _atom_site_symmetry_multiplicity
 _atom_site_fract_x
 _atom_site_fract_y
 _atom_site_fract_z
 _atom_site_occupancy
  Zn  Zn0  1  0.07166000  0.91806000  0.45574000  1.0
  H  H1  1  0.67999000  0.60418000  0.28758000  1.0
  H  H2  1  0.87628000  0.39818000  0.38008000  1.0
  H  H3  1  0.37793000  0.95379000  0.15561000  1.0
  H  H4  1  0.20664000  0.17317000  0.05910000  1.0
  H  H5  1  0.22574000  0.43041000  0.00348000  1.0
  H  H6  1  0.43337000  0.61627000  0.09293000  1.0
  H  H7  1  0.94583000  0.64684000  0.99068000  1.0
  H  H8  1  0.79722000  0.30817000  0.88724000  1.0
  H  H9  1  0.33192000  0.41342000  0.57841000  1.0
  H  H10  1  0.49846000  0.74755000  0.69022000  1.0
  H  H11  1  0.91845000  0.93022000  0.02300000  1.0
  H  H12  1  0.70511000  0.98122000  0.92781000  1.0
  C  C13  1  0.62395000  0.45847000  0.26075000  1.0
  C  C14  1  0.72807000  0.34370000  0.31045000  1.0
  C  C15  1  0.64149000  0.15866000  0.26977000  1.0
  C  C16  1  0.44969000  0.09564000  0.18416000  1.0
  C  C17  1  0.35224000  0.21383000  0.13448000  1.0
  C  C18  1  0.33041000  0.51374000  0.12111000  1.0
  C  C19  1  0.22385000  0.61874000  0.27143000  1.0
  C  C20  1  0.75286000  0.02350000  0.30970000  1.0
  C  C21  1  0.81243000  0.58580000  0.89678000  1.0
  C  C22  1  0.72640000  0.40153000  0.84248000  1.0
  C  C23  1  0.55024000  0.33630000  0.72847000  1.0
  C  C24  1  0.46685000  0.45961000  0.66988000  1.0
  C  C25  1  0.55703000  0.64330000  0.72795000  1.0
  C  C26  1  0.81981000  0.89782000  0.90144000  1.0
  C  C27  1  0.93351000  0.95361000  0.76933000  1.0
  C  C28  1  0.44563000  0.13734000  0.67363000  1.0
  N  N29  1  0.44082000  0.39056000  0.17105000  1.0
  N  N30  1  0.72632000  0.70280000  0.84082000  1.0
  O  O31  1  0.12870000  0.73219000  0.23241000  1.0
  O  O32  1  0.23600000  0.59398000  0.41276000  1.0
  O  O33  1  0.92680000  0.09337000  0.39238000  1.0
  O  O34  1  0.67268000  0.85664000  0.25496000  1.0
  O  O35  1  0.92607000  0.82880000  0.61695000  1.0
  O  O36  1  0.02096000  0.11771000  0.82310000  1.0
  O  O37  1  0.32699000  0.08386000  0.53061000  1.0
  O  O38  1  0.48032000  0.04857000  0.76892000  1.0
