# generated using pymatgen
data_CuH10C11S2IN2
_symmetry_space_group_name_H-M   'P 1'
_cell_length_a   8.83939000
_cell_length_b   8.86379000
_cell_length_c   17.12250000
_cell_angle_alpha   87.14280000
_cell_angle_beta   87.13500000
_cell_angle_gamma   80.70510000
_symmetry_Int_Tables_number   1
_chemical_formula_structural   CuH10C11S2IN2
_chemical_formula_sum   'Cu4 H40 C44 S8 I4 N8'
_cell_volume   1321.09891175
_cell_formula_units_Z   4
loop_
 _symmetry_equiv_pos_site_id
 _symmetry_equiv_pos_as_xyz
  1  'x, y, z'
loop_
 _atom_site_type_symbol
 _atom_site_label
 _atom_site_symmetry_multiplicity
 _atom_site_fract_x
 _atom_site_fract_y
 _atom_site_fract_z
 _atom_site_occupancy
  Cu  Cu0  1  0.06912000  0.00357000  0.42878000  1.0
  Cu  Cu1  1  0.99637000  0.93072000  0.07097000  1.0
  Cu  Cu2  1  0.93088000  0.99643000  0.57122000  1.0
  Cu  Cu3  1  0.00363000  0.06927000  0.92903000  1.0
  H  H4  1  0.74979000  0.72574000  0.12295000  1.0
  H  H5  1  0.27366000  0.25114000  0.37724000  1.0
  H  H6  1  0.25021000  0.27426000  0.87705000  1.0
  H  H7  1  0.72634000  0.74887000  0.62277000  1.0
  H  H8  1  0.89005000  0.56116000  0.13235000  1.0
  H  H9  1  0.43868000  0.11126000  0.36780000  1.0
  H  H10  1  0.10995000  0.43885000  0.86765000  1.0
  H  H11  1  0.56132000  0.88874000  0.63220000  1.0
  H  H12  1  0.03926000  0.11884000  0.26502000  1.0
  H  H13  1  0.88138000  0.96000000  0.23491000  1.0
  H  H14  1  0.96073000  0.88117000  0.73498000  1.0
  H  H15  1  0.11863000  0.04000000  0.76509000  1.0
  H  H16  1  0.92498000  0.34814000  0.19313000  1.0
  H  H17  1  0.65200000  0.07513000  0.30698000  1.0
  H  H18  1  0.07502000  0.65187000  0.80687000  1.0
  H  H19  1  0.34800000  0.92487000  0.69303000  1.0
  H  H20  1  0.83190000  0.56698000  0.41626000  1.0
  H  H21  1  0.43228000  0.16890000  0.08396000  1.0
  H  H22  1  0.16810000  0.43303000  0.58374000  1.0
  H  H23  1  0.56771000  0.83109000  0.91605000  1.0
  H  H24  1  0.94967000  0.31920000  0.47945000  1.0
  H  H25  1  0.68018000  0.05039000  0.02065000  1.0
  H  H26  1  0.05033000  0.68081000  0.52055000  1.0
  H  H27  1  0.31983000  0.94961000  0.97936000  1.0
  H  H28  1  0.26141000  0.95389000  0.16714000  1.0
  H  H29  1  0.04551000  0.73886000  0.33277000  1.0
  H  H30  1  0.73858000  0.04611000  0.83286000  1.0
  H  H31  1  0.95449000  0.26114000  0.66722000  1.0
  H  H32  1  0.51591000  0.80304000  0.18830000  1.0
  H  H33  1  0.19631000  0.48481000  0.31175000  1.0
  H  H34  1  0.48409000  0.19696000  0.81170000  1.0
  H  H35  1  0.80369000  0.51519000  0.68825000  1.0
  H  H36  1  0.36809000  0.43689000  0.06694000  1.0
  H  H37  1  0.56357000  0.63158000  0.43327000  1.0
  H  H38  1  0.63192000  0.56310000  0.93306000  1.0
  H  H39  1  0.43643000  0.36841000  0.56673000  1.0
  H  H40  1  0.11989000  0.60257000  0.05214000  1.0
  H  H41  1  0.39803000  0.87947000  0.44782000  1.0
  H  H42  1  0.88011000  0.39742000  0.94786000  1.0
  H  H43  1  0.60197000  0.12053000  0.55218000  1.0
  C  C44  1  0.77593000  0.61415000  0.15427000  1.0
  C  C45  1  0.38555000  0.22508000  0.34589000  1.0
  C  C46  1  0.22407000  0.38585000  0.84572000  1.0
  C  C47  1  0.61445000  0.77492000  0.65411000  1.0
  C  C48  1  0.98943000  0.21914000  0.29720000  1.0
  C  C49  1  0.78087000  0.01021000  0.20282000  1.0
  C  C50  1  0.01057000  0.78087000  0.70280000  1.0
  C  C51  1  0.21914000  0.98979000  0.79718000  1.0
  C  C52  1  0.92416000  0.35097000  0.25662000  1.0
  C  C53  1  0.64899000  0.07591000  0.24349000  1.0
  C  C54  1  0.07583000  0.64904000  0.74338000  1.0
  C  C55  1  0.35101000  0.92408000  0.75652000  1.0
  C  C56  1  0.86337000  0.48021000  0.29869000  1.0
  C  C57  1  0.51949000  0.13715000  0.20148000  1.0
  C  C58  1  0.13662000  0.51980000  0.70131000  1.0
  C  C59  1  0.48052000  0.86284000  0.79853000  1.0
  C  C60  1  0.87366000  0.46873000  0.38071000  1.0
  C  C61  1  0.53074000  0.12684000  0.11947000  1.0
  C  C62  1  0.12634000  0.53129000  0.61929000  1.0
  C  C63  1  0.46926000  0.87315000  0.88054000  1.0
  C  C64  1  0.94004000  0.33189000  0.41613000  1.0
  C  C65  1  0.66763000  0.05999000  0.08397000  1.0
  C  C66  1  0.05996000  0.66812000  0.58387000  1.0
  C  C67  1  0.33238000  0.94001000  0.91603000  1.0
  C  C68  1  0.28935000  0.83801000  0.14611000  1.0
  C  C69  1  0.16163000  0.71082000  0.35387000  1.0
  C  C70  1  0.71064000  0.16198000  0.85389000  1.0
  C  C71  1  0.83837000  0.28919000  0.64612000  1.0
  C  C72  1  0.43378000  0.75312000  0.15673000  1.0
  C  C73  1  0.24652000  0.56664000  0.34330000  1.0
  C  C74  1  0.56622000  0.24688000  0.84327000  1.0
  C  C75  1  0.75347000  0.43336000  0.65669000  1.0
  C  C76  1  0.46910000  0.60643000  0.12657000  1.0
  C  C77  1  0.39353000  0.53116000  0.37353000  1.0
  C  C78  1  0.53090000  0.39357000  0.87342000  1.0
  C  C79  1  0.60647000  0.46884000  0.62647000  1.0
  C  C80  1  0.35057000  0.55013000  0.09103000  1.0
  C  C81  1  0.45009000  0.64928000  0.40910000  1.0
  C  C82  1  0.64944000  0.44986000  0.90897000  1.0
  C  C83  1  0.54991000  0.35072000  0.59090000  1.0
  C  C84  1  0.20997000  0.64259000  0.08300000  1.0
  C  C85  1  0.35767000  0.78970000  0.41702000  1.0
  C  C86  1  0.79004000  0.35740000  0.91700000  1.0
  C  C87  1  0.64233000  0.21030000  0.58298000  1.0
  S  S88  1  0.77868000  0.65469000  0.25678000  1.0
  S  S89  1  0.34481000  0.22234000  0.24339000  1.0
  S  S90  1  0.22131000  0.34532000  0.74322000  1.0
  S  S91  1  0.65519000  0.77765000  0.75662000  1.0
  S  S92  1  0.64729000  0.48834000  0.12773000  1.0
  S  S93  1  0.51178000  0.35333000  0.37239000  1.0
  S  S94  1  0.35271000  0.51166000  0.87227000  1.0
  S  S95  1  0.48823000  0.64667000  0.62761000  1.0
  I  I96  1  0.20809000  0.09457000  0.55301000  1.0
  I  I97  1  0.90534000  0.79257000  0.94673000  1.0
  I  I98  1  0.79191000  0.90543000  0.44699000  1.0
  I  I99  1  0.09466000  0.20742000  0.05328000  1.0
  N  N100  1  0.99753000  0.20638000  0.37576000  1.0
  N  N101  1  0.79338000  0.00208000  0.12426000  1.0
  N  N102  1  0.00246000  0.79363000  0.62423000  1.0
  N  N103  1  0.20662000  0.99793000  0.87574000  1.0
  N  N104  1  0.17812000  0.78758000  0.10784000  1.0
  N  N105  1  0.21237000  0.82174000  0.39209000  1.0
  N  N106  1  0.82187000  0.21241000  0.89216000  1.0
  N  N107  1  0.78763000  0.17826000  0.60791000  1.0
