# generated using pymatgen
data_Ag2H10C7(N2O)4
_symmetry_space_group_name_H-M   'P 1'
_cell_length_a   13.99720000
_cell_length_b   13.99720000
_cell_length_c   13.99710000
_cell_angle_alpha   104.75700000
_cell_angle_beta   104.75700000
_cell_angle_gamma   104.75700000
_symmetry_Int_Tables_number   1
_chemical_formula_structural   Ag2H10C7(N2O)4
_chemical_formula_sum   'Ag12 H60 C42 N48 O24'
_cell_volume   2409.97889027
_cell_formula_units_Z   6
loop_
 _symmetry_equiv_pos_site_id
 _symmetry_equiv_pos_as_xyz
  1  'x, y, z'
loop_
 _atom_site_type_symbol
 _atom_site_label
 _atom_site_symmetry_multiplicity
 _atom_site_fract_x
 _atom_site_fract_y
 _atom_site_fract_z
 _atom_site_occupancy
  Ag  Ag0  1  0.21105000  0.21104000  0.47291000  1.0
  Ag  Ag1  1  0.47291000  0.21105000  0.21104000  1.0
  Ag  Ag2  1  0.21104000  0.47291000  0.21105000  1.0
  Ag  Ag3  1  0.52709000  0.78896000  0.78895000  1.0
  Ag  Ag4  1  0.78896000  0.78895000  0.52709000  1.0
  Ag  Ag5  1  0.78895000  0.52709000  0.78896000  1.0
  Ag  Ag6  1  0.00000000  0.72554000  0.27446000  1.0
  Ag  Ag7  1  0.27446000  0.00000000  0.72554000  1.0
  Ag  Ag8  1  0.72554000  0.27446000  0.00000000  1.0
  Ag  Ag9  1  0.00000000  0.27445000  0.72555000  1.0
  Ag  Ag10  1  0.72555000  0.00000000  0.27445000  1.0
  Ag  Ag11  1  0.27445000  0.72555000  0.00000000  1.0
  H  H12  1  0.46842000  0.36370000  0.70596000  1.0
  H  H13  1  0.70596000  0.46842000  0.36370000  1.0
  H  H14  1  0.36370000  0.70596000  0.46842000  1.0
  H  H15  1  0.29405000  0.63630000  0.53158000  1.0
  H  H16  1  0.63630000  0.53158000  0.29405000  1.0
  H  H17  1  0.53158000  0.29405000  0.63630000  1.0
  H  H18  1  0.53158000  0.63630000  0.29404000  1.0
  H  H19  1  0.29404000  0.53158000  0.63630000  1.0
  H  H20  1  0.63630000  0.29404000  0.53158000  1.0
  H  H21  1  0.70595000  0.36370000  0.46842000  1.0
  H  H22  1  0.36369000  0.46842000  0.70595000  1.0
  H  H23  1  0.46842000  0.70595000  0.36370000  1.0
  H  H24  1  0.17998000  0.89238000  0.42502000  1.0
  H  H25  1  0.42502000  0.17998000  0.89238000  1.0
  H  H26  1  0.89238000  0.42502000  0.17998000  1.0
  H  H27  1  0.57498000  0.10762000  0.82002000  1.0
  H  H28  1  0.10762000  0.82002000  0.57498000  1.0
  H  H29  1  0.82002000  0.57498000  0.10763000  1.0
  H  H30  1  0.82003000  0.10762000  0.57498000  1.0
  H  H31  1  0.57498000  0.82003000  0.10762000  1.0
  H  H32  1  0.10762000  0.57498000  0.82003000  1.0
  H  H33  1  0.42502000  0.89238000  0.17997000  1.0
  H  H34  1  0.89238000  0.17997000  0.42502000  1.0
  H  H35  1  0.17997000  0.42502000  0.89238000  1.0
  H  H36  1  0.23842000  0.02880000  0.49308000  1.0
  H  H37  1  0.49308000  0.23842000  0.02880000  1.0
  H  H38  1  0.02880000  0.49308000  0.23842000  1.0
  H  H39  1  0.50692000  0.97120000  0.76158000  1.0
  H  H40  1  0.97120000  0.76158000  0.50692000  1.0
  H  H41  1  0.76158000  0.50692000  0.97120000  1.0
  H  H42  1  0.76158000  0.97120000  0.50692000  1.0
  H  H43  1  0.50692000  0.76158000  0.97120000  1.0
  H  H44  1  0.97120000  0.50691000  0.76158000  1.0
  H  H45  1  0.49308000  0.02880000  0.23842000  1.0
  H  H46  1  0.02880000  0.23842000  0.49308000  1.0
  H  H47  1  0.23842000  0.49309000  0.02880000  1.0
  H  H48  1  0.18826000  0.39763000  0.47832000  1.0
  H  H49  1  0.47832000  0.18826000  0.39763000  1.0
  H  H50  1  0.39762000  0.47832000  0.18826000  1.0
  H  H51  1  0.52168000  0.60238000  0.81173000  1.0
  H  H52  1  0.60238000  0.81173000  0.52168000  1.0
  H  H53  1  0.81173000  0.52168000  0.60237000  1.0
  H  H54  1  0.81174000  0.60237000  0.52169000  1.0
  H  H55  1  0.52169000  0.81174000  0.60237000  1.0
  H  H56  1  0.60237000  0.52169000  0.81174000  1.0
  H  H57  1  0.47832000  0.39763000  0.18826000  1.0
  H  H58  1  0.39763000  0.18826000  0.47831000  1.0
  H  H59  1  0.18826000  0.47831000  0.39763000  1.0
  H  H60  1  0.82412000  0.74490000  0.24823000  1.0
  H  H61  1  0.24823000  0.82412000  0.74490000  1.0
  H  H62  1  0.74490000  0.24823000  0.82412000  1.0
  H  H63  1  0.75177000  0.25510000  0.17588000  1.0
  H  H64  1  0.25510000  0.17588000  0.75177000  1.0
  H  H65  1  0.17588000  0.75177000  0.25510000  1.0
  H  H66  1  0.17588000  0.25510000  0.75177000  1.0
  H  H67  1  0.75177000  0.17588000  0.25510000  1.0
  H  H68  1  0.25509000  0.75177000  0.17588000  1.0
  H  H69  1  0.24823000  0.74490000  0.82412000  1.0
  H  H70  1  0.74490000  0.82412000  0.24823000  1.0
  H  H71  1  0.82412000  0.24823000  0.74491000  1.0
  C  C72  1  0.08143000  0.97651000  0.40522000  1.0
  C  C73  1  0.40522000  0.08143000  0.97651000  1.0
  C  C74  1  0.97652000  0.40523000  0.08143000  1.0
  C  C75  1  0.59477000  0.02349000  0.91857000  1.0
  C  C76  1  0.02349000  0.91857000  0.59478000  1.0
  C  C77  1  0.91857000  0.59477000  0.02349000  1.0
  C  C78  1  0.91857000  0.02348000  0.59478000  1.0
  C  C79  1  0.59478000  0.91857000  0.02348000  1.0
  C  C80  1  0.02348000  0.59478000  0.91858000  1.0
  C  C81  1  0.40522000  0.97652000  0.08142000  1.0
  C  C82  1  0.97651000  0.08142000  0.40522000  1.0
  C  C83  1  0.08142000  0.40522000  0.97652000  1.0
  C  C84  1  0.90270000  0.90270000  0.31767000  1.0
  C  C85  1  0.31767000  0.90270000  0.90270000  1.0
  C  C86  1  0.90270000  0.31767000  0.90271000  1.0
  C  C87  1  0.68233000  0.09730000  0.09730000  1.0
  C  C88  1  0.09730000  0.09730000  0.68233000  1.0
  C  C89  1  0.09730000  0.68233000  0.09730000  1.0
  C  C90  1  0.40886000  0.19795000  0.67348000  1.0
  C  C91  1  0.67348000  0.40886000  0.19795000  1.0
  C  C92  1  0.19795000  0.67348000  0.40886000  1.0
  C  C93  1  0.32653000  0.80205000  0.59114000  1.0
  C  C94  1  0.80205000  0.59114000  0.32653000  1.0
  C  C95  1  0.59114000  0.32653000  0.80205000  1.0
  C  C96  1  0.59114000  0.80205000  0.32652000  1.0
  C  C97  1  0.32652000  0.59114000  0.80205000  1.0
  C  C98  1  0.80205000  0.32652000  0.59114000  1.0
  C  C99  1  0.67348000  0.19795000  0.40886000  1.0
  C  C100  1  0.19795000  0.40886000  0.67348000  1.0
  C  C101  1  0.40886000  0.67348000  0.19794000  1.0
  C  C102  1  0.50000000  0.29890000  0.70110000  1.0
  C  C103  1  0.70111000  0.50000000  0.29890000  1.0
  C  C104  1  0.29890000  0.70110000  0.50000000  1.0
  C  C105  1  0.50000000  0.70110000  0.29889000  1.0
  C  C106  1  0.29889000  0.50000000  0.70110000  1.0
  C  C107  1  0.70110000  0.29889000  0.50000000  1.0
  C  C108  1  0.28436000  0.38921000  0.38921000  1.0
  C  C109  1  0.38921000  0.28436000  0.38921000  1.0
  C  C110  1  0.38921000  0.38921000  0.28436000  1.0
  C  C111  1  0.61079000  0.61079000  0.71564000  1.0
  C  C112  1  0.61079000  0.71564000  0.61079000  1.0
  C  C113  1  0.71564000  0.61079000  0.61079000  1.0
  N  N114  1  0.17537000  0.96618000  0.43775000  1.0
  N  N115  1  0.43775000  0.17537000  0.96618000  1.0
  N  N116  1  0.96618000  0.43775000  0.17537000  1.0
  N  N117  1  0.56226000  0.03382000  0.82463000  1.0
  N  N118  1  0.03382000  0.82463000  0.56226000  1.0
  N  N119  1  0.82463000  0.56225000  0.03382000  1.0
  N  N120  1  0.82463000  0.03382000  0.56225000  1.0
  N  N121  1  0.56225000  0.82463000  0.03382000  1.0
  N  N122  1  0.03381000  0.56225000  0.82462000  1.0
  N  N123  1  0.43775000  0.96619000  0.17538000  1.0
  N  N124  1  0.96618000  0.17538000  0.43775000  1.0
  N  N125  1  0.17538000  0.43775000  0.96618000  1.0
  N  N126  1  0.99693000  0.88916000  0.34621000  1.0
  N  N127  1  0.34621000  0.99693000  0.88916000  1.0
  N  N128  1  0.88916000  0.34621000  0.99693000  1.0
  N  N129  1  0.65379000  0.11084000  0.00307000  1.0
  N  N130  1  0.11084000  0.00307000  0.65379000  1.0
  N  N131  1  0.00307000  0.65379000  0.11084000  1.0
  N  N132  1  0.00308000  0.11084000  0.65379000  1.0
  N  N133  1  0.65379000  0.00308000  0.11084000  1.0
  N  N134  1  0.11084000  0.65379000  0.00308000  1.0
  N  N135  1  0.34621000  0.88916000  0.99693000  1.0
  N  N136  1  0.88916000  0.99692000  0.34621000  1.0
  N  N137  1  0.99692000  0.34621000  0.88916000  1.0
  N  N138  1  0.07481000  0.07481000  0.43311000  1.0
  N  N139  1  0.43311000  0.07481000  0.07481000  1.0
  N  N140  1  0.07481000  0.43311000  0.07481000  1.0
  N  N141  1  0.56689000  0.92519000  0.92519000  1.0
  N  N142  1  0.92519000  0.92519000  0.56689000  1.0
  N  N143  1  0.92518000  0.56689000  0.92519000  1.0
  N  N144  1  0.31802000  0.31802000  0.42599000  1.0
  N  N145  1  0.42599000  0.31802000  0.31802000  1.0
  N  N146  1  0.31802000  0.42599000  0.31802000  1.0
  N  N147  1  0.57401000  0.68198000  0.68198000  1.0
  N  N148  1  0.68198000  0.68198000  0.57401000  1.0
  N  N149  1  0.68198000  0.57401000  0.68198000  1.0
  N  N150  1  0.21474000  0.42350000  0.42350000  1.0
  N  N151  1  0.42350000  0.21474000  0.42350000  1.0
  N  N152  1  0.42350000  0.42350000  0.21474000  1.0
  N  N153  1  0.57650000  0.57650000  0.78526000  1.0
  N  N154  1  0.57650000  0.78526000  0.57650000  1.0
  N  N155  1  0.78526000  0.57650000  0.57650000  1.0
  N  N156  1  0.81795000  0.81794000  0.25799000  1.0
  N  N157  1  0.25799000  0.81795000  0.81794000  1.0
  N  N158  1  0.81794000  0.25799000  0.81795000  1.0
  N  N159  1  0.74201000  0.18206000  0.18205000  1.0
  N  N160  1  0.18206000  0.18205000  0.74201000  1.0
  N  N161  1  0.18205000  0.74201000  0.18206000  1.0
  O  O162  1  0.35805000  0.14544000  0.57654000  1.0
  O  O163  1  0.57654000  0.35805000  0.14544000  1.0
  O  O164  1  0.14544000  0.57654000  0.35805000  1.0
  O  O165  1  0.42346000  0.85456000  0.64195000  1.0
  O  O166  1  0.85456000  0.64195000  0.42346000  1.0
  O  O167  1  0.64195000  0.42346000  0.85456000  1.0
  O  O168  1  0.64195000  0.85456000  0.42346000  1.0
  O  O169  1  0.42346000  0.64195000  0.85456000  1.0
  O  O170  1  0.85456000  0.42346000  0.64195000  1.0
  O  O171  1  0.57654000  0.14544000  0.35805000  1.0
  O  O172  1  0.14544000  0.35805000  0.57654000  1.0
  O  O173  1  0.35805000  0.57654000  0.14543000  1.0
  O  O174  1  0.38633000  0.17506000  0.74922000  1.0
  O  O175  1  0.74923000  0.38633000  0.17506000  1.0
  O  O176  1  0.17506000  0.74923000  0.38633000  1.0
  O  O177  1  0.25078000  0.82494000  0.61367000  1.0
  O  O178  1  0.82494000  0.61367000  0.25078000  1.0
  O  O179  1  0.61367000  0.25078000  0.82494000  1.0
  O  O180  1  0.61367000  0.82494000  0.25077000  1.0
  O  O181  1  0.25077000  0.61367000  0.82494000  1.0
  O  O182  1  0.82493000  0.25077000  0.61367000  1.0
  O  O183  1  0.74923000  0.17506000  0.38633000  1.0
  O  O184  1  0.17506000  0.38633000  0.74923000  1.0
  O  O185  1  0.38633000  0.74923000  0.17506000  1.0
