# generated using pymatgen
data_ZnH24C18NO4
_symmetry_space_group_name_H-M   'P 1'
_cell_length_a   9.51351000
_cell_length_b   10.82670000
_cell_length_c   16.07130000
_cell_angle_alpha   90.55520000
_cell_angle_beta   89.95790000
_cell_angle_gamma   89.56800000
_symmetry_Int_Tables_number   1
_chemical_formula_structural   ZnH24C18NO4
_chemical_formula_sum   'Zn2 H48 C36 N2 O8'
_cell_volume   1655.21728811
_cell_formula_units_Z   2
loop_
 _symmetry_equiv_pos_site_id
 _symmetry_equiv_pos_as_xyz
  1  'x, y, z'
loop_
 _atom_site_type_symbol
 _atom_site_label
 _atom_site_symmetry_multiplicity
 _atom_site_fract_x
 _atom_site_fract_y
 _atom_site_fract_z
 _atom_site_occupancy
  Zn  Zn0  1  0.35310000  0.49971000  0.50240000  1.0
  Zn  Zn1  1  0.64563000  0.50085000  0.50125000  1.0
  H  H2  1  0.46567000  0.69064000  0.07424000  1.0
  H  H3  1  0.12448000  0.68708000  0.54133000  1.0
  H  H4  1  0.87525000  0.36641000  0.59433000  1.0
  H  H5  1  0.12490000  0.36105000  0.59256000  1.0
  H  H6  1  0.87652000  0.45447000  0.37663000  1.0
  H  H7  1  0.12605000  0.45767000  0.37605000  1.0
  H  H8  1  0.87366000  0.61467000  0.39725000  1.0
  H  H9  1  0.12324000  0.61714000  0.40004000  1.0
  H  H10  1  0.87358000  0.31009000  0.49070000  1.0
  H  H11  1  0.12298000  0.30919000  0.48796000  1.0
  H  H12  1  0.46715000  0.68767000  0.92861000  1.0
  H  H13  1  0.70470000  0.58628000  0.07442000  1.0
  H  H14  1  0.70668000  0.58153000  0.92867000  1.0
  H  H15  1  0.71785000  0.41879000  0.92972000  1.0
  H  H16  1  0.31281000  0.59827000  0.92840000  1.0
  H  H17  1  0.71805000  0.42367000  0.07552000  1.0
  H  H18  1  0.31158000  0.60082000  0.07411000  1.0
  H  H19  1  0.32972000  0.36416000  0.92912000  1.0
  H  H20  1  0.49581000  0.29072000  0.92931000  1.0
  H  H21  1  0.32951000  0.36686000  0.07482000  1.0
  H  H22  1  0.49599000  0.29385000  0.07498000  1.0
  H  H23  1  0.27640000  0.91065000  0.53416000  1.0
  H  H24  1  0.27525000  0.12363000  0.50463000  1.0
  H  H25  1  0.69744000  0.87497000  0.44033000  1.0
  H  H26  1  0.30517000  0.88893000  0.42671000  1.0
  H  H27  1  0.55471000  0.90005000  0.37202000  1.0
  H  H28  1  0.35023000  0.09882000  0.40587000  1.0
  H  H29  1  0.60713000  0.11113000  0.38275000  1.0
  H  H30  1  0.26883000  0.21842000  0.78656000  1.0
  H  H31  1  0.20147000  0.06716000  0.77232000  1.0
  H  H32  1  0.30595000  0.10234000  0.86095000  1.0
  H  H33  1  0.45101000  0.98557000  0.75644000  1.0
  H  H34  1  0.51448000  0.13745000  0.76956000  1.0
  H  H35  1  0.72212000  0.08659000  0.46618000  1.0
  H  H36  1  0.38340000  0.20564000  0.64381000  1.0
  H  H37  1  0.31385000  0.05650000  0.63102000  1.0
  H  H38  1  0.93087000  0.18857000  0.69811000  1.0
  H  H39  1  0.80059000  0.21390000  0.77546000  1.0
  H  H40  1  0.92215000  0.08901000  0.78492000  1.0
  H  H41  1  0.68839000  0.01050000  0.73684000  1.0
  H  H42  1  0.81698000  0.98518000  0.66023000  1.0
  H  H43  1  0.73962000  0.15578000  0.57772000  1.0
  H  H44  1  0.63977000  0.22180000  0.65758000  1.0
  H  H45  1  0.48684000  0.88448000  0.63637000  1.0
  H  H46  1  0.65601000  0.89738000  0.59346000  1.0
  H  H47  1  0.87251000  0.58286000  0.62234000  1.0
  H  H48  1  0.12284000  0.57924000  0.62349000  1.0
  H  H49  1  0.87424000  0.68931000  0.53946000  1.0
  C  C50  1  0.49447000  0.73880000  0.50248000  1.0
  C  C51  1  0.61634000  0.06528000  0.44322000  1.0
  C  C52  1  0.54675000  0.92845000  0.58620000  1.0
  C  C53  1  0.49414000  0.87947000  0.50128000  1.0
  C  C54  1  0.50425000  0.12018000  0.50276000  1.0
  C  C55  1  0.50057000  0.49570000  0.66460000  1.0
  C  C56  1  0.53335000  0.07195000  0.59444000  1.0
  C  C57  1  0.91732000  0.60080000  0.56069000  1.0
  C  C58  1  0.08010000  0.59906000  0.56162000  1.0
  C  C59  1  0.91811000  0.38107000  0.53181000  1.0
  C  C60  1  0.08047000  0.37949000  0.53088000  1.0
  C  C61  1  0.43693000  0.37292000  0.05010000  1.0
  C  C62  1  0.91857000  0.52653000  0.41786000  1.0
  C  C63  1  0.08088000  0.52737000  0.41835000  1.0
  C  C64  1  0.50631000  0.26124000  0.50059000  1.0
  C  C65  1  0.49755000  0.49888000  0.33929000  1.0
  C  C66  1  0.42011000  0.60321000  0.95339000  1.0
  C  C67  1  0.65746000  0.49832000  0.95388000  1.0
  C  C68  1  0.65688000  0.50116000  0.05016000  1.0
  C  C69  1  0.41930000  0.60511000  0.04964000  1.0
  C  C70  1  0.49921000  0.49727000  0.24928000  1.0
  C  C71  1  0.50515000  0.49025000  0.92035000  1.0
  C  C72  1  0.43709000  0.37097000  0.95382000  1.0
  C  C73  1  0.50430000  0.49360000  0.08336000  1.0
  C  C74  1  0.40777000  0.10697000  0.65196000  1.0
  C  C75  1  0.42561000  0.08359000  0.74521000  1.0
  C  C76  1  0.29323000  0.11962000  0.79403000  1.0
  C  C77  1  0.66935000  0.13207000  0.62939000  1.0
  C  C78  1  0.75656000  0.05843000  0.69256000  1.0
  C  C79  1  0.85814000  0.14162000  0.74049000  1.0
  C  C80  1  0.50222000  0.49562000  0.17364000  1.0
  C  C81  1  0.50422000  0.48907000  0.83008000  1.0
  C  C82  1  0.50227000  0.49057000  0.75446000  1.0
  C  C83  1  0.34811000  0.93332000  0.48282000  1.0
  C  C84  1  0.59683000  0.92436000  0.43377000  1.0
  C  C85  1  0.35983000  0.07403000  0.47195000  1.0
  N  N86  1  0.86454000  0.50301000  0.50315000  1.0
  N  N87  1  0.13403000  0.50142000  0.50363000  1.0
  O  O88  1  0.38046000  0.68349000  0.48472000  1.0
  O  O89  1  0.60992000  0.68569000  0.52127000  1.0
  O  O90  1  0.38432000  0.52525000  0.63064000  1.0
  O  O91  1  0.61604000  0.47014000  0.62761000  1.0
  O  O92  1  0.39297000  0.31764000  0.52061000  1.0
  O  O93  1  0.61967000  0.31435000  0.47953000  1.0
  O  O94  1  0.38310000  0.46877000  0.37456000  1.0
  O  O95  1  0.61131000  0.53041000  0.37517000  1.0
