# generated using pymatgen
data_CuH10C10(N5O3)2
_symmetry_space_group_name_H-M   'P 1'
_cell_length_a   8.10384000
_cell_length_b   8.10384000
_cell_length_c   12.00710000
_cell_angle_alpha   89.99980000
_cell_angle_beta   89.99990000
_cell_angle_gamma   105.43800000
_symmetry_Int_Tables_number   1
_chemical_formula_structural   CuH10C10(N5O3)2
_chemical_formula_sum   'Cu2 H20 C20 N20 O12'
_cell_volume   760.08194270
_cell_formula_units_Z   2
loop_
 _symmetry_equiv_pos_site_id
 _symmetry_equiv_pos_as_xyz
  1  'x, y, z'
loop_
 _atom_site_type_symbol
 _atom_site_label
 _atom_site_symmetry_multiplicity
 _atom_site_fract_x
 _atom_site_fract_y
 _atom_site_fract_z
 _atom_site_occupancy
  Cu  Cu0  1  0.76021000  0.76021000  0.36317000  1.0
  Cu  Cu1  1  0.23979000  0.23979000  0.86317000  1.0
  H  H2  1  0.81137000  0.61452000  0.81278000  1.0
  H  H3  1  0.18863000  0.38548000  0.31277000  1.0
  H  H4  1  0.38548000  0.18863000  0.31277000  1.0
  H  H5  1  0.61452000  0.81137000  0.81278000  1.0
  H  H6  1  0.37071000  0.73415000  0.06683000  1.0
  H  H7  1  0.62929000  0.26585000  0.56683000  1.0
  H  H8  1  0.26585000  0.62929000  0.56683000  1.0
  H  H9  1  0.73415000  0.37071000  0.06683000  1.0
  H  H10  1  0.20680000  0.76513000  0.97831000  1.0
  H  H11  1  0.79320000  0.23488000  0.47831000  1.0
  H  H12  1  0.23487000  0.79320000  0.47831000  1.0
  H  H13  1  0.76513000  0.20680000  0.97831000  1.0
  H  H14  1  0.92363000  0.80232000  0.54233000  1.0
  H  H15  1  0.07636000  0.19768000  0.04233000  1.0
  H  H16  1  0.19768000  0.07637000  0.04233000  1.0
  H  H17  1  0.80232000  0.92363000  0.54233000  1.0
  H  H18  1  0.58364000  0.46308000  0.26007000  1.0
  H  H19  1  0.41636000  0.53692000  0.76007000  1.0
  H  H20  1  0.53692000  0.41636000  0.76007000  1.0
  H  H21  1  0.46308000  0.58364000  0.26007000  1.0
  C  C22  1  0.86954000  0.75958000  0.06867000  1.0
  C  C23  1  0.13047000  0.24042000  0.56867000  1.0
  C  C24  1  0.24042000  0.13047000  0.56867000  1.0
  C  C25  1  0.75959000  0.86954000  0.06867000  1.0
  C  C26  1  0.79529000  0.68705000  0.88680000  1.0
  C  C27  1  0.20470000  0.31295000  0.38679000  1.0
  C  C28  1  0.31296000  0.20471000  0.38679000  1.0
  C  C29  1  0.68705000  0.79530000  0.88680000  1.0
  C  C30  1  0.23376000  0.68956000  0.04798000  1.0
  C  C31  1  0.76624000  0.31044000  0.54798000  1.0
  C  C32  1  0.31044000  0.76624000  0.54798000  1.0
  C  C33  1  0.68956000  0.23376000  0.04798000  1.0
  C  C34  1  0.18671000  0.49850000  0.01882000  1.0
  C  C35  1  0.81328000  0.50150000  0.51883000  1.0
  C  C36  1  0.50150000  0.81328000  0.51883000  1.0
  C  C37  1  0.49850000  0.18672000  0.01882000  1.0
  C  C38  1  0.98435000  0.74252000  0.15996000  1.0
  C  C39  1  0.01565000  0.25747000  0.65996000  1.0
  C  C40  1  0.25747000  0.01564000  0.65996000  1.0
  C  C41  1  0.74252000  0.98435000  0.15996000  1.0
  N  N42  1  0.88458000  0.66925000  0.97744000  1.0
  N  N43  1  0.11542000  0.33075000  0.47744000  1.0
  N  N44  1  0.33075000  0.11542000  0.47744000  1.0
  N  N45  1  0.66925000  0.88458000  0.97744000  1.0
  N  N46  1  0.95978000  0.74588000  0.27017000  1.0
  N  N47  1  0.04023000  0.25413000  0.77017000  1.0
  N  N48  1  0.25413000  0.04023000  0.77017000  1.0
  N  N49  1  0.74588000  0.95978000  0.27017000  1.0
  N  N50  1  0.10099000  0.72454000  0.32099000  1.0
  N  N51  1  0.89901000  0.27546000  0.82099000  1.0
  N  N52  1  0.27546000  0.89901000  0.82099000  1.0
  N  N53  1  0.72454000  0.10099000  0.32099000  1.0
  N  N54  1  0.21168000  0.70778000  0.24683000  1.0
  N  N55  1  0.78832000  0.29221000  0.74683000  1.0
  N  N56  1  0.29221000  0.78831000  0.74683000  1.0
  N  N57  1  0.70779000  0.21169000  0.24683000  1.0
  N  N58  1  0.14261000  0.71908000  0.14616000  1.0
  N  N59  1  0.85739000  0.28092000  0.64616000  1.0
  N  N60  1  0.28092000  0.85739000  0.64616000  1.0
  N  N61  1  0.71908000  0.14261000  0.14616000  1.0
  O  O62  1  0.25608000  0.46950000  0.92750000  1.0
  O  O63  1  0.74393000  0.53050000  0.42751000  1.0
  O  O64  1  0.53050000  0.74392000  0.42751000  1.0
  O  O65  1  0.46950000  0.25608000  0.92750000  1.0
  O  O66  1  0.09250000  0.39351000  0.08373000  1.0
  O  O67  1  0.90749000  0.60649000  0.58374000  1.0
  O  O68  1  0.60649000  0.90749000  0.58374000  1.0
  O  O69  1  0.39351000  0.09251000  0.08374000  1.0
  O  O70  1  0.91163000  0.91163000  0.50787000  1.0
  O  O71  1  0.08838000  0.08838000  0.00787000  1.0
  O  O72  1  0.54080000  0.54080000  0.21277000  1.0
  O  O73  1  0.45920000  0.45920000  0.71277000  1.0
