# generated using pymatgen
data_ZnH5C8N3O2
_symmetry_space_group_name_H-M   'P 1'
_cell_length_a   13.25820000
_cell_length_b   13.37300000
_cell_length_c   27.56830000
_cell_angle_alpha   90.00010000
_cell_angle_beta   90.00010000
_cell_angle_gamma   87.45730000
_symmetry_Int_Tables_number   1
_chemical_formula_structural   ZnH5C8N3O2
_chemical_formula_sum   'Zn16 H80 C128 N48 O32'
_cell_volume   4883.09974716
_cell_formula_units_Z   16
loop_
 _symmetry_equiv_pos_site_id
 _symmetry_equiv_pos_as_xyz
  1  'x, y, z'
loop_
 _atom_site_type_symbol
 _atom_site_label
 _atom_site_symmetry_multiplicity
 _atom_site_fract_x
 _atom_site_fract_y
 _atom_site_fract_z
 _atom_site_occupancy
  Zn  Zn0  1  0.18413000  0.82209000  0.18899000  1.0
  Zn  Zn1  1  0.31587000  0.67792000  0.68899000  1.0
  Zn  Zn2  1  0.81587000  0.17791000  0.81101000  1.0
  Zn  Zn3  1  0.68413000  0.32209000  0.31101000  1.0
  Zn  Zn4  1  0.75305000  0.71334000  0.20010000  1.0
  Zn  Zn5  1  0.74695000  0.78666000  0.70010000  1.0
  Zn  Zn6  1  0.24695000  0.28665000  0.79990000  1.0
  Zn  Zn7  1  0.25306000  0.21334000  0.29990000  1.0
  Zn  Zn8  1  0.78552000  0.87847000  0.30926000  1.0
  Zn  Zn9  1  0.71448000  0.62153000  0.80926000  1.0
  Zn  Zn10  1  0.21448000  0.12153000  0.69074000  1.0
  Zn  Zn11  1  0.28552000  0.37847000  0.19074000  1.0
  Zn  Zn12  1  0.84617000  0.27254000  0.20164000  1.0
  Zn  Zn13  1  0.65383000  0.22746000  0.70164000  1.0
  Zn  Zn14  1  0.15383000  0.72746000  0.79836000  1.0
  Zn  Zn15  1  0.34617000  0.77254000  0.29836000  1.0
  H  H16  1  0.97366000  0.74213000  0.15944000  1.0
  H  H17  1  0.52634000  0.75788000  0.65944000  1.0
  H  H18  1  0.02634000  0.25787000  0.84056000  1.0
  H  H19  1  0.47366000  0.24213000  0.34056000  1.0
  H  H20  1  0.03281000  0.88624000  0.29153000  1.0
  H  H21  1  0.46719000  0.61376000  0.79153000  1.0
  H  H22  1  0.96719000  0.11376000  0.70847000  1.0
  H  H23  1  0.53281000  0.38624000  0.20847000  1.0
  H  H24  1  0.50856000  0.71603000  0.21040000  1.0
  H  H25  1  0.99144000  0.78397000  0.71040000  1.0
  H  H26  1  0.49144000  0.28396000  0.78960000  1.0
  H  H27  1  0.00856000  0.21604000  0.28960000  1.0
  H  H28  1  0.55272000  0.86070000  0.34407000  1.0
  H  H29  1  0.94727000  0.63929000  0.84407000  1.0
  H  H30  1  0.44727000  0.13930000  0.65593000  1.0
  H  H31  1  0.05273000  0.36070000  0.15593000  1.0
  H  H32  1  0.68754000  0.57014000  0.29683000  1.0
  H  H33  1  0.81246000  0.92986000  0.79683000  1.0
  H  H34  1  0.31246000  0.42986000  0.70317000  1.0
  H  H35  1  0.18754000  0.07014000  0.20317000  1.0
  H  H36  1  0.82830000  0.49552000  0.16388000  1.0
  H  H37  1  0.67170000  0.00448000  0.66388000  1.0
  H  H38  1  0.17170000  0.50448000  0.83612000  1.0
  H  H39  1  0.32830000  0.99552000  0.33612000  1.0
  H  H40  1  0.70040000  0.09393000  0.34840000  1.0
  H  H41  1  0.79959000  0.40607000  0.84840000  1.0
  H  H42  1  0.29960000  0.90606000  0.65160000  1.0
  H  H43  1  0.20040000  0.59393000  0.15160000  1.0
  H  H44  1  0.86129000  0.02822000  0.21985000  1.0
  H  H45  1  0.63871000  0.47178000  0.71985000  1.0
  H  H46  1  0.13871000  0.97178000  0.78015000  1.0
  H  H47  1  0.36129000  0.52822000  0.28015000  1.0
  H  H48  1  0.81402000  0.51995000  0.05783000  1.0
  H  H49  1  0.68598000  0.98005000  0.55783000  1.0
  H  H50  1  0.18598000  0.48004000  0.94217000  1.0
  H  H51  1  0.31402000  0.01995000  0.44217000  1.0
  H  H52  1  0.79986000  0.49485000  0.96853000  1.0
  H  H53  1  0.70014000  0.00515000  0.46853000  1.0
  H  H54  1  0.20014000  0.50515000  0.03147000  1.0
  H  H55  1  0.29985000  0.99485000  0.53147000  1.0
  H  H56  1  0.73529000  0.86986000  0.08269000  1.0
  H  H57  1  0.76471000  0.63014000  0.58269000  1.0
  H  H58  1  0.26471000  0.13014000  0.91731000  1.0
  H  H59  1  0.23529000  0.36986000  0.41731000  1.0
  H  H60  1  0.70730000  0.01575000  0.02880000  1.0
  H  H61  1  0.79270000  0.48425000  0.52880000  1.0
  H  H62  1  0.29270000  0.98425000  0.97120000  1.0
  H  H63  1  0.20730000  0.51575000  0.47120000  1.0
  H  H64  1  0.70029000  0.99213000  0.93887000  1.0
  H  H65  1  0.79971000  0.50787000  0.43887000  1.0
  H  H66  1  0.29971000  0.00787000  0.06113000  1.0
  H  H67  1  0.20029000  0.49213000  0.56113000  1.0
  H  H68  1  0.71756000  0.82214000  0.90393000  1.0
  H  H69  1  0.78243000  0.67786000  0.40393000  1.0
  H  H70  1  0.28244000  0.17786000  0.09607000  1.0
  H  H71  1  0.21756000  0.32214000  0.59607000  1.0
  H  H72  1  0.96772000  0.31041000  0.03546000  1.0
  H  H73  1  0.53229000  0.18959000  0.53546000  1.0
  H  H74  1  0.03228000  0.68959000  0.96454000  1.0
  H  H75  1  0.46772000  0.81041000  0.46454000  1.0
  H  H76  1  0.95022000  0.26881000  0.94796000  1.0
  H  H77  1  0.54977000  0.23119000  0.44796000  1.0
  H  H78  1  0.04978000  0.73118000  0.05204000  1.0
  H  H79  1  0.45023000  0.76882000  0.55204000  1.0
  H  H80  1  0.65209000  0.23012000  0.10697000  1.0
  H  H81  1  0.84791000  0.26988000  0.60697000  1.0
  H  H82  1  0.34791000  0.76989000  0.89303000  1.0
  H  H83  1  0.15209000  0.73011000  0.39303000  1.0
  H  H84  1  0.48714000  0.18116000  0.07531000  1.0
  H  H85  1  0.01286000  0.31884000  0.57531000  1.0
  H  H86  1  0.51286000  0.81884000  0.92469000  1.0
  H  H87  1  0.98714000  0.68116000  0.42469000  1.0
  H  H88  1  0.46556000  0.14883000  0.98696000  1.0
  H  H89  1  0.03444000  0.35117000  0.48696000  1.0
  H  H90  1  0.53444000  0.85117000  0.01304000  1.0
  H  H91  1  0.96556000  0.64883000  0.51304000  1.0
  H  H92  1  0.60871000  0.16599000  0.93055000  1.0
  H  H93  1  0.89129000  0.33402000  0.43055000  1.0
  H  H94  1  0.39129000  0.83401000  0.06945000  1.0
  H  H95  1  0.10871000  0.66599000  0.56945000  1.0
  C  C96  1  0.96535000  0.77626000  0.19501000  1.0
  C  C97  1  0.53465000  0.72374000  0.69501000  1.0
  C  C98  1  0.03465000  0.22374000  0.80499000  1.0
  C  C99  1  0.46535000  0.27626000  0.30499000  1.0
  C  C100  1  0.99533000  0.84927000  0.26194000  1.0
  C  C101  1  0.50468000  0.65073000  0.76194000  1.0
  C  C102  1  0.00468000  0.15073000  0.73806000  1.0
  C  C103  1  0.49532000  0.34927000  0.23806000  1.0
  C  C104  1  0.54296000  0.75237000  0.24106000  1.0
  C  C105  1  0.95704000  0.74763000  0.74106000  1.0
  C  C106  1  0.45704000  0.24763000  0.75894000  1.0
  C  C107  1  0.04296000  0.25237000  0.25894000  1.0
  C  C108  1  0.56562000  0.82583000  0.30888000  1.0
  C  C109  1  0.93438000  0.67417000  0.80888000  1.0
  C  C110  1  0.43438000  0.17417000  0.69112000  1.0
  C  C111  1  0.06562000  0.32583000  0.19112000  1.0
  C  C112  1  0.72199000  0.52862000  0.26682000  1.0
  C  C113  1  0.77802000  0.97138000  0.76682000  1.0
  C  C114  1  0.27802000  0.47138000  0.73318000  1.0
  C  C115  1  0.22198000  0.02862000  0.23318000  1.0
  C  C116  1  0.79306000  0.49066000  0.19931000  1.0
  C  C117  1  0.70694000  0.00934000  0.69931000  1.0
  C  C118  1  0.20694000  0.50934000  0.80068000  1.0
  C  C119  1  0.29306000  0.99066000  0.30069000  1.0
  C  C120  1  0.73969000  0.10192000  0.31415000  1.0
  C  C121  1  0.76030000  0.39808000  0.81415000  1.0
  C  C122  1  0.26031000  0.89808000  0.68585000  1.0
  C  C123  1  0.23969000  0.60192000  0.18585000  1.0
  C  C124  1  0.82157000  0.06785000  0.24898000  1.0
  C  C125  1  0.67842000  0.43215000  0.74898000  1.0
  C  C126  1  0.17843000  0.93215000  0.75102000  1.0
  C  C127  1  0.32157000  0.56785000  0.25102000  1.0
  C  C128  1  0.77654000  0.68466000  0.10859000  1.0
  C  C129  1  0.72346000  0.81534000  0.60859000  1.0
  C  C130  1  0.22346000  0.31534000  0.89141000  1.0
  C  C131  1  0.27654000  0.18466000  0.39141000  1.0
  C  C132  1  0.76922000  0.67623000  0.05473000  1.0
  C  C133  1  0.73078000  0.82377000  0.55473000  1.0
  C  C134  1  0.23078000  0.32377000  0.94527000  1.0
  C  C135  1  0.26922000  0.17623000  0.44527000  1.0
  C  C136  1  0.79099000  0.58279000  0.03445000  1.0
  C  C137  1  0.70901000  0.91721000  0.53445000  1.0
  C  C138  1  0.20901000  0.41721000  0.96555000  1.0
  C  C139  1  0.29099000  0.08279000  0.46555000  1.0
  C  C140  1  0.78368000  0.56877000  0.98413000  1.0
  C  C141  1  0.71632000  0.93123000  0.48413000  1.0
  C  C142  1  0.21632000  0.43123000  0.01587000  1.0
  C  C143  1  0.28368000  0.06877000  0.51587000  1.0
  C  C144  1  0.75593000  0.64783000  0.95362000  1.0
  C  C145  1  0.74407000  0.85217000  0.45362000  1.0
  C  C146  1  0.24407000  0.35217000  0.04638000  1.0
  C  C147  1  0.25593000  0.14783000  0.54638000  1.0
  C  C148  1  0.73911000  0.74665000  0.97285000  1.0
  C  C149  1  0.76088000  0.75335000  0.47285000  1.0
  C  C150  1  0.26089000  0.25335000  0.02715000  1.0
  C  C151  1  0.23911000  0.24665000  0.52715000  1.0
  C  C152  1  0.74507000  0.76083000  0.02455000  1.0
  C  C153  1  0.75493000  0.73917000  0.52455000  1.0
  C  C154  1  0.25493000  0.23917000  0.97545000  1.0
  C  C155  1  0.24507000  0.26083000  0.47545000  1.0
  C  C156  1  0.73244000  0.85945000  0.04356000  1.0
  C  C157  1  0.76756000  0.64055000  0.54356000  1.0
  C  C158  1  0.26756000  0.14055000  0.95644000  1.0
  C  C159  1  0.23244000  0.35945000  0.45644000  1.0
  C  C160  1  0.71653000  0.94084000  0.01341000  1.0
  C  C161  1  0.78347000  0.55916000  0.51341000  1.0
  C  C162  1  0.28347000  0.05916000  0.98659000  1.0
  C  C163  1  0.21653000  0.44084000  0.48659000  1.0
  C  C164  1  0.71192000  0.92734000  0.96260000  1.0
  C  C165  1  0.78808000  0.57266000  0.46260000  1.0
  C  C166  1  0.28808000  0.07266000  0.03740000  1.0
  C  C167  1  0.21192000  0.42734000  0.53739000  1.0
  C  C168  1  0.72232000  0.83256000  0.94299000  1.0
  C  C169  1  0.77768000  0.66744000  0.44299000  1.0
  C  C170  1  0.27767000  0.16744000  0.05701000  1.0
  C  C171  1  0.22232000  0.33256000  0.55701000  1.0
  C  C172  1  0.74898000  0.62507000  0.90078000  1.0
  C  C173  1  0.75102000  0.87493000  0.40078000  1.0
  C  C174  1  0.25103000  0.37493000  0.09922000  1.0
  C  C175  1  0.24897000  0.12507000  0.59922000  1.0
  C  C176  1  0.83980000  0.28313000  0.10683000  1.0
  C  C177  1  0.66020000  0.21687000  0.60683000  1.0
  C  C178  1  0.16020000  0.71687000  0.89317000  1.0
  C  C179  1  0.33980000  0.78313000  0.39317000  1.0
  C  C180  1  0.82042000  0.26273000  0.05434000  1.0
  C  C181  1  0.67958000  0.23727000  0.55434000  1.0
  C  C182  1  0.17958000  0.73727000  0.94566000  1.0
  C  C183  1  0.32042000  0.76273000  0.44566000  1.0
  C  C184  1  0.89785000  0.28030000  0.02207000  1.0
  C  C185  1  0.60215000  0.21970000  0.52207000  1.0
  C  C186  1  0.10215000  0.71970000  0.97793000  1.0
  C  C187  1  0.39785000  0.78030000  0.47793000  1.0
  C  C188  1  0.88771000  0.25758000  0.97272000  1.0
  C  C189  1  0.61228000  0.24242000  0.47272000  1.0
  C  C190  1  0.11228000  0.74242000  0.02728000  1.0
  C  C191  1  0.38772000  0.75758000  0.52728000  1.0
  C  C192  1  0.79927000  0.22013000  0.95428000  1.0
  C  C193  1  0.70072000  0.27987000  0.45428000  1.0
  C  C194  1  0.20072000  0.77987000  0.04572000  1.0
  C  C195  1  0.29928000  0.72013000  0.54572000  1.0
  C  C196  1  0.71446000  0.20815000  0.98585000  1.0
  C  C197  1  0.78554000  0.29186000  0.48585000  1.0
  C  C198  1  0.28554000  0.79186000  0.01415000  1.0
  C  C199  1  0.21446000  0.70814000  0.51415000  1.0
  C  C200  1  0.72646000  0.22788000  0.03704000  1.0
  C  C201  1  0.77355000  0.27212000  0.53704000  1.0
  C  C202  1  0.27354000  0.77212000  0.96296000  1.0
  C  C203  1  0.22645000  0.72788000  0.46296000  1.0
  C  C204  1  0.64261000  0.21635000  0.06839000  1.0
  C  C205  1  0.85739000  0.28365000  0.56839000  1.0
  C  C206  1  0.35739000  0.78365000  0.93161000  1.0
  C  C207  1  0.14261000  0.71635000  0.43161000  1.0
  C  C208  1  0.55085000  0.18829000  0.05076000  1.0
  C  C209  1  0.94915000  0.31171000  0.55076000  1.0
  C  C210  1  0.44915000  0.81171000  0.94924000  1.0
  C  C211  1  0.05085000  0.68829000  0.44924000  1.0
  C  C212  1  0.53854000  0.17043000  0.00071000  1.0
  C  C213  1  0.96146000  0.32957000  0.50071000  1.0
  C  C214  1  0.46146000  0.82957000  0.99929000  1.0
  C  C215  1  0.03854000  0.67043000  0.49929000  1.0
  C  C216  1  0.61825000  0.18012000  0.96910000  1.0
  C  C217  1  0.88175000  0.31989000  0.46910000  1.0
  C  C218  1  0.38176000  0.81988000  0.03090000  1.0
  C  C219  1  0.11824000  0.68012000  0.53090000  1.0
  C  C220  1  0.80015000  0.19494000  0.90151000  1.0
  C  C221  1  0.69985000  0.30506000  0.40151000  1.0
  C  C222  1  0.19985000  0.80506000  0.09849000  1.0
  C  C223  1  0.30015000  0.69494000  0.59849000  1.0
  N  N224  1  0.03994000  0.81920000  0.21993000  1.0
  N  N225  1  0.46006000  0.68080000  0.71993000  1.0
  N  N226  1  0.96006000  0.18080000  0.78007000  1.0
  N  N227  1  0.53994000  0.31920000  0.28007000  1.0
  N  N228  1  0.89820000  0.82716000  0.26317000  1.0
  N  N229  1  0.60180000  0.67284000  0.76317000  1.0
  N  N230  1  0.10180000  0.17284000  0.73683000  1.0
  N  N231  1  0.39820000  0.32716000  0.23683000  1.0
  N  N232  1  0.87931000  0.78026000  0.21999000  1.0
  N  N233  1  0.62069000  0.71974000  0.71999000  1.0
  N  N234  1  0.12069000  0.21974000  0.78001000  1.0
  N  N235  1  0.37931000  0.28026000  0.28001000  1.0
  N  N236  1  0.49375000  0.78372000  0.28165000  1.0
  N  N237  1  0.00626000  0.71628000  0.78165000  1.0
  N  N238  1  0.50625000  0.21628000  0.71834000  1.0
  N  N239  1  0.99375000  0.28372000  0.21834000  1.0
  N  N240  1  0.65476000  0.81976000  0.28642000  1.0
  N  N241  1  0.84524000  0.68024000  0.78642000  1.0
  N  N242  1  0.34524000  0.18024000  0.71358000  1.0
  N  N243  1  0.15476000  0.31976000  0.21358000  1.0
  N  N244  1  0.64016000  0.77276000  0.24287000  1.0
  N  N245  1  0.85984000  0.72724000  0.74287000  1.0
  N  N246  1  0.35984000  0.22724000  0.75713000  1.0
  N  N247  1  0.14016000  0.27276000  0.25713000  1.0
  N  N248  1  0.75592000  0.56979000  0.22537000  1.0
  N  N249  1  0.74408000  0.93021000  0.72537000  1.0
  N  N250  1  0.24408000  0.43021000  0.77463000  1.0
  N  N251  1  0.25592000  0.06979000  0.27463000  1.0
  N  N252  1  0.78198000  0.40525000  0.22312000  1.0
  N  N253  1  0.71802000  0.09475000  0.72312000  1.0
  N  N254  1  0.21802000  0.59475000  0.77688000  1.0
  N  N255  1  0.28198000  0.90525000  0.27688000  1.0
  N  N256  1  0.73684000  0.42949000  0.26672000  1.0
  N  N257  1  0.76316000  0.07051000  0.76672000  1.0
  N  N258  1  0.26316000  0.57051000  0.73328000  1.0
  N  N259  1  0.23684000  0.92949000  0.23328000  1.0
  N  N260  1  0.78392000  0.02464000  0.28907000  1.0
  N  N261  1  0.71608000  0.47536000  0.78907000  1.0
  N  N262  1  0.21608000  0.97536000  0.71093000  1.0
  N  N263  1  0.28392000  0.52464000  0.21093000  1.0
  N  N264  1  0.80257000  0.16646000  0.24913000  1.0
  N  N265  1  0.69743000  0.33354000  0.74913000  1.0
  N  N266  1  0.19743000  0.83354000  0.75087000  1.0
  N  N267  1  0.30257000  0.66646000  0.25087000  1.0
  N  N268  1  0.75029000  0.18814000  0.29099000  1.0
  N  N269  1  0.74971000  0.31186000  0.79099000  1.0
  N  N270  1  0.24971000  0.81186000  0.70901000  1.0
  N  N271  1  0.25029000  0.68814000  0.20901000  1.0
  O  O272  1  0.73527000  0.14157000  0.88078000  1.0
  O  O273  1  0.76473000  0.35844000  0.38078000  1.0
  O  O274  1  0.26473000  0.85843000  0.11922000  1.0
  O  O275  1  0.23527000  0.64157000  0.61922000  1.0
  O  O276  1  0.87213000  0.22959000  0.87562000  1.0
  O  O277  1  0.62787000  0.27040000  0.37562000  1.0
  O  O278  1  0.12788000  0.77040000  0.12438000  1.0
  O  O279  1  0.37212000  0.72960000  0.62438000  1.0
  O  O280  1  0.70359000  0.73101000  0.13242000  1.0
  O  O281  1  0.79641000  0.76899000  0.63242000  1.0
  O  O282  1  0.29641000  0.26899000  0.86758000  1.0
  O  O283  1  0.20360000  0.23101000  0.36758000  1.0
  O  O284  1  0.85180000  0.64494000  0.13030000  1.0
  O  O285  1  0.64820000  0.85506000  0.63030000  1.0
  O  O286  1  0.14820000  0.35506000  0.86970000  1.0
  O  O287  1  0.35180000  0.14494000  0.36970000  1.0
  O  O288  1  0.88533000  0.35935000  0.11934000  1.0
  O  O289  1  0.61466000  0.14065000  0.61934000  1.0
  O  O290  1  0.11466000  0.64065000  0.88066000  1.0
  O  O291  1  0.38534000  0.85935000  0.38066000  1.0
  O  O292  1  0.80954000  0.21811000  0.13842000  1.0
  O  O293  1  0.69046000  0.28189000  0.63842000  1.0
  O  O294  1  0.19046000  0.78189000  0.86158000  1.0
  O  O295  1  0.30954000  0.71811000  0.36158000  1.0
  O  O296  1  0.67871000  0.67113000  0.87495000  1.0
  O  O297  1  0.82129000  0.82887000  0.37495000  1.0
  O  O298  1  0.32129000  0.32887000  0.12505000  1.0
  O  O299  1  0.17871000  0.17113000  0.62505000  1.0
  O  O300  1  0.81037000  0.56186000  0.88177000  1.0
  O  O301  1  0.68962000  0.93814000  0.38177000  1.0
  O  O302  1  0.18963000  0.43814000  0.11823000  1.0
  O  O303  1  0.31037000  0.06186000  0.61823000  1.0
