# generated using pymatgen
data_MnH14C20(NO2)2
_symmetry_space_group_name_H-M   'P 1'
_cell_length_a   9.96476000
_cell_length_b   10.15540000
_cell_length_c   10.68430000
_cell_angle_alpha   80.71350000
_cell_angle_beta   81.85710000
_cell_angle_gamma   65.52510000
_symmetry_Int_Tables_number   1
_chemical_formula_structural   MnH14C20(NO2)2
_chemical_formula_sum   'Mn2 H28 C40 N4 O8'
_cell_volume   967.78589097
_cell_formula_units_Z   2
loop_
 _symmetry_equiv_pos_site_id
 _symmetry_equiv_pos_as_xyz
  1  'x, y, z'
loop_
 _atom_site_type_symbol
 _atom_site_label
 _atom_site_symmetry_multiplicity
 _atom_site_fract_x
 _atom_site_fract_y
 _atom_site_fract_z
 _atom_site_occupancy
  Mn  Mn0  1  0.18643000  0.87972000  0.11275000  1.0
  Mn  Mn1  1  0.81357000  0.12029000  0.88725000  1.0
  H  H2  1  0.25446000  0.51649000  0.45593000  1.0
  H  H3  1  0.74554000  0.48352000  0.54407000  1.0
  H  H4  1  0.61896000  0.64506000  0.35382000  1.0
  H  H5  1  0.38105000  0.35494000  0.64618000  1.0
  H  H6  1  0.79377000  0.69661000  0.88714000  1.0
  H  H7  1  0.20622000  0.30339000  0.11287000  1.0
  H  H8  1  0.18834000  0.55941000  0.08117000  1.0
  H  H9  1  0.81166000  0.44060000  0.91883000  1.0
  H  H10  1  0.36359000  0.05406000  0.97164000  1.0
  H  H11  1  0.63642000  0.94594000  0.02836000  1.0
  H  H12  1  0.48182000  0.08275000  0.75539000  1.0
  H  H13  1  0.51818000  0.91725000  0.24460000  1.0
  H  H14  1  0.50662000  0.65805000  0.70690000  1.0
  H  H15  1  0.49337000  0.34194000  0.29310000  1.0
  H  H16  1  0.39296000  0.64512000  0.92887000  1.0
  H  H17  1  0.60703000  0.35488000  0.07113000  1.0
  H  H18  1  0.59833000  0.79136000  0.53322000  1.0
  H  H19  1  0.40167000  0.20864000  0.46677000  1.0
  H  H20  1  0.60159000  0.07665000  0.58896000  1.0
  H  H21  1  0.39840000  0.92335000  0.41104000  1.0
  H  H22  1  0.78259000  0.74612000  0.41525000  1.0
  H  H23  1  0.21742000  0.25387000  0.58476000  1.0
  H  H24  1  0.00973000  0.70517000  0.26882000  1.0
  H  H25  1  0.99027000  0.29482000  0.73119000  1.0
  H  H26  1  0.99339000  0.11245000  0.29799000  1.0
  H  H27  1  0.00660000  0.88755000  0.70201000  1.0
  H  H28  1  0.76507000  0.17163000  0.44750000  1.0
  H  H29  1  0.23492000  0.82837000  0.55249000  1.0
  C  C30  1  0.35237000  0.68873000  0.28384000  1.0
  C  C31  1  0.64764000  0.31127000  0.71616000  1.0
  C  C32  1  0.42935000  0.59049000  0.39472000  1.0
  C  C33  1  0.57066000  0.40952000  0.60528000  1.0
  C  C34  1  0.36196000  0.50860000  0.47644000  1.0
  C  C35  1  0.63805000  0.49141000  0.52356000  1.0
  C  C36  1  0.56776000  0.58122000  0.41885000  1.0
  C  C37  1  0.43225000  0.41878000  0.58115000  1.0
  C  C38  1  0.97991000  0.79666000  0.95987000  1.0
  C  C39  1  0.02009000  0.20334000  0.04013000  1.0
  C  C40  1  0.99010000  0.64350000  0.98142000  1.0
  C  C41  1  0.00989000  0.35650000  0.01859000  1.0
  C  C42  1  0.88360000  0.60967000  0.93660000  1.0
  C  C43  1  0.11639000  0.39033000  0.06340000  1.0
  C  C44  1  0.10685000  0.53267000  0.04502000  1.0
  C  C45  1  0.89315000  0.46733000  0.95498000  1.0
  C  C46  1  0.39853000  0.96806000  0.91002000  1.0
  C  C47  1  0.60148000  0.03194000  0.08998000  1.0
  C  C48  1  0.46151000  0.98467000  0.78719000  1.0
  C  C49  1  0.53849000  0.01532000  0.21281000  1.0
  C  C50  1  0.49656000  0.87584000  0.70784000  1.0
  C  C51  1  0.50344000  0.12416000  0.29215000  1.0
  C  C52  1  0.47669000  0.74901000  0.76196000  1.0
  C  C53  1  0.52330000  0.25099000  0.23803000  1.0
  C  C54  1  0.41402000  0.74059000  0.88617000  1.0
  C  C55  1  0.58597000  0.25941000  0.11383000  1.0
  C  C56  1  0.53598000  0.89792000  0.56777000  1.0
  C  C57  1  0.46402000  0.10208000  0.43222000  1.0
  C  C58  1  0.60222000  0.01142000  0.51606000  1.0
  C  C59  1  0.39777000  0.98858000  0.48393000  1.0
  C  C60  1  0.75038000  0.96542000  0.44226000  1.0
  C  C61  1  0.24962000  0.03458000  0.55774000  1.0
  C  C62  1  0.82424000  0.83162000  0.39272000  1.0
  C  C63  1  0.17577000  0.16837000  0.60729000  1.0
  C  C64  1  0.95141000  0.80758000  0.31030000  1.0
  C  C65  1  0.04859000  0.19242000  0.68971000  1.0
  C  C66  1  0.94226000  0.03467000  0.32674000  1.0
  C  C67  1  0.05774000  0.96533000  0.67326000  1.0
  C  C68  1  0.81550000  0.06663000  0.40984000  1.0
  C  C69  1  0.18449000  0.93337000  0.59016000  1.0
  N  N70  1  0.37057000  0.85026000  0.95889000  1.0
  N  N71  1  0.62943000  0.14974000  0.04111000  1.0
  N  N72  1  0.00876000  0.90816000  0.27499000  1.0
  N  N73  1  0.99124000  0.09184000  0.72502000  1.0
  O  O74  1  0.86514000  0.89474000  0.91056000  1.0
  O  O75  1  0.13486000  0.10526000  0.08944000  1.0
  O  O76  1  0.08648000  0.82140000  0.98798000  1.0
  O  O77  1  0.91351000  0.17861000  0.01202000  1.0
  O  O78  1  0.35387000  0.81557000  0.26096000  1.0
  O  O79  1  0.64613000  0.18444000  0.73904000  1.0
  O  O80  1  0.28475000  0.64479000  0.21875000  1.0
  O  O81  1  0.71525000  0.35521000  0.78125000  1.0
