# generated using pymatgen
data_Cu3H18C8SN2Cl3O
_symmetry_space_group_name_H-M   'P 1'
_cell_length_a   10.63220000
_cell_length_b   11.32270000
_cell_length_c   12.74920000
_cell_angle_alpha   90.00000000
_cell_angle_beta   90.00000000
_cell_angle_gamma   106.88300000
_symmetry_Int_Tables_number   1
_chemical_formula_structural   Cu3H18C8SN2Cl3O
_chemical_formula_sum   'Cu12 H72 C32 S4 N8 Cl12 O4'
_cell_volume   1468.66428455
_cell_formula_units_Z   4
loop_
 _symmetry_equiv_pos_site_id
 _symmetry_equiv_pos_as_xyz
  1  'x, y, z'
loop_
 _atom_site_type_symbol
 _atom_site_label
 _atom_site_symmetry_multiplicity
 _atom_site_fract_x
 _atom_site_fract_y
 _atom_site_fract_z
 _atom_site_occupancy
  Cu  Cu0  1  0.08125000  0.79504000  0.41433000  1.0
  Cu  Cu1  1  0.41875000  0.70496000  0.91433000  1.0
  Cu  Cu2  1  0.91875000  0.20496000  0.58567000  1.0
  Cu  Cu3  1  0.58125000  0.29504000  0.08567000  1.0
  Cu  Cu4  1  0.17678000  0.46977000  0.41938000  1.0
  Cu  Cu5  1  0.32323000  0.03023000  0.91938000  1.0
  Cu  Cu6  1  0.82323000  0.53023000  0.58062000  1.0
  Cu  Cu7  1  0.67677000  0.96977000  0.08062000  1.0
  Cu  Cu8  1  0.06633000  0.53813000  0.58246000  1.0
  Cu  Cu9  1  0.43367000  0.96187000  0.08246000  1.0
  Cu  Cu10  1  0.93367000  0.46187000  0.41754000  1.0
  Cu  Cu11  1  0.56633000  0.03813000  0.91754000  1.0
  H  H12  1  0.26503000  0.24130000  0.38154000  1.0
  H  H13  1  0.23497000  0.25870000  0.88154000  1.0
  H  H14  1  0.73497000  0.75870000  0.61846000  1.0
  H  H15  1  0.76503000  0.74130000  0.11846000  1.0
  H  H16  1  0.40278000  0.35606000  0.43251000  1.0
  H  H17  1  0.09722000  0.14394000  0.93251000  1.0
  H  H18  1  0.59722000  0.64394000  0.56749000  1.0
  H  H19  1  0.90278000  0.85606000  0.06749000  1.0
  H  H20  1  0.53995000  0.29360000  0.31483000  1.0
  H  H21  1  0.96005000  0.20640000  0.81483000  1.0
  H  H22  1  0.46005000  0.70640000  0.68517000  1.0
  H  H23  1  0.03995000  0.79360000  0.18517000  1.0
  H  H24  1  0.40225000  0.17934000  0.26353000  1.0
  H  H25  1  0.09775000  0.32065000  0.76353000  1.0
  H  H26  1  0.59775000  0.82065000  0.73647000  1.0
  H  H27  1  0.90224000  0.67934000  0.23647000  1.0
  H  H28  1  0.46939000  0.55760000  0.35789000  1.0
  H  H29  1  0.03061000  0.94240000  0.85789000  1.0
  H  H30  1  0.53061000  0.44240000  0.64211000  1.0
  H  H31  1  0.96939000  0.05760000  0.14210000  1.0
  H  H32  1  0.37966000  0.59557000  0.25115000  1.0
  H  H33  1  0.12034000  0.90443000  0.75115000  1.0
  H  H34  1  0.62035000  0.40443000  0.74885000  1.0
  H  H35  1  0.87966000  0.09557000  0.24885000  1.0
  H  H36  1  0.51473000  0.53316000  0.13165000  1.0
  H  H37  1  0.98527000  0.96684000  0.63165000  1.0
  H  H38  1  0.48527000  0.46683000  0.86835000  1.0
  H  H39  1  0.01473000  0.03317000  0.36835000  1.0
  H  H40  1  0.60670000  0.49870000  0.23801000  1.0
  H  H41  1  0.89330000  0.00130000  0.73802000  1.0
  H  H42  1  0.39330000  0.50130000  0.76199000  1.0
  H  H43  1  0.10670000  0.99870000  0.26199000  1.0
  H  H44  1  0.19494000  0.44157000  0.18003000  1.0
  H  H45  1  0.30506000  0.05843000  0.68003000  1.0
  H  H46  1  0.80506000  0.55843000  0.81997000  1.0
  H  H47  1  0.69494000  0.94157000  0.31996000  1.0
  H  H48  1  0.14446000  0.29133000  0.23591000  1.0
  H  H49  1  0.35554000  0.20867000  0.73590000  1.0
  H  H50  1  0.85554000  0.70867000  0.76410000  1.0
  H  H51  1  0.64446000  0.79133000  0.26409000  1.0
  H  H52  1  0.28317000  0.22828000  0.11722000  1.0
  H  H53  1  0.21683000  0.27172000  0.61722000  1.0
  H  H54  1  0.71684000  0.77172000  0.88278000  1.0
  H  H55  1  0.78316000  0.72828000  0.38278000  1.0
  H  H56  1  0.33016000  0.37917000  0.06247000  1.0
  H  H57  1  0.16984000  0.12083000  0.56247000  1.0
  H  H58  1  0.66985000  0.62083000  0.93753000  1.0
  H  H59  1  0.83016000  0.87917000  0.43753000  1.0
  H  H60  1  0.33059000  0.73437000  0.52966000  1.0
  H  H61  1  0.16941000  0.76563000  0.02966000  1.0
  H  H62  1  0.66941000  0.26563000  0.47034000  1.0
  H  H63  1  0.83059000  0.23437000  0.97034000  1.0
  H  H64  1  0.30876000  0.84910000  0.61823000  1.0
  H  H65  1  0.19123000  0.65090000  0.11823000  1.0
  H  H66  1  0.69123000  0.15090000  0.38177000  1.0
  H  H67  1  0.80877000  0.34910000  0.88177000  1.0
  H  H68  1  0.46199000  0.87742000  0.54626000  1.0
  H  H69  1  0.03801000  0.62258000  0.04626000  1.0
  H  H70  1  0.53801000  0.12258000  0.45374000  1.0
  H  H71  1  0.96199000  0.37742000  0.95374000  1.0
  H  H72  1  0.35532000  0.91726000  0.26529000  1.0
  H  H73  1  0.14468000  0.58274000  0.76529000  1.0
  H  H74  1  0.64468000  0.08274000  0.73471000  1.0
  H  H75  1  0.85532000  0.41726000  0.23471000  1.0
  H  H76  1  0.36611000  0.77733000  0.32535000  1.0
  H  H77  1  0.13389000  0.72266000  0.82535000  1.0
  H  H78  1  0.63389000  0.22266000  0.67465000  1.0
  H  H79  1  0.86611000  0.27734000  0.17465000  1.0
  H  H80  1  0.48853000  0.92251000  0.35448000  1.0
  H  H81  1  0.01147000  0.57749000  0.85448000  1.0
  H  H82  1  0.51147000  0.07749000  0.64552000  1.0
  H  H83  1  0.98852000  0.42251000  0.14552000  1.0
  C  C84  1  0.35029000  0.31867000  0.36005000  1.0
  C  C85  1  0.14971000  0.18133000  0.86005000  1.0
  C  C86  1  0.64971000  0.68132000  0.63995000  1.0
  C  C87  1  0.85029000  0.81868000  0.13995000  1.0
  C  C88  1  0.44096000  0.27760000  0.28247000  1.0
  C  C89  1  0.05904000  0.22240000  0.78247000  1.0
  C  C90  1  0.55904000  0.72240000  0.71753000  1.0
  C  C91  1  0.94096000  0.77760000  0.21753000  1.0
  C  C92  1  0.41676000  0.52288000  0.28481000  1.0
  C  C93  1  0.08325000  0.97713000  0.78481000  1.0
  C  C94  1  0.58324000  0.47712000  0.71519000  1.0
  C  C95  1  0.91675000  0.02288000  0.21519000  1.0
  C  C96  1  0.50740000  0.48256000  0.20595000  1.0
  C  C97  1  0.99260000  0.01744000  0.70596000  1.0
  C  C98  1  0.49260000  0.51744000  0.79404000  1.0
  C  C99  1  0.00740000  0.98256000  0.29405000  1.0
  C  C100  1  0.23029000  0.36809000  0.21403000  1.0
  C  C101  1  0.26971000  0.13192000  0.71403000  1.0
  C  C102  1  0.76971000  0.63191000  0.78597000  1.0
  C  C103  1  0.73029000  0.86809000  0.28597000  1.0
  C  C104  1  0.32080000  0.32683000  0.13591000  1.0
  C  C105  1  0.17920000  0.17317000  0.63591000  1.0
  C  C106  1  0.67920000  0.67317000  0.86409000  1.0
  C  C107  1  0.82080000  0.82683000  0.36409000  1.0
  C  C108  1  0.35506000  0.83408000  0.54457000  1.0
  C  C109  1  0.14494000  0.66592000  0.04457000  1.0
  C  C110  1  0.64494000  0.16592000  0.45543000  1.0
  C  C111  1  0.85506000  0.33408000  0.95543000  1.0
  C  C112  1  0.38522000  0.87701000  0.33595000  1.0
  C  C113  1  0.11478000  0.62299000  0.83595000  1.0
  C  C114  1  0.61478000  0.12299000  0.66405000  1.0
  C  C115  1  0.88522000  0.37701000  0.16405000  1.0
  S  S116  1  0.28485000  0.90214000  0.44177000  1.0
  S  S117  1  0.21515000  0.59786000  0.94177000  1.0
  S  S118  1  0.71515000  0.09786000  0.55823000  1.0
  S  S119  1  0.78485000  0.40214000  0.05823000  1.0
  N  N120  1  0.30167000  0.41695000  0.31255000  1.0
  N  N121  1  0.19833000  0.08305000  0.81255000  1.0
  N  N122  1  0.69833000  0.58305000  0.68745000  1.0
  N  N123  1  0.80167000  0.91695000  0.18745000  1.0
  N  N124  1  0.45413000  0.34819000  0.18217000  1.0
  N  N125  1  0.04587000  0.15181000  0.68217000  1.0
  N  N126  1  0.54588000  0.65181000  0.81783000  1.0
  N  N127  1  0.95413000  0.84819000  0.31783000  1.0
  Cl  Cl128  1  0.01022000  0.72177000  0.58358000  1.0
  Cl  Cl129  1  0.48978000  0.77823000  0.08358000  1.0
  Cl  Cl130  1  0.98978000  0.27823000  0.41643000  1.0
  Cl  Cl131  1  0.51022000  0.22177000  0.91642000  1.0
  Cl  Cl132  1  0.26509000  0.50581000  0.58360000  1.0
  Cl  Cl133  1  0.23491000  0.99419000  0.08360000  1.0
  Cl  Cl134  1  0.73491000  0.49419000  0.41640000  1.0
  Cl  Cl135  1  0.76509000  0.00581000  0.91640000  1.0
  Cl  Cl136  1  0.89369000  0.38774000  0.67475000  1.0
  Cl  Cl137  1  0.60631000  0.11226000  0.17475000  1.0
  Cl  Cl138  1  0.10631000  0.61226000  0.32525000  1.0
  Cl  Cl139  1  0.39369000  0.88774000  0.82525000  1.0
  O  O140  1  0.32082000  0.03875000  0.46180000  1.0
  O  O141  1  0.17918000  0.46125000  0.96180000  1.0
  O  O142  1  0.67918000  0.96125000  0.53820000  1.0
  O  O143  1  0.82082000  0.53875000  0.03820000  1.0
