# generated using pymatgen
data_TlH6C6(NCl)3
_symmetry_space_group_name_H-M   'P 1'
_cell_length_a   7.71370000
_cell_length_b   11.65070000
_cell_length_c   11.75660000
_cell_angle_alpha   90.00000000
_cell_angle_beta   90.00000000
_cell_angle_gamma   92.82860000
_symmetry_Int_Tables_number   1
_chemical_formula_structural   TlH6C6(NCl)3
_chemical_formula_sum   'Tl4 H24 C24 N12 Cl12'
_cell_volume   1055.27840681
_cell_formula_units_Z   4
loop_
 _symmetry_equiv_pos_site_id
 _symmetry_equiv_pos_as_xyz
  1  'x, y, z'
loop_
 _atom_site_type_symbol
 _atom_site_label
 _atom_site_symmetry_multiplicity
 _atom_site_fract_x
 _atom_site_fract_y
 _atom_site_fract_z
 _atom_site_occupancy
  Tl  Tl0  1  0.98172000  0.26090000  0.73767000  1.0
  Tl  Tl1  1  0.51828000  0.23910000  0.23767000  1.0
  Tl  Tl2  1  0.01828000  0.73910000  0.26233000  1.0
  Tl  Tl3  1  0.48172000  0.76090000  0.76233000  1.0
  H  H4  1  0.32686000  0.40513000  0.84357000  1.0
  H  H5  1  0.17314000  0.09487000  0.34357000  1.0
  H  H6  1  0.67314000  0.59487000  0.15643000  1.0
  H  H7  1  0.82686000  0.90513000  0.65643000  1.0
  H  H8  1  0.31452000  0.15441000  0.59080000  1.0
  H  H9  1  0.18548000  0.34559000  0.09080000  1.0
  H  H10  1  0.68548000  0.84559000  0.40920000  1.0
  H  H11  1  0.81452000  0.65441000  0.90920000  1.0
  H  H12  1  0.65589000  0.40418000  0.84754000  1.0
  H  H13  1  0.84411000  0.09582000  0.34754000  1.0
  H  H14  1  0.34411000  0.59582000  0.15246000  1.0
  H  H15  1  0.15589000  0.90418000  0.65246000  1.0
  H  H16  1  0.64395000  0.16193000  0.58686000  1.0
  H  H17  1  0.85605000  0.33807000  0.08687000  1.0
  H  H18  1  0.35605000  0.83807000  0.41313000  1.0
  H  H19  1  0.14395000  0.66193000  0.91313000  1.0
  H  H20  1  0.80322000  0.50989000  0.66108000  1.0
  H  H21  1  0.69678000  0.99011000  0.16108000  1.0
  H  H22  1  0.19678000  0.49011000  0.33892000  1.0
  H  H23  1  0.30322000  0.00989000  0.83892000  1.0
  H  H24  1  0.81307000  0.66192000  0.50950000  1.0
  H  H25  1  0.68693000  0.83808000  0.00950000  1.0
  H  H26  1  0.18693000  0.33808000  0.49050000  1.0
  H  H27  1  0.31307000  0.16192000  0.99050000  1.0
  C  C28  1  0.39830000  0.34946000  0.78785000  1.0
  C  C29  1  0.10170000  0.15054000  0.28785000  1.0
  C  C30  1  0.60170000  0.65054000  0.21215000  1.0
  C  C31  1  0.89830000  0.84946000  0.71215000  1.0
  C  C32  1  0.39156000  0.21164000  0.64654000  1.0
  C  C33  1  0.10844000  0.28836000  0.14654000  1.0
  C  C34  1  0.60844000  0.78836000  0.35346000  1.0
  C  C35  1  0.89156000  0.71164000  0.85346000  1.0
  C  C36  1  0.57894000  0.35020000  0.78885000  1.0
  C  C37  1  0.92106000  0.14980000  0.28885000  1.0
  C  C38  1  0.42106000  0.64980000  0.21115000  1.0
  C  C39  1  0.07894000  0.85020000  0.71115000  1.0
  C  C40  1  0.57245000  0.21484000  0.64519000  1.0
  C  C41  1  0.92755000  0.28516000  0.14520000  1.0
  C  C42  1  0.42755000  0.78516000  0.35481000  1.0
  C  C43  1  0.07245000  0.71484000  0.85480000  1.0
  C  C44  1  0.89198000  0.50540000  0.58933000  1.0
  C  C45  1  0.60802000  0.99460000  0.08933000  1.0
  C  C46  1  0.10802000  0.49460000  0.41067000  1.0
  C  C47  1  0.39198000  0.00540000  0.91067000  1.0
  C  C48  1  0.89738000  0.58981000  0.50517000  1.0
  C  C49  1  0.60262000  0.91019000  0.00516000  1.0
  C  C50  1  0.10262000  0.41019000  0.49483000  1.0
  C  C51  1  0.39738000  0.08981000  0.99483000  1.0
  N  N52  1  0.30653000  0.27826000  0.71840000  1.0
  N  N53  1  0.19347000  0.22174000  0.21840000  1.0
  N  N54  1  0.69347000  0.72174000  0.28160000  1.0
  N  N55  1  0.80653000  0.77826000  0.78160000  1.0
  N  N56  1  0.66373000  0.28230000  0.71811000  1.0
  N  N57  1  0.83627000  0.21770000  0.21811000  1.0
  N  N58  1  0.33627000  0.71770000  0.28189000  1.0
  N  N59  1  0.16373000  0.78230000  0.78189000  1.0
  N  N60  1  0.99462000  0.41628000  0.58346000  1.0
  N  N61  1  0.50537000  0.08372000  0.08346000  1.0
  N  N62  1  0.00538000  0.58372000  0.41654000  1.0
  N  N63  1  0.49463000  0.91628000  0.91654000  1.0
  Cl  Cl64  1  0.97853000  0.12425000  0.57270000  1.0
  Cl  Cl65  1  0.52147000  0.37575000  0.07270000  1.0
  Cl  Cl66  1  0.02147000  0.87575000  0.42730000  1.0
  Cl  Cl67  1  0.47853000  0.62425000  0.92730000  1.0
  Cl  Cl68  1  0.99541000  0.42797000  0.87268000  1.0
  Cl  Cl69  1  0.50459000  0.07203000  0.37268000  1.0
  Cl  Cl70  1  0.00459000  0.57203000  0.12732000  1.0
  Cl  Cl71  1  0.49541000  0.92797000  0.62732000  1.0
  Cl  Cl72  1  0.95967000  0.10769000  0.89016000  1.0
  Cl  Cl73  1  0.54033000  0.39231000  0.39016000  1.0
  Cl  Cl74  1  0.04033000  0.89231000  0.10984000  1.0
  Cl  Cl75  1  0.45967000  0.60769000  0.60984000  1.0
