# generated using pymatgen
data_MnH17C19SN3O7
_symmetry_space_group_name_H-M   'P 1'
_cell_length_a   8.44975000
_cell_length_b   11.61110000
_cell_length_c   28.22150000
_cell_angle_alpha   90.00050000
_cell_angle_beta   90.00050000
_cell_angle_gamma   73.73700000
_symmetry_Int_Tables_number   1
_chemical_formula_structural   MnH17C19SN3O7
_chemical_formula_sum   'Mn4 H68 C76 S4 N12 O28'
_cell_volume   2658.04525647
_cell_formula_units_Z   4
loop_
 _symmetry_equiv_pos_site_id
 _symmetry_equiv_pos_as_xyz
  1  'x, y, z'
loop_
 _atom_site_type_symbol
 _atom_site_label
 _atom_site_symmetry_multiplicity
 _atom_site_fract_x
 _atom_site_fract_y
 _atom_site_fract_z
 _atom_site_occupancy
  Mn  Mn0  1  0.18611000  0.63720000  0.19972000  1.0
  Mn  Mn1  1  0.31390000  0.36280000  0.69972000  1.0
  Mn  Mn2  1  0.81389000  0.36280000  0.80028000  1.0
  Mn  Mn3  1  0.68610000  0.63720000  0.30028000  1.0
  H  H4  1  0.83988000  0.66420000  0.19545000  1.0
  H  H5  1  0.66013000  0.33580000  0.69545000  1.0
  H  H6  1  0.16013000  0.33580000  0.80455000  1.0
  H  H7  1  0.33988000  0.66420000  0.30455000  1.0
  H  H8  1  0.93009000  0.67204000  0.14451000  1.0
  H  H9  1  0.56991000  0.32796000  0.64451000  1.0
  H  H10  1  0.06991000  0.32796000  0.85549000  1.0
  H  H11  1  0.43009000  0.67204000  0.35549000  1.0
  H  H12  1  0.41627000  0.51951000  0.12176000  1.0
  H  H13  1  0.08373000  0.48048000  0.62176000  1.0
  H  H14  1  0.58372000  0.48048000  0.87824000  1.0
  H  H15  1  0.91627000  0.51952000  0.37824000  1.0
  H  H16  1  0.65205000  0.61045000  0.12731000  1.0
  H  H17  1  0.84796000  0.38954000  0.62731000  1.0
  H  H18  1  0.34795000  0.38955000  0.87269000  1.0
  H  H19  1  0.15205000  0.61045000  0.37269000  1.0
  H  H20  1  0.76455000  0.47678000  0.15574000  1.0
  H  H21  1  0.73546000  0.52322000  0.65574000  1.0
  H  H22  1  0.23546000  0.52322000  0.84426000  1.0
  H  H23  1  0.26454000  0.47677000  0.34426000  1.0
  H  H24  1  0.46430000  0.31434000  0.01914000  1.0
  H  H25  1  0.03570000  0.68567000  0.51914000  1.0
  H  H26  1  0.53569000  0.68567000  0.98086000  1.0
  H  H27  1  0.96430000  0.31433000  0.48086000  1.0
  H  H28  1  0.57472000  0.32805000  0.93750000  1.0
  H  H29  1  0.92528000  0.67196000  0.43751000  1.0
  H  H30  1  0.42527000  0.67196000  0.06250000  1.0
  H  H31  1  0.07472000  0.32804000  0.56249000  1.0
  H  H32  1  0.01269000  0.38821000  0.99703000  1.0
  H  H33  1  0.48731000  0.61178000  0.49703000  1.0
  H  H34  1  0.98731000  0.61179000  0.00297000  1.0
  H  H35  1  0.51269000  0.38821000  0.50297000  1.0
  H  H36  1  0.90278000  0.37759000  0.07848000  1.0
  H  H37  1  0.59723000  0.62241000  0.57848000  1.0
  H  H38  1  0.09723000  0.62241000  0.92151000  1.0
  H  H39  1  0.40277000  0.37758000  0.42151000  1.0
  H  H40  1  0.05047000  0.46283000  0.13963000  1.0
  H  H41  1  0.44953000  0.53716000  0.63963000  1.0
  H  H42  1  0.94953000  0.53717000  0.86037000  1.0
  H  H43  1  0.55046000  0.46284000  0.36037000  1.0
  H  H44  1  0.03832000  0.25257000  0.13821000  1.0
  H  H45  1  0.46168000  0.74743000  0.63821000  1.0
  H  H46  1  0.96169000  0.74743000  0.86179000  1.0
  H  H47  1  0.53832000  0.25257000  0.36179000  1.0
  H  H48  1  0.35018000  0.19062000  0.26294000  1.0
  H  H49  1  0.14982000  0.80938000  0.76293000  1.0
  H  H50  1  0.64981000  0.80939000  0.73707000  1.0
  H  H51  1  0.85018000  0.19061000  0.23707000  1.0
  H  H52  1  0.35484000  0.40154000  0.25714000  1.0
  H  H53  1  0.14516000  0.59847000  0.75713000  1.0
  H  H54  1  0.64515000  0.59847000  0.74286000  1.0
  H  H55  1  0.85484000  0.40153000  0.24286000  1.0
  H  H56  1  0.02076000  0.87505000  0.14520000  1.0
  H  H57  1  0.47924000  0.12495000  0.64520000  1.0
  H  H58  1  0.97925000  0.12496000  0.85480000  1.0
  H  H59  1  0.52076000  0.87504000  0.35480000  1.0
  H  H60  1  0.00902000  0.08989000  0.14405000  1.0
  H  H61  1  0.49098000  0.91011000  0.64405000  1.0
  H  H62  1  0.99099000  0.91011000  0.85595000  1.0
  H  H63  1  0.50902000  0.08989000  0.35595000  1.0
  H  H64  1  0.37018000  0.01398000  0.25742000  1.0
  H  H65  1  0.12982000  0.98602000  0.75742000  1.0
  H  H66  1  0.62981000  0.98603000  0.74258000  1.0
  H  H67  1  0.87019000  0.01398000  0.24258000  1.0
  H  H68  1  0.36177000  0.80447000  0.25450000  1.0
  H  H69  1  0.13822000  0.19553000  0.75450000  1.0
  H  H70  1  0.63822000  0.19554000  0.74550000  1.0
  H  H71  1  0.86178000  0.80447000  0.24550000  1.0
  C  C72  1  0.57923000  0.59087000  0.19931000  1.0
  C  C73  1  0.92078000  0.40914000  0.69931000  1.0
  C  C74  1  0.42077000  0.40913000  0.80069000  1.0
  C  C75  1  0.07922000  0.59086000  0.30069000  1.0
  C  C76  1  0.64013000  0.53728000  0.15082000  1.0
  C  C77  1  0.85989000  0.46272000  0.65082000  1.0
  C  C78  1  0.35988000  0.46272000  0.84918000  1.0
  C  C79  1  0.14012000  0.53727000  0.34918000  1.0
  C  C80  1  0.67739000  0.34450000  0.05322000  1.0
  C  C81  1  0.82261000  0.65550000  0.55322000  1.0
  C  C82  1  0.32260000  0.65551000  0.94678000  1.0
  C  C83  1  0.17739000  0.34449000  0.44678000  1.0
  C  C84  1  0.58322000  0.33181000  0.01388000  1.0
  C  C85  1  0.91678000  0.66820000  0.51388000  1.0
  C  C86  1  0.41678000  0.66820000  0.98612000  1.0
  C  C87  1  0.08321000  0.33180000  0.48612000  1.0
  C  C88  1  0.64507000  0.33979000  0.96859000  1.0
  C  C89  1  0.85493000  0.66021000  0.46859000  1.0
  C  C90  1  0.35492000  0.66021000  0.03141000  1.0
  C  C91  1  0.14507000  0.33979000  0.53141000  1.0
  C  C92  1  0.79997000  0.35970000  0.96241000  1.0
  C  C93  1  0.70003000  0.64030000  0.46241000  1.0
  C  C94  1  0.20003000  0.64030000  0.03759000  1.0
  C  C95  1  0.29997000  0.35970000  0.53759000  1.0
  C  C96  1  0.89205000  0.37358000  0.00228000  1.0
  C  C97  1  0.60795000  0.62642000  0.50228000  1.0
  C  C98  1  0.10795000  0.62642000  0.99772000  1.0
  C  C99  1  0.39204000  0.37358000  0.49772000  1.0
  C  C100  1  0.83089000  0.36682000  0.04761000  1.0
  C  C101  1  0.66911000  0.63318000  0.54762000  1.0
  C  C102  1  0.16910000  0.63318000  0.95238000  1.0
  C  C103  1  0.33088000  0.36682000  0.45238000  1.0
  C  C104  1  0.87089000  0.36281000  0.91375000  1.0
  C  C105  1  0.62912000  0.63720000  0.41375000  1.0
  C  C106  1  0.12912000  0.63720000  0.08625000  1.0
  C  C107  1  0.37088000  0.36280000  0.58625000  1.0
  C  C108  1  0.11504000  0.39887000  0.16637000  1.0
  C  C109  1  0.38497000  0.60113000  0.66637000  1.0
  C  C110  1  0.88497000  0.60114000  0.83363000  1.0
  C  C111  1  0.61503000  0.39887000  0.33363000  1.0
  C  C112  1  0.10992000  0.28054000  0.16565000  1.0
  C  C113  1  0.39009000  0.71946000  0.66565000  1.0
  C  C114  1  0.89009000  0.71946000  0.83435000  1.0
  C  C115  1  0.60991000  0.28054000  0.33435000  1.0
  C  C116  1  0.19501000  0.20003000  0.20026000  1.0
  C  C117  1  0.30498000  0.79998000  0.70026000  1.0
  C  C118  1  0.80499000  0.79998000  0.79974000  1.0
  C  C119  1  0.69501000  0.20003000  0.29974000  1.0
  C  C120  1  0.28308000  0.24564000  0.23424000  1.0
  C  C121  1  0.21692000  0.75436000  0.73424000  1.0
  C  C122  1  0.71693000  0.75436000  0.76576000  1.0
  C  C123  1  0.78308000  0.24564000  0.26576000  1.0
  C  C124  1  0.28399000  0.36495000  0.23188000  1.0
  C  C125  1  0.21601000  0.63505000  0.73188000  1.0
  C  C126  1  0.71601000  0.63505000  0.76812000  1.0
  C  C127  1  0.78399000  0.36495000  0.26812000  1.0
  C  C128  1  0.09681000  0.90991000  0.16941000  1.0
  C  C129  1  0.40320000  0.09009000  0.66941000  1.0
  C  C130  1  0.90320000  0.09009000  0.83059000  1.0
  C  C131  1  0.59680000  0.90991000  0.33059000  1.0
  C  C132  1  0.09218000  0.03053000  0.16881000  1.0
  C  C133  1  0.40782000  0.96947000  0.66880000  1.0
  C  C134  1  0.90782000  0.96947000  0.83120000  1.0
  C  C135  1  0.59218000  0.03053000  0.33120000  1.0
  C  C136  1  0.19215000  0.07316000  0.20031000  1.0
  C  C137  1  0.30784000  0.92685000  0.70030000  1.0
  C  C138  1  0.80784000  0.92685000  0.79970000  1.0
  C  C139  1  0.69216000  0.07315000  0.29970000  1.0
  C  C140  1  0.28977000  0.98894000  0.23169000  1.0
  C  C141  1  0.21022000  0.01106000  0.73169000  1.0
  C  C142  1  0.71022000  0.01106000  0.76831000  1.0
  C  C143  1  0.78978000  0.98894000  0.26831000  1.0
  C  C144  1  0.28631000  0.87010000  0.23024000  1.0
  C  C145  1  0.21369000  0.12990000  0.73024000  1.0
  C  C146  1  0.71369000  0.12990000  0.76976000  1.0
  C  C147  1  0.78632000  0.87010000  0.26976000  1.0
  S  S148  1  0.60021000  0.33488000  0.11144000  1.0
  S  S149  1  0.89979000  0.66512000  0.61144000  1.0
  S  S150  1  0.39978000  0.66512000  0.88856000  1.0
  S  S151  1  0.10021000  0.33488000  0.38856000  1.0
  N  N152  1  0.53516000  0.47095000  0.13077000  1.0
  N  N153  1  0.96485000  0.52905000  0.63077000  1.0
  N  N154  1  0.46484000  0.52905000  0.86923000  1.0
  N  N155  1  0.03515000  0.47095000  0.36923000  1.0
  N  N156  1  0.20023000  0.44158000  0.19889000  1.0
  N  N157  1  0.29978000  0.55841000  0.69889000  1.0
  N  N158  1  0.79977000  0.55842000  0.80111000  1.0
  N  N159  1  0.70022000  0.44159000  0.30111000  1.0
  N  N160  1  0.19222000  0.82980000  0.19946000  1.0
  N  N161  1  0.30778000  0.17021000  0.69946000  1.0
  N  N162  1  0.80778000  0.17021000  0.80054000  1.0
  N  N163  1  0.69222000  0.82979000  0.30054000  1.0
  O  O164  1  0.44367000  0.58375000  0.21541000  1.0
  O  O165  1  0.05633000  0.41626000  0.71542000  1.0
  O  O166  1  0.55633000  0.41625000  0.78458000  1.0
  O  O167  1  0.94367000  0.58375000  0.28458000  1.0
  O  O168  1  0.67544000  0.63974000  0.22172000  1.0
  O  O169  1  0.82456000  0.36026000  0.72173000  1.0
  O  O170  1  0.32457000  0.36025000  0.77828000  1.0
  O  O171  1  0.17544000  0.63974000  0.27828000  1.0
  O  O172  1  0.45781000  0.29013000  0.10714000  1.0
  O  O173  1  0.04220000  0.70987000  0.60714000  1.0
  O  O174  1  0.54220000  0.70987000  0.89286000  1.0
  O  O175  1  0.95780000  0.29013000  0.39285000  1.0
  O  O176  1  0.74063000  0.27291000  0.14025000  1.0
  O  O177  1  0.75937000  0.72708000  0.64025000  1.0
  O  O178  1  0.25937000  0.72708000  0.85975000  1.0
  O  O179  1  0.24063000  0.27291000  0.35975000  1.0
  O  O180  1  0.77218000  0.36866000  0.87837000  1.0
  O  O181  1  0.72782000  0.63134000  0.37838000  1.0
  O  O182  1  0.22782000  0.63134000  0.12162000  1.0
  O  O183  1  0.27218000  0.36866000  0.62162000  1.0
  O  O184  1  0.02162000  0.35870000  0.91009000  1.0
  O  O185  1  0.47838000  0.64131000  0.41009000  1.0
  O  O186  1  0.97838000  0.64131000  0.08991000  1.0
  O  O187  1  0.52161000  0.35869000  0.58991000  1.0
  O  O188  1  0.93023000  0.69020000  0.17963000  1.0
  O  O189  1  0.56977000  0.30981000  0.67964000  1.0
  O  O190  1  0.06977000  0.30980000  0.82036000  1.0
  O  O191  1  0.43022000  0.69020000  0.32036000  1.0
