# generated using pymatgen
data_AgH12C6SN2O3
_symmetry_space_group_name_H-M   'P 1'
_cell_length_a   6.84729000
_cell_length_b   10.78690000
_cell_length_c   13.58360000
_cell_angle_alpha   77.35800000
_cell_angle_beta   82.72110000
_cell_angle_gamma   88.09060000
_symmetry_Int_Tables_number   1
_chemical_formula_structural   AgH12C6SN2O3
_chemical_formula_sum   'Ag4 H48 C24 S4 N8 O12'
_cell_volume   971.06974890
_cell_formula_units_Z   4
loop_
 _symmetry_equiv_pos_site_id
 _symmetry_equiv_pos_as_xyz
  1  'x, y, z'
loop_
 _atom_site_type_symbol
 _atom_site_label
 _atom_site_symmetry_multiplicity
 _atom_site_fract_x
 _atom_site_fract_y
 _atom_site_fract_z
 _atom_site_occupancy
  Ag  Ag0  1  0.86290000  0.25956000  0.98829000  1.0
  Ag  Ag1  1  0.12651000  0.75121000  0.00583000  1.0
  Ag  Ag2  1  0.98774000  0.25753000  0.40304000  1.0
  Ag  Ag3  1  0.00311000  0.72230000  0.60510000  1.0
  H  H4  1  0.52564000  0.31510000  0.09634000  1.0
  H  H5  1  0.47611000  0.69368000  0.90437000  1.0
  H  H6  1  0.44484000  0.43000000  0.17133000  1.0
  H  H7  1  0.56555000  0.58629000  0.82458000  1.0
  H  H8  1  0.76085000  0.45783000  0.20970000  1.0
  H  H9  1  0.25346000  0.55551000  0.78255000  1.0
  H  H10  1  0.82981000  0.29551000  0.21415000  1.0
  H  H11  1  0.18070000  0.71658000  0.77901000  1.0
  H  H12  1  0.13940000  0.34926000  0.12838000  1.0
  H  H13  1  0.86759000  0.65942000  0.86251000  1.0
  H  H14  1  0.07995000  0.51070000  0.12942000  1.0
  H  H15  1  0.92981000  0.49746000  0.86315000  1.0
  H  H16  1  0.78846000  0.60735000  0.05119000  1.0
  H  H17  1  0.21614000  0.40424000  0.93964000  1.0
  H  H18  1  0.64935000  0.51414000  0.99284000  1.0
  H  H19  1  0.35719000  0.49569000  0.99873000  1.0
  H  H20  1  0.55476000  0.07494000  0.81758000  1.0
  H  H21  1  0.41770000  0.93916000  0.17189000  1.0
  H  H22  1  0.64753000  0.18098000  0.70546000  1.0
  H  H23  1  0.32279000  0.84310000  0.28870000  1.0
  H  H24  1  0.90716000  0.04914000  0.77106000  1.0
  H  H25  1  0.05514000  0.96809000  0.21851000  1.0
  H  H26  1  0.95693000  0.21125000  0.76869000  1.0
  H  H27  1  0.01336000  0.80432000  0.22567000  1.0
  H  H28  1  0.81311000  0.90468000  0.93432000  1.0
  H  H29  1  0.15843000  0.10641000  0.05687000  1.0
  H  H30  1  0.63546000  0.01007000  0.97929000  1.0
  H  H31  1  0.33642000  0.00082000  0.01286000  1.0
  H  H32  1  0.20459000  0.14554000  0.86818000  1.0
  H  H33  1  0.76791000  0.86290000  0.12304000  1.0
  H  H34  1  0.15331000  0.98286000  0.87343000  1.0
  H  H35  1  0.81675000  0.02508000  0.12022000  1.0
  H  H36  1  0.83429000  0.54139000  0.31422000  1.0
  H  H37  1  0.17848000  0.43877000  0.64146000  1.0
  H  H38  1  0.98743000  0.64301000  0.36954000  1.0
  H  H39  1  0.00040000  0.34495000  0.60651000  1.0
  H  H40  1  0.22796000  0.56498000  0.45774000  1.0
  H  H41  1  0.69369000  0.40985000  0.60846000  1.0
  H  H42  1  0.29442000  0.40068000  0.47166000  1.0
  H  H43  1  0.62365000  0.57756000  0.62087000  1.0
  H  H44  1  0.16336000  0.01605000  0.33367000  1.0
  H  H45  1  0.06981000  0.91252000  0.73508000  1.0
  H  H46  1  0.02639000  0.88004000  0.40883000  1.0
  H  H47  1  0.21102000  0.05005000  0.64934000  1.0
  H  H48  1  0.62114000  0.08353000  0.45155000  1.0
  H  H49  1  0.35264000  0.90500000  0.46495000  1.0
  H  H50  1  0.71417000  0.91873000  0.44373000  1.0
  H  H51  1  0.28243000  0.05875000  0.48609000  1.0
  C  C52  1  0.54257000  0.34830000  0.16594000  1.0
  C  C53  1  0.46542000  0.66631000  0.83174000  1.0
  C  C54  1  0.75618000  0.37837000  0.17115000  1.0
  C  C55  1  0.25393000  0.63422000  0.82247000  1.0
  C  C56  1  0.08004000  0.43686000  0.08441000  1.0
  C  C57  1  0.92742000  0.57249000  0.90715000  1.0
  C  C58  1  0.79840000  0.53144000  0.00762000  1.0
  C  C59  1  0.20785000  0.47895000  0.98402000  1.0
  C  C60  1  0.65054000  0.15777000  0.78822000  1.0
  C  C61  1  0.31908000  0.85898000  0.20629000  1.0
  C  C62  1  0.86336000  0.12970000  0.80672000  1.0
  C  C63  1  0.10618000  0.88563000  0.18618000  1.0
  C  C64  1  0.79194000  0.98461000  0.97374000  1.0
  C  C65  1  0.17974000  0.02573000  0.01820000  1.0
  C  C66  1  0.12007000  0.06277000  0.91210000  1.0
  C  C67  1  0.85129000  0.94660000  0.07988000  1.0
  C  C68  1  0.94733000  0.54794000  0.36269000  1.0
  C  C69  1  0.06892000  0.43966000  0.58874000  1.0
  C  C70  1  0.17098000  0.46705000  0.47906000  1.0
  C  C71  1  0.73696000  0.50573000  0.61151000  1.0
  C  C72  1  0.08309000  0.97504000  0.40820000  1.0
  C  C73  1  0.14102000  0.95743000  0.66026000  1.0
  C  C74  1  0.74394000  0.01881000  0.44142000  1.0
  C  C75  1  0.22685000  0.96390000  0.48616000  1.0
  S  S76  1  0.44861000  0.22042000  0.26796000  1.0
  S  S77  1  0.56007000  0.80135000  0.73656000  1.0
  S  S78  1  0.53647000  0.29002000  0.83424000  1.0
  S  S79  1  0.43047000  0.71766000  0.17216000  1.0
  N  N80  1  0.87445000  0.41322000  0.06946000  1.0
  N  N81  1  0.13161000  0.59767000  0.92301000  1.0
  N  N82  1  0.90721000  0.09578000  0.91374000  1.0
  N  N83  1  0.06478000  0.91494000  0.07882000  1.0
  N  N84  1  0.02980000  0.44908000  0.41085000  1.0
  N  N85  1  0.91856000  0.53622000  0.60253000  1.0
  N  N86  1  0.91989000  0.06105000  0.42579000  1.0
  N  N87  1  0.13470000  0.90236000  0.58663000  1.0
  O  O88  1  0.56769000  0.10747000  0.25570000  1.0
  O  O89  1  0.43601000  0.90968000  0.75619000  1.0
  O  O90  1  0.46578000  0.25975000  0.36403000  1.0
  O  O91  1  0.54603000  0.77171000  0.63673000  1.0
  O  O92  1  0.24068000  0.20871000  0.25110000  1.0
  O  O93  1  0.76573000  0.81403000  0.75527000  1.0
  O  O94  1  0.48712000  0.24369000  0.94510000  1.0
  O  O95  1  0.47952000  0.75080000  0.06002000  1.0
  O  O96  1  0.68581000  0.39162000  0.80896000  1.0
  O  O97  1  0.27909000  0.61845000  0.20643000  1.0
  O  O98  1  0.36240000  0.32306000  0.78012000  1.0
  O  O99  1  0.60666000  0.69240000  0.22514000  1.0
