# generated using pymatgen
data_CuH4C7N4O3
_symmetry_space_group_name_H-M   'P 1'
_cell_length_a   6.89488000
_cell_length_b   8.36301000
_cell_length_c   8.49671000
_cell_angle_alpha   112.45300000
_cell_angle_beta   107.27000000
_cell_angle_gamma   96.08970000
_symmetry_Int_Tables_number   1
_chemical_formula_structural   CuH4C7N4O3
_chemical_formula_sum   'Cu2 H8 C14 N8 O6'
_cell_volume   418.79927777
_cell_formula_units_Z   2
loop_
 _symmetry_equiv_pos_site_id
 _symmetry_equiv_pos_as_xyz
  1  'x, y, z'
loop_
 _atom_site_type_symbol
 _atom_site_label
 _atom_site_symmetry_multiplicity
 _atom_site_fract_x
 _atom_site_fract_y
 _atom_site_fract_z
 _atom_site_occupancy
  Cu  Cu0  1  0.10582000  0.24387000  0.07413000  1.0
  Cu  Cu1  1  0.89416000  0.75612000  0.92585000  1.0
  H  H2  1  0.84403000  0.37640000  0.21939000  1.0
  H  H3  1  0.15597000  0.62362000  0.78061000  1.0
  H  H4  1  0.75540000  0.33314000  0.01008000  1.0
  H  H5  1  0.24460000  0.66688000  0.98992000  1.0
  H  H6  1  0.34966000  0.07626000  0.93761000  1.0
  H  H7  1  0.65033000  0.92374000  0.06238000  1.0
  H  H8  1  0.36075000  0.02509000  0.10280000  1.0
  H  H9  1  0.63924000  0.97490000  0.89719000  1.0
  C  C10  1  0.26847000  0.24037000  0.44656000  1.0
  C  C11  1  0.73153000  0.75963000  0.55347000  1.0
  C  C12  1  0.52082000  0.40233000  0.74604000  1.0
  C  C13  1  0.47917000  0.59768000  0.25394000  1.0
  C  C14  1  0.12353000  0.86572000  0.33992000  1.0
  C  C15  1  0.87647000  0.13428000  0.66010000  1.0
  C  C16  1  0.24445000  0.77489000  0.57828000  1.0
  C  C17  1  0.75554000  0.22510000  0.42171000  1.0
  C  C18  1  0.38025000  0.23973000  0.61184000  1.0
  C  C19  1  0.61975000  0.76026000  0.38817000  1.0
  C  C20  1  0.37253000  0.08811000  0.65435000  1.0
  C  C21  1  0.62747000  0.91189000  0.34565000  1.0
  C  C22  1  0.24166000  0.91292000  0.52268000  1.0
  C  C23  1  0.75833000  0.08708000  0.47731000  1.0
  N  N24  1  0.17142000  0.25097000  0.31348000  1.0
  N  N25  1  0.82863000  0.74902000  0.68653000  1.0
  N  N26  1  0.64043000  0.53770000  0.85551000  1.0
  N  N27  1  0.35957000  0.46229000  0.14448000  1.0
  N  N28  1  0.02470000  0.82174000  0.18558000  1.0
  N  N29  1  0.97530000  0.17827000  0.81444000  1.0
  N  N30  1  0.25038000  0.66195000  0.62778000  1.0
  N  N31  1  0.74963000  0.33806000  0.37222000  1.0
  O  O32  1  0.48824000  0.11216000  0.81519000  1.0
  O  O33  1  0.51174000  0.88784000  0.18480000  1.0
  O  O34  1  0.88544000  0.38670000  0.11915000  1.0
  O  O35  1  0.11457000  0.61330000  0.88086000  1.0
  O  O36  1  0.26550000  0.05059000  0.00703000  1.0
  O  O37  1  0.73450000  0.94942000  0.99298000  1.0
