# generated using pymatgen
data_Zn3P2H20C18(N2O5)2
_symmetry_space_group_name_H-M   'P 1'
_cell_length_a   8.59158000
_cell_length_b   16.43250000
_cell_length_c   18.62620000
_cell_angle_alpha   102.23700000
_cell_angle_beta   89.99990000
_cell_angle_gamma   90.00000000
_symmetry_Int_Tables_number   1
_chemical_formula_structural   Zn3P2H20C18(N2O5)2
_chemical_formula_sum   'Zn12 P8 H80 C72 N16 O40'
_cell_volume   2569.92001594
_cell_formula_units_Z   4
loop_
 _symmetry_equiv_pos_site_id
 _symmetry_equiv_pos_as_xyz
  1  'x, y, z'
loop_
 _atom_site_type_symbol
 _atom_site_label
 _atom_site_symmetry_multiplicity
 _atom_site_fract_x
 _atom_site_fract_y
 _atom_site_fract_z
 _atom_site_occupancy
  Zn  Zn0  1  0.79647000  0.24288000  0.74218000  1.0
  Zn  Zn1  1  0.29647000  0.75712000  0.75782000  1.0
  Zn  Zn2  1  0.20353000  0.75712000  0.25782000  1.0
  Zn  Zn3  1  0.70353000  0.24288000  0.24218000  1.0
  Zn  Zn4  1  0.22701000  0.06261000  0.72398000  1.0
  Zn  Zn5  1  0.72700000  0.93739000  0.77602000  1.0
  Zn  Zn6  1  0.77299000  0.93739000  0.27602000  1.0
  Zn  Zn7  1  0.27299000  0.06261000  0.22398000  1.0
  Zn  Zn8  1  0.73889000  0.54423000  0.70482000  1.0
  Zn  Zn9  1  0.23889000  0.45577000  0.79518000  1.0
  Zn  Zn10  1  0.26111000  0.45577000  0.29518000  1.0
  Zn  Zn11  1  0.76111000  0.54423000  0.20483000  1.0
  P  P12  1  0.59467000  0.08460000  0.71897000  1.0
  P  P13  1  0.09467000  0.91540000  0.78102000  1.0
  P  P14  1  0.40533000  0.91540000  0.28103000  1.0
  P  P15  1  0.90533000  0.08460000  0.21897000  1.0
  P  P16  1  0.55857000  0.38899000  0.74576000  1.0
  P  P17  1  0.05857000  0.61101000  0.75424000  1.0
  P  P18  1  0.44143000  0.61101000  0.25424000  1.0
  P  P19  1  0.94144000  0.38899000  0.24576000  1.0
  H  H20  1  0.76425000  0.07123000  0.41743000  1.0
  H  H21  1  0.26425000  0.92877000  0.08257000  1.0
  H  H22  1  0.23575000  0.92877000  0.58257000  1.0
  H  H23  1  0.73575000  0.07123000  0.91743000  1.0
  H  H24  1  0.78248000  0.07825000  0.55412000  1.0
  H  H25  1  0.28248000  0.92175000  0.94588000  1.0
  H  H26  1  0.21752000  0.92175000  0.44588000  1.0
  H  H27  1  0.71752000  0.07825000  0.05412000  1.0
  H  H28  1  0.87836000  0.81432000  0.50251000  1.0
  H  H29  1  0.37836000  0.18568000  0.99749000  1.0
  H  H30  1  0.12164000  0.18569000  0.49749000  1.0
  H  H31  1  0.62164000  0.81431000  0.00251000  1.0
  H  H32  1  0.85186000  0.81819000  0.36971000  1.0
  H  H33  1  0.35186000  0.18181000  0.13029000  1.0
  H  H34  1  0.14814000  0.18181000  0.63029000  1.0
  H  H35  1  0.64815000  0.81819000  0.86971000  1.0
  H  H36  1  0.92731000  0.90203000  0.63094000  1.0
  H  H37  1  0.42731000  0.09797000  0.86905000  1.0
  H  H38  1  0.07269000  0.09797000  0.36906000  1.0
  H  H39  1  0.57269000  0.90203000  0.13095000  1.0
  H  H40  1  0.87517000  0.00880000  0.65031000  1.0
  H  H41  1  0.37517000  0.99120000  0.84969000  1.0
  H  H42  1  0.12483000  0.99120000  0.34969000  1.0
  H  H43  1  0.62483000  0.00880000  0.15031000  1.0
  H  H44  1  0.73477000  0.79818000  0.62287000  1.0
  H  H45  1  0.23477000  0.20181000  0.87713000  1.0
  H  H46  1  0.26523000  0.20182000  0.37713000  1.0
  H  H47  1  0.76524000  0.79818000  0.12287000  1.0
  H  H48  1  0.57607000  0.83049000  0.57318000  1.0
  H  H49  1  0.07607000  0.16951000  0.92682000  1.0
  H  H50  1  0.42394000  0.16951000  0.42682000  1.0
  H  H51  1  0.92394000  0.83049000  0.07318000  1.0
  H  H52  1  0.45777000  0.96006000  0.66490000  1.0
  H  H53  1  0.95777000  0.03994000  0.83510000  1.0
  H  H54  1  0.54223000  0.03994000  0.33510000  1.0
  H  H55  1  0.04223000  0.96006000  0.16490000  1.0
  H  H56  1  0.55032000  0.00020000  0.59463000  1.0
  H  H57  1  0.05032000  0.99980000  0.90537000  1.0
  H  H58  1  0.44967000  0.99980000  0.40537000  1.0
  H  H59  1  0.94967000  0.00020000  0.09463000  1.0
  H  H60  1  0.14551000  0.55671000  0.43267000  1.0
  H  H61  1  0.64551000  0.44329000  0.06733000  1.0
  H  H62  1  0.85448000  0.44329000  0.56733000  1.0
  H  H63  1  0.35448000  0.55671000  0.93267000  1.0
  H  H64  1  0.16403000  0.56882000  0.56920000  1.0
  H  H65  1  0.66403000  0.43118000  0.93080000  1.0
  H  H66  1  0.83597000  0.43118000  0.43080000  1.0
  H  H67  1  0.33597000  0.56882000  0.06920000  1.0
  H  H68  1  0.47933000  0.35936000  0.52523000  1.0
  H  H69  1  0.97933000  0.64064000  0.97477000  1.0
  H  H70  1  0.52067000  0.64064000  0.47477000  1.0
  H  H71  1  0.02067000  0.35936000  0.02523000  1.0
  H  H72  1  0.44545000  0.35490000  0.39174000  1.0
  H  H73  1  0.94545000  0.64510000  0.10827000  1.0
  H  H74  1  0.55455000  0.64510000  0.60826000  1.0
  H  H75  1  0.05455000  0.35490000  0.89174000  1.0
  H  H76  1  0.46593000  0.48445000  0.65444000  1.0
  H  H77  1  0.96593000  0.51555000  0.84556000  1.0
  H  H78  1  0.53407000  0.51555000  0.34556000  1.0
  H  H79  1  0.03407000  0.48445000  0.15444000  1.0
  H  H80  1  0.28161000  0.53207000  0.66771000  1.0
  H  H81  1  0.78161000  0.46793000  0.83229000  1.0
  H  H82  1  0.71839000  0.46793000  0.33229000  1.0
  H  H83  1  0.21839000  0.53207000  0.16771000  1.0
  H  H84  1  0.15145000  0.32287000  0.59206000  1.0
  H  H85  1  0.65145000  0.67713000  0.90794000  1.0
  H  H86  1  0.84855000  0.67713000  0.40794000  1.0
  H  H87  1  0.34855000  0.32287000  0.09206000  1.0
  H  H88  1  0.06900000  0.42257000  0.63049000  1.0
  H  H89  1  0.56900000  0.57743000  0.86952000  1.0
  H  H90  1  0.93100000  0.57743000  0.36951000  1.0
  H  H91  1  0.43100000  0.42257000  0.13048000  1.0
  H  H92  1  0.45817000  0.31222000  0.62673000  1.0
  H  H93  1  0.95817000  0.68778000  0.87327000  1.0
  H  H94  1  0.54183000  0.68778000  0.37327000  1.0
  H  H95  1  0.04183000  0.31222000  0.12673000  1.0
  H  H96  1  0.34949000  0.29297000  0.70245000  1.0
  H  H97  1  0.84949000  0.70703000  0.79755000  1.0
  H  H98  1  0.65051000  0.70703000  0.29755000  1.0
  H  H99  1  0.15051000  0.29297000  0.20245000  1.0
  C  C100  1  0.78463000  0.01576000  0.43963000  1.0
  C  C101  1  0.28463000  0.98424000  0.06037000  1.0
  C  C102  1  0.21537000  0.98424000  0.56037000  1.0
  C  C103  1  0.71537000  0.01576000  0.93963000  1.0
  C  C104  1  0.79596000  0.01918000  0.51471000  1.0
  C  C105  1  0.29597000  0.98082000  0.98529000  1.0
  C  C106  1  0.20403000  0.98082000  0.48529000  1.0
  C  C107  1  0.70403000  0.01918000  0.01471000  1.0
  C  C108  1  0.82868000  0.94609000  0.53936000  1.0
  C  C109  1  0.32868000  0.05390000  0.96064000  1.0
  C  C110  1  0.17132000  0.05391000  0.46064000  1.0
  C  C111  1  0.67132000  0.94609000  0.03936000  1.0
  C  C112  1  0.84824000  0.87242000  0.48643000  1.0
  C  C113  1  0.34824000  0.12758000  0.01357000  1.0
  C  C114  1  0.15176000  0.12758000  0.51357000  1.0
  C  C115  1  0.65176000  0.87242000  0.98643000  1.0
  C  C116  1  0.83333000  0.87374000  0.41246000  1.0
  C  C117  1  0.33333333  0.12626000  0.08754000  1.0
  C  C118  1  0.16667000  0.12626000  0.58754000  1.0
  C  C119  1  0.66666667  0.87374000  0.91246000  1.0
  C  C120  1  0.84003000  0.94666000  0.62008000  1.0
  C  C121  1  0.34004000  0.05334000  0.87992000  1.0
  C  C122  1  0.15996000  0.05334000  0.37992000  1.0
  C  C123  1  0.65996000  0.94666000  0.12008000  1.0
  C  C124  1  0.63503000  0.84109000  0.62696000  1.0
  C  C125  1  0.13503000  0.15891000  0.87304000  1.0
  C  C126  1  0.36497000  0.15891000  0.37304000  1.0
  C  C127  1  0.86497000  0.84109000  0.12696000  1.0
  C  C128  1  0.52406000  0.81999000  0.68474000  1.0
  C  C129  1  0.02406000  0.18001000  0.81526000  1.0
  C  C130  1  0.47594000  0.18001000  0.31526000  1.0
  C  C131  1  0.97594000  0.81999000  0.18474000  1.0
  C  C132  1  0.56675000  0.98735000  0.64992000  1.0
  C  C133  1  0.06675000  0.01265000  0.85008000  1.0
  C  C134  1  0.43325000  0.01265000  0.35008000  1.0
  C  C135  1  0.93325000  0.98735000  0.14992000  1.0
  C  C136  1  0.21589000  0.51351000  0.45600000  1.0
  C  C137  1  0.71589000  0.48649000  0.04400000  1.0
  C  C138  1  0.78411000  0.48648000  0.54400000  1.0
  C  C139  1  0.28411000  0.51351000  0.95600000  1.0
  C  C140  1  0.22701000  0.52005000  0.53142000  1.0
  C  C141  1  0.72701000  0.47995000  0.96858000  1.0
  C  C142  1  0.77299000  0.47995000  0.46858000  1.0
  C  C143  1  0.27299000  0.52005000  0.03142000  1.0
  C  C144  1  0.32252000  0.46447000  0.55888000  1.0
  C  C145  1  0.82252000  0.53553000  0.94112000  1.0
  C  C146  1  0.67749000  0.53553000  0.44112000  1.0
  C  C147  1  0.17748000  0.46447000  0.05888000  1.0
  C  C148  1  0.40041000  0.40322000  0.50766000  1.0
  C  C149  1  0.90041000  0.59678000  0.99234000  1.0
  C  C150  1  0.59959000  0.59678000  0.49234000  1.0
  C  C151  1  0.09959000  0.40322000  0.00766000  1.0
  C  C152  1  0.38278000  0.40025000  0.43291000  1.0
  C  C153  1  0.88279000  0.59975000  0.06709000  1.0
  C  C154  1  0.61722000  0.59975000  0.56709000  1.0
  C  C155  1  0.11722000  0.40025000  0.93291000  1.0
  C  C156  1  0.34239000  0.47521000  0.64066000  1.0
  C  C157  1  0.84238000  0.52479000  0.85935000  1.0
  C  C158  1  0.65761000  0.52479000  0.35935000  1.0
  C  C159  1  0.15762000  0.47521000  0.14066000  1.0
  C  C160  1  0.13877000  0.37101000  0.64288000  1.0
  C  C161  1  0.63877000  0.62899000  0.85712000  1.0
  C  C162  1  0.86123000  0.62899000  0.35712000  1.0
  C  C163  1  0.36124000  0.37101000  0.14287000  1.0
  C  C164  1  0.04267000  0.33735000  0.69875000  1.0
  C  C165  1  0.54268000  0.66265000  0.80125000  1.0
  C  C166  1  0.95733000  0.66265000  0.30125000  1.0
  C  C167  1  0.45733000  0.33735000  0.19875000  1.0
  C  C168  1  0.40561000  0.34222000  0.67980000  1.0
  C  C169  1  0.90561000  0.65779000  0.82019000  1.0
  C  C170  1  0.59439000  0.65778000  0.32020000  1.0
  C  C171  1  0.09440000  0.34221000  0.17980000  1.0
  N  N172  1  0.80162000  0.94422000  0.38940000  1.0
  N  N173  1  0.30162000  0.05578000  0.11060000  1.0
  N  N174  1  0.19838000  0.05578000  0.61060000  1.0
  N  N175  1  0.69838000  0.94422000  0.88940000  1.0
  N  N176  1  0.69132000  0.92652000  0.65246000  1.0
  N  N177  1  0.19132000  0.07348000  0.84754000  1.0
  N  N178  1  0.30868000  0.07348000  0.34754000  1.0
  N  N179  1  0.80868000  0.92652000  0.15246000  1.0
  N  N180  1  0.29242000  0.45482000  0.40737000  1.0
  N  N181  1  0.79242000  0.54518000  0.09264000  1.0
  N  N182  1  0.70758000  0.54518000  0.59263000  1.0
  N  N183  1  0.20758000  0.45482000  0.90736000  1.0
  N  N184  1  0.28689000  0.40574000  0.67358000  1.0
  N  N185  1  0.78689000  0.59426000  0.82642000  1.0
  N  N186  1  0.71311000  0.59426000  0.32642000  1.0
  N  N187  1  0.21311000  0.40574000  0.17358000  1.0
  O  O188  1  0.69631000  0.14286000  0.68411000  1.0
  O  O189  1  0.19631000  0.85714000  0.81589000  1.0
  O  O190  1  0.30369000  0.85714000  0.31589000  1.0
  O  O191  1  0.80369000  0.14286000  0.18411000  1.0
  O  O192  1  0.43029000  0.11966000  0.73812000  1.0
  O  O193  1  0.93029000  0.88034000  0.76188000  1.0
  O  O194  1  0.56971000  0.88034000  0.26188000  1.0
  O  O195  1  0.06970000  0.11966000  0.23812000  1.0
  O  O196  1  0.67703000  0.05771000  0.78401000  1.0
  O  O197  1  0.17703000  0.94229000  0.71598000  1.0
  O  O198  1  0.32297000  0.94229000  0.21599000  1.0
  O  O199  1  0.82297000  0.05771000  0.28401000  1.0
  O  O200  1  0.41105000  0.77101000  0.66404000  1.0
  O  O201  1  0.91105000  0.22898000  0.83595000  1.0
  O  O202  1  0.58895000  0.22899000  0.33595000  1.0
  O  O203  1  0.08895000  0.77101000  0.16405000  1.0
  O  O204  1  0.55100000  0.85210000  0.75198000  1.0
  O  O205  1  0.05100000  0.14790000  0.74802000  1.0
  O  O206  1  0.44900000  0.14790000  0.24802000  1.0
  O  O207  1  0.94900000  0.85210000  0.25198000  1.0
  O  O208  1  0.63049000  0.32059000  0.77959000  1.0
  O  O209  1  0.13049000  0.67941000  0.72041000  1.0
  O  O210  1  0.36951000  0.67942000  0.22041000  1.0
  O  O211  1  0.86951000  0.32058000  0.27959000  1.0
  O  O212  1  0.67802000  0.42890000  0.70209000  1.0
  O  O213  1  0.17802000  0.57110000  0.79791000  1.0
  O  O214  1  0.32198000  0.57110000  0.29790000  1.0
  O  O215  1  0.82198000  0.42890000  0.20210000  1.0
  O  O216  1  0.47131000  0.45305000  0.80438000  1.0
  O  O217  1  0.97131000  0.54695000  0.69561000  1.0
  O  O218  1  0.52869000  0.54696000  0.19561000  1.0
  O  O219  1  0.02869000  0.45304000  0.30439000  1.0
  O  O220  1  0.93759000  0.28498000  0.67260000  1.0
  O  O221  1  0.43759000  0.71502000  0.82740000  1.0
  O  O222  1  0.06241000  0.71502000  0.32740000  1.0
  O  O223  1  0.56242000  0.28498000  0.17260000  1.0
  O  O224  1  0.06930000  0.36419000  0.76670000  1.0
  O  O225  1  0.56930000  0.63581000  0.73330000  1.0
  O  O226  1  0.93070000  0.63581000  0.23330000  1.0
  O  O227  1  0.43071000  0.36420000  0.26670000  1.0
