# generated using pymatgen
data_NiH10(C6S)2
_symmetry_space_group_name_H-M   'P 1'
_cell_length_a   6.28666000
_cell_length_b   12.06650000
_cell_length_c   15.16470000
_cell_angle_alpha   95.09320000
_cell_angle_beta   89.99950000
_cell_angle_gamma   89.99980000
_symmetry_Int_Tables_number   1
_chemical_formula_structural   NiH10(C6S)2
_chemical_formula_sum   'Ni4 H40 C48 S8'
_cell_volume   1145.82146750
_cell_formula_units_Z   4
loop_
 _symmetry_equiv_pos_site_id
 _symmetry_equiv_pos_as_xyz
  1  'x, y, z'
loop_
 _atom_site_type_symbol
 _atom_site_label
 _atom_site_symmetry_multiplicity
 _atom_site_fract_x
 _atom_site_fract_y
 _atom_site_fract_z
 _atom_site_occupancy
  Ni  Ni0  1  0.06816000  0.49961000  0.24974000  1.0
  Ni  Ni1  1  0.56816000  0.50038000  0.25025000  1.0
  Ni  Ni2  1  0.93186000  0.50038000  0.75026000  1.0
  Ni  Ni3  1  0.43187000  0.49962000  0.74975000  1.0
  H  H4  1  0.27575000  0.48385000  0.06732000  1.0
  H  H5  1  0.77571000  0.51614000  0.43268000  1.0
  H  H6  1  0.72427000  0.51615000  0.93269000  1.0
  H  H7  1  0.22425000  0.48386000  0.56733000  1.0
  H  H8  1  0.26334000  0.40820000  0.91021000  1.0
  H  H9  1  0.76331000  0.59180000  0.58978000  1.0
  H  H10  1  0.73665000  0.59182000  0.08979000  1.0
  H  H11  1  0.23661000  0.40821000  0.41022000  1.0
  H  H12  1  0.30050000  0.20531000  0.86954000  1.0
  H  H13  1  0.80050000  0.79469000  0.63045000  1.0
  H  H14  1  0.69945000  0.79471000  0.13045000  1.0
  H  H15  1  0.19944000  0.20532000  0.36955000  1.0
  H  H16  1  0.36481000  0.07745000  0.98812000  1.0
  H  H17  1  0.86483000  0.92254000  0.51187000  1.0
  H  H18  1  0.63516000  0.92256000  0.01187000  1.0
  H  H19  1  0.13518000  0.07746000  0.48812000  1.0
  H  H20  1  0.37403000  0.15331000  0.14606000  1.0
  H  H21  1  0.87405000  0.84667000  0.35393000  1.0
  H  H22  1  0.62597000  0.84668000  0.85392000  1.0
  H  H23  1  0.12600000  0.15332000  0.64607000  1.0
  H  H24  1  0.88040000  0.20422000  0.06668000  1.0
  H  H25  1  0.38043000  0.79576000  0.43332000  1.0
  H  H26  1  0.11959000  0.79577000  0.93332000  1.0
  H  H27  1  0.61961000  0.20424000  0.56668000  1.0
  H  H28  1  0.87455000  0.00678000  0.10359000  1.0
  H  H29  1  0.37458000  0.99320000  0.39642000  1.0
  H  H30  1  0.12543000  0.99321000  0.89642000  1.0
  H  H31  1  0.62545000  0.00679000  0.60357000  1.0
  H  H32  1  0.79514000  0.96273000  0.25692000  1.0
  H  H33  1  0.29514000  0.03727000  0.24310000  1.0
  H  H34  1  0.20485000  0.03727000  0.74310000  1.0
  H  H35  1  0.70486000  0.96272000  0.75690000  1.0
  H  H36  1  0.73682000  0.11650000  0.37578000  1.0
  H  H37  1  0.23681000  0.88352000  0.12423000  1.0
  H  H38  1  0.26318000  0.88352000  0.62423000  1.0
  H  H39  1  0.76319000  0.11648000  0.87577000  1.0
  H  H40  1  0.75250000  0.31305000  0.33979000  1.0
  H  H41  1  0.25250000  0.68695000  0.16021000  1.0
  H  H42  1  0.24752000  0.68696000  0.66021000  1.0
  H  H43  1  0.74752000  0.31304000  0.83979000  1.0
  C  C44  1  0.32128000  0.32279000  0.11665000  1.0
  C  C45  1  0.82127000  0.67720000  0.38334000  1.0
  C  C46  1  0.67874000  0.67721000  0.88334000  1.0
  C  C47  1  0.17875000  0.32280000  0.61666000  1.0
  C  C48  1  0.29280000  0.39470000  0.04978000  1.0
  C  C49  1  0.79278000  0.60529000  0.45021000  1.0
  C  C50  1  0.70721000  0.60530000  0.95022000  1.0
  C  C51  1  0.20720000  0.39472000  0.54979000  1.0
  C  C52  1  0.28522000  0.35170000  0.96164000  1.0
  C  C53  1  0.78519000  0.64830000  0.53836000  1.0
  C  C54  1  0.71478000  0.64831000  0.03836000  1.0
  C  C55  1  0.21476000  0.35171000  0.46165000  1.0
  C  C56  1  0.30766000  0.23743000  0.93893000  1.0
  C  C57  1  0.80766000  0.76257000  0.56106000  1.0
  C  C58  1  0.69232000  0.76258000  0.06106000  1.0
  C  C59  1  0.19230000  0.23744000  0.43894000  1.0
  C  C60  1  0.34252000  0.16643000  0.00528000  1.0
  C  C61  1  0.84253000  0.83357000  0.49471000  1.0
  C  C62  1  0.65746000  0.83358000  0.99471000  1.0
  C  C63  1  0.15748000  0.16644000  0.50529000  1.0
  C  C64  1  0.34858000  0.20862000  0.09409000  1.0
  C  C65  1  0.84859000  0.79137000  0.40590000  1.0
  C  C66  1  0.65142000  0.79138000  0.90590000  1.0
  C  C67  1  0.15145000  0.20863000  0.59410000  1.0
  C  C68  1  0.81608000  0.27044000  0.20094000  1.0
  C  C69  1  0.31609000  0.72955000  0.29906000  1.0
  C  C70  1  0.18393000  0.72955000  0.79906000  1.0
  C  C71  1  0.68393000  0.27045000  0.70094000  1.0
  C  C72  1  0.85060000  0.18432000  0.13431000  1.0
  C  C73  1  0.35062000  0.81566000  0.36569000  1.0
  C  C74  1  0.14939000  0.81567000  0.86569000  1.0
  C  C75  1  0.64940000  0.18434000  0.63431000  1.0
  C  C76  1  0.84522000  0.07389000  0.15515000  1.0
  C  C77  1  0.34525000  0.92610000  0.34486000  1.0
  C  C78  1  0.15475000  0.92610000  0.84486000  1.0
  C  C79  1  0.65477000  0.07390000  0.65514000  1.0
  C  C80  1  0.80218000  0.04902000  0.24145000  1.0
  C  C81  1  0.30219000  0.95098000  0.25857000  1.0
  C  C82  1  0.19780000  0.95099000  0.75856000  1.0
  C  C83  1  0.69780000  0.04901000  0.74144000  1.0
  C  C84  1  0.76832000  0.13506000  0.30790000  1.0
  C  C85  1  0.26832000  0.86495000  0.19211000  1.0
  C  C86  1  0.23168000  0.86495000  0.69211000  1.0
  C  C87  1  0.73168000  0.13505000  0.80789000  1.0
  C  C88  1  0.77665000  0.24552000  0.28810000  1.0
  C  C89  1  0.27666000  0.75449000  0.21190000  1.0
  C  C90  1  0.22336000  0.75449000  0.71190000  1.0
  C  C91  1  0.72335000  0.24551000  0.78810000  1.0
  S  S92  1  0.31870000  0.37279000  0.23049000  1.0
  S  S93  1  0.81870000  0.62719000  0.26950000  1.0
  S  S94  1  0.68132000  0.62720000  0.76950000  1.0
  S  S95  1  0.18132000  0.37280000  0.73050000  1.0
  S  S96  1  0.81736000  0.41006000  0.17166000  1.0
  S  S97  1  0.31736000  0.58992000  0.32833000  1.0
  S  S98  1  0.18266000  0.58993000  0.82834000  1.0
  S  S99  1  0.68266000  0.41007000  0.67167000  1.0
