# generated using pymatgen
data_Zn4H18C32N4O23
_symmetry_space_group_name_H-M   'P 1'
_cell_length_a   10.85670000
_cell_length_b   19.19400000
_cell_length_c   19.20460000
_cell_angle_alpha   94.67360000
_cell_angle_beta   92.34070000
_cell_angle_gamma   95.73340000
_symmetry_Int_Tables_number   1
_chemical_formula_structural   Zn4H18C32N4O23
_chemical_formula_sum   'Zn4 H18 C32 N4 O23'
_cell_volume   3963.81864452
_cell_formula_units_Z   1
loop_
 _symmetry_equiv_pos_site_id
 _symmetry_equiv_pos_as_xyz
  1  'x, y, z'
loop_
 _atom_site_type_symbol
 _atom_site_label
 _atom_site_symmetry_multiplicity
 _atom_site_fract_x
 _atom_site_fract_y
 _atom_site_fract_z
 _atom_site_occupancy
  Zn  Zn0  1  0.38987000  0.43528000  0.43554000  1.0
  Zn  Zn1  1  0.61393000  0.55809000  0.44675000  1.0
  Zn  Zn2  1  0.58912000  0.44878000  0.56375000  1.0
  Zn  Zn3  1  0.40394000  0.56206000  0.55902000  1.0
  H  H4  1  0.00127000  0.50760000  0.41877000  1.0
  H  H5  1  0.51552000  0.40260000  0.77130000  1.0
  H  H6  1  0.92269000  0.49495000  0.61706000  1.0
  H  H7  1  0.35041000  0.76929000  0.53610000  1.0
  H  H8  1  0.34954000  0.95442000  0.52791000  1.0
  H  H9  1  0.25640000  0.03260000  0.47594000  1.0
  H  H10  1  0.18918000  0.18016000  0.46698000  1.0
  H  H11  1  0.73220000  0.72720000  0.46828000  1.0
  H  H12  1  0.66634000  0.10774000  0.52860000  1.0
  H  H13  1  0.73208000  0.91247000  0.47423000  1.0
  H  H14  1  0.68008000  0.29242000  0.53359000  1.0
  H  H15  1  0.54995000  0.60775000  0.28712000  1.0
  H  H16  1  0.49931000  0.59074000  0.04533000  1.0
  H  H17  1  0.45827000  0.62787000  0.90822000  1.0
  H  H18  1  0.45545000  0.62192000  0.77698000  1.0
  H  H19  1  0.47485000  0.37413000  0.22589000  1.0
  H  H20  1  0.49986000  0.40699000  0.95731000  1.0
  H  H21  1  0.46670000  0.31586000  0.11409000  1.0
  C  C22  1  0.53199000  0.69034000  0.50636000  1.0
  C  C23  1  0.53884000  0.76756000  0.50518000  1.0
  C  C24  1  0.64851000  0.80787000  0.48667000  1.0
  C  C25  1  0.48145000  0.31339000  0.49693000  1.0
  C  C26  1  0.64903000  0.88042000  0.48725000  1.0
  C  C27  1  0.48628000  0.51195000  0.76696000  1.0
  C  C28  1  0.50174000  0.45173000  0.80106000  1.0
  C  C29  1  0.49745000  0.45329000  0.87396000  1.0
  C  C30  1  0.48345000  0.51868000  0.91287000  1.0
  C  C31  1  0.46935000  0.57901000  0.87705000  1.0
  C  C32  1  0.46834000  0.57591000  0.80496000  1.0
  C  C33  1  0.58556000  0.20411000  0.51660000  1.0
  C  C34  1  0.50554000  0.54623000  0.12903000  1.0
  C  C35  1  0.51754000  0.55033000  0.20321000  1.0
  C  C36  1  0.49085000  0.47942000  0.08983000  1.0
  C  C37  1  0.50601000  0.48995000  0.31370000  1.0
  C  C38  1  0.50379000  0.48753000  0.23676000  1.0
  C  C39  1  0.48520000  0.42115000  0.19753000  1.0
  C  C40  1  0.48220000  0.41665000  0.12556000  1.0
  C  C41  1  0.48975000  0.50867000  0.68932000  1.0
  C  C42  1  0.82698000  0.50908000  0.51376000  1.0
  C  C43  1  0.17501000  0.50168000  0.48046000  1.0
  C  C44  1  0.58210000  0.13163000  0.51681000  1.0
  C  C45  1  0.04138000  0.50731000  0.47152000  1.0
  C  C46  1  0.96436000  0.50719000  0.52525000  1.0
  C  C47  1  0.47534000  0.23678000  0.50020000  1.0
  C  C48  1  0.46910000  0.08949000  0.50401000  1.0
  C  C49  1  0.35947000  0.12023000  0.49008000  1.0
  C  C50  1  0.36220000  0.19322000  0.48709000  1.0
  C  C51  1  0.43184000  0.87289000  0.51991000  1.0
  C  C52  1  0.43336000  0.80079000  0.52222000  1.0
  C  C53  1  0.54256000  0.91375000  0.50258000  1.0
  N  N54  1  0.45497000  0.01639000  0.50498000  1.0
  N  N55  1  0.55486000  0.98604000  0.49948000  1.0
  N  N56  1  0.48377000  0.52739000  0.98511000  1.0
  N  N57  1  0.48657000  0.47111000  0.01786000  1.0
  O  O58  1  0.50015000  0.50149000  0.49986000  1.0
  O  O59  1  0.78403000  0.52902000  0.45705000  1.0
  O  O60  1  0.23006000  0.53018000  0.53728000  1.0
  O  O61  1  0.76514000  0.49078000  0.56604000  1.0
  O  O62  1  0.22529000  0.46842000  0.43009000  1.0
  O  O63  1  0.69658000  0.24208000  0.53123000  1.0
  O  O64  1  0.53776000  0.61528000  0.23673000  1.0
  O  O65  1  0.51163000  0.60608000  0.09775000  1.0
  O  O66  1  0.50810000  0.39411000  0.90529000  1.0
  O  O67  1  0.46959000  0.35453000  0.08418000  1.0
  O  O68  1  0.00033000  0.50112000  0.59232000  1.0
  O  O69  1  0.46486000  0.43555000  0.34262000  1.0
  O  O70  1  0.32766000  0.90308000  0.53458000  1.0
  O  O71  1  0.24553000  0.08262000  0.47686000  1.0
  O  O72  1  0.25390000  0.21991000  0.47260000  1.0
  O  O73  1  0.75288000  0.77887000  0.46919000  1.0
  O  O74  1  0.44874000  0.55899000  0.65872000  1.0
  O  O75  1  0.62265000  0.65914000  0.47994000  1.0
  O  O76  1  0.58156000  0.35038000  0.52492000  1.0
  O  O77  1  0.43860000  0.65891000  0.53248000  1.0
  O  O78  1  0.39314000  0.34042000  0.46742000  1.0
  O  O79  1  0.55066000  0.54896000  0.34821000  1.0
  O  O80  1  0.53488000  0.45557000  0.65901000  1.0
