# generated using pymatgen
data_Zn2H7C36N2Cl17O8
_symmetry_space_group_name_H-M   'P 1'
_cell_length_a   10.90350000
_cell_length_b   16.83310000
_cell_length_c   17.69100000
_cell_angle_alpha   96.54910000
_cell_angle_beta   90.67080000
_cell_angle_gamma   90.42950000
_symmetry_Int_Tables_number   1
_chemical_formula_structural   Zn2H7C36N2Cl17O8
_chemical_formula_sum   'Zn2 H7 C36 N2 Cl17 O8'
_cell_volume   3225.46402518
_cell_formula_units_Z   1
loop_
 _symmetry_equiv_pos_site_id
 _symmetry_equiv_pos_as_xyz
  1  'x, y, z'
loop_
 _atom_site_type_symbol
 _atom_site_label
 _atom_site_symmetry_multiplicity
 _atom_site_fract_x
 _atom_site_fract_y
 _atom_site_fract_z
 _atom_site_occupancy
  Zn  Zn0  1  0.49965000  0.40804000  0.48621000  1.0
  Zn  Zn1  1  0.50426000  0.58662000  0.50301000  1.0
  H  H2  1  0.50284000  0.00296000  0.60228000  1.0
  H  H3  1  0.48719000  0.99048000  0.42745000  1.0
  H  H4  1  0.39313000  0.44950000  0.99879000  1.0
  H  H5  1  0.60287000  0.57167000  0.99426000  1.0
  H  H6  1  0.88549000  0.36358000  0.43976000  1.0
  H  H7  1  0.88711000  0.60396000  0.55112000  1.0
  H  H8  1  0.11598000  0.36471000  0.44398000  1.0
  C  C9  1  0.50324000  0.50843000  0.35005000  1.0
  C  C10  1  0.26846000  0.48067000  0.49596000  1.0
  C  C11  1  0.49774000  0.51526000  0.64154000  1.0
  C  C12  1  0.73550000  0.48462000  0.49316000  1.0
  C  C13  1  0.41762000  0.75722000  0.47643000  1.0
  C  C14  1  0.41051000  0.84131000  0.48326000  1.0
  C  C15  1  0.49159000  0.88763000  0.53326000  1.0
  C  C16  1  0.57382000  0.84583000  0.57604000  1.0
  C  C17  1  0.57595000  0.76184000  0.56560000  1.0
  C  C18  1  0.49500000  0.97543000  0.54359000  1.0
  C  C19  1  0.49532000  0.02033000  0.48536000  1.0
  C  C20  1  0.43469000  0.14531000  0.43503000  1.0
  C  C21  1  0.50114000  0.10765000  0.48988000  1.0
  C  C22  1  0.57378000  0.15779000  0.54223000  1.0
  C  C23  1  0.57602000  0.24100000  0.53812000  1.0
  C  C24  1  0.44208000  0.22854000  0.43482000  1.0
  C  C25  1  0.49703000  0.50687000  0.26442000  1.0
  C  C26  1  0.38353000  0.51263000  0.22797000  1.0
  C  C27  1  0.37663000  0.50852000  0.14850000  1.0
  C  C28  1  0.48281000  0.49924000  0.10336000  1.0
  C  C29  1  0.59694000  0.49419000  0.14113000  1.0
  C  C30  1  0.60329000  0.49774000  0.22093000  1.0
  C  C31  1  0.46643000  0.49072000  0.02021000  1.0
  C  C32  1  0.52989000  0.53071000  0.97163000  1.0
  C  C33  1  0.62234000  0.53128000  0.84483000  1.0
  C  C34  1  0.51562000  0.52362000  0.88856000  1.0
  C  C35  1  0.40231000  0.51256000  0.84855000  1.0
  C  C36  1  0.39720000  0.50871000  0.76876000  1.0
  C  C37  1  0.50372000  0.51674000  0.72706000  1.0
  C  C38  1  0.61643000  0.52766000  0.76534000  1.0
  C  C39  1  0.13120000  0.48435000  0.49909000  1.0
  C  C40  1  0.87284000  0.48406000  0.49455000  1.0
  C  C41  1  0.06529000  0.55176000  0.53030000  1.0
  C  C42  1  0.93687000  0.41605000  0.46462000  1.0
  C  C43  1  0.93739000  0.55154000  0.52734000  1.0
  C  C44  1  0.06420000  0.41686000  0.46706000  1.0
  N  N45  1  0.49939000  0.71875000  0.51640000  1.0
  N  N46  1  0.51003000  0.27528000  0.48613000  1.0
  Cl  Cl47  1  0.67945000  0.71244000  0.61516000  1.0
  Cl  Cl48  1  0.67472000  0.89796000  0.63856000  1.0
  Cl  Cl49  1  0.32066000  0.70143000  0.41573000  1.0
  Cl  Cl50  1  0.29991000  0.88483000  0.43246000  1.0
  Cl  Cl51  1  0.66457000  0.11968000  0.60889000  1.0
  Cl  Cl52  1  0.66657000  0.30074000  0.59991000  1.0
  Cl  Cl53  1  0.34328000  0.08949000  0.36920000  1.0
  Cl  Cl54  1  0.36538000  0.27341000  0.36704000  1.0
  Cl  Cl55  1  0.74169000  0.48907000  0.26717000  1.0
  Cl  Cl56  1  0.72994000  0.47938000  0.09015000  1.0
  Cl  Cl57  1  0.25297000  0.52411000  0.28203000  1.0
  Cl  Cl58  1  0.23616000  0.51635000  0.10455000  1.0
  Cl  Cl59  1  0.26595000  0.50767000  0.89595000  1.0
  Cl  Cl60  1  0.25955000  0.49515000  0.72013000  1.0
  Cl  Cl61  1  0.76340000  0.54368000  0.88978000  1.0
  Cl  Cl62  1  0.74756000  0.53562000  0.71297000  1.0
  Cl  Cl63  1  0.13569000  0.63646000  0.57696000  1.0
  O  O64  1  0.48706000  0.44181000  0.37498000  1.0
  O  O65  1  0.52222000  0.57638000  0.38738000  1.0
  O  O66  1  0.32624000  0.54528000  0.49067000  1.0
  O  O67  1  0.31600000  0.41149000  0.49621000  1.0
  O  O68  1  0.48420000  0.58279000  0.61743000  1.0
  O  O69  1  0.50852000  0.44770000  0.60331000  1.0
  O  O70  1  0.68197000  0.41715000  0.47619000  1.0
  O  O71  1  0.68365000  0.55156000  0.50980000  1.0
