# generated using pymatgen
data_TlBH14(C8N3)2
_symmetry_space_group_name_H-M   'P 1'
_cell_length_a   5.81594000
_cell_length_b   10.01420000
_cell_length_c   13.90000000
_cell_angle_alpha   97.69540000
_cell_angle_beta   90.00000000
_cell_angle_gamma   89.99870000
_symmetry_Int_Tables_number   1
_chemical_formula_structural   TlBH14(C8N3)2
_chemical_formula_sum   'Tl2 B2 H28 C32 N12'
_cell_volume   802.27264261
_cell_formula_units_Z   2
loop_
 _symmetry_equiv_pos_site_id
 _symmetry_equiv_pos_as_xyz
  1  'x, y, z'
loop_
 _atom_site_type_symbol
 _atom_site_label
 _atom_site_symmetry_multiplicity
 _atom_site_fract_x
 _atom_site_fract_y
 _atom_site_fract_z
 _atom_site_occupancy
  Tl  Tl0  1  0.12467000  0.78121000  0.74962000  1.0
  Tl  Tl1  1  0.62465000  0.21881000  0.25038000  1.0
  B  B2  1  0.44143000  0.49209000  0.78266000  1.0
  B  B3  1  0.94145000  0.50791000  0.21733000  1.0
  H  H4  1  0.87003000  0.40785000  0.69099000  1.0
  H  H5  1  0.37003000  0.59213000  0.30903000  1.0
  H  H6  1  0.67080000  0.67837000  0.09985000  1.0
  H  H7  1  0.17086000  0.32163000  0.90014000  1.0
  H  H8  1  0.99490000  0.54089000  0.53822000  1.0
  H  H9  1  0.49491000  0.45909000  0.46179000  1.0
  H  H10  1  0.77514000  0.50405000  0.93662000  1.0
  H  H11  1  0.27515000  0.49597000  0.06340000  1.0
  H  H12  1  0.71124000  0.98322000  0.06617000  1.0
  H  H13  1  0.21130000  0.01680000  0.93383000  1.0
  H  H14  1  0.94255000  0.81240000  0.96443000  1.0
  H  H15  1  0.44261000  0.18762000  0.03556000  1.0
  H  H16  1  0.94881000  0.69060000  0.42854000  1.0
  H  H17  1  0.44880000  0.30938000  0.57147000  1.0
  H  H18  1  0.30884000  0.83154000  0.56526000  1.0
  H  H19  1  0.80884000  0.16844000  0.43473000  1.0
  H  H20  1  0.88070000  0.84620000  0.30829000  1.0
  H  H21  1  0.38068000  0.15379000  0.69171000  1.0
  H  H22  1  0.26858000  0.98099000  0.43949000  1.0
  H  H23  1  0.76858000  0.01898000  0.56049000  1.0
  H  H24  1  0.20990000  0.03117000  0.28101000  1.0
  H  H25  1  0.70991000  0.96885000  0.71898000  1.0
  H  H26  1  0.46236000  0.86352000  0.18919000  1.0
  H  H27  1  0.96238000  0.13650000  0.81080000  1.0
  H  H28  1  0.51215000  0.38024000  0.79166000  1.0
  H  H29  1  0.01216000  0.61976000  0.20836000  1.0
  H  H30  1  0.23977000  0.49259000  0.75984000  1.0
  H  H31  1  0.73980000  0.50742000  0.24016000  1.0
  C  C32  1  0.37204000  0.72629000  0.00643000  1.0
  C  C33  1  0.87210000  0.27372000  0.99357000  1.0
  C  C34  1  0.66829000  0.65502000  0.58145000  1.0
  C  C35  1  0.16828000  0.34496000  0.41855000  1.0
  C  C36  1  0.63586000  0.74760000  0.51000000  1.0
  C  C37  1  0.13585000  0.25238000  0.49000000  1.0
  C  C38  1  0.78557000  0.49003000  0.66162000  1.0
  C  C39  1  0.28560000  0.50995000  0.33839000  1.0
  C  C40  1  0.57788000  0.66380000  0.03171000  1.0
  C  C41  1  0.07790000  0.33623000  0.96829000  1.0
  C  C42  1  0.84584000  0.55875000  0.58497000  1.0
  C  C43  1  0.34583000  0.44124000  0.41505000  1.0
  C  C44  1  0.63310000  0.57415000  0.95020000  1.0
  C  C45  1  0.13314000  0.42586000  0.04981000  1.0
  C  C46  1  0.22902000  0.82464000  0.06530000  1.0
  C  C47  1  0.72907000  0.17539000  0.93469000  1.0
  C  C48  1  0.88081000  0.95596000  0.09075000  1.0
  C  C49  1  0.38089000  0.04406000  0.90925000  1.0
  C  C50  1  0.01144000  0.86083000  0.03310000  1.0
  C  C51  1  0.51150000  0.13919000  0.96689000  1.0
  C  C52  1  0.79589000  0.75397000  0.43496000  1.0
  C  C53  1  0.29589000  0.24602000  0.56505000  1.0
  C  C54  1  0.44182000  0.83131000  0.51021000  1.0
  C  C55  1  0.94181000  0.16867000  0.48977000  1.0
  C  C56  1  0.75771000  0.84174000  0.36704000  1.0
  C  C57  1  0.25770000  0.15822000  0.63297000  1.0
  C  C58  1  0.41924000  0.91586000  0.43917000  1.0
  C  C59  1  0.91923000  0.08411000  0.56081000  1.0
  C  C60  1  0.15638000  0.98232000  0.20959000  1.0
  C  C61  1  0.65641000  0.01770000  0.79040000  1.0
  C  C62  1  0.29894000  0.88732000  0.15726000  1.0
  C  C63  1  0.79896000  0.11270000  0.84272000  1.0
  N  N64  1  0.51289000  0.64466000  0.65280000  1.0
  N  N65  1  0.01289000  0.35535000  0.34721000  1.0
  N  N66  1  0.30858000  0.67585000  0.91481000  1.0
  N  N67  1  0.80861000  0.32415000  0.08519000  1.0
  N  N68  1  0.58625000  0.54364000  0.70088000  1.0
  N  N69  1  0.08627000  0.45636000  0.29913000  1.0
  N  N70  1  0.46872000  0.58317000  0.88166000  1.0
  N  N71  1  0.96874000  0.41684000  0.11833000  1.0
  N  N72  1  0.57392000  0.92360000  0.36812000  1.0
  N  N73  1  0.07390000  0.07637000  0.63187000  1.0
  N  N74  1  0.95019000  0.01837000  0.17757000  1.0
  N  N75  1  0.45022000  0.98165000  0.82242000  1.0
