# generated using pymatgen
data_NaH16C12N
_symmetry_space_group_name_H-M   'P 1'
_cell_length_a   8.81556000
_cell_length_b   11.28030000
_cell_length_c   11.40450000
_cell_angle_alpha   89.99990000
_cell_angle_beta   77.26700000
_cell_angle_gamma   89.99990000
_symmetry_Int_Tables_number   1
_chemical_formula_structural   NaH16C12N
_chemical_formula_sum   'Na4 H64 C48 N4'
_cell_volume   1106.19836277
_cell_formula_units_Z   4
loop_
 _symmetry_equiv_pos_site_id
 _symmetry_equiv_pos_as_xyz
  1  'x, y, z'
loop_
 _atom_site_type_symbol
 _atom_site_label
 _atom_site_symmetry_multiplicity
 _atom_site_fract_x
 _atom_site_fract_y
 _atom_site_fract_z
 _atom_site_occupancy
  Na  Na0  1  0.86291000  0.92116000  0.47479000  1.0
  Na  Na1  1  0.63709000  0.42116000  0.52521000  1.0
  Na  Na2  1  0.13709000  0.07884000  0.52521000  1.0
  Na  Na3  1  0.36291000  0.57884000  0.47479000  1.0
  H  H4  1  0.99959000  0.76681000  0.90714000  1.0
  H  H5  1  0.50041000  0.26681000  0.09286000  1.0
  H  H6  1  0.00041000  0.23319000  0.09286000  1.0
  H  H7  1  0.49959000  0.73319000  0.90714000  1.0
  H  H8  1  0.82504000  0.83112000  0.88270000  1.0
  H  H9  1  0.67496000  0.33112000  0.11730000  1.0
  H  H10  1  0.17496000  0.16888000  0.11730000  1.0
  H  H11  1  0.32504000  0.66888000  0.88270000  1.0
  H  H12  1  0.94224000  0.91038000  0.96381000  1.0
  H  H13  1  0.55776000  0.41038000  0.03619000  1.0
  H  H14  1  0.05776000  0.08962000  0.03619000  1.0
  H  H15  1  0.44224000  0.58962000  0.96381000  1.0
  H  H16  1  0.97210000  0.98338000  0.75037000  1.0
  H  H17  1  0.52791000  0.48338000  0.24963000  1.0
  H  H18  1  0.02791000  0.01662000  0.24963000  1.0
  H  H19  1  0.47209000  0.51662000  0.75037000  1.0
  H  H20  1  0.19560000  0.01863000  0.84153000  1.0
  H  H21  1  0.30440000  0.51863000  0.15847000  1.0
  H  H22  1  0.80440000  0.98137000  0.15847000  1.0
  H  H23  1  0.69560000  0.48137000  0.84153000  1.0
  H  H24  1  0.27180000  0.96582000  0.69282000  1.0
  H  H25  1  0.22820000  0.46582000  0.30718000  1.0
  H  H26  1  0.72820000  0.03418000  0.30718000  1.0
  H  H27  1  0.77180000  0.53418000  0.69282000  1.0
  H  H28  1  0.25804000  0.86867000  0.81621000  1.0
  H  H29  1  0.24196000  0.36867000  0.18379000  1.0
  H  H30  1  0.74196000  0.13133000  0.18379000  1.0
  H  H31  1  0.75804000  0.63133000  0.81621000  1.0
  H  H32  1  0.12003000  0.74076000  0.68061000  1.0
  H  H33  1  0.37997000  0.24076000  0.31939000  1.0
  H  H34  1  0.87997000  0.25924000  0.31938000  1.0
  H  H35  1  0.62003000  0.75924000  0.68061000  1.0
  H  H36  1  0.92730000  0.77576000  0.67449000  1.0
  H  H37  1  0.57270000  0.27576000  0.32551000  1.0
  H  H38  1  0.07270000  0.22424000  0.32551000  1.0
  H  H39  1  0.42730000  0.72424000  0.67449000  1.0
  H  H40  1  0.02927000  0.62723000  0.55178000  1.0
  H  H41  1  0.47073000  0.12723000  0.44822000  1.0
  H  H42  1  0.97073000  0.37277000  0.44822000  1.0
  H  H43  1  0.52927000  0.87277000  0.55178000  1.0
  H  H44  1  0.11287000  0.61217000  0.38852000  1.0
  H  H45  1  0.38713000  0.11217000  0.61148000  1.0
  H  H46  1  0.88713000  0.38783000  0.61148000  1.0
  H  H47  1  0.61287000  0.88783000  0.38852000  1.0
  H  H48  1  0.05934000  0.72288000  0.24545000  1.0
  H  H49  1  0.44066000  0.22289000  0.75455000  1.0
  H  H50  1  0.94066000  0.27711000  0.75455000  1.0
  H  H51  1  0.55934000  0.77712000  0.24545000  1.0
  H  H52  1  0.17173000  0.80200000  0.04269000  1.0
  H  H53  1  0.32827000  0.30200000  0.95731000  1.0
  H  H54  1  0.82827000  0.19800000  0.95731000  1.0
  H  H55  1  0.67173000  0.69800000  0.04269000  1.0
  H  H56  1  0.37265000  0.96063000  0.01496000  1.0
  H  H57  1  0.12735000  0.46063000  0.98505000  1.0
  H  H58  1  0.62735000  0.03937000  0.98504000  1.0
  H  H59  1  0.87265000  0.53937000  0.01495000  1.0
  H  H60  1  0.46370000  0.03738000  0.19360000  1.0
  H  H61  1  0.03630000  0.53738000  0.80640000  1.0
  H  H62  1  0.53630000  0.96262000  0.80640000  1.0
  H  H63  1  0.96370000  0.46262000  0.19360000  1.0
  H  H64  1  0.35463000  0.95370000  0.39608000  1.0
  H  H65  1  0.14537000  0.45370000  0.60392000  1.0
  H  H66  1  0.64537000  0.04630000  0.60392000  1.0
  H  H67  1  0.85463000  0.54630000  0.39608000  1.0
  C  C68  1  0.94574000  0.85044000  0.88730000  1.0
  C  C69  1  0.55426000  0.35044000  0.11270000  1.0
  C  C70  1  0.05426000  0.14956000  0.11270000  1.0
  C  C71  1  0.44574000  0.64956000  0.88730000  1.0
  C  C72  1  0.03639000  0.90438000  0.76973000  1.0
  C  C73  1  0.46360000  0.40439000  0.23027000  1.0
  C  C74  1  0.96361000  0.09561000  0.23027000  1.0
  C  C75  1  0.53640000  0.59562000  0.76973000  1.0
  C  C76  1  0.19919000  0.94229000  0.78098000  1.0
  C  C77  1  0.30082000  0.44229000  0.21903000  1.0
  C  C78  1  0.80081000  0.05771000  0.21903000  1.0
  C  C79  1  0.69919000  0.55771000  0.78097000  1.0
  C  C80  1  0.04444000  0.81634000  0.66642000  1.0
  C  C81  1  0.45556000  0.31634000  0.33358000  1.0
  C  C82  1  0.95556000  0.18366000  0.33358000  1.0
  C  C83  1  0.54444000  0.68366000  0.66642000  1.0
  C  C84  1  0.12870000  0.78681000  0.45899000  1.0
  C  C85  1  0.37130000  0.28681000  0.54101000  1.0
  C  C86  1  0.87130000  0.21319000  0.54101000  1.0
  C  C87  1  0.62870000  0.71319000  0.45899000  1.0
  C  C88  1  0.09826000  0.66561000  0.46962000  1.0
  C  C89  1  0.40174000  0.16561000  0.53038000  1.0
  C  C90  1  0.90174000  0.33439000  0.53038000  1.0
  C  C91  1  0.59826000  0.83439000  0.46962000  1.0
  C  C92  1  0.19799000  0.83383000  0.33563000  1.0
  C  C93  1  0.30201000  0.33383000  0.66437000  1.0
  C  C94  1  0.80201000  0.16617000  0.66437000  1.0
  C  C95  1  0.69799000  0.66617000  0.33563000  1.0
  C  C96  1  0.14951000  0.79070000  0.23412000  1.0
  C  C97  1  0.35049000  0.29070000  0.76588000  1.0
  C  C98  1  0.85049000  0.20930000  0.76588000  1.0
  C  C99  1  0.64951000  0.70930000  0.23412000  1.0
  C  C100  1  0.21280000  0.83554000  0.11974000  1.0
  C  C101  1  0.28720000  0.33554000  0.88026000  1.0
  C  C102  1  0.78720000  0.16446000  0.88026000  1.0
  C  C103  1  0.71280000  0.66446000  0.11974000  1.0
  C  C104  1  0.32555000  0.92456000  0.10426000  1.0
  C  C105  1  0.17445000  0.42456000  0.89574000  1.0
  C  C106  1  0.67445000  0.07544000  0.89574000  1.0
  C  C107  1  0.82555000  0.57544000  0.10426000  1.0
  C  C108  1  0.37500000  0.96829000  0.20424000  1.0
  C  C109  1  0.12500000  0.46829000  0.79576000  1.0
  C  C110  1  0.62501000  0.03171000  0.79576000  1.0
  C  C111  1  0.87499000  0.53171000  0.20424000  1.0
  C  C112  1  0.31199000  0.92302000  0.31859000  1.0
  C  C113  1  0.18801000  0.42302000  0.68141000  1.0
  C  C114  1  0.68800000  0.07698000  0.68141000  1.0
  C  C115  1  0.81199000  0.57698000  0.31859000  1.0
  N  N116  1  0.10156000  0.86816000  0.54839000  1.0
  N  N117  1  0.39844000  0.36816000  0.45161000  1.0
  N  N118  1  0.89844000  0.13184000  0.45161000  1.0
  N  N119  1  0.60156000  0.63184000  0.54839000  1.0
