# generated using pymatgen
data_Ni3H20C20(N7O6)2
_symmetry_space_group_name_H-M   'P 1'
_cell_length_a   7.29994000
_cell_length_b   9.76707000
_cell_length_c   11.77120000
_cell_angle_alpha   66.68810000
_cell_angle_beta   80.98000000
_cell_angle_gamma   74.11140000
_symmetry_Int_Tables_number   1
_chemical_formula_structural   Ni3H20C20(N7O6)2
_chemical_formula_sum   'Ni3 H20 C20 N14 O12'
_cell_volume   740.19834186
_cell_formula_units_Z   1
loop_
 _symmetry_equiv_pos_site_id
 _symmetry_equiv_pos_as_xyz
  1  'x, y, z'
loop_
 _atom_site_type_symbol
 _atom_site_label
 _atom_site_symmetry_multiplicity
 _atom_site_fract_x
 _atom_site_fract_y
 _atom_site_fract_z
 _atom_site_occupancy
  Ni  Ni0  1  0.44575000  0.50771000  0.37721000  1.0
  Ni  Ni1  1  0.55422000  0.49228000  0.62296000  1.0
  Ni  Ni2  1  0.50017000  0.49999000  0.99974000  1.0
  H  H3  1  0.84361000  0.29815000  0.09097000  1.0
  H  H4  1  0.15644000  0.70188000  0.90894000  1.0
  H  H5  1  0.68510000  0.20638000  0.12136000  1.0
  H  H6  1  0.31479000  0.79382000  0.87856000  1.0
  H  H7  1  0.22568000  0.46568000  0.24389000  1.0
  H  H8  1  0.77447000  0.53438000  0.75619000  1.0
  H  H9  1  0.10042000  0.56779000  0.32584000  1.0
  H  H10  1  0.89959000  0.43230000  0.67413000  1.0
  H  H11  1  0.11398000  0.09175000  0.23559000  1.0
  H  H12  1  0.88612000  0.90826000  0.76442000  1.0
  H  H13  1  0.12867000  0.23828000  0.51244000  1.0
  H  H14  1  0.87130000  0.76177000  0.48755000  1.0
  H  H15  1  0.08528000  0.24182000  0.36848000  1.0
  H  H16  1  0.91471000  0.75818000  0.63153000  1.0
  H  H17  1  0.97500000  0.72950000  0.09592000  1.0
  H  H18  1  0.02503000  0.27032000  0.90419000  1.0
  H  H19  1  0.20252000  0.84561000  0.18591000  1.0
  H  H20  1  0.79754000  0.15435000  0.81415000  1.0
  H  H21  1  0.46745000  0.75365000  0.71412000  1.0
  H  H22  1  0.53254000  0.24639000  0.28592000  1.0
  C  C23  1  0.77670000  0.61971000  0.35378000  1.0
  C  C24  1  0.22324000  0.38026000  0.64622000  1.0
  C  C25  1  0.74889000  0.62948000  0.22922000  1.0
  C  C26  1  0.25100000  0.37040000  0.77076000  1.0
  C  C27  1  0.85233000  0.67978000  0.11633000  1.0
  C  C28  1  0.14762000  0.32015000  0.88366000  1.0
  C  C29  1  0.76534000  0.64500000  0.03663000  1.0
  C  C30  1  0.23455000  0.35512000  0.96330000  1.0
  C  C31  1  0.81018000  0.65568000  0.90843000  1.0
  C  C32  1  0.18996000  0.34429000  0.09156000  1.0
  C  C33  1  0.23321000  0.85273000  0.27035000  1.0
  C  C34  1  0.76682000  0.14725000  0.72970000  1.0
  C  C35  1  0.24376000  0.94934000  0.40864000  1.0
  C  C36  1  0.75625000  0.05067000  0.59139000  1.0
  C  C37  1  0.22503000  0.03335000  0.48582000  1.0
  C  C38  1  0.77497000  0.96668000  0.51420000  1.0
  C  C39  1  0.39704000  0.80960000  0.62654000  1.0
  C  C40  1  0.60296000  0.19043000  0.37350000  1.0
  C  C41  1  0.33526000  0.79357000  0.45050000  1.0
  C  C42  1  0.66469000  0.20642000  0.54957000  1.0
  N  N43  1  0.60705000  0.57063000  0.21610000  1.0
  N  N44  1  0.39269000  0.42940000  0.78397000  1.0
  N  N45  1  0.61642000  0.58015000  0.09939000  1.0
  N  N46  1  0.38332000  0.42004000  0.90037000  1.0
  N  N47  1  0.32616000  0.73500000  0.36257000  1.0
  N  N48  1  0.67380000  0.26498000  0.63752000  1.0
  N  N49  1  0.18054000  0.98360000  0.29375000  1.0
  N  N50  1  0.81951000  0.01639000  0.70628000  1.0
  N  N51  1  0.13151000  0.18011000  0.45538000  1.0
  N  N52  1  0.86850000  0.81990000  0.54463000  1.0
  N  N53  1  0.30569000  0.95664000  0.59717000  1.0
  N  N54  1  0.69431000  0.04339000  0.40286000  1.0
  N  N55  1  0.41668000  0.72016000  0.56147000  1.0
  N  N56  1  0.58328000  0.27983000  0.43861000  1.0
  O  O57  1  0.66973000  0.54394000  0.44039000  1.0
  O  O58  1  0.33035000  0.45593000  0.55969000  1.0
  O  O59  1  0.73225000  0.28982000  0.05593000  1.0
  O  O60  1  0.26794000  0.71013000  0.94390000  1.0
  O  O61  1  0.90155000  0.67680000  0.36945000  1.0
  O  O62  1  0.09824000  0.32338000  0.63041000  1.0
  O  O63  1  0.21268000  0.48441000  0.32222000  1.0
  O  O64  1  0.78722000  0.51552000  0.67792000  1.0
  O  O65  1  0.69881000  0.60616000  0.86612000  1.0
  O  O66  1  0.30149000  0.39362000  0.13385000  1.0
  O  O67  1  0.94974000  0.70972000  0.84405000  1.0
  O  O68  1  0.05036000  0.29023000  0.15593000  1.0
