# generated using pymatgen
data_ZnH15C23N2O5
_symmetry_space_group_name_H-M   'P 1'
_cell_length_a   11.89750000
_cell_length_b   14.65250000
_cell_length_c   15.74460000
_cell_angle_alpha   98.21670000
_cell_angle_beta   92.80880000
_cell_angle_gamma   107.07300000
_symmetry_Int_Tables_number   1
_chemical_formula_structural   ZnH15C23N2O5
_chemical_formula_sum   'Zn2 H30 C46 N4 O10'
_cell_volume   2584.80677276
_cell_formula_units_Z   2
loop_
 _symmetry_equiv_pos_site_id
 _symmetry_equiv_pos_as_xyz
  1  'x, y, z'
loop_
 _atom_site_type_symbol
 _atom_site_label
 _atom_site_symmetry_multiplicity
 _atom_site_fract_x
 _atom_site_fract_y
 _atom_site_fract_z
 _atom_site_occupancy
  Zn  Zn0  1  0.54304000  0.59645000  0.48354000  1.0
  Zn  Zn1  1  0.47554000  0.40496000  0.51750000  1.0
  H  H2  1  0.64381000  0.76424000  0.05573000  1.0
  H  H3  1  0.56261000  0.36782000  0.85993000  1.0
  H  H4  1  0.32333000  0.97527000  0.67729000  1.0
  H  H5  1  0.66565000  0.01725000  0.31044000  1.0
  H  H6  1  0.47155000  0.76547000  0.53723000  1.0
  H  H7  1  0.52702000  0.23023000  0.45539000  1.0
  H  H8  1  0.67373000  0.69384000  0.34893000  1.0
  H  H9  1  0.34363000  0.30895000  0.65365000  1.0
  H  H10  1  0.68860000  0.89740000  0.81430000  1.0
  H  H11  1  0.81749000  0.86598000  0.84361000  1.0
  H  H12  1  0.84424000  0.98327000  0.98587000  1.0
  H  H13  1  0.55182000  0.25084000  0.95836000  1.0
  H  H14  1  0.85475000  0.04135000  0.89332000  1.0
  H  H15  1  0.72337000  0.01934000  0.94666000  1.0
  H  H16  1  0.45893000  0.10272000  0.17873000  1.0
  H  H17  1  0.61304000  0.16110000  0.20773000  1.0
  H  H18  1  0.66219000  0.06262000  0.08020000  1.0
  H  H19  1  0.57097000  0.98477000  0.14346000  1.0
  H  H20  1  0.50937000  0.00642000  0.04606000  1.0
  H  H21  1  0.24591000  0.19301000  0.74053000  1.0
  H  H22  1  0.24161000  0.07498000  0.72303000  1.0
  H  H23  1  0.76228000  0.80759000  0.25747000  1.0
  H  H24  1  0.40168000  0.85847000  0.59788000  1.0
  H  H25  1  0.75737000  0.92300000  0.27075000  1.0
  H  H26  1  0.58440000  0.13310000  0.38850000  1.0
  H  H27  1  0.53052000  0.54170000  0.22164000  1.0
  H  H28  1  0.52771000  0.45611000  0.78216000  1.0
  H  H29  1  0.50943000  0.25595000  0.26190000  1.0
  H  H30  1  0.63882000  0.75161000  0.74764000  1.0
  H  H31  1  0.59722000  0.64283000  0.15111000  1.0
  C  C32  1  0.54757000  0.56905000  0.66325000  1.0
  C  C33  1  0.55307000  0.32445000  0.98323000  1.0
  C  C34  1  0.34777000  0.16065000  0.64686000  1.0
  C  C35  1  0.65420000  0.83664000  0.34767000  1.0
  C  C36  1  0.37324000  0.25076000  0.62044000  1.0
  C  C37  1  0.63617000  0.74913000  0.37795000  1.0
  C  C38  1  0.47745000  0.20621000  0.50852000  1.0
  C  C39  1  0.52294000  0.79014000  0.48511000  1.0
  C  C40  1  0.45801000  0.11286000  0.52933000  1.0
  C  C41  1  0.53646000  0.88155000  0.46131000  1.0
  C  C42  1  0.39174000  0.08896000  0.60048000  1.0
  C  C43  1  0.49829000  0.42853000  0.34006000  1.0
  C  C44  1  0.60338000  0.90576000  0.39050000  1.0
  C  C45  1  0.50480000  0.04247000  0.48167000  1.0
  C  C46  1  0.48587000  0.95057000  0.50703000  1.0
  C  C47  1  0.29001000  0.49827000  0.49895000  1.0
  C  C48  1  0.73193000  0.50836000  0.50177000  1.0
  C  C49  1  0.41826000  0.92906000  0.57809000  1.0
  C  C50  1  0.57050000  0.06336000  0.40960000  1.0
  C  C51  1  0.37303000  0.99533000  0.62290000  1.0
  C  C52  1  0.61734000  0.99773000  0.36558000  1.0
  C  C53  1  0.16872000  0.49868000  0.49940000  1.0
  C  C54  1  0.61333000  0.65973000  0.93804000  1.0
  C  C55  1  0.85276000  0.50680000  0.50103000  1.0
  C  C56  1  0.06676000  0.50109000  0.49985000  1.0
  C  C57  1  0.95448000  0.50385000  0.50039000  1.0
  C  C58  1  0.57697000  0.60087000  0.75836000  1.0
  C  C59  1  0.51702000  0.40124000  0.24780000  1.0
  C  C60  1  0.63891000  0.72944000  0.88112000  1.0
  C  C61  1  0.53678000  0.28213000  0.13108000  1.0
  C  C62  1  0.62154000  0.70039000  0.79263000  1.0
  C  C63  1  0.52057000  0.30687000  0.21679000  1.0
  C  C64  1  0.55982000  0.53183000  0.81195000  1.0
  C  C65  1  0.54689000  0.35039000  0.07307000  1.0
  C  C66  1  0.53377000  0.47021000  0.19422000  1.0
  C  C67  1  0.58035000  0.55929000  0.90224000  1.0
  C  C68  1  0.55018000  0.44712000  0.10659000  1.0
  C  C69  1  0.74616000  0.89250000  0.86946000  1.0
  C  C70  1  0.79475000  0.98977000  0.92746000  1.0
  C  C71  1  0.54559000  0.12543000  0.15283000  1.0
  C  C72  1  0.57374000  0.04004000  0.10249000  1.0
  C  C73  1  0.56788000  0.48878000  0.95974000  1.0
  C  C74  1  0.56942000  0.51846000  0.04960000  1.0
  C  C75  1  0.59449000  0.61912000  0.08203000  1.0
  C  C76  1  0.55915000  0.39037000  0.92851000  1.0
  C  C77  1  0.62004000  0.68754000  0.02895000  1.0
  N  N78  1  0.43638000  0.27165000  0.55312000  1.0
  N  N79  1  0.57195000  0.72760000  0.44465000  1.0
  N  N80  1  0.28687000  0.14397000  0.71821000  1.0
  N  N81  1  0.71549000  0.85349000  0.27633000  1.0
  O  O82  1  0.58496000  0.63167000  0.61437000  1.0
  O  O83  1  0.54449000  0.19334000  0.09563000  1.0
  O  O84  1  0.49147000  0.36542000  0.38938000  1.0
  O  O85  1  0.48621000  0.48102000  0.63818000  1.0
  O  O86  1  0.49185000  0.51360000  0.36346000  1.0
  O  O87  1  0.36711000  0.58068000  0.50400000  1.0
  O  O88  1  0.66163000  0.44110000  0.53340000  1.0
  O  O89  1  0.30772000  0.41621000  0.49376000  1.0
  O  O90  1  0.70785000  0.57671000  0.47041000  1.0
  O  O91  1  0.68078000  0.82450000  0.92020000  1.0
