# generated using pymatgen
data_Zn2H17C26(NO2)4
_symmetry_space_group_name_H-M   'P 1'
_cell_length_a   10.95500000
_cell_length_b   11.01280000
_cell_length_c   15.77080000
_cell_angle_alpha   80.32320000
_cell_angle_beta   88.05460000
_cell_angle_gamma   85.20820000
_symmetry_Int_Tables_number   1
_chemical_formula_structural   Zn2H17C26(NO2)4
_chemical_formula_sum   'Zn4 H34 C52 N8 O16'
_cell_volume   1868.66042431
_cell_formula_units_Z   2
loop_
 _symmetry_equiv_pos_site_id
 _symmetry_equiv_pos_as_xyz
  1  'x, y, z'
loop_
 _atom_site_type_symbol
 _atom_site_label
 _atom_site_symmetry_multiplicity
 _atom_site_fract_x
 _atom_site_fract_y
 _atom_site_fract_z
 _atom_site_occupancy
  Zn  Zn0  1  0.17966000  0.27301000  0.39475000  1.0
  Zn  Zn1  1  0.18581000  0.31973000  0.20738000  1.0
  Zn  Zn2  1  0.81607000  0.72572000  0.60463000  1.0
  Zn  Zn3  1  0.81052000  0.67846000  0.78936000  1.0
  H  H4  1  0.56392000  0.25451000  0.43741000  1.0
  H  H5  1  0.79354000  0.25623000  0.43647000  1.0
  H  H6  1  0.79749000  0.34948000  0.16116000  1.0
  H  H7  1  0.56698000  0.35602000  0.16255000  1.0
  H  H8  1  0.20918000  0.71639000  0.16257000  1.0
  H  H9  1  0.22618000  0.94261000  0.16579000  1.0
  H  H10  1  0.17307000  0.87723000  0.43963000  1.0
  H  H11  1  0.16008000  0.65088000  0.43726000  1.0
  H  H12  1  0.17101000  0.43118000  0.68021000  1.0
  H  H13  1  0.20514000  0.43656000  0.52263000  1.0
  H  H14  1  0.13682000  0.06905000  0.54014000  1.0
  H  H15  1  0.09794000  0.04639000  0.69829000  1.0
  H  H16  1  0.26093000  0.15518000  0.07989000  1.0
  H  H17  1  0.21518000  0.14812000  0.92659000  1.0
  H  H18  1  0.12204000  0.51937000  0.05862000  1.0
  H  H19  1  0.04064000  0.16540000  0.81225000  1.0
  H  H20  1  0.01254000  0.39791000  0.80421000  1.0
  H  H21  1  0.42812000  0.74140000  0.56174000  1.0
  H  H22  1  0.19845000  0.73679000  0.56640000  1.0
  H  H23  1  0.20281000  0.66122000  0.84222000  1.0
  H  H24  1  0.43255000  0.65576000  0.83736000  1.0
  H  H25  1  0.78607000  0.28317000  0.83655000  1.0
  H  H26  1  0.77108000  0.05683000  0.83389000  1.0
  H  H27  1  0.83262000  0.11999000  0.56064000  1.0
  H  H28  1  0.84408000  0.34631000  0.56241000  1.0
  H  H29  1  0.82616000  0.56654000  0.32001000  1.0
  H  H30  1  0.79171000  0.56199000  0.47728000  1.0
  H  H31  1  0.86684000  0.92786000  0.45983000  1.0
  H  H32  1  0.90714000  0.94932000  0.30188000  1.0
  H  H33  1  0.72772000  0.84865000  0.92198000  1.0
  H  H34  1  0.78054000  0.85060000  0.07473000  1.0
  H  H35  1  0.06527000  0.52787000  0.90563000  1.0
  H  H36  1  0.96533000  0.82676000  0.18904000  1.0
  H  H37  1  0.98071000  0.59301000  0.19702000  1.0
  C  C38  1  0.41587000  0.30367000  0.30094000  1.0
  C  C39  1  0.55264000  0.30491000  0.29996000  1.0
  C  C40  1  0.61601000  0.27638000  0.37747000  1.0
  C  C41  1  0.74294000  0.27657000  0.37688000  1.0
  C  C42  1  0.80872000  0.30191000  0.29887000  1.0
  C  C43  1  0.74537000  0.32957000  0.22130000  1.0
  C  C44  1  0.61795000  0.33282000  0.22203000  1.0
  C  C45  1  0.94580000  0.29931000  0.29938000  1.0
  C  C46  1  0.16880000  0.53718000  0.29886000  1.0
  C  C47  1  0.18190000  0.67117000  0.29974000  1.0
  C  C48  1  0.20107000  0.75280000  0.22290000  1.0
  C  C49  1  0.21038000  0.87775000  0.22458000  1.0
  C  C50  1  0.19888000  0.92272000  0.30286000  1.0
  C  C51  1  0.18239000  0.84045000  0.37960000  1.0
  C  C52  1  0.17491000  0.71548000  0.37817000  1.0
  C  C53  1  0.19913000  0.05861000  0.30449000  1.0
  C  C54  1  0.12890000  0.23842000  0.70241000  1.0
  C  C55  1  0.16282000  0.34867000  0.65204000  1.0
  C  C56  1  0.18203000  0.35202000  0.56449000  1.0
  C  C57  1  0.14348000  0.14653000  0.57420000  1.0
  C  C58  1  0.12235000  0.13454000  0.66191000  1.0
  C  C59  1  0.21854000  0.23581000  0.03839000  1.0
  C  C60  1  0.19189000  0.23181000  0.95374000  1.0
  C  C61  1  0.12967000  0.33615000  0.90470000  1.0
  C  C62  1  0.10881000  0.44355000  0.94233000  1.0
  C  C63  1  0.14017000  0.43902000  0.02682000  1.0
  C  C64  1  0.57962000  0.69877000  0.69697000  1.0
  C  C65  1  0.44296000  0.69839000  0.69936000  1.0
  C  C66  1  0.37770000  0.72225000  0.62261000  1.0
  C  C67  1  0.25083000  0.72056000  0.62523000  1.0
  C  C68  1  0.18735000  0.69852000  0.70442000  1.0
  C  C69  1  0.25280000  0.67696000  0.78108000  1.0
  C  C70  1  0.37996000  0.67500000  0.77853000  1.0
  C  C71  1  0.05066000  0.69767000  0.70599000  1.0
  C  C72  1  0.82680000  0.46179000  0.70068000  1.0
  C  C73  1  0.81673000  0.32740000  0.69967000  1.0
  C  C74  1  0.79624000  0.24624000  0.77651000  1.0
  C  C75  1  0.78807000  0.12114000  0.77504000  1.0
  C  C76  1  0.80190000  0.07560000  0.69705000  1.0
  C  C77  1  0.82092000  0.15726000  0.62040000  1.0
  C  C78  1  0.82745000  0.28244000  0.62152000  1.0
  C  C79  1  0.80075000  0.93991000  0.69543000  1.0
  C  C80  1  0.87233000  0.75825000  0.29791000  1.0
  C  C81  1  0.83604000  0.64891000  0.34802000  1.0
  C  C82  1  0.81654000  0.64594000  0.43552000  1.0
  C  C83  1  0.85917000  0.85047000  0.42585000  1.0
  C  C84  1  0.88099000  0.86185000  0.33823000  1.0
  C  C85  1  0.76782000  0.76665000  0.96327000  1.0
  C  C86  1  0.79901000  0.76601000  0.04769000  1.0
  C  C87  1  0.86138000  0.65908000  0.09834000  1.0
  C  C88  1  0.87215000  0.55329000  0.05782000  1.0
  C  C89  1  0.83781000  0.57811000  0.98143000  1.0
  N  N90  1  0.19080000  0.33622000  0.07621000  1.0
  N  N91  1  0.17110000  0.25396000  0.52513000  1.0
  N  N92  1  0.10131000  0.22929000  0.78917000  1.0
  N  N93  1  0.08749000  0.33732000  0.82382000  1.0
  N  N94  1  0.79192000  0.66386000  0.92212000  1.0
  N  N95  1  0.82920000  0.74375000  0.47480000  1.0
  N  N96  1  0.90008000  0.76723000  0.21091000  1.0
  N  N97  1  0.90998000  0.65913000  0.17624000  1.0
  O  O98  1  0.22563000  0.12790000  0.23444000  1.0
  O  O99  1  0.16994000  0.09357000  0.37599000  1.0
  O  O100  1  0.13440000  0.50689000  0.22861000  1.0
  O  O101  1  0.19213000  0.46379000  0.36807000  1.0
  O  O102  1  0.36117000  0.34816000  0.23092000  1.0
  O  O103  1  0.36488000  0.25792000  0.37134000  1.0
  O  O104  1  0.00326000  0.29278000  0.22832000  1.0
  O  O105  1  0.99412000  0.30406000  0.37095000  1.0
  O  O106  1  0.77661000  0.87020000  0.76601000  1.0
  O  O107  1  0.82648000  0.90489000  0.62354000  1.0
  O  O108  1  0.85775000  0.49261000  0.77159000  1.0
  O  O109  1  0.80429000  0.53513000  0.63123000  1.0
  O  O110  1  0.63452000  0.65533000  0.76710000  1.0
  O  O111  1  0.63032000  0.74210000  0.62595000  1.0
  O  O112  1  0.99495000  0.69875000  0.77863000  1.0
  O  O113  1  0.00035000  0.69534000  0.63491000  1.0
