# generated using pymatgen
data_CoH12C20(NO2)2
_symmetry_space_group_name_H-M   'P 1'
_cell_length_a   15.34560000
_cell_length_b   17.12560000
_cell_length_c   17.12560000
_cell_angle_alpha   90.00000000
_cell_angle_beta   89.99990000
_cell_angle_gamma   90.00000000
_symmetry_Int_Tables_number   1
_chemical_formula_structural   CoH12C20(NO2)2
_chemical_formula_sum   'Co8 H96 C160 N16 O32'
_cell_volume   4500.65233260
_cell_formula_units_Z   8
loop_
 _symmetry_equiv_pos_site_id
 _symmetry_equiv_pos_as_xyz
  1  'x, y, z'
loop_
 _atom_site_type_symbol
 _atom_site_label
 _atom_site_symmetry_multiplicity
 _atom_site_fract_x
 _atom_site_fract_y
 _atom_site_fract_z
 _atom_site_occupancy
  Co  Co0  1  0.01819000  0.74897000  0.25239000  1.0
  Co  Co1  1  0.51819000  0.25103000  0.74761000  1.0
  Co  Co2  1  0.76819000  0.24761000  0.24897000  1.0
  Co  Co3  1  0.26819000  0.75239000  0.75103000  1.0
  Co  Co4  1  0.73181000  0.75103000  0.75239000  1.0
  Co  Co5  1  0.23181000  0.24897000  0.24761000  1.0
  Co  Co6  1  0.98181000  0.25239000  0.74897000  1.0
  Co  Co7  1  0.48181000  0.74761000  0.25103000  1.0
  H  H8  1  0.10363000  0.78123000  0.70796000  1.0
  H  H9  1  0.60363000  0.21877000  0.29204000  1.0
  H  H10  1  0.85363000  0.79204000  0.28123000  1.0
  H  H11  1  0.35363000  0.20796000  0.71877000  1.0
  H  H12  1  0.64637000  0.71877000  0.20796000  1.0
  H  H13  1  0.14637000  0.28123000  0.79204000  1.0
  H  H14  1  0.89637000  0.70796000  0.78123000  1.0
  H  H15  1  0.39637000  0.29204000  0.21877000  1.0
  H  H16  1  0.21857000  0.70952000  0.40872000  1.0
  H  H17  1  0.71857000  0.29048000  0.59128000  1.0
  H  H18  1  0.96857000  0.09128000  0.20952000  1.0
  H  H19  1  0.46857000  0.90872000  0.79048000  1.0
  H  H20  1  0.53143000  0.79048000  0.90872000  1.0
  H  H21  1  0.03143000  0.20952000  0.09128000  1.0
  H  H22  1  0.78143000  0.40872000  0.70952000  1.0
  H  H23  1  0.28143000  0.59128000  0.29048000  1.0
  H  H24  1  0.65928000  0.52995000  0.30353000  1.0
  H  H25  1  0.15929000  0.47005000  0.69647000  1.0
  H  H26  1  0.40929000  0.19647000  0.02995000  1.0
  H  H27  1  0.90928000  0.80353000  0.97005000  1.0
  H  H28  1  0.09071000  0.97005000  0.80353000  1.0
  H  H29  1  0.59072000  0.02995000  0.19648000  1.0
  H  H30  1  0.34071000  0.30353000  0.52995000  1.0
  H  H31  1  0.84071000  0.69647000  0.47005000  1.0
  H  H32  1  0.69737000  0.39026000  0.27864000  1.0
  H  H33  1  0.19737000  0.60974000  0.72136000  1.0
  H  H34  1  0.44737000  0.22136000  0.89026000  1.0
  H  H35  1  0.94737000  0.77864000  0.10974000  1.0
  H  H36  1  0.05263000  0.10974000  0.77864000  1.0
  H  H37  1  0.55263000  0.89026000  0.22136000  1.0
  H  H38  1  0.30263000  0.27864000  0.39026000  1.0
  H  H39  1  0.80263000  0.72136000  0.60974000  1.0
  H  H40  1  0.02489000  0.49839000  0.19026000  1.0
  H  H41  1  0.52489000  0.50161000  0.80974000  1.0
  H  H42  1  0.77489000  0.30974000  0.99839000  1.0
  H  H43  1  0.27489000  0.69026000  0.00161000  1.0
  H  H44  1  0.72511000  0.00161000  0.69026000  1.0
  H  H45  1  0.22512000  0.99839000  0.30974000  1.0
  H  H46  1  0.97511000  0.19026000  0.49839000  1.0
  H  H47  1  0.47511000  0.80974000  0.50161000  1.0
  H  H48  1  0.05270000  0.35625000  0.15837000  1.0
  H  H49  1  0.55270000  0.64375000  0.84163000  1.0
  H  H50  1  0.80270000  0.34163000  0.85626000  1.0
  H  H51  1  0.30270000  0.65837000  0.14375000  1.0
  H  H52  1  0.69730000  0.14374000  0.65837000  1.0
  H  H53  1  0.19730000  0.85626000  0.34163000  1.0
  H  H54  1  0.94730000  0.15837000  0.35626000  1.0
  H  H55  1  0.44730000  0.84163000  0.64375000  1.0
  H  H56  1  0.77089000  0.63311000  0.28524000  1.0
  H  H57  1  0.27090000  0.36689000  0.71476000  1.0
  H  H58  1  0.52090000  0.21476000  0.13311000  1.0
  H  H59  1  0.02089000  0.78524000  0.86689000  1.0
  H  H60  1  0.97910000  0.86689000  0.78524000  1.0
  H  H61  1  0.47911000  0.13311000  0.21476000  1.0
  H  H62  1  0.22910000  0.28524000  0.63311000  1.0
  H  H63  1  0.72910000  0.71476000  0.36689000  1.0
  H  H64  1  0.93815000  0.79356000  0.50502000  1.0
  H  H65  1  0.43815000  0.20644000  0.49498000  1.0
  H  H66  1  0.68815000  0.99498000  0.29356000  1.0
  H  H67  1  0.18815000  0.00502000  0.70644000  1.0
  H  H68  1  0.81185000  0.70644000  0.00502000  1.0
  H  H69  1  0.31185000  0.29356000  0.99498000  1.0
  H  H70  1  0.06185000  0.50502000  0.79356000  1.0
  H  H71  1  0.56185000  0.49498000  0.20644000  1.0
  H  H72  1  0.36228000  0.68649000  0.47535000  1.0
  H  H73  1  0.86228000  0.31351000  0.52465000  1.0
  H  H74  1  0.11228000  0.02465000  0.18649000  1.0
  H  H75  1  0.61228000  0.97535000  0.81351000  1.0
  H  H76  1  0.38772000  0.81351000  0.97535000  1.0
  H  H77  1  0.88772000  0.18649000  0.02465000  1.0
  H  H78  1  0.63772000  0.47535000  0.68649000  1.0
  H  H79  1  0.13772000  0.52465000  0.31351000  1.0
  H  H80  1  0.95794000  0.80613000  0.64918000  1.0
  H  H81  1  0.45794000  0.19387000  0.35082000  1.0
  H  H82  1  0.70794000  0.85082000  0.30613000  1.0
  H  H83  1  0.20794000  0.14918000  0.69387000  1.0
  H  H84  1  0.79206000  0.69387000  0.14918000  1.0
  H  H85  1  0.29206000  0.30613000  0.85082000  1.0
  H  H86  1  0.04206000  0.64918000  0.80613000  1.0
  H  H87  1  0.54206000  0.35082000  0.19387000  1.0
  H  H88  1  0.93698000  0.25891000  0.18784000  1.0
  H  H89  1  0.43698000  0.74109000  0.81216000  1.0
  H  H90  1  0.68698000  0.31216000  0.75891000  1.0
  H  H91  1  0.18698000  0.68784000  0.24109000  1.0
  H  H92  1  0.81302000  0.24109000  0.68784000  1.0
  H  H93  1  0.31302000  0.75891000  0.31216000  1.0
  H  H94  1  0.06302000  0.18784000  0.25891000  1.0
  H  H95  1  0.56302000  0.81216000  0.74109000  1.0
  H  H96  1  0.37107000  0.70291000  0.62010000  1.0
  H  H97  1  0.87107000  0.29709000  0.37990000  1.0
  H  H98  1  0.12107000  0.87990000  0.20291000  1.0
  H  H99  1  0.62107000  0.12010000  0.79709000  1.0
  H  H100  1  0.37893000  0.79709000  0.12010000  1.0
  H  H101  1  0.87893000  0.20291000  0.87990000  1.0
  H  H102  1  0.62893000  0.62010000  0.70291000  1.0
  H  H103  1  0.12893000  0.37990000  0.29709000  1.0
  C  C104  1  0.15282000  0.74269000  0.51512000  1.0
  C  C105  1  0.65282000  0.25731000  0.48488000  1.0
  C  C106  1  0.90282000  0.98488000  0.24269000  1.0
  C  C107  1  0.40282000  0.01512000  0.75731000  1.0
  C  C108  1  0.59718000  0.75731000  0.01512000  1.0
  C  C109  1  0.09718000  0.24269000  0.98488000  1.0
  C  C110  1  0.84718000  0.51512000  0.74269000  1.0
  C  C111  1  0.34718000  0.48488000  0.25731000  1.0
  C  C112  1  0.04615000  0.75315000  0.39753000  1.0
  C  C113  1  0.54615000  0.24685000  0.60247000  1.0
  C  C114  1  0.79615000  0.10247000  0.25315000  1.0
  C  C115  1  0.29615000  0.89754000  0.74685000  1.0
  C  C116  1  0.70385000  0.74685000  0.89753000  1.0
  C  C117  1  0.20385000  0.25315000  0.10246000  1.0
  C  C118  1  0.95385000  0.39753000  0.75315000  1.0
  C  C119  1  0.45385000  0.60247000  0.24685000  1.0
  C  C120  1  0.09319000  0.77506000  0.64548000  1.0
  C  C121  1  0.59319000  0.22494000  0.35452000  1.0
  C  C122  1  0.84319000  0.85452000  0.27506000  1.0
  C  C123  1  0.34319000  0.14548000  0.72494000  1.0
  C  C124  1  0.65681000  0.72494000  0.14548000  1.0
  C  C125  1  0.15681000  0.27506000  0.85452000  1.0
  C  C126  1  0.90681000  0.64548000  0.77506000  1.0
  C  C127  1  0.40681000  0.35452000  0.22494000  1.0
  C  C128  1  0.83002000  0.41626000  0.24427000  1.0
  C  C129  1  0.33002000  0.58374000  0.75573000  1.0
  C  C130  1  0.58002000  0.25573000  0.91626000  1.0
  C  C131  1  0.08002000  0.74427000  0.08374000  1.0
  C  C132  1  0.91998000  0.08374000  0.74427000  1.0
  C  C133  1  0.41998000  0.91626000  0.25573000  1.0
  C  C134  1  0.16998000  0.24428000  0.41626000  1.0
  C  C135  1  0.66998000  0.75573000  0.58374000  1.0
  C  C136  1  0.22602000  0.71751000  0.47134000  1.0
  C  C137  1  0.72602000  0.28249000  0.52866000  1.0
  C  C138  1  0.97602000  0.02866000  0.21751000  1.0
  C  C139  1  0.47602000  0.97134000  0.78249000  1.0
  C  C140  1  0.52398000  0.78249000  0.97134000  1.0
  C  C141  1  0.02398000  0.21751000  0.02866000  1.0
  C  C142  1  0.77398000  0.47134000  0.71751000  1.0
  C  C143  1  0.27398000  0.52866000  0.28249000  1.0
  C  C144  1  0.89418000  0.47595000  0.23235000  1.0
  C  C145  1  0.39418000  0.52405000  0.76765000  1.0
  C  C146  1  0.64418000  0.26765000  0.97595000  1.0
  C  C147  1  0.14418000  0.73236000  0.02405000  1.0
  C  C148  1  0.85582000  0.02405000  0.73235000  1.0
  C  C149  1  0.35582000  0.97595000  0.26765000  1.0
  C  C150  1  0.10582000  0.23236000  0.47595000  1.0
  C  C151  1  0.60582000  0.76765000  0.52405000  1.0
  C  C152  1  0.72463000  0.51349000  0.28476000  1.0
  C  C153  1  0.22463000  0.48651000  0.71524000  1.0
  C  C154  1  0.47463000  0.21524000  0.01349000  1.0
  C  C155  1  0.97463000  0.78476000  0.98651000  1.0
  C  C156  1  0.02537000  0.98651000  0.78476000  1.0
  C  C157  1  0.52537000  0.01349000  0.21524000  1.0
  C  C158  1  0.27537000  0.28476000  0.51349000  1.0
  C  C159  1  0.77537000  0.71524000  0.48651000  1.0
  C  C160  1  0.93700000  0.61938000  0.24705000  1.0
  C  C161  1  0.43700000  0.38061000  0.75295000  1.0
  C  C162  1  0.68700000  0.25295000  0.11939000  1.0
  C  C163  1  0.18700000  0.74705000  0.88061000  1.0
  C  C164  1  0.81300000  0.88061000  0.74705000  1.0
  C  C165  1  0.31300000  0.11939000  0.25295000  1.0
  C  C166  1  0.06300000  0.24705000  0.61939000  1.0
  C  C167  1  0.56300000  0.75295000  0.38061000  1.0
  C  C168  1  0.74557000  0.43636000  0.27097000  1.0
  C  C169  1  0.24557000  0.56364000  0.72903000  1.0
  C  C170  1  0.49557000  0.22903000  0.93636000  1.0
  C  C171  1  0.99557000  0.77097000  0.06364000  1.0
  C  C172  1  0.00443000  0.06364000  0.77097000  1.0
  C  C173  1  0.50443000  0.93636000  0.22903000  1.0
  C  C174  1  0.25443000  0.27097000  0.43636000  1.0
  C  C175  1  0.75443000  0.72903000  0.56364000  1.0
  C  C176  1  0.97571000  0.45374000  0.20043000  1.0
  C  C177  1  0.47571000  0.54626000  0.79957000  1.0
  C  C178  1  0.72571000  0.29957000  0.95374000  1.0
  C  C179  1  0.22571000  0.70043000  0.04626000  1.0
  C  C180  1  0.77429000  0.04626000  0.70043000  1.0
  C  C181  1  0.27429000  0.95374000  0.29957000  1.0
  C  C182  1  0.02429000  0.20043000  0.45374000  1.0
  C  C183  1  0.52429000  0.79957000  0.54626000  1.0
  C  C184  1  0.87152000  0.55489000  0.25001000  1.0
  C  C185  1  0.37152000  0.44510000  0.74999000  1.0
  C  C186  1  0.62152000  0.25000000  0.05490000  1.0
  C  C187  1  0.12152000  0.75001000  0.94510000  1.0
  C  C188  1  0.87848000  0.94510000  0.75001000  1.0
  C  C189  1  0.37848000  0.05490000  0.24999000  1.0
  C  C190  1  0.12848000  0.25001000  0.55490000  1.0
  C  C191  1  0.62848000  0.74999000  0.44510000  1.0
  C  C192  1  0.99133000  0.37638000  0.18316000  1.0
  C  C193  1  0.49133000  0.62363000  0.81684000  1.0
  C  C194  1  0.74133000  0.31684000  0.87638000  1.0
  C  C195  1  0.24133000  0.68316000  0.12363000  1.0
  C  C196  1  0.75867000  0.12362000  0.68316000  1.0
  C  C197  1  0.25868000  0.87638000  0.31684000  1.0
  C  C198  1  0.00867000  0.18316000  0.37638000  1.0
  C  C199  1  0.50868000  0.81684000  0.62362000  1.0
  C  C200  1  0.06861000  0.75860000  0.48241000  1.0
  C  C201  1  0.56861000  0.24140000  0.51758000  1.0
  C  C202  1  0.81861000  0.01758000  0.25860000  1.0
  C  C203  1  0.31861000  0.98241000  0.74140000  1.0
  C  C204  1  0.68139000  0.74140000  0.98242000  1.0
  C  C205  1  0.18139000  0.25860000  0.01758000  1.0
  C  C206  1  0.93139000  0.48242000  0.75860000  1.0
  C  C207  1  0.43139000  0.51759000  0.24140000  1.0
  C  C208  1  0.78757000  0.57241000  0.27392000  1.0
  C  C209  1  0.28758000  0.42759000  0.72608000  1.0
  C  C210  1  0.53757000  0.22608000  0.07241000  1.0
  C  C211  1  0.03757000  0.77392000  0.92759000  1.0
  C  C212  1  0.96243000  0.92759000  0.77392000  1.0
  C  C213  1  0.46243000  0.07241000  0.22608000  1.0
  C  C214  1  0.21242000  0.27392000  0.57241000  1.0
  C  C215  1  0.71243000  0.72608000  0.42759000  1.0
  C  C216  1  0.00125000  0.78143000  0.53144000  1.0
  C  C217  1  0.50125000  0.21857000  0.46856000  1.0
  C  C218  1  0.75125000  0.96856000  0.28143000  1.0
  C  C219  1  0.25125000  0.03144000  0.71857000  1.0
  C  C220  1  0.74875000  0.71857000  0.03144000  1.0
  C  C221  1  0.24875000  0.28143000  0.96856000  1.0
  C  C222  1  0.99875000  0.53144000  0.78143000  1.0
  C  C223  1  0.49875000  0.46856000  0.21857000  1.0
  C  C224  1  0.16408000  0.75185000  0.59810000  1.0
  C  C225  1  0.66408000  0.24815000  0.40190000  1.0
  C  C226  1  0.91408000  0.90190000  0.25185000  1.0
  C  C227  1  0.41408000  0.09810000  0.74815000  1.0
  C  C228  1  0.58592000  0.74815000  0.09810000  1.0
  C  C229  1  0.08592000  0.25185000  0.90190000  1.0
  C  C230  1  0.83592000  0.59810000  0.75185000  1.0
  C  C231  1  0.33592000  0.40190000  0.24815000  1.0
  C  C232  1  0.30457000  0.70402000  0.50816000  1.0
  C  C233  1  0.80457000  0.29598000  0.49184000  1.0
  C  C234  1  0.05457000  0.99184000  0.20402000  1.0
  C  C235  1  0.55457000  0.00816000  0.79598000  1.0
  C  C236  1  0.44543000  0.79598000  0.00816000  1.0
  C  C237  1  0.94543000  0.20402000  0.99184000  1.0
  C  C238  1  0.69543000  0.50816000  0.70402000  1.0
  C  C239  1  0.19543000  0.49184000  0.29598000  1.0
  C  C240  1  0.01287000  0.78925000  0.61245000  1.0
  C  C241  1  0.51287000  0.21075000  0.38755000  1.0
  C  C242  1  0.76287000  0.88755000  0.28925000  1.0
  C  C243  1  0.26287000  0.11245000  0.71075000  1.0
  C  C244  1  0.73713000  0.71075000  0.11245000  1.0
  C  C245  1  0.23713000  0.28925000  0.88754000  1.0
  C  C246  1  0.98713000  0.61245000  0.78925000  1.0
  C  C247  1  0.48713000  0.38755000  0.21075000  1.0
  C  C248  1  0.92654000  0.32080000  0.19941000  1.0
  C  C249  1  0.42654000  0.67920000  0.80059000  1.0
  C  C250  1  0.67654000  0.30059000  0.82080000  1.0
  C  C251  1  0.17654000  0.69941000  0.17920000  1.0
  C  C252  1  0.82346000  0.17920000  0.69941000  1.0
  C  C253  1  0.32346000  0.82080000  0.30059000  1.0
  C  C254  1  0.07346000  0.19941000  0.32080000  1.0
  C  C255  1  0.57346000  0.80059000  0.67920000  1.0
  C  C256  1  0.31003000  0.71418000  0.58942000  1.0
  C  C257  1  0.81003000  0.28582000  0.41058000  1.0
  C  C258  1  0.06003000  0.91058000  0.21418000  1.0
  C  C259  1  0.56003000  0.08942000  0.78582000  1.0
  C  C260  1  0.43997000  0.78582000  0.08942000  1.0
  C  C261  1  0.93997000  0.21418000  0.91058000  1.0
  C  C262  1  0.68997000  0.58942000  0.71418000  1.0
  C  C263  1  0.18997000  0.41058000  0.28582000  1.0
  N  N264  1  0.24323000  0.73728000  0.63349000  1.0
  N  N265  1  0.74323000  0.26272000  0.36650000  1.0
  N  N266  1  0.99323000  0.86650000  0.23728000  1.0
  N  N267  1  0.49323000  0.13350000  0.76272000  1.0
  N  N268  1  0.50677000  0.76272000  0.13350000  1.0
  N  N269  1  0.00677000  0.23728000  0.86650000  1.0
  N  N270  1  0.75677000  0.63350000  0.73728000  1.0
  N  N271  1  0.25677000  0.36650000  0.26272000  1.0
  N  N272  1  0.84898000  0.33913000  0.22916000  1.0
  N  N273  1  0.34898000  0.66087000  0.77084000  1.0
  N  N274  1  0.59898000  0.27084000  0.83913000  1.0
  N  N275  1  0.09898000  0.72916000  0.16087000  1.0
  N  N276  1  0.90102000  0.16087000  0.72916000  1.0
  N  N277  1  0.40102000  0.83913000  0.27084000  1.0
  N  N278  1  0.15102000  0.22916000  0.33913000  1.0
  N  N279  1  0.65102000  0.77084000  0.66087000  1.0
  O  O280  1  0.10590000  0.75021000  0.34415000  1.0
  O  O281  1  0.60590000  0.24979000  0.65585000  1.0
  O  O282  1  0.85590000  0.15585000  0.25021000  1.0
  O  O283  1  0.35589000  0.84415000  0.74979000  1.0
  O  O284  1  0.64410000  0.74979000  0.84415000  1.0
  O  O285  1  0.14411000  0.25021000  0.15585000  1.0
  O  O286  1  0.89410000  0.34415000  0.75021000  1.0
  O  O287  1  0.39410000  0.65585000  0.24979000  1.0
  O  O288  1  0.96684000  0.75343000  0.37723000  1.0
  O  O289  1  0.46684000  0.24657000  0.62277000  1.0
  O  O290  1  0.71684000  0.12277000  0.25343000  1.0
  O  O291  1  0.21684000  0.87723000  0.74657000  1.0
  O  O292  1  0.78316000  0.74657000  0.87723000  1.0
  O  O293  1  0.28316000  0.25343000  0.12277000  1.0
  O  O294  1  0.03316000  0.37722000  0.75343000  1.0
  O  O295  1  0.53316000  0.62278000  0.24657000  1.0
  O  O296  1  0.01549000  0.60875000  0.26610000  1.0
  O  O297  1  0.51549000  0.39125000  0.73390000  1.0
  O  O298  1  0.76549000  0.23390000  0.10875000  1.0
  O  O299  1  0.26549000  0.76610000  0.89125000  1.0
  O  O300  1  0.73451000  0.89125000  0.76610000  1.0
  O  O301  1  0.23451000  0.10875000  0.23390000  1.0
  O  O302  1  0.98451000  0.26610000  0.60875000  1.0
  O  O303  1  0.48451000  0.73390000  0.39125000  1.0
  O  O304  1  0.90894000  0.68799000  0.22771000  1.0
  O  O305  1  0.40894000  0.31201000  0.77229000  1.0
  O  O306  1  0.65894000  0.27229000  0.18799000  1.0
  O  O307  1  0.15894000  0.72771000  0.81201000  1.0
  O  O308  1  0.84106000  0.81201000  0.72771000  1.0
  O  O309  1  0.34106000  0.18799000  0.27229000  1.0
  O  O310  1  0.09106000  0.22771000  0.68799000  1.0
  O  O311  1  0.59106000  0.77229000  0.31201000  1.0
