# generated using pymatgen
data_Li2PH24C22S2(O3F)3
_symmetry_space_group_name_H-M   'P 1'
_cell_length_a   10.07510000
_cell_length_b   10.74920000
_cell_length_c   13.12280000
_cell_angle_alpha   104.79200000
_cell_angle_beta   91.95370000
_cell_angle_gamma   109.18500000
_symmetry_Int_Tables_number   1
_chemical_formula_structural   Li2PH24C22S2(O3F)3
_chemical_formula_sum   'Li4 P2 H48 C44 S4 O18 F6'
_cell_volume   1286.89704557
_cell_formula_units_Z   2
loop_
 _symmetry_equiv_pos_site_id
 _symmetry_equiv_pos_as_xyz
  1  'x, y, z'
loop_
 _atom_site_type_symbol
 _atom_site_label
 _atom_site_symmetry_multiplicity
 _atom_site_fract_x
 _atom_site_fract_y
 _atom_site_fract_z
 _atom_site_occupancy
  Li  Li0  1  0.32892000  0.28859000  0.45499000  1.0
  Li  Li1  1  0.67108000  0.71141000  0.54501000  1.0
  Li  Li2  1  0.89476000  0.27878000  0.46819000  1.0
  Li  Li3  1  0.10524000  0.72122000  0.53181000  1.0
  P  P4  1  0.42193000  0.48831000  0.71957000  1.0
  P  P5  1  0.57807000  0.51169000  0.28043000  1.0
  H  H6  1  0.08010000  0.45090000  0.40858000  1.0
  H  H7  1  0.91990000  0.54910000  0.59142000  1.0
  H  H8  1  0.84101000  0.02285000  0.41007000  1.0
  H  H9  1  0.15899000  0.97715000  0.58993000  1.0
  H  H10  1  0.95641000  0.18485000  0.78533000  1.0
  H  H11  1  0.04359000  0.81515000  0.21467000  1.0
  H  H12  1  0.97062000  0.32352000  0.97246000  1.0
  H  H13  1  0.02938000  0.67648000  0.02753000  1.0
  H  H14  1  0.18059000  0.53832000  0.04812000  1.0
  H  H15  1  0.81941000  0.46168000  0.95188000  1.0
  H  H16  1  0.37258000  0.60591000  0.94144000  1.0
  H  H17  1  0.62742000  0.39409000  0.05856000  1.0
  H  H18  1  0.43003000  0.76208000  0.74338000  1.0
  H  H19  1  0.56997000  0.23792000  0.25662000  1.0
  H  H20  1  0.55766000  0.98717000  0.87267000  1.0
  H  H21  1  0.44234000  0.01283000  0.12733000  1.0
  H  H22  1  0.79470000  0.80126000  0.02681000  1.0
  H  H23  1  0.20530000  0.19874000  0.97319000  1.0
  H  H24  1  0.66150000  0.57580000  0.90101000  1.0
  H  H25  1  0.33850000  0.42420000  0.09899000  1.0
  H  H26  1  0.42186000  0.34005000  0.88124000  1.0
  H  H27  1  0.57814000  0.65995000  0.11876000  1.0
  H  H28  1  0.54863000  0.19244000  0.91458000  1.0
  H  H29  1  0.45137000  0.80756000  0.08542000  1.0
  H  H30  1  0.72314000  0.13935000  0.79440000  1.0
  H  H31  1  0.27686000  0.86065000  0.20560000  1.0
  H  H32  1  0.76829000  0.24058000  0.64315000  1.0
  H  H33  1  0.23171000  0.75942000  0.35685000  1.0
  H  H34  1  0.01407000  0.36134000  0.21268000  1.0
  H  H35  1  0.98593000  0.63866000  0.78732000  1.0
  H  H36  1  0.95778000  0.49682000  0.28592000  1.0
  H  H37  1  0.04222000  0.50318000  0.71408000  1.0
  H  H38  1  0.83923000  0.32314000  0.24957000  1.0
  H  H39  1  0.16077000  0.67686000  0.75043000  1.0
  H  H40  1  0.61126000  0.95193000  0.31581000  1.0
  H  H41  1  0.38874000  0.04807000  0.68419000  1.0
  H  H42  1  0.58823000  0.09267000  0.41162000  1.0
  H  H43  1  0.41177000  0.90733000  0.58838000  1.0
  H  H44  1  0.60296000  0.94952000  0.45110000  1.0
  H  H45  1  0.39704000  0.05048000  0.54890000  1.0
  H  H46  1  0.13395000  0.04946000  0.37759000  1.0
  H  H47  1  0.86605000  0.95054000  0.62241000  1.0
  H  H48  1  0.10775000  0.03549000  0.19026000  1.0
  H  H49  1  0.89225000  0.96451000  0.80974000  1.0
  H  H50  1  0.18325000  0.21841000  0.23797000  1.0
  H  H51  1  0.81675000  0.78159000  0.76203000  1.0
  H  H52  1  0.01740000  0.13045000  0.27522000  1.0
  H  H53  1  0.98260000  0.86955000  0.72478000  1.0
  C  C54  1  0.27640000  0.43714000  0.80079000  1.0
  C  C55  1  0.72360000  0.56286000  0.19921000  1.0
  C  C56  1  0.15470000  0.31918000  0.75888000  1.0
  C  C57  1  0.84531000  0.68082000  0.24112000  1.0
  C  C58  1  0.04670000  0.27835000  0.82044000  1.0
  C  C59  1  0.95330000  0.72165000  0.17956000  1.0
  C  C60  1  0.05478000  0.35604000  0.92473000  1.0
  C  C61  1  0.94522000  0.64396000  0.07527000  1.0
  C  C62  1  0.17194000  0.47555000  0.96679000  1.0
  C  C63  1  0.82806000  0.52445000  0.03321000  1.0
  C  C64  1  0.28077000  0.51420000  0.90579000  1.0
  C  C65  1  0.71923000  0.48580000  0.09421000  1.0
  C  C66  1  0.53343000  0.65196000  0.81477000  1.0
  C  C67  1  0.46657000  0.34804000  0.18523000  1.0
  C  C68  1  0.50787000  0.77001000  0.80688000  1.0
  C  C69  1  0.49213000  0.22999000  0.19312000  1.0
  C  C70  1  0.58096000  0.89744000  0.87918000  1.0
  C  C71  1  0.41904000  0.10256000  0.12082000  1.0
  C  C72  1  0.68349000  0.90888000  0.95893000  1.0
  C  C73  1  0.31651000  0.09112000  0.04107000  1.0
  C  C74  1  0.71347000  0.79273000  0.96571000  1.0
  C  C75  1  0.28653000  0.20727000  0.03429000  1.0
  C  C76  1  0.63857000  0.66564000  0.89411000  1.0
  C  C77  1  0.36143000  0.33436000  0.10589000  1.0
  C  C78  1  0.76384000  0.04376000  0.03868000  1.0
  C  C79  1  0.23616000  0.95624000  0.96132000  1.0
  C  C80  1  0.51938000  0.37611000  0.74272000  1.0
  C  C81  1  0.48062000  0.62389000  0.25728000  1.0
  C  C82  1  0.49722000  0.31858000  0.82809000  1.0
  C  C83  1  0.50279000  0.68142000  0.17191000  1.0
  C  C84  1  0.56957000  0.23473000  0.84724000  1.0
  C  C85  1  0.43043000  0.76527000  0.15276000  1.0
  C  C86  1  0.66741000  0.20625000  0.78097000  1.0
  C  C87  1  0.33260000  0.79375000  0.21903000  1.0
  C  C88  1  0.69208000  0.26207000  0.69550000  1.0
  C  C89  1  0.30792000  0.73793000  0.30450000  1.0
  C  C90  1  0.61859000  0.34580000  0.67653000  1.0
  C  C91  1  0.38141000  0.65421000  0.32347000  1.0
  C  C92  1  0.95023000  0.38990000  0.27519000  1.0
  C  C93  1  0.04977000  0.61009000  0.72481000  1.0
  C  C94  1  0.63994000  0.01566000  0.39876000  1.0
  C  C95  1  0.36006000  0.98434000  0.60124000  1.0
  C  C96  1  0.12172000  0.12533000  0.25834000  1.0
  C  C97  1  0.87828000  0.87467000  0.74166000  1.0
  S  S98  1  0.12040000  0.22209000  0.62231000  1.0
  S  S99  1  0.87960000  0.77791000  0.37769000  1.0
  S  S100  1  0.64881000  0.40536000  0.56089000  1.0
  S  S101  1  0.35119000  0.59464000  0.43911000  1.0
  O  O102  1  0.03794000  0.28548000  0.57245000  1.0
  O  O103  1  0.96206000  0.71452000  0.42755000  1.0
  O  O104  1  0.04124000  0.07874000  0.61946000  1.0
  O  O105  1  0.95876000  0.92125000  0.38054000  1.0
  O  O106  1  0.25806000  0.23628000  0.58333000  1.0
  O  O107  1  0.74194000  0.76372000  0.41667000  1.0
  O  O108  1  0.52969000  0.31417000  0.47965000  1.0
  O  O109  1  0.47031000  0.68583000  0.52035000  1.0
  O  O110  1  0.66065000  0.54993000  0.59349000  1.0
  O  O111  1  0.33935000  0.45007000  0.40651000  1.0
  O  O112  1  0.78434000  0.39092000  0.53109000  1.0
  O  O113  1  0.21566000  0.60908000  0.46890000  1.0
  O  O114  1  0.99513000  0.37084000  0.37276000  1.0
  O  O115  1  0.00487000  0.62916000  0.62724000  1.0
  O  O116  1  0.78978000  0.08824000  0.42221000  1.0
  O  O117  1  0.21022000  0.91176000  0.57779000  1.0
  O  O118  1  0.19951000  0.12000000  0.35008000  1.0
  O  O119  1  0.80049000  0.88000000  0.64992000  1.0
  F  F120  1  0.73417000  0.15160000  0.01883000  1.0
  F  F121  1  0.26583000  0.84840000  0.98117000  1.0
  F  F122  1  0.90774000  0.07662000  0.04185000  1.0
  F  F123  1  0.09226000  0.92338000  0.95815000  1.0
  F  F124  1  0.73475000  0.04336000  0.14013000  1.0
  F  F125  1  0.26525000  0.95664000  0.85987000  1.0
