# generated using pymatgen
data_MgH3C8O3
_symmetry_space_group_name_H-M   'P 1'
_cell_length_a   6.86204000
_cell_length_b   24.66710000
_cell_length_c   24.66800000
_cell_angle_alpha   119.14300000
_cell_angle_beta   95.32510000
_cell_angle_gamma   95.31920000
_symmetry_Int_Tables_number   1
_chemical_formula_structural   MgH3C8O3
_chemical_formula_sum   'Mg6 H18 C48 O18'
_cell_volume   3585.20100750
_cell_formula_units_Z   6
loop_
 _symmetry_equiv_pos_site_id
 _symmetry_equiv_pos_as_xyz
  1  'x, y, z'
loop_
 _atom_site_type_symbol
 _atom_site_label
 _atom_site_symmetry_multiplicity
 _atom_site_fract_x
 _atom_site_fract_y
 _atom_site_fract_z
 _atom_site_occupancy
  Mg  Mg0  1  0.89085000  0.67184000  0.29352000  1.0
  Mg  Mg1  1  0.70554000  0.32453000  0.70426000  1.0
  Mg  Mg2  1  0.59732000  0.70648000  0.37829000  1.0
  Mg  Mg3  1  0.00129000  0.29574000  0.62029000  1.0
  Mg  Mg4  1  0.21894000  0.62168000  0.32816000  1.0
  Mg  Mg5  1  0.38103000  0.37972000  0.67548000  1.0
  H  H6  1  0.20491000  0.11971000  0.51373000  1.0
  H  H7  1  0.37242000  0.02496000  0.46828000  1.0
  H  H8  1  0.92222000  0.14113000  0.58532000  1.0
  H  H9  1  0.67024000  0.85691000  0.40290000  1.0
  H  H10  1  0.38922000  0.88325000  0.47587000  1.0
  H  H11  1  0.21802000  0.97728000  0.51696000  1.0
  H  H12  1  0.69119000  0.48627000  0.60600000  1.0
  H  H13  1  0.90408000  0.53172000  0.55666000  1.0
  H  H14  1  0.33694000  0.41468000  0.55579000  1.0
  H  H15  1  0.26726000  0.59707000  0.45398000  1.0
  H  H16  1  0.91333000  0.52414000  0.40741000  1.0
  H  H17  1  0.70112000  0.48305000  0.46036000  1.0
  H  H18  1  0.08513000  0.39403000  0.88028000  1.0
  H  H19  1  0.34739000  0.44330000  0.97504000  1.0
  H  H20  1  0.78113000  0.44423000  0.85894000  1.0
  H  H21  1  0.81330000  0.54601000  0.14310000  1.0
  H  H22  1  0.50587000  0.59262000  0.11673000  1.0
  H  H23  1  0.24065000  0.53968000  0.02272000  1.0
  C  C24  1  0.67405000  0.19014000  0.59480000  1.0
  C  C25  1  0.46595000  0.18331000  0.57443000  1.0
  C  C26  1  0.36229000  0.12335000  0.52889000  1.0
  C  C27  1  0.45425000  0.07075000  0.50371000  1.0
  C  C28  1  0.65845000  0.07664000  0.52475000  1.0
  C  C29  1  0.76474000  0.13592000  0.56931000  1.0
  C  C30  1  0.75409000  0.02305000  0.50189000  1.0
  C  C31  1  0.83515000  0.97651000  0.48312000  1.0
  C  C32  1  0.93274000  0.92337000  0.46174000  1.0
  C  C33  1  0.82808000  0.86323000  0.41914000  1.0
  C  C34  1  0.92062000  0.80938000  0.39643000  1.0
  C  C35  1  0.12911000  0.81754000  0.41715000  1.0
  C  C36  1  0.23146000  0.87851000  0.46034000  1.0
  C  C37  1  0.13756000  0.93072000  0.48309000  1.0
  C  C38  1  0.24251000  0.76494000  0.39674000  1.0
  C  C39  1  0.35389000  0.23635000  0.59800000  1.0
  C  C40  1  0.07932000  0.40521000  0.59533000  1.0
  C  C41  1  0.89154000  0.42556000  0.60888000  1.0
  C  C42  1  0.83338000  0.47110000  0.59446000  1.0
  C  C43  1  0.95040000  0.49625000  0.56700000  1.0
  C  C44  1  0.13354000  0.47521000  0.55184000  1.0
  C  C45  1  0.19545000  0.43067000  0.56657000  1.0
  C  C46  1  0.25211000  0.49814000  0.52118000  1.0
  C  C47  1  0.35208000  0.51691000  0.49344000  1.0
  C  C48  1  0.47099000  0.53826000  0.46165000  1.0
  C  C49  1  0.40880000  0.58080000  0.44403000  1.0
  C  C50  1  0.52402000  0.60349000  0.41288000  1.0
  C  C51  1  0.71187000  0.58282000  0.40037000  1.0
  C  C52  1  0.77109000  0.53966000  0.41819000  1.0
  C  C53  1  0.65447000  0.51692000  0.44767000  1.0
  C  C54  1  0.84570000  0.60323000  0.36817000  1.0
  C  C55  1  0.75599000  0.40198000  0.63835000  1.0
  C  C56  1  0.48398000  0.40467000  0.80989000  1.0
  C  C57  1  0.28262000  0.39115000  0.81669000  1.0
  C  C58  1  0.23886000  0.40554000  0.87664000  1.0
  C  C59  1  0.38336000  0.43295000  0.92924000  1.0
  C  C60  1  0.58164000  0.44813000  0.92338000  1.0
  C  C61  1  0.62884000  0.43344000  0.86413000  1.0
  C  C62  1  0.73074000  0.47880000  0.97700000  1.0
  C  C63  1  0.85845000  0.50657000  0.02351000  1.0
  C  C64  1  0.00924000  0.53837000  0.07663000  1.0
  C  C65  1  0.96478000  0.55594000  0.13678000  1.0
  C  C66  1  0.11120000  0.58710000  0.19062000  1.0
  C  C67  1  0.31156000  0.59964000  0.18246000  1.0
  C  C68  1  0.35286000  0.58184000  0.12149000  1.0
  C  C69  1  0.20671000  0.55237000  0.06928000  1.0
  C  C70  1  0.47755000  0.63182000  0.23506000  1.0
  C  C71  1  0.11758000  0.36166000  0.76365000  1.0
  O  O72  1  0.42635000  0.77398000  0.41774000  1.0
  O  O73  1  0.15108000  0.70886000  0.35640000  1.0
  O  O74  1  0.80792000  0.75340000  0.35690000  1.0
  O  O75  1  0.17080000  0.22875000  0.57696000  1.0
  O  O76  1  0.44557000  0.29126000  0.64135000  1.0
  O  O77  1  0.78780000  0.24516000  0.63669000  1.0
  O  O78  1  0.00848000  0.58220000  0.35620000  1.0
  O  O79  1  0.79472000  0.64361000  0.35247000  1.0
  O  O80  1  0.45092000  0.64304000  0.39644000  1.0
  O  O81  1  0.59394000  0.42302000  0.65179000  1.0
  O  O82  1  0.80430000  0.35862000  0.64991000  1.0
  O  O83  1  0.15119000  0.36336000  0.60852000  1.0
  O  O84  1  0.65234000  0.64377000  0.22602000  1.0
  O  O85  1  0.44219000  0.64754000  0.29114000  1.0
  O  O86  1  0.05452000  0.60355000  0.24660000  1.0
  O  O87  1  0.94213000  0.34821000  0.77125000  1.0
  O  O88  1  0.15435000  0.35011000  0.70874000  1.0
  O  O89  1  0.54271000  0.39149000  0.75486000  1.0
