# generated using pymatgen
data_Ag2H14C13S2(N2O3)2
_symmetry_space_group_name_H-M   'P 1'
_cell_length_a   5.09106000
_cell_length_b   12.67490000
_cell_length_c   14.09620000
_cell_angle_alpha   82.93730000
_cell_angle_beta   79.63240000
_cell_angle_gamma   78.42120000
_symmetry_Int_Tables_number   1
_chemical_formula_structural   Ag2H14C13S2(N2O3)2
_chemical_formula_sum   'Ag4 H28 C26 S4 N8 O12'
_cell_volume   872.98370452
_cell_formula_units_Z   2
loop_
 _symmetry_equiv_pos_site_id
 _symmetry_equiv_pos_as_xyz
  1  'x, y, z'
loop_
 _atom_site_type_symbol
 _atom_site_label
 _atom_site_symmetry_multiplicity
 _atom_site_fract_x
 _atom_site_fract_y
 _atom_site_fract_z
 _atom_site_occupancy
  Ag  Ag0  1  0.14685000  0.88622000  0.00027000  1.0
  Ag  Ag1  1  0.96642000  0.38634000  0.50012000  1.0
  Ag  Ag2  1  0.85316000  0.11378000  0.99973000  1.0
  Ag  Ag3  1  0.03358000  0.61366000  0.49988000  1.0
  H  H4  1  0.58324000  0.80556000  0.83014000  1.0
  H  H5  1  0.78138000  0.30556000  0.33011000  1.0
  H  H6  1  0.41677000  0.19444000  0.16985000  1.0
  H  H7  1  0.21862000  0.69444000  0.66990000  1.0
  H  H8  1  0.69358000  0.82452000  0.64774000  1.0
  H  H9  1  0.83428000  0.32438000  0.14769000  1.0
  H  H10  1  0.30642000  0.17548000  0.35226000  1.0
  H  H11  1  0.16572000  0.67563000  0.85231000  1.0
  H  H12  1  0.36219000  0.95227000  0.55550000  1.0
  H  H13  1  0.12972000  0.45223000  0.05550000  1.0
  H  H14  1  0.63780000  0.04773000  0.44450000  1.0
  H  H15  1  0.87028000  0.54777000  0.94450000  1.0
  H  H16  1  0.94622000  0.05482000  0.64455000  1.0
  H  H17  1  0.35363000  0.55505000  0.14456000  1.0
  H  H18  1  0.05378000  0.94518000  0.35545000  1.0
  H  H19  1  0.64637000  0.44495000  0.85544000  1.0
  H  H20  1  0.55136000  0.11750000  0.71808000  1.0
  H  H21  1  0.61254000  0.61771000  0.21813000  1.0
  H  H22  1  0.44864000  0.88250000  0.28192000  1.0
  H  H23  1  0.38746000  0.38229000  0.78187000  1.0
  H  H24  1  0.38795000  0.17631000  0.82488000  1.0
  H  H25  1  0.61082000  0.67653000  0.32493000  1.0
  H  H26  1  0.61205000  0.82369000  0.17512000  1.0
  H  H27  1  0.38918000  0.32347000  0.67507000  1.0
  H  H28  1  0.89695000  0.23111000  0.68959000  1.0
  H  H29  1  0.18213000  0.73140000  0.18955000  1.0
  H  H30  1  0.10305000  0.76889000  0.31041000  1.0
  H  H31  1  0.81787000  0.26860000  0.81045000  1.0
  C  C32  1  0.44691000  0.85849000  0.78578000  1.0
  C  C33  1  0.90873000  0.35860000  0.28575000  1.0
  C  C34  1  0.55308000  0.14151000  0.21422000  1.0
  C  C35  1  0.09127000  0.64140000  0.71425000  1.0
  C  C36  1  0.50667000  0.86959000  0.68519000  1.0
  C  C37  1  0.93844000  0.36958000  0.18516000  1.0
  C  C38  1  0.49333000  0.13041000  0.31481000  1.0
  C  C39  1  0.06156000  0.63043000  0.81484000  1.0
  C  C40  1  0.32309000  0.94087000  0.63415000  1.0
  C  C41  1  0.10147000  0.44093000  0.13416000  1.0
  C  C42  1  0.67690000  0.05913000  0.36585000  1.0
  C  C43  1  0.89853000  0.55907000  0.86585000  1.0
  C  C44  1  0.08774000  0.99830000  0.68425000  1.0
  C  C45  1  0.22911000  0.49851000  0.18427000  1.0
  C  C46  1  0.91226000  0.00170000  0.31576000  1.0
  C  C47  1  0.77089000  0.50149000  0.81574000  1.0
  C  C48  1  0.04492000  0.98280000  0.78535000  1.0
  C  C49  1  0.18647000  0.48306000  0.28536000  1.0
  C  C50  1  0.95508000  0.01720000  0.21465000  1.0
  C  C51  1  0.81353000  0.51694000  0.71464000  1.0
  C  C52  1  0.58831000  0.15274000  0.78089000  1.0
  C  C53  1  0.47778000  0.65301000  0.28092000  1.0
  C  C54  1  0.41169000  0.84725000  0.21911000  1.0
  C  C55  1  0.52222000  0.34699000  0.71908000  1.0
  C  C56  1  0.73082000  0.24986000  0.75000000  1.0
  C  C57  1  0.26918000  0.75014000  0.25000000  1.0
  S  S58  1  0.74914000  0.04449000  0.85928000  1.0
  S  S59  1  0.34689000  0.54476000  0.35931000  1.0
  S  S60  1  0.25086000  0.95551000  0.14072000  1.0
  S  S61  1  0.65311000  0.45524000  0.64069000  1.0
  N  N62  1  0.22057000  0.91398000  0.83522000  1.0
  N  N63  1  0.03000000  0.41420000  0.33521000  1.0
  N  N64  1  0.77943000  0.08601000  0.16478000  1.0
  N  N65  1  0.97000000  0.58580000  0.66479000  1.0
  N  N66  1  0.69209000  0.73211000  0.02438000  1.0
  N  N67  1  0.55204000  0.23201000  0.52430000  1.0
  N  N68  1  0.30791000  0.26789000  0.97562000  1.0
  N  N69  1  0.44796000  0.76799000  0.47570000  1.0
  O  O70  1  0.47364000  0.70103000  0.01826000  1.0
  O  O71  1  0.80775000  0.20108000  0.51793000  1.0
  O  O72  1  0.52635000  0.29897000  0.98174000  1.0
  O  O73  1  0.19225000  0.79892000  0.48207000  1.0
  O  O74  1  0.72288000  0.82753000  0.98728000  1.0
  O  O75  1  0.46222000  0.32737000  0.48726000  1.0
  O  O76  1  0.27713000  0.17247000  0.01272000  1.0
  O  O77  1  0.53778000  0.67263000  0.51274000  1.0
  O  O78  1  0.87192000  0.67236000  0.06669000  1.0
  O  O79  1  0.39028000  0.17212000  0.56680000  1.0
  O  O80  1  0.12808000  0.32764000  0.93331000  1.0
  O  O81  1  0.60973000  0.82788000  0.43320000  1.0
