# generated using pymatgen
data_GdCu3H21(C8O7)3
_symmetry_space_group_name_H-M   'P 1'
_cell_length_a   9.65344000
_cell_length_b   12.21260000
_cell_length_c   12.61870000
_cell_angle_alpha   116.55000000
_cell_angle_beta   96.14120000
_cell_angle_gamma   90.65940000
_symmetry_Int_Tables_number   1
_chemical_formula_structural   GdCu3H21(C8O7)3
_chemical_formula_sum   'Gd2 Cu6 H42 C48 O42'
_cell_volume   1320.19810475
_cell_formula_units_Z   2
loop_
 _symmetry_equiv_pos_site_id
 _symmetry_equiv_pos_as_xyz
  1  'x, y, z'
loop_
 _atom_site_type_symbol
 _atom_site_label
 _atom_site_symmetry_multiplicity
 _atom_site_fract_x
 _atom_site_fract_y
 _atom_site_fract_z
 _atom_site_occupancy
  Gd  Gd0  1  0.25112000  0.70121000  0.22465000  1.0
  Gd  Gd1  1  0.74889000  0.29879000  0.77535000  1.0
  Cu  Cu2  1  0.32471000  0.09763000  0.13009000  1.0
  Cu  Cu3  1  0.67529000  0.90234000  0.86992000  1.0
  Cu  Cu4  1  0.27134000  0.32514000  0.10173000  1.0
  Cu  Cu5  1  0.72867000  0.67489000  0.89829000  1.0
  Cu  Cu6  1  0.03244000  0.88240000  0.00735000  1.0
  Cu  Cu7  1  0.96754000  0.11759000  0.99263000  1.0
  H  H8  1  0.35790000  0.29562000  0.59712000  1.0
  H  H9  1  0.64209000  0.70438000  0.40287000  1.0
  H  H10  1  0.30399000  0.62655000  0.56222000  1.0
  H  H11  1  0.69597000  0.37343000  0.43777000  1.0
  H  H12  1  0.25631000  0.13038000  0.63829000  1.0
  H  H13  1  0.74370000  0.86962000  0.36172000  1.0
  H  H14  1  0.34219000  0.80389000  0.67438000  1.0
  H  H15  1  0.65782000  0.19614000  0.32563000  1.0
  H  H16  1  0.32879000  0.52038000  0.69218000  1.0
  H  H17  1  0.67119000  0.47961000  0.30780000  1.0
  H  H18  1  0.29788000  0.90724000  0.54339000  1.0
  H  H19  1  0.70212000  0.09277000  0.45663000  1.0
  H  H20  1  0.99877000  0.28418000  0.57228000  1.0
  H  H21  1  0.00124000  0.71583000  0.42770000  1.0
  H  H22  1  0.05614000  0.06484000  0.47376000  1.0
  H  H23  1  0.94387000  0.93516000  0.52624000  1.0
  H  H24  1  0.96743000  0.39771000  0.45042000  1.0
  H  H25  1  0.03257000  0.60228000  0.54956000  1.0
  H  H26  1  0.01572000  0.54157000  0.24339000  1.0
  H  H27  1  0.98428000  0.45842000  0.75660000  1.0
  H  H28  1  0.17760000  0.50023000  0.97874000  1.0
  H  H29  1  0.82243000  0.49977000  0.02127000  1.0
  H  H30  1  0.34872000  0.84284000  0.08232000  1.0
  H  H31  1  0.65126000  0.15717000  0.91768000  1.0
  H  H32  1  0.56504000  0.31969000  0.10877000  1.0
  H  H33  1  0.43498000  0.68032000  0.89124000  1.0
  H  H34  1  0.48824000  0.85777000  0.42797000  1.0
  H  H35  1  0.51175000  0.14223000  0.57204000  1.0
  H  H36  1  0.53562000  0.34248000  0.99626000  1.0
  H  H37  1  0.46440000  0.65753000  0.00375000  1.0
  H  H38  1  0.93390000  0.64416000  0.22696000  1.0
  H  H39  1  0.06610000  0.35586000  0.77304000  1.0
  H  H40  1  0.48920000  0.52002000  0.14535000  1.0
  H  H41  1  0.51080000  0.47999000  0.85467000  1.0
  H  H42  1  0.12586000  0.62007000  0.96574000  1.0
  H  H43  1  0.87418000  0.37993000  0.03426000  1.0
  H  H44  1  0.57102000  0.64923000  0.20514000  1.0
  H  H45  1  0.42898000  0.35078000  0.79488000  1.0
  H  H46  1  0.39924000  0.95035000  0.39557000  1.0
  H  H47  1  0.60075000  0.04965000  0.60444000  1.0
  H  H48  1  0.43944000  0.86663000  0.20185000  1.0
  H  H49  1  0.56055000  0.13340000  0.79816000  1.0
  C  C50  1  0.34780000  0.27561000  0.41944000  1.0
  C  C51  1  0.65221000  0.72440000  0.58058000  1.0
  C  C52  1  0.36657000  0.14253000  0.37571000  1.0
  C  C53  1  0.63343000  0.85748000  0.62428000  1.0
  C  C54  1  0.23752000  0.27897000  0.85748000  1.0
  C  C55  1  0.76249000  0.72102000  0.14252000  1.0
  C  C56  1  0.31245000  0.46442000  0.39992000  1.0
  C  C57  1  0.68755000  0.53557000  0.60009000  1.0
  C  C58  1  0.26789000  0.14816000  0.81543000  1.0
  C  C59  1  0.73212000  0.85185000  0.18457000  1.0
  C  C60  1  0.31562000  0.96125000  0.83530000  1.0
  C  C61  1  0.68439000  0.03875000  0.16469000  1.0
  C  C62  1  0.34763000  0.34448000  0.54308000  1.0
  C  C63  1  0.65237000  0.65551000  0.45692000  1.0
  C  C64  1  0.33773000  0.88460000  0.89913000  1.0
  C  C65  1  0.66226000  0.11541000  0.10087000  1.0
  C  C66  1  0.32592000  0.33530000  0.34505000  1.0
  C  C67  1  0.67409000  0.66471000  0.65497000  1.0
  C  C68  1  0.31630000  0.52845000  0.52431000  1.0
  C  C69  1  0.68368000  0.47154000  0.47569000  1.0
  C  C70  1  0.28750000  0.08740000  0.88887000  1.0
  C  C71  1  0.71250000  0.91259000  0.11111000  1.0
  C  C72  1  0.29087000  0.53840000  0.33466000  1.0
  C  C73  1  0.70913000  0.46158000  0.66535000  1.0
  C  C74  1  0.27310000  0.08145000  0.69210000  1.0
  C  C75  1  0.72690000  0.91855000  0.30790000  1.0
  C  C76  1  0.04207000  0.05255000  0.29863000  1.0
  C  C77  1  0.95793000  0.94744000  0.70136000  1.0
  C  C78  1  0.32016000  0.90008000  0.71169000  1.0
  C  C79  1  0.67985000  0.09993000  0.28830000  1.0
  C  C80  1  0.08297000  0.92406000  0.25236000  1.0
  C  C81  1  0.91702000  0.07593000  0.74762000  1.0
  C  C82  1  0.33151000  0.46970000  0.59645000  1.0
  C  C83  1  0.66847000  0.53028000  0.40355000  1.0
  C  C84  1  0.29731000  0.95780000  0.63928000  1.0
  C  C85  1  0.70268000  0.04220000  0.36073000  1.0
  C  C86  1  0.00563000  0.23777000  0.47702000  1.0
  C  C87  1  0.99437000  0.76223000  0.52297000  1.0
  C  C88  1  0.03580000  0.11553000  0.42201000  1.0
  C  C89  1  0.96421000  0.88447000  0.57798000  1.0
  C  C90  1  0.99079000  0.24330000  0.28491000  1.0
  C  C91  1  0.00920000  0.75669000  0.71508000  1.0
  C  C92  1  0.01538000  0.11619000  0.22814000  1.0
  C  C93  1  0.98461000  0.88379000  0.77185000  1.0
  C  C94  1  0.98612000  0.30054000  0.40865000  1.0
  C  C95  1  0.01387000  0.69946000  0.59134000  1.0
  C  C96  1  0.97468000  0.32545000  0.22516000  1.0
  C  C97  1  0.02531000  0.67454000  0.77481000  1.0
  O  O98  1  0.26315000  0.49077000  0.21841000  1.0
  O  O99  1  0.73686000  0.50924000  0.78159000  1.0
  O  O100  1  0.36157000  0.06653000  0.26351000  1.0
  O  O101  1  0.63842000  0.93346000  0.73650000  1.0
  O  O102  1  0.20925000  0.34871000  0.96450000  1.0
  O  O103  1  0.79077000  0.65130000  0.03550000  1.0
  O  O104  1  0.27929000  0.14885000  0.00629000  1.0
  O  O105  1  0.72070000  0.85114000  0.99369000  1.0
  O  O106  1  0.38814000  0.10046000  0.45118000  1.0
  O  O107  1  0.61186000  0.89952000  0.54880000  1.0
  O  O108  1  0.32624000  0.92987000  0.01373000  1.0
  O  O109  1  0.67373000  0.07012000  0.98627000  1.0
  O  O110  1  0.23564000  0.32307000  0.78333000  1.0
  O  O111  1  0.76436000  0.67694000  0.21670000  1.0
  O  O112  1  0.31718000  0.27210000  0.22609000  1.0
  O  O113  1  0.68286000  0.72791000  0.77392000  1.0
  O  O114  1  0.29616000  0.65455000  0.39069000  1.0
  O  O115  1  0.70382000  0.34544000  0.60930000  1.0
  O  O116  1  0.07850000  0.84889000  0.13949000  1.0
  O  O117  1  0.92151000  0.15111000  0.86050000  1.0
  O  O118  1  0.12748000  0.88307000  0.32540000  1.0
  O  O119  1  0.87251000  0.11693000  0.67460000  1.0
  O  O120  1  0.41647000  0.86072000  0.36684000  1.0
  O  O121  1  0.58352000  0.13928000  0.63317000  1.0
  O  O122  1  0.38054000  0.80266000  0.13380000  1.0
  O  O123  1  0.61946000  0.19735000  0.86621000  1.0
  O  O124  1  0.01800000  0.05725000  0.10927000  1.0
  O  O125  1  0.98198000  0.94272000  0.89071000  1.0
  O  O126  1  0.47559000  0.61027000  0.17955000  1.0
  O  O127  1  0.52441000  0.38974000  0.82047000  1.0
  O  O128  1  0.97677000  0.43895000  0.28980000  1.0
  O  O129  1  0.02321000  0.56104000  0.71017000  1.0
  O  O130  1  0.02934000  0.61483000  0.22796000  1.0
  O  O131  1  0.97066000  0.38517000  0.77203000  1.0
  O  O132  1  0.96082000  0.28300000  0.10874000  1.0
  O  O133  1  0.03917000  0.71699000  0.89125000  1.0
  O  O134  1  0.18309000  0.59112000  0.01656000  1.0
  O  O135  1  0.81695000  0.40887000  0.98344000  1.0
  O  O136  1  0.51022000  0.37053000  0.07731000  1.0
  O  O137  1  0.48980000  0.62948000  0.92270000  1.0
  O  O138  1  0.36481000  0.77487000  0.84168000  1.0
  O  O139  1  0.63520000  0.22515000  0.15833000  1.0
