# generated using pymatgen
data_CuH16C20(N7O3)2
_symmetry_space_group_name_H-M   'P 1'
_cell_length_a   7.30754000
_cell_length_b   8.72813000
_cell_length_c   9.58131000
_cell_angle_alpha   81.72800000
_cell_angle_beta   75.60710000
_cell_angle_gamma   81.98960000
_symmetry_Int_Tables_number   1
_chemical_formula_structural   CuH16C20(N7O3)2
_chemical_formula_sum   'Cu1 H16 C20 N14 O6'
_cell_volume   582.33778456
_cell_formula_units_Z   1
loop_
 _symmetry_equiv_pos_site_id
 _symmetry_equiv_pos_as_xyz
  1  'x, y, z'
loop_
 _atom_site_type_symbol
 _atom_site_label
 _atom_site_symmetry_multiplicity
 _atom_site_fract_x
 _atom_site_fract_y
 _atom_site_fract_z
 _atom_site_occupancy
  Cu  Cu0  1  0.00000000  0.50000000  0.00000000  1.0
  H  H1  1  0.58902000  0.38723000  0.13685000  1.0
  H  H2  1  0.41098000  0.61277000  0.86315000  1.0
  H  H3  1  0.79828000  0.80101000  0.17800000  1.0
  H  H4  1  0.20170000  0.19900000  0.82200000  1.0
  H  H5  1  0.42634000  0.65832000  0.56232000  1.0
  H  H6  1  0.57366000  0.34167000  0.43768000  1.0
  H  H7  1  0.22908000  0.85294000  0.72392000  1.0
  H  H8  1  0.77092000  0.14706000  0.27608000  1.0
  H  H9  1  0.10929000  0.11115000  0.61413000  1.0
  H  H10  1  0.89070000  0.88884000  0.38587000  1.0
  H  H11  1  0.40327000  0.98940000  0.18726000  1.0
  H  H12  1  0.59673000  0.01060000  0.81275000  1.0
  H  H13  1  0.19105000  0.16709000  0.11505000  1.0
  H  H14  1  0.80895000  0.83291000  0.88495000  1.0
  H  H15  1  0.99882000  0.56219000  0.34190000  1.0
  H  H16  1  0.00117000  0.43781000  0.65810000  1.0
  C  C17  1  0.59480000  0.49939000  0.17102000  1.0
  C  C18  1  0.40520000  0.50061000  0.82898000  1.0
  C  C19  1  0.70635000  0.70928000  0.18917000  1.0
  C  C20  1  0.29364000  0.29072000  0.81083000  1.0
  C  C21  1  0.42063000  0.81508000  0.36787000  1.0
  C  C22  1  0.57936000  0.18492000  0.63213000  1.0
  C  C23  1  0.37440000  0.77316000  0.51747000  1.0
  C  C24  1  0.62559000  0.22683000  0.48253000  1.0
  C  C25  1  0.26537000  0.88181000  0.60640000  1.0
  C  C26  1  0.73463000  0.11819000  0.39360000  1.0
  C  C27  1  0.20075000  0.02826000  0.54583000  1.0
  C  C28  1  0.79925000  0.97174000  0.45418000  1.0
  C  C29  1  0.25035000  0.06615000  0.39580000  1.0
  C  C30  1  0.74964000  0.93385000  0.60420000  1.0
  C  C31  1  0.36279000  0.96110000  0.30450000  1.0
  C  C32  1  0.63720000  0.03890000  0.69550000  1.0
  C  C33  1  0.15829000  0.24901000  0.19529000  1.0
  C  C34  1  0.84171000  0.75098000  0.80472000  1.0
  C  C35  1  0.05686000  0.44594000  0.31490000  1.0
  C  C36  1  0.94314000  0.55406000  0.68510000  1.0
  N  N37  1  0.75078000  0.57973000  0.12253000  1.0
  N  N38  1  0.24922000  0.42027000  0.87747000  1.0
  N  N39  1  0.53034000  0.70421000  0.27512000  1.0
  N  N40  1  0.46966000  0.29579000  0.72488000  1.0
  N  N41  1  0.45712000  0.57132000  0.26491000  1.0
  N  N42  1  0.54288000  0.42867000  0.73509000  1.0
  N  N43  1  0.18007000  0.21241000  0.33226000  1.0
  N  N44  1  0.81993000  0.78759000  0.66774000  1.0
  N  N45  1  0.11468000  0.33654000  0.41016000  1.0
  N  N46  1  0.88531000  0.66346000  0.58984000  1.0
  N  N47  1  0.08105000  0.39681000  0.18127000  1.0
  N  N48  1  0.91896000  0.60319000  0.81874000  1.0
  N  N49  1  0.83022000  0.13666000  0.96093000  1.0
  N  N50  1  0.16979000  0.86334000  0.03906000  1.0
  O  O51  1  0.85741000  0.25019000  0.02081000  1.0
  O  O52  1  0.14261000  0.74981000  0.97918000  1.0
  O  O53  1  0.95066000  0.09343000  0.84991000  1.0
  O  O54  1  0.04934000  0.90658000  0.15009000  1.0
  O  O55  1  0.68330000  0.06729000  0.01349000  1.0
  O  O56  1  0.31670000  0.93273000  0.98651000  1.0
