# generated using pymatgen
data_Ni2H16(C2O)11
_symmetry_space_group_name_H-M   'P 1'
_cell_length_a   10.37250000
_cell_length_b   11.29610000
_cell_length_c   12.12760000
_cell_angle_alpha   90.67180000
_cell_angle_beta   110.61700000
_cell_angle_gamma   109.96900000
_symmetry_Int_Tables_number   1
_chemical_formula_structural   Ni2H16(C2O)11
_chemical_formula_sum   'Ni4 H32 C44 O22'
_cell_volume   1235.86089449
_cell_formula_units_Z   2
loop_
 _symmetry_equiv_pos_site_id
 _symmetry_equiv_pos_as_xyz
  1  'x, y, z'
loop_
 _atom_site_type_symbol
 _atom_site_label
 _atom_site_symmetry_multiplicity
 _atom_site_fract_x
 _atom_site_fract_y
 _atom_site_fract_z
 _atom_site_occupancy
  Ni  Ni0  1  0.79606000  0.52092000  0.70059000  1.0
  Ni  Ni1  1  0.20394000  0.47908000  0.29942000  1.0
  Ni  Ni2  1  0.50000000  0.50000000  0.50000000  1.0
  Ni  Ni3  1  0.00000000  0.50000000  0.00000000  1.0
  H  H4  1  0.67802000  0.39321000  0.48891000  1.0
  H  H5  1  0.80517000  0.54453000  0.50623000  1.0
  H  H6  1  0.91432000  0.67388000  0.89540000  1.0
  H  H7  1  0.75709000  0.55213000  0.88579000  1.0
  H  H8  1  0.97290000  0.93908000  0.68493000  1.0
  H  H9  1  0.60650000  0.10355000  0.72854000  1.0
  H  H10  1  0.25674000  0.57773000  0.96937000  1.0
  H  H11  1  0.13051000  0.59325000  0.85265000  1.0
  H  H12  1  0.55356000  0.73363000  0.80077000  1.0
  H  H13  1  0.39215000  0.95256000  0.53386000  1.0
  H  H14  1  0.14028000  0.29947000  0.90768000  1.0
  H  H15  1  0.07426000  0.10660000  0.57283000  1.0
  H  H16  1  0.29519000  0.60118000  0.77187000  1.0
  H  H17  1  0.13300000  0.81476000  0.50151000  1.0
  H  H18  1  0.39190000  0.43882000  0.92718000  1.0
  H  H19  1  0.32523000  0.25000000  0.59042000  1.0
  H  H20  1  0.32198000  0.60679000  0.51110000  1.0
  H  H21  1  0.19483000  0.45547000  0.49377000  1.0
  H  H22  1  0.08568000  0.32611000  0.10460000  1.0
  H  H23  1  0.24291000  0.44786000  0.11422000  1.0
  H  H24  1  0.02710000  0.06092000  0.31507000  1.0
  H  H25  1  0.39350000  0.89645000  0.27146000  1.0
  H  H26  1  0.74326000  0.42227000  0.03063000  1.0
  H  H27  1  0.86949000  0.40674000  0.14734000  1.0
  H  H28  1  0.44644000  0.26638000  0.19923000  1.0
  H  H29  1  0.60784000  0.04744000  0.46613000  1.0
  H  H30  1  0.85973000  0.70053000  0.09232000  1.0
  H  H31  1  0.92574000  0.89340000  0.42716000  1.0
  H  H32  1  0.70481000  0.39882000  0.22814000  1.0
  H  H33  1  0.86700000  0.18525000  0.49849000  1.0
  H  H34  1  0.60810000  0.56117000  0.07283000  1.0
  H  H35  1  0.67478000  0.74999000  0.40958000  1.0
  C  C36  1  0.71582000  0.75141000  0.64339000  1.0
  C  C37  1  0.75059000  0.89046000  0.67607000  1.0
  C  C38  1  0.89285000  0.97670000  0.69434000  1.0
  C  C39  1  0.64410000  0.93576000  0.68712000  1.0
  C  C40  1  0.93650000  0.10852000  0.72596000  1.0
  C  C41  1  0.68708000  0.06683000  0.71874000  1.0
  C  C42  1  0.49079000  0.85287000  0.66966000  1.0
  C  C43  1  0.08773000  0.19369000  0.73847000  1.0
  C  C44  1  0.83029000  0.15266000  0.74032000  1.0
  C  C45  1  0.46170000  0.75310000  0.73628000  1.0
  C  C46  1  0.37121000  0.87623000  0.58689000  1.0
  C  C47  1  0.18028000  0.28860000  0.83804000  1.0
  C  C48  1  0.14347000  0.17981000  0.65075000  1.0
  C  C49  1  0.85587000  0.28925000  0.77715000  1.0
  C  C50  1  0.31668000  0.67946000  0.72109000  1.0
  C  C51  1  0.22605000  0.79992000  0.56873000  1.0
  C  C52  1  0.32111000  0.36768000  0.84818000  1.0
  C  C53  1  0.28370000  0.26045000  0.65943000  1.0
  C  C54  1  0.19758000  0.70200000  0.63673000  1.0
  C  C55  1  0.37364000  0.35595000  0.75818000  1.0
  C  C56  1  0.04103000  0.62607000  0.61889000  1.0
  C  C57  1  0.52618000  0.44023000  0.77340000  1.0
  C  C58  1  0.28419000  0.24859000  0.35662000  1.0
  C  C59  1  0.24942000  0.10954000  0.32393000  1.0
  C  C60  1  0.10715000  0.02330000  0.30565000  1.0
  C  C61  1  0.35590000  0.06424000  0.31288000  1.0
  C  C62  1  0.06350000  0.89148000  0.27403000  1.0
  C  C63  1  0.31292000  0.93317000  0.28126000  1.0
  C  C64  1  0.50920000  0.14713000  0.33034000  1.0
  C  C65  1  0.91227000  0.80631000  0.26153000  1.0
  C  C66  1  0.16970000  0.84734000  0.25967000  1.0
  C  C67  1  0.53830000  0.24690000  0.26372000  1.0
  C  C68  1  0.62879000  0.12378000  0.41311000  1.0
  C  C69  1  0.81972000  0.71140000  0.16196000  1.0
  C  C70  1  0.85653000  0.82019000  0.34925000  1.0
  C  C71  1  0.14413000  0.71076000  0.22284000  1.0
  C  C72  1  0.68332000  0.32054000  0.27891000  1.0
  C  C73  1  0.77395000  0.20009000  0.43127000  1.0
  C  C74  1  0.67889000  0.63231000  0.15182000  1.0
  C  C75  1  0.71631000  0.73955000  0.34057000  1.0
  C  C76  1  0.80242000  0.29800000  0.36328000  1.0
  C  C77  1  0.62637000  0.64405000  0.24183000  1.0
  C  C78  1  0.95897000  0.37393000  0.38111000  1.0
  C  C79  1  0.47383000  0.55976000  0.22660000  1.0
  O  O80  1  0.59052000  0.68762000  0.56180000  1.0
  O  O81  1  0.69780000  0.48267000  0.51268000  1.0
  O  O82  1  0.56580000  0.45618000  0.68391000  1.0
  O  O83  1  0.81669000  0.70981000  0.69931000  1.0
  O  O84  1  0.86823000  0.58111000  0.88400000  1.0
  O  O85  1  0.78345000  0.33946000  0.69749000  1.0
  O  O86  1  0.01489000  0.57882000  0.70799000  1.0
  O  O87  1  0.17174000  0.60419000  0.94175000  1.0
  O  O88  1  0.93805000  0.33657000  0.88487000  1.0
  O  O89  1  0.94158000  0.61546000  0.51670000  1.0
  O  O90  1  0.61643000  0.49321000  0.88004000  1.0
  O  O91  1  0.40948000  0.31239000  0.43821000  1.0
  O  O92  1  0.30220000  0.51733000  0.48731000  1.0
  O  O93  1  0.43420000  0.54381000  0.31610000  1.0
  O  O94  1  0.18331000  0.29019000  0.30069000  1.0
  O  O95  1  0.13177000  0.41889000  0.11600000  1.0
  O  O96  1  0.21655000  0.66054000  0.30251000  1.0
  O  O97  1  0.98511000  0.42118000  0.29201000  1.0
  O  O98  1  0.82826000  0.39581000  0.05825000  1.0
  O  O99  1  0.06195000  0.66344000  0.11512000  1.0
  O  O100  1  0.05842000  0.38454000  0.48330000  1.0
  O  O101  1  0.38358000  0.50678000  0.11997000  1.0
