# generated using pymatgen
data_ZnSiH12C20(N4F5)2
_symmetry_space_group_name_H-M   'P 1'
_cell_length_a   7.73900000
_cell_length_b   13.48090000
_cell_length_c   13.48530000
_cell_angle_alpha   88.84390000
_cell_angle_beta   75.29670000
_cell_angle_gamma   75.28930000
_symmetry_Int_Tables_number   1
_chemical_formula_structural   ZnSiH12C20(N4F5)2
_chemical_formula_sum   'Zn1 Si1 H12 C20 N8 F10'
_cell_volume   1314.74943615
_cell_formula_units_Z   1
loop_
 _symmetry_equiv_pos_site_id
 _symmetry_equiv_pos_as_xyz
  1  'x, y, z'
loop_
 _atom_site_type_symbol
 _atom_site_label
 _atom_site_symmetry_multiplicity
 _atom_site_fract_x
 _atom_site_fract_y
 _atom_site_fract_z
 _atom_site_occupancy
  Zn  Zn0  1  0.50000000  0.49998000  0.49998000  1.0
  Si  Si1  1  0.00000000  0.50005000  0.49990000  1.0
  H  H2  1  0.26615000  0.56895000  0.35491000  1.0
  H  H3  1  0.26122000  0.56781000  0.17213000  1.0
  H  H4  1  0.85232000  0.43257000  0.09566000  1.0
  H  H5  1  0.14769000  0.56719000  0.90433000  1.0
  H  H6  1  0.73900000  0.43262000  0.82777000  1.0
  H  H7  1  0.73399000  0.43137000  0.64501000  1.0
  H  H8  1  0.26604000  0.35505000  0.56902000  1.0
  H  H9  1  0.26115000  0.17218000  0.56796000  1.0
  H  H10  1  0.85209000  0.09572000  0.43219000  1.0
  H  H11  1  0.14791000  0.90413000  0.56827000  1.0
  H  H12  1  0.73862000  0.82785000  0.43188000  1.0
  H  H13  1  0.73384000  0.64496000  0.43070000  1.0
  C  C14  1  0.39353000  0.53928000  0.29579000  1.0
  C  C15  1  0.39039000  0.53862000  0.19366000  1.0
  C  C16  1  0.55670000  0.49841000  0.11935000  1.0
  C  C17  1  0.71948000  0.46278000  0.15056000  1.0
  C  C18  1  0.70554000  0.46581000  0.25552000  1.0
  C  C19  1  0.28055000  0.53711000  0.84940000  1.0
  C  C20  1  0.44340000  0.50172000  0.88059000  1.0
  C  C21  1  0.60977000  0.46166000  0.80627000  1.0
  C  C22  1  0.60658000  0.46093000  0.70414000  1.0
  C  C23  1  0.29442000  0.53398000  0.74445000  1.0
  C  C24  1  0.39343000  0.29591000  0.53926000  1.0
  C  C25  1  0.39030000  0.19373000  0.53864000  1.0
  C  C26  1  0.55658000  0.11939000  0.49828000  1.0
  C  C27  1  0.71928000  0.15064000  0.46251000  1.0
  C  C28  1  0.70533000  0.25564000  0.46548000  1.0
  C  C29  1  0.28069000  0.84926000  0.53777000  1.0
  C  C30  1  0.44331000  0.88056000  0.50187000  1.0
  C  C31  1  0.60956000  0.80625000  0.46132000  1.0
  C  C32  1  0.60647000  0.70406000  0.46064000  1.0
  C  C33  1  0.29470000  0.74426000  0.53476000  1.0
  N  N34  1  0.54929000  0.50152000  0.32801000  1.0
  N  N35  1  0.57601000  0.49172000  0.01201000  1.0
  N  N36  1  0.42411000  0.50840000  0.98793000  1.0
  N  N37  1  0.45072000  0.49844000  0.67195000  1.0
  N  N38  1  0.54912000  0.32816000  0.50132000  1.0
  N  N39  1  0.57590000  0.01200000  0.49166000  1.0
  N  N40  1  0.42395000  0.98795000  0.50854000  1.0
  N  N41  1  0.45087000  0.67177000  0.49872000  1.0
  F  F42  1  0.22077000  0.51180000  0.51158000  1.0
  F  F43  1  0.77923000  0.48827000  0.48825000  1.0
  F  F44  1  0.99997000  0.59062000  0.40925000  1.0
  F  F45  1  0.00004000  0.40948000  0.59056000  1.0
  F  F46  1  0.11204000  0.40787000  0.40786000  1.0
  F  F47  1  0.88798000  0.59223000  0.59194000  1.0
  F  F48  1  0.86034000  0.43034000  0.28605000  1.0
  F  F49  1  0.13949000  0.56914000  0.71396000  1.0
  F  F50  1  0.86004000  0.28620000  0.42977000  1.0
  F  F51  1  0.14011000  0.71364000  0.57066000  1.0
