# generated using pymatgen
data_H12PbC19S2N4O7
_symmetry_space_group_name_H-M   'P 1'
_cell_length_a   7.34222000
_cell_length_b   9.60120000
_cell_length_c   15.20260000
_cell_angle_alpha   73.46620000
_cell_angle_beta   77.30780000
_cell_angle_gamma   77.54590000
_symmetry_Int_Tables_number   1
_chemical_formula_structural   H12PbC19S2N4O7
_chemical_formula_sum   'H24 Pb2 C38 S4 N8 O14'
_cell_volume   988.75025740
_cell_formula_units_Z   2
loop_
 _symmetry_equiv_pos_site_id
 _symmetry_equiv_pos_as_xyz
  1  'x, y, z'
loop_
 _atom_site_type_symbol
 _atom_site_label
 _atom_site_symmetry_multiplicity
 _atom_site_fract_x
 _atom_site_fract_y
 _atom_site_fract_z
 _atom_site_occupancy
  H  H0  1  0.83198000  0.20933000  0.12065000  1.0
  H  H1  1  0.16803000  0.79067000  0.87934000  1.0
  H  H2  1  0.63497000  0.32824000  0.59129000  1.0
  H  H3  1  0.36503000  0.67176000  0.40871000  1.0
  H  H4  1  0.63831000  0.06020000  0.66928000  1.0
  H  H5  1  0.36168000  0.93980000  0.33072000  1.0
  H  H6  1  0.67617000  0.97326000  0.83937000  1.0
  H  H7  1  0.32384000  0.02674000  0.16062000  1.0
  H  H8  1  0.78246000  0.49000000  0.04895000  1.0
  H  H9  1  0.21754000  0.51000000  0.95105000  1.0
  H  H10  1  0.74960000  0.75349000  0.95307000  1.0
  H  H11  1  0.25040000  0.24651000  0.04694000  1.0
  H  H12  1  0.68349000  0.80636000  0.79113000  1.0
  H  H13  1  0.31649000  0.19364000  0.20887000  1.0
  H  H14  1  0.79430000  0.76734000  0.07694000  1.0
  H  H15  1  0.20572000  0.23266000  0.92305000  1.0
  H  H16  1  0.81126000  0.53509000  0.20389000  1.0
  H  H17  1  0.18874000  0.46492000  0.79611000  1.0
  H  H18  1  0.85028000  0.78464000  0.39146000  1.0
  H  H19  1  0.14972000  0.21537000  0.60854000  1.0
  H  H20  1  0.90779000  0.91495000  0.58915000  1.0
  H  H21  1  0.09220000  0.08505000  0.41085000  1.0
  H  H22  1  0.80911000  0.96362000  0.50090000  1.0
  H  H23  1  0.19088000  0.03639000  0.49910000  1.0
  Pb  Pb24  1  0.64437000  0.66252000  0.62163000  1.0
  Pb  Pb25  1  0.35564000  0.33748000  0.37837000  1.0
  C  C26  1  0.64912000  0.28554000  0.66444000  1.0
  C  C27  1  0.35087000  0.71446000  0.33556000  1.0
  C  C28  1  0.65080000  0.13549000  0.70867000  1.0
  C  C29  1  0.34920000  0.86450000  0.29133000  1.0
  C  C30  1  0.67232000  0.08777000  0.80106000  1.0
  C  C31  1  0.32768000  0.91223000  0.19894000  1.0
  C  C32  1  0.69212000  0.18878000  0.84803000  1.0
  C  C33  1  0.30788000  0.81121000  0.15197000  1.0
  C  C34  1  0.72365000  0.14843000  0.94218000  1.0
  C  C35  1  0.27636000  0.85157000  0.05781000  1.0
  C  C36  1  0.75024000  0.25375000  0.98406000  1.0
  C  C37  1  0.24977000  0.74625000  0.01594000  1.0
  C  C38  1  0.73768000  0.40649000  0.93829000  1.0
  C  C39  1  0.26233000  0.59351000  0.06170000  1.0
  C  C40  1  0.75556000  0.51854000  0.97766000  1.0
  C  C41  1  0.24444000  0.48146000  0.02235000  1.0
  C  C42  1  0.73720000  0.66325000  0.92561000  1.0
  C  C43  1  0.26278000  0.33675000  0.07439000  1.0
  C  C44  1  0.70013000  0.69452000  0.83466000  1.0
  C  C45  1  0.29985000  0.30548000  0.16535000  1.0
  C  C46  1  0.70231000  0.44835000  0.84467000  1.0
  C  C47  1  0.29769000  0.55165000  0.15533000  1.0
  C  C48  1  0.68567000  0.33894000  0.79866000  1.0
  C  C49  1  0.31433000  0.66106000  0.20134000  1.0
  C  C50  1  0.77903000  0.03091000  0.07983000  1.0
  C  C51  1  0.22098000  0.96909000  0.92017000  1.0
  C  C52  1  0.80622000  0.90762000  0.16141000  1.0
  C  C53  1  0.19378000  0.09238000  0.83859000  1.0
  C  C54  1  0.80652000  0.76869000  0.14660000  1.0
  C  C55  1  0.19348000  0.23131000  0.85340000  1.0
  C  C56  1  0.81597000  0.64032000  0.21670000  1.0
  C  C57  1  0.18404000  0.35968000  0.78330000  1.0
  C  C58  1  0.82768000  0.64735000  0.30584000  1.0
  C  C59  1  0.17231000  0.35266000  0.69417000  1.0
  C  C60  1  0.83660000  0.78082000  0.32242000  1.0
  C  C61  1  0.16340000  0.21918000  0.67758000  1.0
  C  C62  1  0.82526000  0.91127000  0.25158000  1.0
  C  C63  1  0.17474000  0.08873000  0.74843000  1.0
  S  S64  1  0.81254000  0.07762000  0.28789000  1.0
  S  S65  1  0.18745000  0.92238000  0.71211000  1.0
  S  S66  1  0.82475000  0.48315000  0.39712000  1.0
  S  S67  1  0.17525000  0.51686000  0.60289000  1.0
  N  N68  1  0.66513000  0.38367000  0.70794000  1.0
  N  N69  1  0.33486000  0.61632000  0.29207000  1.0
  N  N70  1  0.68307000  0.59108000  0.79608000  1.0
  N  N71  1  0.31693000  0.40892000  0.20391000  1.0
  N  N72  1  0.78481000  0.17642000  0.07130000  1.0
  N  N73  1  0.21519000  0.82358000  0.92869000  1.0
  N  N74  1  0.74096000  0.01166000  0.00191000  1.0
  N  N75  1  0.25906000  0.98834000  0.99809000  1.0
  O  O76  1  0.61076000  0.14188000  0.29361000  1.0
  O  O77  1  0.38923000  0.85813000  0.70639000  1.0
  O  O78  1  0.87946000  0.03026000  0.37773000  1.0
  O  O79  1  0.12053000  0.96974000  0.62227000  1.0
  O  O80  1  0.93537000  0.17115000  0.21611000  1.0
  O  O81  1  0.06463000  0.82886000  0.78388000  1.0
  O  O82  1  0.00876000  0.39013000  0.37784000  1.0
  O  O83  1  0.99124000  0.60989000  0.62216000  1.0
  O  O84  1  0.67161000  0.41500000  0.38817000  1.0
  O  O85  1  0.32839000  0.58500000  0.61184000  1.0
  O  O86  1  0.79322000  0.52856000  0.48392000  1.0
  O  O87  1  0.20679000  0.47143000  0.51609000  1.0
  O  O88  1  0.78751000  0.92089000  0.56877000  1.0
  O  O89  1  0.21249000  0.07911000  0.43123000  1.0
