# generated using pymatgen
data_NaH8(C2O)4
_symmetry_space_group_name_H-M   'P 1'
_cell_length_a   5.86155000
_cell_length_b   8.02323000
_cell_length_c   16.30930000
_cell_angle_alpha   89.99920000
_cell_angle_beta   97.31820000
_cell_angle_gamma   90.00000000
_symmetry_Int_Tables_number   1
_chemical_formula_structural   NaH8(C2O)4
_chemical_formula_sum   'Na4 H32 C32 O16'
_cell_volume   760.75497292
_cell_formula_units_Z   4
loop_
 _symmetry_equiv_pos_site_id
 _symmetry_equiv_pos_as_xyz
  1  'x, y, z'
loop_
 _atom_site_type_symbol
 _atom_site_label
 _atom_site_symmetry_multiplicity
 _atom_site_fract_x
 _atom_site_fract_y
 _atom_site_fract_z
 _atom_site_occupancy
  Na  Na0  1  0.60379000  0.08944000  0.59139000  1.0
  Na  Na1  1  0.89622000  0.58944000  0.40860000  1.0
  Na  Na2  1  0.39621000  0.91056000  0.40861000  1.0
  Na  Na3  1  0.10379000  0.41056000  0.59139000  1.0
  H  H4  1  0.64070000  0.56543000  0.77351000  1.0
  H  H5  1  0.85931000  0.06546000  0.22650000  1.0
  H  H6  1  0.35932000  0.43456000  0.22649000  1.0
  H  H7  1  0.14068000  0.93454000  0.77351000  1.0
  H  H8  1  0.46784000  0.70704000  0.70647000  1.0
  H  H9  1  0.03216000  0.20706000  0.29353000  1.0
  H  H10  1  0.53218000  0.29295000  0.29353000  1.0
  H  H11  1  0.96782000  0.79294000  0.70647000  1.0
  H  H12  1  0.48118000  0.67037000  0.86586000  1.0
  H  H13  1  0.01883000  0.17042000  0.13414000  1.0
  H  H14  1  0.51881000  0.32962000  0.13414000  1.0
  H  H15  1  0.98119000  0.82963000  0.86587000  1.0
  H  H16  1  0.33037000  0.66912000  0.99658000  1.0
  H  H17  1  0.16963000  0.16915000  0.00342000  1.0
  H  H18  1  0.66961000  0.33088000  0.00341000  1.0
  H  H19  1  0.83039000  0.83089000  0.99660000  1.0
  H  H20  1  0.79385000  0.32797000  0.89790000  1.0
  H  H21  1  0.70613000  0.82799000  0.10211000  1.0
  H  H22  1  0.20618000  0.67199000  0.10210000  1.0
  H  H23  1  0.29382000  0.17199000  0.89789000  1.0
  H  H24  1  0.95381000  0.32277000  0.76661000  1.0
  H  H25  1  0.54619000  0.82279000  0.23340000  1.0
  H  H26  1  0.04622000  0.67721000  0.23339000  1.0
  H  H27  1  0.45377000  0.17719000  0.76660000  1.0
  H  H28  1  0.74680000  0.75201000  0.55847000  1.0
  H  H29  1  0.75320000  0.25201000  0.44153000  1.0
  H  H30  1  0.25320000  0.24800000  0.44153000  1.0
  H  H31  1  0.24680000  0.74800000  0.55847000  1.0
  H  H32  1  0.82449000  0.86051000  0.48439000  1.0
  H  H33  1  0.67551000  0.36051000  0.51561000  1.0
  H  H34  1  0.17551000  0.13950000  0.51561000  1.0
  H  H35  1  0.32449000  0.63950000  0.48439000  1.0
  C  C36  1  0.61882000  0.50333000  0.64625000  1.0
  C  C37  1  0.88117000  0.00335000  0.35375000  1.0
  C  C38  1  0.38117000  0.49665000  0.35374000  1.0
  C  C39  1  0.11880000  0.99667000  0.64625000  1.0
  C  C40  1  0.51080000  0.57485000  0.71873000  1.0
  C  C41  1  0.98921000  0.07487000  0.28128000  1.0
  C  C42  1  0.48922000  0.42514000  0.28127000  1.0
  C  C43  1  0.01078000  0.92513000  0.71873000  1.0
  C  C44  1  0.22816000  0.49587000  0.80631000  1.0
  C  C45  1  0.27185000  0.99591000  0.19370000  1.0
  C  C46  1  0.77186000  0.50412000  0.19369000  1.0
  C  C47  1  0.72815000  0.00411000  0.80631000  1.0
  C  C48  1  0.33160000  0.59331000  0.87189000  1.0
  C  C49  1  0.16842000  0.09333000  0.12811000  1.0
  C  C50  1  0.66840000  0.40669000  0.12810000  1.0
  C  C51  1  0.83160000  0.90670000  0.87190000  1.0
  C  C52  1  0.24259000  0.59253000  0.94727000  1.0
  C  C53  1  0.25740000  0.09256000  0.05273000  1.0
  C  C54  1  0.75740000  0.40746000  0.05273000  1.0
  C  C55  1  0.74259000  0.90747000  0.94727000  1.0
  C  C56  1  0.04716000  0.49932000  0.95998000  1.0
  C  C57  1  0.45283000  0.99934000  0.04003000  1.0
  C  C58  1  0.95285000  0.50067000  0.04002000  1.0
  C  C59  1  0.54715000  0.00067000  0.95998000  1.0
  C  C60  1  0.94506000  0.40397000  0.89233000  1.0
  C  C61  1  0.55493000  0.90398000  0.10767000  1.0
  C  C62  1  0.05495000  0.59601000  0.10767000  1.0
  C  C63  1  0.44504000  0.09601000  0.89233000  1.0
  C  C64  1  0.03331000  0.40084000  0.81713000  1.0
  C  C65  1  0.46669000  0.90086000  0.18287000  1.0
  C  C66  1  0.96671000  0.59914000  0.18286000  1.0
  C  C67  1  0.53329000  0.09914000  0.81713000  1.0
  O  O68  1  0.79423000  0.58139000  0.62814000  1.0
  O  O69  1  0.70578000  0.08138000  0.37187000  1.0
  O  O70  1  0.20580000  0.41862000  0.37186000  1.0
  O  O71  1  0.29422000  0.91861000  0.62814000  1.0
  O  O72  1  0.53383000  0.37306000  0.61021000  1.0
  O  O73  1  0.96619000  0.87305000  0.38979000  1.0
  O  O74  1  0.46620000  0.62697000  0.38979000  1.0
  O  O75  1  0.03381000  0.12694000  0.61021000  1.0
  O  O76  1  0.70795000  0.85104000  0.52320000  1.0
  O  O77  1  0.79205000  0.35104000  0.47680000  1.0
  O  O78  1  0.29204000  0.14897000  0.47680000  1.0
  O  O79  1  0.20796000  0.64897000  0.52320000  1.0
  O  O80  1  0.30682000  0.48334000  0.73085000  1.0
  O  O81  1  0.19319000  0.98337000  0.26915000  1.0
  O  O82  1  0.69320000  0.51665000  0.26915000  1.0
  O  O83  1  0.80680000  0.01664000  0.73085000  1.0
