# generated using pymatgen
data_ZnH19C22(NO2)3
_symmetry_space_group_name_H-M   'P 1'
_cell_length_a   9.60507000
_cell_length_b   14.12510000
_cell_length_c   14.47500000
_cell_angle_alpha   99.66890000
_cell_angle_beta   103.35500000
_cell_angle_gamma   107.15400000
_symmetry_Int_Tables_number   1
_chemical_formula_structural   ZnH19C22(NO2)3
_chemical_formula_sum   'Zn2 H38 C44 N6 O12'
_cell_volume   1765.90629139
_cell_formula_units_Z   2
loop_
 _symmetry_equiv_pos_site_id
 _symmetry_equiv_pos_as_xyz
  1  'x, y, z'
loop_
 _atom_site_type_symbol
 _atom_site_label
 _atom_site_symmetry_multiplicity
 _atom_site_fract_x
 _atom_site_fract_y
 _atom_site_fract_z
 _atom_site_occupancy
  Zn  Zn0  1  0.37348000  0.54078000  0.67400000  1.0
  Zn  Zn1  1  0.62652000  0.45921000  0.32601000  1.0
  H  H2  1  0.41943000  0.84607000  0.59299000  1.0
  H  H3  1  0.58056000  0.15393000  0.40701000  1.0
  H  H4  1  0.54990000  0.02978000  0.59934000  1.0
  H  H5  1  0.45009000  0.97021000  0.40066000  1.0
  H  H6  1  0.94877000  0.03498000  0.81296000  1.0
  H  H7  1  0.05122000  0.96502000  0.18704000  1.0
  H  H8  1  0.81183000  0.85211000  0.81104000  1.0
  H  H9  1  0.18815000  0.14789000  0.18896000  1.0
  H  H10  1  0.54776000  0.31617000  0.81100000  1.0
  H  H11  1  0.45224000  0.68382000  0.18900000  1.0
  H  H12  1  0.68327000  0.18848000  0.82563000  1.0
  H  H13  1  0.31673000  0.81151000  0.17436000  1.0
  H  H14  1  0.81776000  0.23766000  0.56936000  1.0
  H  H15  1  0.18225000  0.76235000  0.43064000  1.0
  H  H16  1  0.67642000  0.36084000  0.55206000  1.0
  H  H17  1  0.32360000  0.63917000  0.44794000  1.0
  H  H18  1  0.41217000  0.68575000  0.86366000  1.0
  H  H19  1  0.58783000  0.31425000  0.13634000  1.0
  H  H20  1  0.28659000  0.68559000  0.00028000  1.0
  H  H21  1  0.71341000  0.31441000  0.99972000  1.0
  H  H22  1  0.93825000  0.40127000  0.82082000  1.0
  H  H23  1  0.06175000  0.59873000  0.17919000  1.0
  H  H24  1  0.07301000  0.41604000  0.69054000  1.0
  H  H25  1  0.92699000  0.58396000  0.30946000  1.0
  H  H26  1  0.31403000  0.45625000  0.45920000  1.0
  H  H27  1  0.68598000  0.54375000  0.54080000  1.0
  H  H28  1  0.89710000  0.39321000  0.43395000  1.0
  H  H29  1  0.10290000  0.60680000  0.56605000  1.0
  H  H30  1  0.85135000  0.28800000  0.33191000  1.0
  H  H31  1  0.14866000  0.71201000  0.66809000  1.0
  H  H32  1  0.93250000  0.28016000  0.45337000  1.0
  H  H33  1  0.06751000  0.71985000  0.54663000  1.0
  H  H34  1  0.00264000  0.30447000  0.24174000  1.0
  H  H35  1  0.99736000  0.69554000  0.75826000  1.0
  H  H36  1  0.14904000  0.42702000  0.27574000  1.0
  H  H37  1  0.85097000  0.57299000  0.72426000  1.0
  H  H38  1  0.19684000  0.31820000  0.29492000  1.0
  H  H39  1  0.80316000  0.68181000  0.70508000  1.0
  C  C40  1  0.53004000  0.72910000  0.70003000  1.0
  C  C41  1  0.46994000  0.27090000  0.29997000  1.0
  C  C42  1  0.60787000  0.83788000  0.70161000  1.0
  C  C43  1  0.39212000  0.16211000  0.29838000  1.0
  C  C44  1  0.53453000  0.88818000  0.64195000  1.0
  C  C45  1  0.46546000  0.11182000  0.35805000  1.0
  C  C46  1  0.60736000  0.99009000  0.64468000  1.0
  C  C47  1  0.39263000  0.00991000  0.35531000  1.0
  C  C48  1  0.75704000  0.04152000  0.70613000  1.0
  C  C49  1  0.24295000  0.95847000  0.29386000  1.0
  C  C50  1  0.83257000  0.99256000  0.76561000  1.0
  C  C51  1  0.16742000  0.00744000  0.23439000  1.0
  C  C52  1  0.75689000  0.89141000  0.76380000  1.0
  C  C53  1  0.24309000  0.10858000  0.23619000  1.0
  C  C54  1  0.52328000  0.42095000  0.67350000  1.0
  C  C55  1  0.47672000  0.57904000  0.32650000  1.0
  C  C56  1  0.60628000  0.34709000  0.68198000  1.0
  C  C57  1  0.39373000  0.65291000  0.31802000  1.0
  C  C58  1  0.60709000  0.29785000  0.75857000  1.0
  C  C59  1  0.39291000  0.70215000  0.24143000  1.0
  C  C60  1  0.68189000  0.22768000  0.76682000  1.0
  C  C61  1  0.31812000  0.77231000  0.23317000  1.0
  C  C62  1  0.75747000  0.20731000  0.69815000  1.0
  C  C63  1  0.24253000  0.79269000  0.30184000  1.0
  C  C64  1  0.75870000  0.25599000  0.62195000  1.0
  C  C65  1  0.24131000  0.74402000  0.37805000  1.0
  C  C66  1  0.68212000  0.32554000  0.61362000  1.0
  C  C67  1  0.31789000  0.67446000  0.38638000  1.0
  C  C68  1  0.30605000  0.62562000  0.85757000  1.0
  C  C69  1  0.69395000  0.37438000  0.14243000  1.0
  C  C70  1  0.23799000  0.62476000  0.93256000  1.0
  C  C71  1  0.76201000  0.37524000  0.06744000  1.0
  C  C72  1  0.10626000  0.54193000  0.92076000  1.0
  C  C73  1  0.89374000  0.45807000  0.07925000  1.0
  C  C74  1  0.04283000  0.46502000  0.83251000  1.0
  C  C75  1  0.95717000  0.53498000  0.16750000  1.0
  C  C76  1  0.11668000  0.47315000  0.76081000  1.0
  C  C77  1  0.88332000  0.52685000  0.23920000  1.0
  C  C78  1  0.20214000  0.42741000  0.47203000  1.0
  C  C79  1  0.79787000  0.57260000  0.52798000  1.0
  C  C80  1  0.93309000  0.33107000  0.40363000  1.0
  C  C81  1  0.06692000  0.66894000  0.59637000  1.0
  C  C82  1  0.11058000  0.35441000  0.29622000  1.0
  C  C83  1  0.88942000  0.64559000  0.70378000  1.0
  N  N84  1  0.24631000  0.55129000  0.77332000  1.0
  N  N85  1  0.75369000  0.44871000  0.22668000  1.0
  N  N86  1  0.04298000  0.54346000  0.99993000  1.0
  N  N87  1  0.95703000  0.45654000  0.00008000  1.0
  N  N88  1  0.08539000  0.37156000  0.39290000  1.0
  N  N89  1  0.91461000  0.62844000  0.60711000  1.0
  O  O90  1  0.40570000  0.67589000  0.63035000  1.0
  O  O91  1  0.59430000  0.32410000  0.36965000  1.0
  O  O92  1  0.58584000  0.69053000  0.76615000  1.0
  O  O93  1  0.41414000  0.30947000  0.23386000  1.0
  O  O94  1  0.52648000  0.46881000  0.60660000  1.0
  O  O95  1  0.47353000  0.53119000  0.39340000  1.0
  O  O96  1  0.44951000  0.43455000  0.73511000  1.0
  O  O97  1  0.55049000  0.56545000  0.26489000  1.0
  O  O98  1  0.83841000  0.14083000  0.70741000  1.0
  O  O99  1  0.16158000  0.85916000  0.29258000  1.0
  O  O100  1  0.18462000  0.44713000  0.55643000  1.0
  O  O101  1  0.81538000  0.55287000  0.44357000  1.0
