# generated using pymatgen
data_CdH8C9N3ClO3
_symmetry_space_group_name_H-M   'P 1'
_cell_length_a   8.09643000
_cell_length_b   10.84360000
_cell_length_c   13.22480000
_cell_angle_alpha   89.99980000
_cell_angle_beta   89.99980000
_cell_angle_gamma   74.54500000
_symmetry_Int_Tables_number   1
_chemical_formula_structural   CdH8C9N3ClO3
_chemical_formula_sum   'Cd4 H32 C36 N12 Cl4 O12'
_cell_volume   1119.07999720
_cell_formula_units_Z   4
loop_
 _symmetry_equiv_pos_site_id
 _symmetry_equiv_pos_as_xyz
  1  'x, y, z'
loop_
 _atom_site_type_symbol
 _atom_site_label
 _atom_site_symmetry_multiplicity
 _atom_site_fract_x
 _atom_site_fract_y
 _atom_site_fract_z
 _atom_site_occupancy
  Cd  Cd0  1  0.48196000  0.92879000  0.62776000  1.0
  Cd  Cd1  1  0.51804000  0.57121000  0.12776000  1.0
  Cd  Cd2  1  0.51804000  0.07121000  0.37224000  1.0
  Cd  Cd3  1  0.48196000  0.42879000  0.87224000  1.0
  H  H4  1  0.87795000  0.94358000  0.64233000  1.0
  H  H5  1  0.12205000  0.55641000  0.14233000  1.0
  H  H6  1  0.12204000  0.05641000  0.35767000  1.0
  H  H7  1  0.87795000  0.44359000  0.85767000  1.0
  H  H8  1  0.21062000  0.56033000  0.64044000  1.0
  H  H9  1  0.78939000  0.93967000  0.14044000  1.0
  H  H10  1  0.78939000  0.43967000  0.35956000  1.0
  H  H11  1  0.21061000  0.06033000  0.85956000  1.0
  H  H12  1  0.65879000  0.63946000  0.62483000  1.0
  H  H13  1  0.34121000  0.86054000  0.12483000  1.0
  H  H14  1  0.34121000  0.36054000  0.37517000  1.0
  H  H15  1  0.65879000  0.13946000  0.87517000  1.0
  H  H16  1  0.22514000  0.36547000  0.61771000  1.0
  H  H17  1  0.77487000  0.13453000  0.11771000  1.0
  H  H18  1  0.77486000  0.63453000  0.38229000  1.0
  H  H19  1  0.22513000  0.86547000  0.88229000  1.0
  H  H20  1  0.12814000  0.14287000  0.59844000  1.0
  H  H21  1  0.87186000  0.35713000  0.09844000  1.0
  H  H22  1  0.87186000  0.85713000  0.40156000  1.0
  H  H23  1  0.12814000  0.64287000  0.90156000  1.0
  H  H24  1  0.77474000  0.22104000  0.60433000  1.0
  H  H25  1  0.22527000  0.27896000  0.10433000  1.0
  H  H26  1  0.22526000  0.77896000  0.39567000  1.0
  H  H27  1  0.77474000  0.72104000  0.89567000  1.0
  H  H28  1  0.43544000  0.07838000  0.80900000  1.0
  H  H29  1  0.56456000  0.42161000  0.30900000  1.0
  H  H30  1  0.56456000  0.92162000  0.19100000  1.0
  H  H31  1  0.43544000  0.57838000  0.69100000  1.0
  H  H32  1  0.59604000  0.95871000  0.82964000  1.0
  H  H33  1  0.40396000  0.54130000  0.32964000  1.0
  H  H34  1  0.40396000  0.04129000  0.17036000  1.0
  H  H35  1  0.59604000  0.45870000  0.67036000  1.0
  C  C36  1  0.89797000  0.84014000  0.64120000  1.0
  C  C37  1  0.10203000  0.65986000  0.14120000  1.0
  C  C38  1  0.10203000  0.15986000  0.35880000  1.0
  C  C39  1  0.89797000  0.34014000  0.85880000  1.0
  C  C40  1  0.06324000  0.75755000  0.64299000  1.0
  C  C41  1  0.93676000  0.74245000  0.14299000  1.0
  C  C42  1  0.93676000  0.24245000  0.35701000  1.0
  C  C43  1  0.06324000  0.25755000  0.85701000  1.0
  C  C44  1  0.08299000  0.62590000  0.63936000  1.0
  C  C45  1  0.91702000  0.87410000  0.13935000  1.0
  C  C46  1  0.91701000  0.37410000  0.36064000  1.0
  C  C47  1  0.08298000  0.12590000  0.86065000  1.0
  C  C48  1  0.93732000  0.58076000  0.63254000  1.0
  C  C49  1  0.06268000  0.91925000  0.13254000  1.0
  C  C50  1  0.06268000  0.41924000  0.36746000  1.0
  C  C51  1  0.93732000  0.08075000  0.86746000  1.0
  C  C52  1  0.77613000  0.66934000  0.63164000  1.0
  C  C53  1  0.22387000  0.83066000  0.13164000  1.0
  C  C54  1  0.22387000  0.33066000  0.36836000  1.0
  C  C55  1  0.77613000  0.16934000  0.86836000  1.0
  C  C56  1  0.09788000  0.35060000  0.61577000  1.0
  C  C57  1  0.90212000  0.14940000  0.11577000  1.0
  C  C58  1  0.90211000  0.64940000  0.38423000  1.0
  C  C59  1  0.09789000  0.85060000  0.88423000  1.0
  C  C60  1  0.04697000  0.23939000  0.60610000  1.0
  C  C61  1  0.95304000  0.26061000  0.10610000  1.0
  C  C62  1  0.95303000  0.76061000  0.39390000  1.0
  C  C63  1  0.04697000  0.73938000  0.89390000  1.0
  C  C64  1  0.86629000  0.27830000  0.60960000  1.0
  C  C65  1  0.13371000  0.22170000  0.10960000  1.0
  C  C66  1  0.13371000  0.72170000  0.39040000  1.0
  C  C67  1  0.86629000  0.77830000  0.89040000  1.0
  C  C68  1  0.21686000  0.81017000  0.64659000  1.0
  C  C69  1  0.78314000  0.68983000  0.14659000  1.0
  C  C70  1  0.78314000  0.18983000  0.35341000  1.0
  C  C71  1  0.21686000  0.31017000  0.85341000  1.0
  N  N72  1  0.75871000  0.79560000  0.63708000  1.0
  N  N73  1  0.24129000  0.70440000  0.13708000  1.0
  N  N74  1  0.24129000  0.20440000  0.36292000  1.0
  N  N75  1  0.75871000  0.29560000  0.86292000  1.0
  N  N76  1  0.95127000  0.44898000  0.62475000  1.0
  N  N77  1  0.04874000  0.05102000  0.12475000  1.0
  N  N78  1  0.04873000  0.55102000  0.37525000  1.0
  N  N79  1  0.95126000  0.94898000  0.87525000  1.0
  N  N80  1  0.80791000  0.40499000  0.62061000  1.0
  N  N81  1  0.19209000  0.09501000  0.12061000  1.0
  N  N82  1  0.19208000  0.59501000  0.37939000  1.0
  N  N83  1  0.80791000  0.90499000  0.87939000  1.0
  Cl  Cl84  1  0.51631000  0.14289000  0.56903000  1.0
  Cl  Cl85  1  0.48369000  0.35711000  0.06903000  1.0
  Cl  Cl86  1  0.48369000  0.85711000  0.43097000  1.0
  Cl  Cl87  1  0.51631000  0.64289000  0.93097000  1.0
  O  O88  1  0.47940000  0.98390000  0.79821000  1.0
  O  O89  1  0.52060000  0.51610000  0.29821000  1.0
  O  O90  1  0.52060000  0.01610000  0.20179000  1.0
  O  O91  1  0.47940000  0.48390000  0.70179000  1.0
  O  O92  1  0.36526000  0.73403000  0.65898000  1.0
  O  O93  1  0.63474000  0.76598000  0.15898000  1.0
  O  O94  1  0.63474000  0.26597000  0.34102000  1.0
  O  O95  1  0.36526000  0.23403000  0.84102000  1.0
  O  O96  1  0.19249000  0.93047000  0.63537000  1.0
  O  O97  1  0.80751000  0.56953000  0.13537000  1.0
  O  O98  1  0.80751000  0.06953000  0.36462000  1.0
  O  O99  1  0.19249000  0.43047000  0.86463000  1.0
