# generated using pymatgen
data_SmH54C57(N2O5)3
_symmetry_space_group_name_H-M   'P 1'
_cell_length_a   10.93460000
_cell_length_b   19.78190000
_cell_length_c   19.78190000
_cell_angle_alpha   60.00000000
_cell_angle_beta   90.00000000
_cell_angle_gamma   89.99980000
_symmetry_Int_Tables_number   1
_chemical_formula_structural   SmH54C57(N2O5)3
_chemical_formula_sum   'Sm2 H108 C114 N12 O30'
_cell_volume   3705.69384887
_cell_formula_units_Z   2
loop_
 _symmetry_equiv_pos_site_id
 _symmetry_equiv_pos_as_xyz
  1  'x, y, z'
loop_
 _atom_site_type_symbol
 _atom_site_label
 _atom_site_symmetry_multiplicity
 _atom_site_fract_x
 _atom_site_fract_y
 _atom_site_fract_z
 _atom_site_occupancy
  Sm  Sm0  1  0.85603000  0.33333333  0.33333333  1.0
  Sm  Sm1  1  0.14397000  0.66666667  0.66666667  1.0
  H  H2  1  0.20173000  0.10822000  0.45673000  1.0
  H  H3  1  0.20172000  0.43505000  0.10822000  1.0
  H  H4  1  0.20172000  0.45673000  0.43505000  1.0
  H  H5  1  0.79827000  0.89178000  0.54327000  1.0
  H  H6  1  0.79828000  0.56495000  0.89178000  1.0
  H  H7  1  0.79828000  0.54327000  0.56495000  1.0
  H  H8  1  0.83330000  0.15644000  0.35275000  1.0
  H  H9  1  0.83330000  0.49081000  0.15644000  1.0
  H  H10  1  0.83330000  0.35275000  0.49081000  1.0
  H  H11  1  0.16670000  0.84356000  0.64725000  1.0
  H  H12  1  0.16670000  0.50919000  0.84356000  1.0
  H  H13  1  0.16670000  0.64726000  0.50918000  1.0
  H  H14  1  0.08157000  0.92500000  0.40581000  1.0
  H  H15  1  0.08156000  0.66919000  0.92500000  1.0
  H  H16  1  0.08156000  0.40581000  0.66919000  1.0
  H  H17  1  0.91843000  0.07500000  0.59419000  1.0
  H  H18  1  0.91844000  0.33081000  0.07500000  1.0
  H  H19  1  0.91844000  0.59419000  0.33081000  1.0
  H  H20  1  0.74379000  0.05418000  0.32949000  1.0
  H  H21  1  0.74379000  0.61633000  0.05418000  1.0
  H  H22  1  0.74379000  0.32949000  0.61633000  1.0
  H  H23  1  0.25621000  0.94582000  0.67051000  1.0
  H  H24  1  0.25621000  0.38367000  0.94582000  1.0
  H  H25  1  0.25621000  0.67051000  0.38367000  1.0
  H  H26  1  0.87201000  0.93980000  0.35351000  1.0
  H  H27  1  0.87200000  0.70669000  0.93980000  1.0
  H  H28  1  0.87201000  0.35351000  0.70669000  1.0
  H  H29  1  0.12799000  0.06020000  0.64649000  1.0
  H  H30  1  0.12800000  0.29331000  0.06020000  1.0
  H  H31  1  0.12799000  0.64649000  0.29331000  1.0
  H  H32  1  0.37486000  0.88301000  0.58224000  1.0
  H  H33  1  0.37486000  0.53475000  0.88301000  1.0
  H  H34  1  0.37486000  0.58224000  0.53475000  1.0
  H  H35  1  0.62514000  0.11699000  0.41775000  1.0
  H  H36  1  0.62514000  0.46525000  0.11699000  1.0
  H  H37  1  0.62514000  0.41776000  0.46525000  1.0
  H  H38  1  0.28509000  0.97734000  0.38174000  1.0
  H  H39  1  0.28509000  0.64092000  0.97735000  1.0
  H  H40  1  0.28509000  0.38173000  0.64092000  1.0
  H  H41  1  0.71491000  0.02265000  0.61827000  1.0
  H  H42  1  0.71491000  0.35908000  0.02265000  1.0
  H  H43  1  0.71491000  0.61827000  0.35908000  1.0
  H  H44  1  0.24146000  0.91184000  0.48070000  1.0
  H  H45  1  0.24146000  0.60746000  0.91184000  1.0
  H  H46  1  0.24146000  0.48070000  0.60746000  1.0
  H  H47  1  0.75854000  0.08816000  0.51930000  1.0
  H  H48  1  0.75854000  0.39254000  0.08816000  1.0
  H  H49  1  0.75854000  0.51930000  0.39254000  1.0
  H  H50  1  0.50145000  0.15421000  0.30927000  1.0
  H  H51  1  0.50145000  0.53652000  0.15421000  1.0
  H  H52  1  0.50145000  0.30927000  0.53652000  1.0
  H  H53  1  0.49855000  0.84579000  0.69073000  1.0
  H  H54  1  0.49855000  0.46348000  0.84579000  1.0
  H  H55  1  0.49855000  0.69073000  0.46348000  1.0
  H  H56  1  0.34366000  0.13830000  0.33337000  1.0
  H  H57  1  0.34366000  0.52833000  0.13830000  1.0
  H  H58  1  0.34366000  0.33333333  0.52836667  1.0
  H  H59  1  0.65634000  0.86170000  0.66663000  1.0
  H  H60  1  0.65634000  0.47167000  0.86166333  1.0
  H  H61  1  0.65634000  0.66663000  0.47167000  1.0
  H  H62  1  0.42025000  0.07946000  0.30371000  1.0
  H  H63  1  0.42025000  0.61683000  0.07946000  1.0
  H  H64  1  0.42025000  0.30371000  0.61683000  1.0
  H  H65  1  0.57974000  0.92054000  0.69629000  1.0
  H  H66  1  0.57974000  0.38317000  0.92054000  1.0
  H  H67  1  0.57975000  0.69629000  0.38317000  1.0
  H  H68  1  0.15301000  0.27262000  0.41785000  1.0
  H  H69  1  0.15302000  0.30953000  0.27262000  1.0
  H  H70  1  0.15301000  0.41785000  0.30953000  1.0
  H  H71  1  0.84699000  0.72738000  0.58215000  1.0
  H  H72  1  0.84698000  0.69047000  0.72738000  1.0
  H  H73  1  0.84699000  0.58215000  0.69047000  1.0
  H  H74  1  0.30150000  0.24149000  0.40719000  1.0
  H  H75  1  0.30150000  0.35132000  0.24149000  1.0
  H  H76  1  0.30150000  0.40719000  0.35132000  1.0
  H  H77  1  0.69850000  0.75851000  0.59281000  1.0
  H  H78  1  0.69850000  0.64868000  0.75851000  1.0
  H  H79  1  0.69850000  0.59281000  0.64868000  1.0
  H  H80  1  0.07800000  0.24187000  0.54594000  1.0
  H  H81  1  0.07801000  0.21219000  0.24187000  1.0
  H  H82  1  0.07800000  0.54594000  0.21219000  1.0
  H  H83  1  0.92200000  0.75813000  0.45406000  1.0
  H  H84  1  0.92199000  0.78781000  0.75813000  1.0
  H  H85  1  0.92200000  0.45405000  0.78782000  1.0
  H  H86  1  0.41755000  0.14274000  0.52550000  1.0
  H  H87  1  0.41755000  0.33176000  0.14275000  1.0
  H  H88  1  0.41755000  0.52549000  0.33177000  1.0
  H  H89  1  0.58246000  0.85726000  0.47450000  1.0
  H  H90  1  0.58245000  0.66824000  0.85726000  1.0
  H  H91  1  0.58246000  0.47451000  0.66824000  1.0
  H  H92  1  0.31423000  0.12065000  0.74580000  1.0
  H  H93  1  0.31423000  0.13354000  0.12065000  1.0
  H  H94  1  0.31423000  0.74581000  0.13354000  1.0
  H  H95  1  0.68577000  0.87935000  0.25420000  1.0
  H  H96  1  0.68577000  0.86646000  0.87935000  1.0
  H  H97  1  0.68577000  0.25419000  0.86646000  1.0
  H  H98  1  0.46072000  0.09406000  0.66506000  1.0
  H  H99  1  0.46072000  0.24088000  0.09406000  1.0
  H  H100  1  0.46072000  0.66506000  0.24088000  1.0
  H  H101  1  0.53928000  0.90594000  0.33494000  1.0
  H  H102  1  0.53928000  0.75912000  0.90595000  1.0
  H  H103  1  0.53928000  0.33494000  0.75912000  1.0
  H  H104  1  0.12358000  0.19659000  0.68497000  1.0
  H  H105  1  0.12358000  0.11844000  0.19660000  1.0
  H  H106  1  0.12358000  0.68497000  0.11844000  1.0
  H  H107  1  0.87642000  0.80341000  0.31503000  1.0
  H  H108  1  0.87642000  0.88156000  0.80340000  1.0
  H  H109  1  0.87642000  0.31503000  0.88156000  1.0
  C  C110  1  0.00723000  0.10077000  0.39038000  1.0
  C  C111  1  0.00722000  0.50885000  0.10077000  1.0
  C  C112  1  0.00722000  0.39038000  0.50885000  1.0
  C  C113  1  0.99277000  0.89923000  0.60962000  1.0
  C  C114  1  0.99278000  0.49115000  0.89923000  1.0
  C  C115  1  0.99278000  0.60963000  0.49114000  1.0
  C  C116  1  0.07704000  0.03376000  0.40683000  1.0
  C  C117  1  0.07704000  0.55942000  0.03375000  1.0
  C  C118  1  0.07704000  0.40683000  0.55941000  1.0
  C  C119  1  0.92296000  0.96624000  0.59317000  1.0
  C  C120  1  0.92296000  0.44058000  0.96625000  1.0
  C  C121  1  0.92296000  0.59317000  0.44059000  1.0
  C  C122  1  0.88724000  0.10602000  0.36309000  1.0
  C  C123  1  0.88724000  0.53089000  0.10602000  1.0
  C  C124  1  0.88724000  0.36309000  0.53090000  1.0
  C  C125  1  0.11276000  0.89398000  0.63691000  1.0
  C  C126  1  0.11276000  0.46911000  0.89398000  1.0
  C  C127  1  0.11275000  0.63691000  0.46911000  1.0
  C  C128  1  0.02793000  0.97650000  0.39285000  1.0
  C  C129  1  0.02793000  0.63065000  0.97650000  1.0
  C  C130  1  0.02793000  0.39285000  0.63065000  1.0
  C  C131  1  0.97207000  0.02350000  0.60715000  1.0
  C  C132  1  0.97207000  0.36935000  0.02350000  1.0
  C  C133  1  0.97207000  0.60715000  0.36935000  1.0
  C  C134  1  0.83757000  0.04888000  0.35012000  1.0
  C  C135  1  0.83756000  0.60100000  0.04888000  1.0
  C  C136  1  0.83757000  0.35012000  0.60100000  1.0
  C  C137  1  0.16243000  0.95112000  0.64988000  1.0
  C  C138  1  0.16244000  0.39900000  0.95112000  1.0
  C  C139  1  0.16243000  0.64988000  0.39900000  1.0
  C  C140  1  0.90914000  0.98470000  0.36411000  1.0
  C  C141  1  0.90913000  0.65119000  0.98471000  1.0
  C  C142  1  0.90914000  0.36410000  0.65120000  1.0
  C  C143  1  0.09086000  0.01530000  0.63589000  1.0
  C  C144  1  0.09087000  0.34881000  0.01529000  1.0
  C  C145  1  0.09086000  0.63590000  0.34880000  1.0
  C  C146  1  0.05432000  0.16853000  0.39537000  1.0
  C  C147  1  0.05433000  0.43610000  0.16852000  1.0
  C  C148  1  0.05433000  0.39538000  0.43610000  1.0
  C  C149  1  0.94568000  0.83147000  0.60463000  1.0
  C  C150  1  0.94567000  0.56390000  0.83148000  1.0
  C  C151  1  0.94567000  0.60463000  0.56390000  1.0
  C  C152  1  0.39454000  0.98570000  0.46914000  1.0
  C  C153  1  0.39454000  0.54516000  0.98570000  1.0
  C  C154  1  0.39454000  0.46914000  0.54515000  1.0
  C  C155  1  0.60546000  0.01429000  0.53086000  1.0
  C  C156  1  0.60546000  0.45484000  0.01430000  1.0
  C  C157  1  0.60546000  0.53086000  0.45485000  1.0
  C  C158  1  0.43042000  0.93459000  0.54613000  1.0
  C  C159  1  0.43042000  0.51928000  0.93460000  1.0
  C  C160  1  0.43042000  0.54612000  0.51928000  1.0
  C  C161  1  0.56958000  0.06540000  0.45388000  1.0
  C  C162  1  0.56958000  0.48072000  0.06540000  1.0
  C  C163  1  0.56958000  0.45388000  0.48072000  1.0
  C  C164  1  0.27692000  0.97034000  0.44043000  1.0
  C  C165  1  0.27692000  0.58923000  0.97035000  1.0
  C  C166  1  0.27692000  0.44042000  0.58924000  1.0
  C  C167  1  0.72308000  0.02965000  0.55958000  1.0
  C  C168  1  0.72308000  0.41077000  0.02965000  1.0
  C  C169  1  0.72308000  0.55958000  0.41076000  1.0
  C  C170  1  0.46476000  0.05269000  0.42123000  1.0
  C  C171  1  0.46476000  0.52607000  0.05269000  1.0
  C  C172  1  0.46476000  0.42124000  0.52607000  1.0
  C  C173  1  0.53524000  0.94731000  0.57876000  1.0
  C  C174  1  0.53524000  0.47393000  0.94730000  1.0
  C  C175  1  0.53524000  0.57876000  0.47393000  1.0
  C  C176  1  0.43126000  0.10910000  0.33788000  1.0
  C  C177  1  0.43126000  0.55302000  0.10910000  1.0
  C  C178  1  0.43126000  0.33788000  0.55302000  1.0
  C  C179  1  0.56874000  0.89090000  0.66212000  1.0
  C  C180  1  0.56874000  0.44698000  0.89090000  1.0
  C  C181  1  0.56874000  0.66212000  0.44698000  1.0
  C  C182  1  0.24490000  0.19584000  0.52637000  1.0
  C  C183  1  0.24490000  0.27779000  0.19583000  1.0
  C  C184  1  0.24490000  0.52638000  0.27778000  1.0
  C  C185  1  0.75510000  0.80416000  0.47363000  1.0
  C  C186  1  0.75510000  0.72221000  0.80417000  1.0
  C  C187  1  0.75511000  0.47362000  0.72222000  1.0
  C  C188  1  0.21649000  0.22319000  0.44184000  1.0
  C  C189  1  0.21649000  0.33497000  0.22319000  1.0
  C  C190  1  0.21649000  0.44184000  0.33497000  1.0
  C  C191  1  0.78351000  0.77681000  0.55816000  1.0
  C  C192  1  0.78351000  0.66503000  0.77681000  1.0
  C  C193  1  0.78351000  0.55817000  0.66503000  1.0
  C  C194  1  0.16265000  0.21044000  0.57191000  1.0
  C  C195  1  0.16265000  0.21766000  0.21043000  1.0
  C  C196  1  0.16265000  0.57191000  0.21765000  1.0
  C  C197  1  0.83735000  0.78957000  0.42808000  1.0
  C  C198  1  0.83735000  0.78234000  0.78957000  1.0
  C  C199  1  0.83735000  0.42809000  0.78235000  1.0
  C  C200  1  0.35220000  0.15385000  0.56056000  1.0
  C  C201  1  0.35220000  0.28559000  0.15385000  1.0
  C  C202  1  0.35220000  0.56056000  0.28559000  1.0
  C  C203  1  0.64780000  0.84615000  0.43944000  1.0
  C  C204  1  0.64780000  0.71441000  0.84615000  1.0
  C  C205  1  0.64781000  0.43944000  0.71441000  1.0
  C  C206  1  0.29471000  0.14170000  0.68435000  1.0
  C  C207  1  0.29471000  0.17395000  0.14171000  1.0
  C  C208  1  0.29471000  0.68435000  0.17395000  1.0
  C  C209  1  0.70529000  0.85830000  0.31565000  1.0
  C  C210  1  0.70529000  0.82605000  0.85829000  1.0
  C  C211  1  0.70529000  0.31565000  0.82605000  1.0
  C  C212  1  0.37660000  0.12644000  0.63934000  1.0
  C  C213  1  0.37661000  0.23422000  0.12644000  1.0
  C  C214  1  0.37660000  0.63934000  0.23422000  1.0
  C  C215  1  0.62340000  0.87356000  0.36066000  1.0
  C  C216  1  0.62339000  0.76578000  0.87356000  1.0
  C  C217  1  0.62340000  0.36066000  0.76578000  1.0
  C  C218  1  0.18787000  0.18411000  0.65043000  1.0
  C  C219  1  0.18787000  0.16546000  0.18412000  1.0
  C  C220  1  0.18787000  0.65042000  0.16547000  1.0
  C  C221  1  0.81213000  0.81589000  0.34957000  1.0
  C  C222  1  0.81213000  0.83454000  0.81588000  1.0
  C  C223  1  0.81214000  0.34958000  0.83453000  1.0
  N  N224  1  0.15922000  0.16120000  0.43345000  1.0
  N  N225  1  0.15922000  0.40535000  0.16119000  1.0
  N  N226  1  0.15922000  0.43346000  0.40534000  1.0
  N  N227  1  0.84078000  0.83880000  0.56655000  1.0
  N  N228  1  0.84078000  0.59465000  0.83881000  1.0
  N  N229  1  0.84078000  0.56655000  0.59465000  1.0
  N  N230  1  0.71740000  0.24548000  0.48087000  1.0
  N  N231  1  0.71740000  0.27365000  0.24548000  1.0
  N  N232  1  0.71740000  0.48087000  0.27364000  1.0
  N  N233  1  0.28261000  0.75452000  0.51913000  1.0
  N  N234  1  0.28260000  0.72635000  0.75452000  1.0
  N  N235  1  0.28260000  0.51913000  0.72636000  1.0
  O  O236  1  0.81438000  0.21789000  0.46626000  1.0
  O  O237  1  0.81438000  0.31585000  0.21790000  1.0
  O  O238  1  0.81439000  0.46625000  0.31585000  1.0
  O  O239  1  0.18562000  0.78211000  0.53374000  1.0
  O  O240  1  0.18562000  0.68415000  0.78210000  1.0
  O  O241  1  0.18561000  0.53375000  0.68415000  1.0
  O  O242  1  0.99718000  0.23289000  0.36167000  1.0
  O  O243  1  0.99719000  0.40543000  0.23289000  1.0
  O  O244  1  0.99718000  0.36168000  0.40543000  1.0
  O  O245  1  0.00282000  0.76711000  0.63832000  1.0
  O  O246  1  0.00282000  0.59457000  0.76711000  1.0
  O  O247  1  0.00282000  0.63832000  0.59457000  1.0
  O  O248  1  0.19137000  0.02883000  0.43597000  1.0
  O  O249  1  0.19137000  0.53520000  0.02883000  1.0
  O  O250  1  0.19137000  0.43597000  0.53520000  1.0
  O  O251  1  0.80863000  0.97117000  0.56403000  1.0
  O  O252  1  0.80863000  0.46480000  0.97117000  1.0
  O  O253  1  0.80863000  0.56403000  0.46480000  1.0
  O  O254  1  0.68890000  0.31609000  0.42921000  1.0
  O  O255  1  0.68890000  0.25470000  0.31608000  1.0
  O  O256  1  0.68890000  0.42922000  0.25469000  1.0
  O  O257  1  0.31110000  0.68391000  0.57079000  1.0
  O  O258  1  0.31110000  0.74530000  0.68392000  1.0
  O  O259  1  0.31110000  0.57078000  0.74531000  1.0
  O  O260  1  0.65638000  0.20696000  0.54057000  1.0
  O  O261  1  0.65638000  0.25247000  0.20697000  1.0
  O  O262  1  0.65639000  0.54056000  0.25247000  1.0
  O  O263  1  0.34362000  0.79303000  0.45944000  1.0
  O  O264  1  0.34362000  0.74752000  0.79304000  1.0
  O  O265  1  0.34361000  0.45944000  0.74753000  1.0
