# generated using pymatgen
data_CuH12C9(N2Cl)2
_symmetry_space_group_name_H-M   'P 1'
_cell_length_a   8.02724000
_cell_length_b   8.02723000
_cell_length_c   10.09000000
_cell_angle_alpha   106.90600000
_cell_angle_beta   106.90500000
_cell_angle_gamma   101.26100000
_symmetry_Int_Tables_number   1
_chemical_formula_structural   CuH12C9(N2Cl)2
_chemical_formula_sum   'Cu2 H24 C18 N8 Cl4'
_cell_volume   566.69490884
_cell_formula_units_Z   2
loop_
 _symmetry_equiv_pos_site_id
 _symmetry_equiv_pos_as_xyz
  1  'x, y, z'
loop_
 _atom_site_type_symbol
 _atom_site_label
 _atom_site_symmetry_multiplicity
 _atom_site_fract_x
 _atom_site_fract_y
 _atom_site_fract_z
 _atom_site_occupancy
  Cu  Cu0  1  0.61791000  0.61791000  0.69251000  1.0
  Cu  Cu1  1  0.38210000  0.38210000  0.30752000  1.0
  H  H2  1  0.68301000  0.12991000  0.93139000  1.0
  H  H3  1  0.87009000  0.31700000  0.06861000  1.0
  H  H4  1  0.31700000  0.87009000  0.06861000  1.0
  H  H5  1  0.12991000  0.68300000  0.93139000  1.0
  H  H6  1  0.73015000  0.53299000  0.96940000  1.0
  H  H7  1  0.46701000  0.26985000  0.03060000  1.0
  H  H8  1  0.26984000  0.46701000  0.03060000  1.0
  H  H9  1  0.53299000  0.73014000  0.96940000  1.0
  H  H10  1  0.54440000  0.34201000  0.82962000  1.0
  H  H11  1  0.65799000  0.45560000  0.17039000  1.0
  H  H12  1  0.45560000  0.65799000  0.17039000  1.0
  H  H13  1  0.34201000  0.54439000  0.82962000  1.0
  H  H14  1  0.94069000  0.18671000  0.85362000  1.0
  H  H15  1  0.81330000  0.05930000  0.14636000  1.0
  H  H16  1  0.05930000  0.81330000  0.14636000  1.0
  H  H17  1  0.18671000  0.94069000  0.85363000  1.0
  H  H18  1  0.07571000  0.25434000  0.64358000  1.0
  H  H19  1  0.74567000  0.92426000  0.35640000  1.0
  H  H20  1  0.92426000  0.74567000  0.35641000  1.0
  H  H21  1  0.25435000  0.07572000  0.64359000  1.0
  H  H22  1  0.89888000  0.48898000  0.55676000  1.0
  H  H23  1  0.51104000  0.10110000  0.44323000  1.0
  H  H24  1  0.10110000  0.51105000  0.44324000  1.0
  H  H25  1  0.48899000  0.89888000  0.55677000  1.0
  C  C26  1  0.72399000  0.27602000  0.00000000  1.0
  C  C27  1  0.27602000  0.72398000  1.00000000  1.0
  C  C28  1  0.69006000  0.38650000  0.90109000  1.0
  C  C29  1  0.61351000  0.30994000  0.09891000  1.0
  C  C30  1  0.30993000  0.61351000  0.09891000  1.0
  C  C31  1  0.38649000  0.69005000  0.90109000  1.0
  C  C32  1  0.91288000  0.27281000  0.78965000  1.0
  C  C33  1  0.72719000  0.08710000  0.21035000  1.0
  C  C34  1  0.08710000  0.72719000  0.21035000  1.0
  C  C35  1  0.27282000  0.91288000  0.78965000  1.0
  C  C36  1  0.97909000  0.30827000  0.68451000  1.0
  C  C37  1  0.69174000  0.02090000  0.31547000  1.0
  C  C38  1  0.02090000  0.69175000  0.31548000  1.0
  C  C39  1  0.30828000  0.97909000  0.68452000  1.0
  C  C40  1  0.89145000  0.42796000  0.63845000  1.0
  C  C41  1  0.57205000  0.10853000  0.36154000  1.0
  C  C42  1  0.10854000  0.57206000  0.36155000  1.0
  C  C43  1  0.42796000  0.89145000  0.63846000  1.0
  N  N44  1  0.77783000  0.46274000  0.71017000  1.0
  N  N45  1  0.53726000  0.22217000  0.28983000  1.0
  N  N46  1  0.22217000  0.53726000  0.28984000  1.0
  N  N47  1  0.46274000  0.77783000  0.71017000  1.0
  N  N48  1  0.79281000  0.36874000  0.80294000  1.0
  N  N49  1  0.63128000  0.20718000  0.19705000  1.0
  N  N50  1  0.20718000  0.63127000  0.19706000  1.0
  N  N51  1  0.36874000  0.79281000  0.80294000  1.0
  Cl  Cl52  1  0.65095000  0.65095000  0.45130000  1.0
  Cl  Cl53  1  0.34909000  0.34909000  0.54871000  1.0
  Cl  Cl54  1  0.85572000  0.85572000  0.89077000  1.0
  Cl  Cl55  1  0.14425000  0.14425000  0.10920000  1.0
