# generated using pymatgen
data_CdNiH12(CN)7
_symmetry_space_group_name_H-M   'P 1'
_cell_length_a   7.32479000
_cell_length_b   11.59620000
_cell_length_c   11.73160000
_cell_angle_alpha   87.04190000
_cell_angle_beta   76.79600000
_cell_angle_gamma   79.86600000
_symmetry_Int_Tables_number   1
_chemical_formula_structural   CdNiH12(CN)7
_chemical_formula_sum   'Cd2 Ni2 H24 C14 N14'
_cell_volume   954.93210145
_cell_formula_units_Z   2
loop_
 _symmetry_equiv_pos_site_id
 _symmetry_equiv_pos_as_xyz
  1  'x, y, z'
loop_
 _atom_site_type_symbol
 _atom_site_label
 _atom_site_symmetry_multiplicity
 _atom_site_fract_x
 _atom_site_fract_y
 _atom_site_fract_z
 _atom_site_occupancy
  Cd  Cd0  1  0.14052000  0.76106000  0.78402000  1.0
  Cd  Cd1  1  0.85946000  0.23895000  0.21598000  1.0
  Ni  Ni2  1  0.49999000  0.00001000  0.99998000  1.0
  Ni  Ni3  1  0.99998000  0.50000000  0.50001000  1.0
  H  H4  1  0.30826000  0.95469000  0.68412000  1.0
  H  H5  1  0.15299000  0.94648000  0.60411000  1.0
  H  H6  1  0.50683000  0.89401000  0.49687000  1.0
  H  H7  1  0.34864000  0.79674000  0.48648000  1.0
  H  H8  1  0.59722000  0.77295000  0.66761000  1.0
  H  H9  1  0.65181000  0.69484000  0.53476000  1.0
  H  H10  1  0.37918000  0.60640000  0.60347000  1.0
  H  H11  1  0.49420000  0.59224000  0.70802000  1.0
  H  H12  1  0.87886000  0.69405000  0.97735000  1.0
  H  H13  1  0.07964000  0.68236000  0.02167000  1.0
  H  H14  1  0.99477000  0.51286000  0.86926000  1.0
  H  H15  1  0.20273000  0.49776000  0.92538000  1.0
  H  H16  1  0.69173000  0.04530000  0.31587000  1.0
  H  H17  1  0.84702000  0.05352000  0.39586000  1.0
  H  H18  1  0.49317000  0.10598000  0.50312000  1.0
  H  H19  1  0.65136000  0.20324000  0.51352000  1.0
  H  H20  1  0.40277000  0.22707000  0.33240000  1.0
  H  H21  1  0.34819000  0.30516000  0.46526000  1.0
  H  H22  1  0.62085000  0.39358000  0.39656000  1.0
  H  H23  1  0.50578000  0.40778000  0.29203000  1.0
  H  H24  1  0.12116000  0.30592000  0.02266000  1.0
  H  H25  1  0.92040000  0.31764000  0.97832000  1.0
  H  H26  1  0.00523000  0.48713000  0.13076000  1.0
  H  H27  1  0.79731000  0.50223000  0.07460000  1.0
  C  C28  1  0.40186000  0.88856000  0.93863000  1.0
  C  C29  1  0.73515000  0.94704000  0.90726000  1.0
  C  C30  1  0.96887000  0.59567000  0.62431000  1.0
  C  C31  1  0.21434000  0.56345000  0.43112000  1.0
  C  C32  1  0.41340000  0.83562000  0.54775000  1.0
  C  C33  1  0.53374000  0.73765000  0.60341000  1.0
  C  C34  1  0.04854000  0.53108000  0.94555000  1.0
  C  C35  1  0.59811000  0.11146000  0.06134000  1.0
  C  C36  1  0.26483000  0.05298000  0.09271000  1.0
  C  C37  1  0.03113000  0.40433000  0.37570000  1.0
  C  C38  1  0.78561000  0.43655000  0.56890000  1.0
  C  C39  1  0.58660000  0.16437000  0.45224000  1.0
  C  C40  1  0.46626000  0.26235000  0.39660000  1.0
  C  C41  1  0.95153000  0.46890000  0.05445000  1.0
  N  N42  1  0.33982000  0.81793000  0.89785000  1.0
  N  N43  1  0.88515000  0.91134000  0.84861000  1.0
  N  N44  1  0.95394000  0.65961000  0.70171000  1.0
  N  N45  1  0.35273000  0.60334000  0.39125000  1.0
  N  N46  1  0.25935000  0.89892000  0.63813000  1.0
  N  N47  1  0.41510000  0.65299000  0.66464000  1.0
  N  N48  1  0.02046000  0.65901000  0.95722000  1.0
  N  N49  1  0.66014000  0.18209000  0.10214000  1.0
  N  N50  1  0.11485000  0.08867000  0.15138000  1.0
  N  N51  1  0.04609000  0.34039000  0.29829000  1.0
  N  N52  1  0.64723000  0.39666000  0.60874000  1.0
  N  N53  1  0.74065000  0.10109000  0.36185000  1.0
  N  N54  1  0.58491000  0.34702000  0.33537000  1.0
  N  N55  1  0.97957000  0.34098000  0.04278000  1.0
