# generated using pymatgen
data_ZnH9C16NO4F
_symmetry_space_group_name_H-M   'P 1'
_cell_length_a   10.92930000
_cell_length_b   10.96390000
_cell_length_c   14.66600000
_cell_angle_alpha   82.21120000
_cell_angle_beta   85.57090000
_cell_angle_gamma   88.57220000
_symmetry_Int_Tables_number   1
_chemical_formula_structural   ZnH9C16NO4F
_chemical_formula_sum   'Zn4 H36 C64 N4 O16 F4'
_cell_volume   1735.79517049
_cell_formula_units_Z   4
loop_
 _symmetry_equiv_pos_site_id
 _symmetry_equiv_pos_as_xyz
  1  'x, y, z'
loop_
 _atom_site_type_symbol
 _atom_site_label
 _atom_site_symmetry_multiplicity
 _atom_site_fract_x
 _atom_site_fract_y
 _atom_site_fract_z
 _atom_site_occupancy
  Zn  Zn0  1  0.44730000  0.78369000  0.39449000  1.0
  Zn  Zn1  1  0.45294000  0.82223000  0.18956000  1.0
  Zn  Zn2  1  0.55269000  0.21632000  0.60551000  1.0
  Zn  Zn3  1  0.54706000  0.17777000  0.81044000  1.0
  H  H4  1  0.85196000  0.77011000  0.45257000  1.0
  H  H5  1  0.08200000  0.78297000  0.42456000  1.0
  H  H6  1  0.04837000  0.83366000  0.13214000  1.0
  H  H7  1  0.81937000  0.82148000  0.16008000  1.0
  H  H8  1  0.36761000  0.16351000  0.43003000  1.0
  H  H9  1  0.36437000  0.38929000  0.43250000  1.0
  H  H10  1  0.53045000  0.44366000  0.15475000  1.0
  H  H11  1  0.53697000  0.21485000  0.15326000  1.0
  H  H12  1  0.37105000  0.96043000  0.52544000  1.0
  H  H13  1  0.21056000  0.97017000  0.65457000  1.0
  H  H14  1  0.15266000  0.58140000  0.65334000  1.0
  H  H15  1  0.31700000  0.58833000  0.52359000  1.0
  H  H16  1  0.93698000  0.68631000  0.66576000  1.0
  H  H17  1  0.76255000  0.70443000  0.78089000  1.0
  H  H18  1  0.69554000  0.62648000  0.93632000  1.0
  H  H19  1  0.52002000  0.64866000  0.05339000  1.0
  H  H20  1  0.61115000  0.00735000  0.07300000  1.0
  H  H21  1  0.78740000  0.00341000  0.95476000  1.0
  H  H22  1  0.14804000  0.22989000  0.54743000  1.0
  H  H23  1  0.91800000  0.21703000  0.57543000  1.0
  H  H24  1  0.95163000  0.16634000  0.86786000  1.0
  H  H25  1  0.18063000  0.17852000  0.83991000  1.0
  H  H26  1  0.63239000  0.83649000  0.56997000  1.0
  H  H27  1  0.63563000  0.61071000  0.56750000  1.0
  H  H28  1  0.46955000  0.55634000  0.84525000  1.0
  H  H29  1  0.46303000  0.78515000  0.84674000  1.0
  H  H30  1  0.62895000  0.03958000  0.47455000  1.0
  H  H31  1  0.78945000  0.02983000  0.34543000  1.0
  H  H32  1  0.84734000  0.41860000  0.34666000  1.0
  H  H33  1  0.68300000  0.41167000  0.47641000  1.0
  H  H34  1  0.06302000  0.31369000  0.33424000  1.0
  H  H35  1  0.23745000  0.29557000  0.21911000  1.0
  H  H36  1  0.30446000  0.37351000  0.06368000  1.0
  H  H37  1  0.47998000  0.35134000  0.94661000  1.0
  H  H38  1  0.38885000  0.99265000  0.92700000  1.0
  H  H39  1  0.21260000  0.99659000  0.04524000  1.0
  C  C40  1  0.82252000  0.79451000  0.30780000  1.0
  C  C41  1  0.89610000  0.78367000  0.38277000  1.0
  C  C42  1  0.02311000  0.79107000  0.36734000  1.0
  C  C43  1  0.07838000  0.80929000  0.27696000  1.0
  C  C44  1  0.00485000  0.81997000  0.20206000  1.0
  C  C45  1  0.87790000  0.81263000  0.21746000  1.0
  C  C46  1  0.68528000  0.78940000  0.32222000  1.0
  C  C47  1  0.21556000  0.81578000  0.26231000  1.0
  C  C48  1  0.45145000  0.17551000  0.29082000  1.0
  C  C49  1  0.40229000  0.22471000  0.36933000  1.0
  C  C50  1  0.39980000  0.35138000  0.37061000  1.0
  C  C51  1  0.44530000  0.43045000  0.29292000  1.0
  C  C52  1  0.49434000  0.38113000  0.21435000  1.0
  C  C53  1  0.49802000  0.25446000  0.21343000  1.0
  C  C54  1  0.45532000  0.03924000  0.28963000  1.0
  C  C55  1  0.44405000  0.56694000  0.29376000  1.0
  C  C56  1  0.32053000  0.87878000  0.55612000  1.0
  C  C57  1  0.23138000  0.88321000  0.62827000  1.0
  C  C58  1  0.16650000  0.77644000  0.66391000  1.0
  C  C59  1  0.19813000  0.66766000  0.62657000  1.0
  C  C60  1  0.28951000  0.67035000  0.55502000  1.0
  C  C61  1  0.06477000  0.78050000  0.73561000  1.0
  C  C62  1  0.94984000  0.73038000  0.72662000  1.0
  C  C63  1  0.85170000  0.74050000  0.79138000  1.0
  C  C64  1  0.86336000  0.80117000  0.86878000  1.0
  C  C65  1  0.97884000  0.84807000  0.87873000  1.0
  C  C66  1  0.07714000  0.83824000  0.81369000  1.0
  C  C67  1  0.75849000  0.81265000  0.93680000  1.0
  C  C68  1  0.67952000  0.71321000  0.96410000  1.0
  C  C69  1  0.58131000  0.72487000  0.02834000  1.0
  C  C70  1  0.63270000  0.92561000  0.03967000  1.0
  C  C71  1  0.73250000  0.92153000  0.97551000  1.0
  C  C72  1  0.17747000  0.20549000  0.69220000  1.0
  C  C73  1  0.10390000  0.21633000  0.61723000  1.0
  C  C74  1  0.97689000  0.20892000  0.63266000  1.0
  C  C75  1  0.92162000  0.19071000  0.72304000  1.0
  C  C76  1  0.99515000  0.18003000  0.79793000  1.0
  C  C77  1  0.12209000  0.18737000  0.78254000  1.0
  C  C78  1  0.31472000  0.21060000  0.67778000  1.0
  C  C79  1  0.78444000  0.18422000  0.73769000  1.0
  C  C80  1  0.54855000  0.82449000  0.70918000  1.0
  C  C81  1  0.59771000  0.77529000  0.63067000  1.0
  C  C82  1  0.60020000  0.64862000  0.62939000  1.0
  C  C83  1  0.55470000  0.56955000  0.70708000  1.0
  C  C84  1  0.50566000  0.61886000  0.78565000  1.0
  C  C85  1  0.50199000  0.74555000  0.78657000  1.0
  C  C86  1  0.54468000  0.96076000  0.71037000  1.0
  C  C87  1  0.55595000  0.43306000  0.70624000  1.0
  C  C88  1  0.67947000  0.12122000  0.44388000  1.0
  C  C89  1  0.76862000  0.11679000  0.37174000  1.0
  C  C90  1  0.83350000  0.22356000  0.33609000  1.0
  C  C91  1  0.80187000  0.33234000  0.37344000  1.0
  C  C92  1  0.71049000  0.32965000  0.44498000  1.0
  C  C93  1  0.93523000  0.21950000  0.26439000  1.0
  C  C94  1  0.05016000  0.26962000  0.27338000  1.0
  C  C95  1  0.14831000  0.25950000  0.20862000  1.0
  C  C96  1  0.13664000  0.19883000  0.13122000  1.0
  C  C97  1  0.02116000  0.15193000  0.12127000  1.0
  C  C98  1  0.92286000  0.16176000  0.18631000  1.0
  C  C99  1  0.24151000  0.18735000  0.06320000  1.0
  C  C100  1  0.32048000  0.28679000  0.03590000  1.0
  C  C101  1  0.41869000  0.27513000  0.97166000  1.0
  C  C102  1  0.36730000  0.07439000  0.96033000  1.0
  C  C103  1  0.26750000  0.07847000  0.02449000  1.0
  N  N104  1  0.34862000  0.77439000  0.51965000  1.0
  N  N105  1  0.55817000  0.82908000  0.06615000  1.0
  N  N106  1  0.65138000  0.22561000  0.48035000  1.0
  N  N107  1  0.44184000  0.17092000  0.93385000  1.0
  O  O108  1  0.63549000  0.77794000  0.40486000  1.0
  O  O109  1  0.62694000  0.79804000  0.25019000  1.0
  O  O110  1  0.27396000  0.80393000  0.33446000  1.0
  O  O111  1  0.26519000  0.83204000  0.17964000  1.0
  O  O112  1  0.45512000  0.97223000  0.36756000  1.0
  O  O113  1  0.45878000  0.00205000  0.21075000  1.0
  O  O114  1  0.44290000  0.63363000  0.21569000  1.0
  O  O115  1  0.44474000  0.60414000  0.37234000  1.0
  O  O116  1  0.36451000  0.22206000  0.59514000  1.0
  O  O117  1  0.37305000  0.20197000  0.74981000  1.0
  O  O118  1  0.72604000  0.19607000  0.66554000  1.0
  O  O119  1  0.73481000  0.16796000  0.82036000  1.0
  O  O120  1  0.54488000  0.02777000  0.63244000  1.0
  O  O121  1  0.54122000  0.99795000  0.78925000  1.0
  O  O122  1  0.55710000  0.36637000  0.78431000  1.0
  O  O123  1  0.55526000  0.39586000  0.62766000  1.0
  F  F124  1  0.18703000  0.88302000  0.82977000  1.0
  F  F125  1  0.99995000  0.90081000  0.95438000  1.0
  F  F126  1  0.81296000  0.11698000  0.17023000  1.0
  F  F127  1  0.00005000  0.09919000  0.04562000  1.0
