# generated using pymatgen
data_CdH20C23N4O7
_symmetry_space_group_name_H-M   'P 1'
_cell_length_a   10.45370000
_cell_length_b   10.78870000
_cell_length_c   11.62400000
_cell_angle_alpha   76.57400000
_cell_angle_beta   86.20930000
_cell_angle_gamma   69.53800000
_symmetry_Int_Tables_number   1
_chemical_formula_structural   CdH20C23N4O7
_chemical_formula_sum   'Cd2 H40 C46 N8 O14'
_cell_volume   1194.52833839
_cell_formula_units_Z   2
loop_
 _symmetry_equiv_pos_site_id
 _symmetry_equiv_pos_as_xyz
  1  'x, y, z'
loop_
 _atom_site_type_symbol
 _atom_site_label
 _atom_site_symmetry_multiplicity
 _atom_site_fract_x
 _atom_site_fract_y
 _atom_site_fract_z
 _atom_site_occupancy
  Cd  Cd0  1  0.35116000  0.85720000  0.37025000  1.0
  Cd  Cd1  1  0.64884000  0.14280000  0.62975000  1.0
  H  H2  1  0.29707000  0.05539000  0.53027000  1.0
  H  H3  1  0.70293000  0.94461000  0.46973000  1.0
  H  H4  1  0.21473000  0.12250000  0.40732000  1.0
  H  H5  1  0.78527000  0.87750000  0.59268000  1.0
  H  H6  1  0.96300000  0.19201000  0.37708000  1.0
  H  H7  1  0.03700000  0.80799000  0.62292000  1.0
  H  H8  1  0.19114000  0.48351000  0.33846000  1.0
  H  H9  1  0.80886000  0.51650000  0.66154000  1.0
  H  H10  1  0.88351000  0.87020000  0.34314000  1.0
  H  H11  1  0.11649000  0.12980000  0.65686000  1.0
  H  H12  1  0.76406000  0.52924000  0.33476000  1.0
  H  H13  1  0.23593000  0.47076000  0.66524000  1.0
  H  H14  1  0.37522000  0.56738000  0.57982000  1.0
  H  H15  1  0.62478000  0.43262000  0.42018000  1.0
  H  H16  1  0.54236000  0.86659000  0.59582000  1.0
  H  H17  1  0.45765000  0.13341000  0.40418000  1.0
  H  H18  1  0.61768000  0.66050000  0.80092000  1.0
  H  H19  1  0.38232000  0.33950000  0.19907000  1.0
  H  H20  1  0.58677000  0.42994000  0.86373000  1.0
  H  H21  1  0.41323000  0.57006000  0.13627000  1.0
  H  H22  1  0.49389000  0.38561000  0.76791000  1.0
  H  H23  1  0.50612000  0.61439000  0.23208000  1.0
  H  H24  1  0.31030000  0.71944000  0.82142000  1.0
  H  H25  1  0.68971000  0.28056000  0.17858000  1.0
  H  H26  1  0.10444000  0.77585000  0.94481000  1.0
  H  H27  1  0.89556000  0.22416000  0.05519000  1.0
  H  H28  1  0.04251000  0.58936000  0.08040000  1.0
  H  H29  1  0.95748000  0.41064000  0.91960000  1.0
  H  H30  1  0.18577000  0.35097000  0.09066000  1.0
  H  H31  1  0.81423000  0.64903000  0.90933000  1.0
  H  H32  1  0.43868000  0.23527000  0.87655000  1.0
  H  H33  1  0.56132000  0.76473000  0.12344000  1.0
  H  H34  1  0.52296000  0.22986000  0.00577000  1.0
  H  H35  1  0.47704000  0.77014000  0.99422000  1.0
  H  H36  1  0.20167000  0.17642000  0.91969000  1.0
  H  H37  1  0.79834000  0.82358000  0.08030000  1.0
  H  H38  1  0.15364000  0.98580000  0.11138000  1.0
  H  H39  1  0.84636000  0.01420000  0.88862000  1.0
  H  H40  1  0.49577000  0.07193000  0.19263000  1.0
  H  H41  1  0.50423000  0.92807000  0.80737000  1.0
  C  C42  1  0.65827000  0.79400000  0.33881000  1.0
  C  C43  1  0.34173000  0.20600000  0.66118000  1.0
  C  C44  1  0.15585000  0.74512000  0.34435000  1.0
  C  C45  1  0.84415000  0.25488000  0.65564000  1.0
  C  C46  1  0.02339000  0.34399000  0.33779000  1.0
  C  C47  1  0.97661000  0.65601000  0.66221000  1.0
  C  C48  1  0.98159000  0.49028000  0.33638000  1.0
  C  C49  1  0.01841000  0.50971000  0.66363000  1.0
  C  C50  1  0.08379000  0.54667000  0.33714000  1.0
  C  C51  1  0.91621000  0.45333000  0.66286000  1.0
  C  C52  1  0.04785000  0.68369000  0.33910000  1.0
  C  C53  1  0.95215000  0.31630000  0.66091000  1.0
  C  C54  1  0.90977000  0.76412000  0.33975000  1.0
  C  C55  1  0.09022000  0.23588000  0.66025000  1.0
  C  C56  1  0.80731000  0.70895000  0.33782000  1.0
  C  C57  1  0.19268000  0.29104000  0.66219000  1.0
  C  C58  1  0.84397000  0.57161000  0.33636000  1.0
  C  C59  1  0.15603000  0.42839000  0.66365000  1.0
  C  C60  1  0.42867000  0.62305000  0.61164000  1.0
  C  C61  1  0.57132000  0.37696000  0.38836000  1.0
  C  C62  1  0.51810000  0.77453000  0.62329000  1.0
  C  C63  1  0.48189000  0.22547000  0.37671000  1.0
  C  C64  1  0.55385000  0.67567000  0.72577000  1.0
  C  C65  1  0.44615000  0.32433000  0.27424000  1.0
  C  C66  1  0.49218000  0.46693000  0.81037000  1.0
  C  C67  1  0.50782000  0.53308000  0.18963000  1.0
  C  C68  1  0.36701000  0.50300000  0.88657000  1.0
  C  C69  1  0.63299000  0.49700000  0.11342000  1.0
  C  C70  1  0.28437000  0.63805000  0.88162000  1.0
  C  C71  1  0.71563000  0.36195000  0.11837000  1.0
  C  C72  1  0.16810000  0.67001000  0.95092000  1.0
  C  C73  1  0.83190000  0.32999000  0.04908000  1.0
  C  C74  1  0.13311000  0.56622000  0.02608000  1.0
  C  C75  1  0.86688000  0.43378000  0.97392000  1.0
  C  C76  1  0.21458000  0.43105000  0.03154000  1.0
  C  C77  1  0.78542000  0.56895000  0.96847000  1.0
  C  C78  1  0.33164000  0.39790000  0.96287000  1.0
  C  C79  1  0.66837000  0.60210000  0.03713000  1.0
  C  C80  1  0.42185000  0.25190000  0.96710000  1.0
  C  C81  1  0.57815000  0.74809000  0.03289000  1.0
  C  C82  1  0.25386000  0.12592000  0.00428000  1.0
  C  C83  1  0.74613000  0.87408000  0.99572000  1.0
  C  C84  1  0.23207000  0.03190000  0.09853000  1.0
  C  C85  1  0.76793000  0.96811000  0.90147000  1.0
  C  C86  1  0.40840000  0.07408000  0.14546000  1.0
  C  C87  1  0.59160000  0.92592000  0.85454000  1.0
  N  N88  1  0.44003000  0.74027000  0.55328000  1.0
  N  N89  1  0.55997000  0.25974000  0.44672000  1.0
  N  N90  1  0.49637000  0.58083000  0.71701000  1.0
  N  N91  1  0.50363000  0.41917000  0.28298000  1.0
  N  N92  1  0.36586000  0.15197000  0.03576000  1.0
  N  N93  1  0.63414000  0.84803000  0.96424000  1.0
  N  N94  1  0.32934000  0.00043000  0.18545000  1.0
  N  N95  1  0.67065000  0.99958000  0.81455000  1.0
  O  O96  1  0.62326000  0.90736000  0.36818000  1.0
  O  O97  1  0.37674000  0.09263000  0.63183000  1.0
  O  O98  1  0.25192000  0.03612000  0.46639000  1.0
  O  O99  1  0.74807000  0.96388000  0.53361000  1.0
  O  O100  1  0.57437000  0.74426000  0.30902000  1.0
  O  O101  1  0.42563000  0.25574000  0.69098000  1.0
  O  O102  1  0.11725000  0.87223000  0.33938000  1.0
  O  O103  1  0.88275000  0.12777000  0.66063000  1.0
  O  O104  1  0.28047000  0.66730000  0.35483000  1.0
  O  O105  1  0.71953000  0.33270000  0.64517000  1.0
  O  O106  1  0.13859000  0.27617000  0.31084000  1.0
  O  O107  1  0.86141000  0.72383000  0.68916000  1.0
  O  O108  1  0.92497000  0.28996000  0.37377000  1.0
  O  O109  1  0.07504000  0.71003000  0.62623000  1.0
