# generated using pymatgen
data_Cu3H9C13S3(N2Cl)3
_symmetry_space_group_name_H-M   'P 1'
_cell_length_a   8.24240000
_cell_length_b   10.86340000
_cell_length_c   12.44350000
_cell_angle_alpha   107.38790000
_cell_angle_beta   92.41540000
_cell_angle_gamma   90.33860000
_symmetry_Int_Tables_number   1
_chemical_formula_structural   Cu3H9C13S3(N2Cl)3
_chemical_formula_sum   'Cu6 H18 C26 S6 N12 Cl6'
_cell_volume   1062.13734894
_cell_formula_units_Z   2
loop_
 _symmetry_equiv_pos_site_id
 _symmetry_equiv_pos_as_xyz
  1  'x, y, z'
loop_
 _atom_site_type_symbol
 _atom_site_label
 _atom_site_symmetry_multiplicity
 _atom_site_fract_x
 _atom_site_fract_y
 _atom_site_fract_z
 _atom_site_occupancy
  Cu  Cu0  1  0.29760000  0.86490000  0.16996000  1.0
  Cu  Cu1  1  0.70240000  0.13510000  0.83004000  1.0
  Cu  Cu2  1  0.53099000  0.35267000  0.47800000  1.0
  Cu  Cu3  1  0.46901000  0.64733000  0.52200000  1.0
  Cu  Cu4  1  0.91190000  0.63829000  0.02825000  1.0
  Cu  Cu5  1  0.08809000  0.36171000  0.97175000  1.0
  H  H6  1  0.08520000  0.07342000  0.10969000  1.0
  H  H7  1  0.91480000  0.92657000  0.89031000  1.0
  H  H8  1  0.05752000  0.31514000  0.19592000  1.0
  H  H9  1  0.94248000  0.68485000  0.80408000  1.0
  H  H10  1  0.25625000  0.42647000  0.35823000  1.0
  H  H11  1  0.74375000  0.57353000  0.64177000  1.0
  H  H12  1  0.21541000  0.64832000  0.94739000  1.0
  H  H13  1  0.78459000  0.35168000  0.05261000  1.0
  H  H14  1  0.37928000  0.49239000  0.80262000  1.0
  H  H15  1  0.62071000  0.50762000  0.19738000  1.0
  H  H16  1  0.68677000  0.49667000  0.84245000  1.0
  H  H17  1  0.31322000  0.50333000  0.15755000  1.0
  H  H18  1  0.95933000  0.83161000  0.27915000  1.0
  H  H19  1  0.04068000  0.16839000  0.72086000  1.0
  H  H20  1  0.87775000  0.72929000  0.42887000  1.0
  H  H21  1  0.12225000  0.27071000  0.57113000  1.0
  H  H22  1  0.10536000  0.64240000  0.52821000  1.0
  H  H23  1  0.89465000  0.35759000  0.47179000  1.0
  C  C24  1  0.51586000  0.89077000  0.26293000  1.0
  C  C25  1  0.48413000  0.10923000  0.73706000  1.0
  C  C26  1  0.38505000  0.13045000  0.30040000  1.0
  C  C27  1  0.61495000  0.86954000  0.69960000  1.0
  C  C28  1  0.16611000  0.12939000  0.17878000  1.0
  C  C29  1  0.83389000  0.87061000  0.82122000  1.0
  C  C30  1  0.15018000  0.26157000  0.22683000  1.0
  C  C31  1  0.84982000  0.73844000  0.77317000  1.0
  C  C32  1  0.25977000  0.32337000  0.31452000  1.0
  C  C33  1  0.74023000  0.67663000  0.68548000  1.0
  C  C34  1  0.58198000  0.73493000  0.05789000  1.0
  C  C35  1  0.41802000  0.26508000  0.94211000  1.0
  C  C36  1  0.34741000  0.64756000  0.95558000  1.0
  C  C37  1  0.65258000  0.35244000  0.04443000  1.0
  C  C38  1  0.43828000  0.56026000  0.87680000  1.0
  C  C39  1  0.56171000  0.43974000  0.12320000  1.0
  C  C40  1  0.60506000  0.56365000  0.89694000  1.0
  C  C41  1  0.39493000  0.43635000  0.10306000  1.0
  C  C42  1  0.31768000  0.76405000  0.36618000  1.0
  C  C43  1  0.68233000  0.23594000  0.63382000  1.0
  C  C44  1  0.04887000  0.79764000  0.33023000  1.0
  C  C45  1  0.95113000  0.20236000  0.66977000  1.0
  C  C46  1  0.00460000  0.74153000  0.41221000  1.0
  C  C47  1  0.99541000  0.25846000  0.58780000  1.0
  C  C48  1  0.12789000  0.69322000  0.46656000  1.0
  C  C49  1  0.87211000  0.30677000  0.53343000  1.0
  S  S50  1  0.53861000  0.05287000  0.35427000  1.0
  S  S51  1  0.46139000  0.94712000  0.64573000  1.0
  S  S52  1  0.67951000  0.85410000  0.16878000  1.0
  S  S53  1  0.32049000  0.14590000  0.83122000  1.0
  S  S54  1  0.52315000  0.77705000  0.34300000  1.0
  S  S55  1  0.47685000  0.22295000  0.65700000  1.0
  N  N56  1  0.28214000  0.06314000  0.21598000  1.0
  N  N57  1  0.71786000  0.93685000  0.78402000  1.0
  N  N58  1  0.41858000  0.73531000  0.04576000  1.0
  N  N59  1  0.58142000  0.26469000  0.95424000  1.0
  N  N60  1  0.20514000  0.80852000  0.30678000  1.0
  N  N61  1  0.79486000  0.19148000  0.69322000  1.0
  N  N62  1  0.37811000  0.25873000  0.35137000  1.0
  N  N63  1  0.62189000  0.74126000  0.64864000  1.0
  N  N64  1  0.67813000  0.64949000  0.98860000  1.0
  N  N65  1  0.32187000  0.35052000  0.01139000  1.0
  N  N66  1  0.28579000  0.70501000  0.44488000  1.0
  N  N67  1  0.71422000  0.29499000  0.55512000  1.0
  Cl  Cl68  1  0.04988000  0.83071000  0.06049000  1.0
  Cl  Cl69  1  0.95012000  0.16930000  0.93951000  1.0
  Cl  Cl70  1  0.66474000  0.51035000  0.40941000  1.0
  Cl  Cl71  1  0.33527000  0.48965000  0.59059000  1.0
  Cl  Cl72  1  0.00103000  0.52389000  0.14617000  1.0
  Cl  Cl73  1  0.99896000  0.47611000  0.85383000  1.0
