# generated using pymatgen
data_CoH7C13NO4
_symmetry_space_group_name_H-M   'P 1'
_cell_length_a   11.83070000
_cell_length_b   13.89780000
_cell_length_c   13.95228047
_cell_angle_alpha   89.99935978
_cell_angle_beta   65.17467075
_cell_angle_gamma   89.99960000
_symmetry_Int_Tables_number   1
_chemical_formula_structural   CoH7C13NO4
_chemical_formula_sum   'Co4 H28 C52 N4 O16'
_cell_volume   2082.05566618
_cell_formula_units_Z   4
loop_
 _symmetry_equiv_pos_site_id
 _symmetry_equiv_pos_as_xyz
  1  'x, y, z'
loop_
 _atom_site_type_symbol
 _atom_site_label
 _atom_site_symmetry_multiplicity
 _atom_site_fract_x
 _atom_site_fract_y
 _atom_site_fract_z
 _atom_site_occupancy
  Co  Co0  1  0.94854000  0.54642000  0.96238000  1.0
  Co  Co1  1  0.55146000  0.04643000  0.53764000  1.0
  Co  Co2  1  0.05147000  0.45356000  0.03766000  1.0
  Co  Co3  1  0.44853000  0.95357000  0.46237000  1.0
  H  H4  1  0.75952000  0.46454000  0.89962000  1.0
  H  H5  1  0.74049000  0.96456000  0.60037000  1.0
  H  H6  1  0.24048000  0.53545000  0.10039000  1.0
  H  H7  1  0.25951000  0.03547000  0.39960000  1.0
  H  H8  1  0.58928000  0.51084000  0.84766000  1.0
  H  H9  1  0.91074000  0.01086000  0.65231000  1.0
  H  H10  1  0.41075000  0.48916000  0.15231000  1.0
  H  H11  1  0.08926000  0.98917000  0.34766000  1.0
  H  H12  1  0.69556000  0.80743000  0.85427000  1.0
  H  H13  1  0.80442000  0.30745000  0.64571000  1.0
  H  H14  1  0.30444000  0.19257000  0.14571000  1.0
  H  H15  1  0.19555000  0.69258000  0.35427000  1.0
  H  H16  1  0.86185000  0.74771000  0.90578000  1.0
  H  H17  1  0.63815000  0.24771000  0.59421000  1.0
  H  H18  1  0.13816000  0.25230000  0.09421000  1.0
  H  H19  1  0.36184000  0.75231000  0.40577000  1.0
  H  H20  1  0.25304000  0.74781000  0.73680000  1.0
  H  H21  1  0.24694000  0.24780000  0.76323000  1.0
  H  H22  1  0.74694000  0.25217000  0.26322000  1.0
  H  H23  1  0.75304000  0.75217000  0.23680000  1.0
  H  H24  1  0.61623000  0.81392000  0.72049000  1.0
  H  H25  1  0.88376000  0.31393000  0.77953000  1.0
  H  H26  1  0.38376000  0.18607000  0.27950000  1.0
  H  H27  1  0.11623000  0.68608000  0.22051000  1.0
  H  H28  1  0.40234000  0.57840000  0.91355000  1.0
  H  H29  1  0.09768000  0.07844000  0.58641000  1.0
  H  H30  1  0.59769000  0.42159000  0.08643000  1.0
  H  H31  1  0.90234000  0.92162000  0.41353000  1.0
  C  C32  1  0.74169000  0.53966000  0.88859000  1.0
  C  C33  1  0.75832000  0.03968000  0.61140000  1.0
  C  C34  1  0.25832000  0.46034000  0.11141000  1.0
  C  C35  1  0.24168000  0.96035000  0.38858000  1.0
  C  C36  1  0.64682000  0.56616000  0.86044000  1.0
  C  C37  1  0.85319000  0.06618000  0.63954000  1.0
  C  C38  1  0.35319000  0.43383000  0.13954000  1.0
  C  C39  1  0.14681000  0.93385000  0.36043000  1.0
  C  C40  1  0.62663000  0.66390000  0.84711000  1.0
  C  C41  1  0.87338000  0.16393000  0.65287000  1.0
  C  C42  1  0.37338000  0.33609000  0.15287000  1.0
  C  C43  1  0.12662000  0.83611000  0.34711000  1.0
  C  C44  1  0.70700000  0.73039000  0.86226000  1.0
  C  C45  1  0.79301000  0.23041000  0.63772000  1.0
  C  C46  1  0.29301000  0.26961000  0.13773000  1.0
  C  C47  1  0.20698000  0.76962000  0.36226000  1.0
  C  C48  1  0.79963000  0.69767000  0.89128000  1.0
  C  C49  1  0.70037000  0.19769000  0.60871000  1.0
  C  C50  1  0.20038000  0.30233000  0.10872000  1.0
  C  C51  1  0.29962000  0.80234000  0.39127000  1.0
  C  C52  1  0.32761000  0.73280000  0.76097000  1.0
  C  C53  1  0.17237000  0.23280000  0.73905000  1.0
  C  C54  1  0.67237000  0.26718000  0.23904000  1.0
  C  C55  1  0.82761000  0.76719000  0.26097000  1.0
  C  C56  1  0.43631000  0.78848000  0.72176000  1.0
  C  C57  1  0.06369000  0.28848000  0.77825000  1.0
  C  C58  1  0.56368000  0.21150000  0.27824000  1.0
  C  C59  1  0.93631000  0.71151000  0.22177000  1.0
  C  C60  1  0.53252000  0.76959000  0.75263000  1.0
  C  C61  1  0.96748000  0.26960000  0.74737000  1.0
  C  C62  1  0.46747000  0.23040000  0.24736000  1.0
  C  C63  1  0.03252000  0.73041000  0.25264000  1.0
  C  C64  1  0.52372000  0.69188000  0.81942000  1.0
  C  C65  1  0.97629000  0.19190000  0.68057000  1.0
  C  C66  1  0.47628000  0.30810000  0.18058000  1.0
  C  C67  1  0.02372000  0.80812000  0.31941000  1.0
  C  C68  1  0.41391000  0.63755000  0.85906000  1.0
  C  C69  1  0.08610000  0.13757000  0.64092000  1.0
  C  C70  1  0.58610000  0.36244000  0.14094000  1.0
  C  C71  1  0.91390000  0.86246000  0.35905000  1.0
  C  C72  1  0.31526000  0.65838000  0.83211000  1.0
  C  C73  1  0.18474000  0.15839000  0.66789000  1.0
  C  C74  1  0.68475000  0.34160000  0.16790000  1.0
  C  C75  1  0.81524000  0.84162000  0.33211000  1.0
  C  C76  1  0.45352000  0.86643000  0.64331000  1.0
  C  C77  1  0.04650000  0.36643000  0.85670000  1.0
  C  C78  1  0.54648000  0.13354000  0.35668000  1.0
  C  C79  1  0.95353000  0.63355000  0.14333000  1.0
  C  C80  1  0.19883000  0.60003000  0.88316000  1.0
  C  C81  1  0.30117000  0.10004000  0.61686000  1.0
  C  C82  1  0.80118000  0.39995000  0.11687000  1.0
  C  C83  1  0.69882000  0.89996000  0.38316000  1.0
  N  N84  1  0.81692000  0.60391000  0.90471000  1.0
  N  N85  1  0.68310000  0.10393000  0.59528000  1.0
  N  N86  1  0.18309000  0.39608000  0.09529000  1.0
  N  N87  1  0.31691000  0.89610000  0.40470000  1.0
  O  O88  1  0.10158000  0.62320000  0.87047000  1.0
  O  O89  1  0.39841000  0.12321000  0.62956000  1.0
  O  O90  1  0.89842000  0.37677000  0.12957000  1.0
  O  O91  1  0.60157000  0.87679000  0.37047000  1.0
  O  O92  1  0.20364000  0.52994000  0.94032000  1.0
  O  O93  1  0.29636000  0.02995000  0.55970000  1.0
  O  O94  1  0.79638000  0.47004000  0.05971000  1.0
  O  O95  1  0.70364000  0.97004000  0.44031000  1.0
  O  O96  1  0.40766000  0.85372000  0.57630000  1.0
  O  O97  1  0.09235000  0.35371000  0.92372000  1.0
  O  O98  1  0.59234000  0.14626000  0.42369000  1.0
  O  O99  1  0.90768000  0.64626000  0.07631000  1.0
  O  O100  1  0.51581000  0.94047000  0.64625000  1.0
  O  O101  1  0.98422000  0.44048000  0.85376000  1.0
  O  O102  1  0.48421000  0.05950000  0.35374000  1.0
  O  O103  1  0.01580000  0.55950000  0.14628000  1.0
