# generated using pymatgen
data_ZnH8C19Br2N2(ClO2)2
_symmetry_space_group_name_H-M   'P 1'
_cell_length_a   21.51280000
_cell_length_b   21.68470000
_cell_length_c   21.76210000
_cell_angle_alpha   119.84030000
_cell_angle_beta   116.24840000
_cell_angle_gamma   90.02420000
_symmetry_Int_Tables_number   1
_chemical_formula_structural   ZnH8C19Br2N2(ClO2)2
_chemical_formula_sum   'Zn4 H32 C76 Br8 N8 Cl8 O16'
_cell_volume   7574.13777681
_cell_formula_units_Z   4
loop_
 _symmetry_equiv_pos_site_id
 _symmetry_equiv_pos_as_xyz
  1  'x, y, z'
loop_
 _atom_site_type_symbol
 _atom_site_label
 _atom_site_symmetry_multiplicity
 _atom_site_fract_x
 _atom_site_fract_y
 _atom_site_fract_z
 _atom_site_occupancy
  Zn  Zn0  1  0.44978000  0.95208000  0.90387000  1.0
  Zn  Zn1  1  0.54118000  0.04425000  0.08817000  1.0
  Zn  Zn2  1  0.02908000  0.54422000  0.08886000  1.0
  Zn  Zn3  1  0.96799000  0.45928000  0.91601000  1.0
  H  H4  1  0.17306000  0.60982000  0.21494000  1.0
  H  H5  1  0.25280000  0.68909000  0.37030000  1.0
  H  H6  1  0.40636000  0.80404000  0.60043000  1.0
  H  H7  1  0.21153000  0.78962000  0.61099000  1.0
  H  H8  1  0.82399000  0.39638000  0.78746000  1.0
  H  H9  1  0.74454000  0.31713000  0.63179000  1.0
  H  H10  1  0.59540000  0.23376000  0.40072000  1.0
  H  H11  1  0.78573000  0.18273000  0.39000000  1.0
  H  H12  1  0.28908000  0.69604000  0.91926000  1.0
  H  H13  1  0.29481000  0.79443000  0.15881000  1.0
  H  H14  1  0.09195000  0.58596000  0.89516000  1.0
  H  H15  1  0.17343000  0.66541000  0.89325000  1.0
  H  H16  1  0.38832000  0.96493000  0.13669000  1.0
  H  H17  1  0.30508000  0.88555000  0.13694000  1.0
  H  H18  1  0.62602000  0.19405000  0.88530000  1.0
  H  H19  1  0.87069000  0.28806000  0.09795000  1.0
  H  H20  1  0.76868000  0.31896000  0.86539000  1.0
  H  H21  1  0.68957000  0.24180000  0.87017000  1.0
  H  H22  1  0.72880000  0.15817000  0.11414000  1.0
  H  H23  1  0.81013000  0.22695000  0.10348000  1.0
  H  H24  1  0.62567000  0.67631000  0.84614000  1.0
  H  H25  1  0.85748000  0.80961000  0.05093000  1.0
  H  H26  1  0.76921000  0.53703000  0.90131000  1.0
  H  H27  1  0.68062000  0.61022000  0.89470000  1.0
  H  H28  1  0.69175000  0.92869000  0.08807000  1.0
  H  H29  1  0.78130000  0.85646000  0.09418000  1.0
  H  H30  1  0.25236000  0.20305000  0.88349000  1.0
  H  H31  1  0.30378000  0.36436000  0.14186000  1.0
  H  H32  1  0.06938000  0.29922000  0.89783000  1.0
  H  H33  1  0.14562000  0.21272000  0.88405000  1.0
  H  H34  1  0.39630000  0.16759000  0.10794000  1.0
  H  H35  1  0.31771000  0.25149000  0.12466000  1.0
  C  C36  1  0.58886000  0.08862000  0.01352000  1.0
  C  C37  1  0.56161000  0.89615000  0.96940000  1.0
  C  C38  1  0.42763000  0.92995000  0.02652000  1.0
  C  C39  1  0.41133000  0.08150000  0.98193000  1.0
  C  C40  1  0.91196000  0.58287000  0.98845000  1.0
  C  C41  1  0.90554000  0.40218000  0.97667000  1.0
  C  C42  1  0.09064000  0.42657000  0.02613000  1.0
  C  C43  1  0.09261000  0.59215000  0.01856000  1.0
  C  C44  1  0.15087000  0.62957000  0.25546000  1.0
  C  C45  1  0.19416000  0.67256000  0.34017000  1.0
  C  C46  1  0.16123000  0.69563000  0.38796000  1.0
  C  C47  1  0.08533000  0.67456000  0.34842000  1.0
  C  C48  1  0.04535000  0.63139000  0.26159000  1.0
  C  C49  1  0.37880000  0.81843000  0.63515000  1.0
  C  C50  1  0.30386000  0.79212000  0.59501000  1.0
  C  C51  1  0.26975000  0.81043000  0.64111000  1.0
  C  C52  1  0.31316000  0.85472000  0.72635000  1.0
  C  C53  1  0.41689000  0.86474000  0.72095000  1.0
  C  C54  1  0.84637000  0.37630000  0.74712000  1.0
  C  C55  1  0.80324000  0.33333333  0.66224000  1.0
  C  C56  1  0.83652000  0.30939000  0.61480000  1.0
  C  C57  1  0.91242000  0.33036000  0.65493000  1.0
  C  C58  1  0.95202000  0.37419000  0.74172000  1.0
  C  C59  1  0.62137000  0.20431000  0.36609000  1.0
  C  C60  1  0.69573000  0.21404000  0.40632000  1.0
  C  C61  1  0.72788000  0.17594000  0.36015000  1.0
  C  C62  1  0.68311000  0.12982000  0.27509000  1.0
  C  C63  1  0.58180000  0.15537000  0.28052000  1.0
  C  C64  1  0.38249000  0.87723000  0.02653000  1.0
  C  C65  1  0.14583000  0.64418000  0.02605000  1.0
  C  C66  1  0.35388000  0.80070000  0.96538000  1.0
  C  C67  1  0.30857000  0.75537000  0.96614000  1.0
  C  C68  1  0.20369000  0.70454000  0.10039000  1.0
  C  C69  1  0.25002000  0.74930000  0.09999000  1.0
  C  C70  1  0.13730000  0.63188000  0.95253000  1.0
  C  C71  1  0.18317000  0.67615000  0.95179000  1.0
  C  C72  1  0.36526000  0.90579000  0.08880000  1.0
  C  C73  1  0.31942000  0.86107000  0.08927000  1.0
  C  C74  1  0.28996000  0.78482000  0.02736000  1.0
  C  C75  1  0.24073000  0.73619000  0.02618000  1.0
  C  C76  1  0.63319000  0.13431000  0.00547000  1.0
  C  C77  1  0.86260000  0.34974000  0.97904000  1.0
  C  C78  1  0.60556000  0.14578000  0.94125000  1.0
  C  C79  1  0.65092000  0.18592000  0.93543000  1.0
  C  C80  1  0.89017000  0.33871000  0.04357000  1.0
  C  C81  1  0.84608000  0.29430000  0.04641000  1.0
  C  C82  1  0.79013000  0.31216000  0.91667000  1.0
  C  C83  1  0.74576000  0.26856000  0.91979000  1.0
  C  C84  1  0.70740000  0.16570000  0.06338000  1.0
  C  C85  1  0.75283000  0.20479000  0.05707000  1.0
  C  C86  1  0.72553000  0.21592000  0.99251000  1.0
  C  C87  1  0.77254000  0.25946000  0.98579000  1.0
  C  C88  1  0.60949000  0.84550000  0.96550000  1.0
  C  C89  1  0.86250000  0.63106000  0.98279000  1.0
  C  C90  1  0.59161000  0.77299000  0.89760000  1.0
  C  C91  1  0.64149000  0.73173000  0.90043000  1.0
  C  C92  1  0.88638000  0.70854000  0.02508000  1.0
  C  C93  1  0.83697000  0.74997000  0.01943000  1.0
  C  C94  1  0.78772000  0.59716000  0.93449000  1.0
  C  C95  1  0.73827000  0.63822000  0.93008000  1.0
  C  C96  1  0.67881000  0.87335000  0.03515000  1.0
  C  C97  1  0.72865000  0.83287000  0.03815000  1.0
  C  C98  1  0.71061000  0.76062000  0.97024000  1.0
  C  C99  1  0.76225000  0.71578000  0.97290000  1.0
  C  C100  1  0.36624000  0.13486000  0.98640000  1.0
  C  C101  1  0.14115000  0.37877000  0.02639000  1.0
  C  C102  1  0.32477000  0.14582000  0.92315000  1.0
  C  C103  1  0.28204000  0.19443000  0.93277000  1.0
  C  C104  1  0.20755000  0.39553000  0.09524000  1.0
  C  C105  1  0.25161000  0.34813000  0.08781000  1.0
  C  C106  1  0.12095000  0.31225000  0.95092000  1.0
  C  C107  1  0.16404000  0.26458000  0.94331000  1.0
  C  C108  1  0.36334000  0.17553000  0.05889000  1.0
  C  C109  1  0.32026000  0.22309000  0.06841000  1.0
  C  C110  1  0.27819000  0.23294000  0.00464000  1.0
  C  C111  1  0.23084000  0.28223000  0.01201000  1.0
  Br  Br112  1  0.94389000  0.60307000  0.20440000  1.0
  Br  Br113  1  0.03964000  0.70203000  0.41079000  1.0
  Br  Br114  1  0.51731000  0.90365000  0.77296000  1.0
  Br  Br115  1  0.26699000  0.87540000  0.78784000  1.0
  Br  Br116  1  0.05364000  0.40277000  0.79925000  1.0
  Br  Br117  1  0.95799000  0.30185000  0.59238000  1.0
  Br  Br118  1  0.48086000  0.14123000  0.22871000  1.0
  Br  Br119  1  0.72738000  0.07849000  0.21370000  1.0
  N  N120  1  0.07789000  0.60970000  0.21726000  1.0
  N  N121  1  0.20024000  0.74220000  0.47484000  1.0
  N  N122  1  0.26632000  0.74511000  0.50785000  1.0
  N  N123  1  0.38560000  0.88264000  0.76691000  1.0
  N  N124  1  0.91934000  0.39610000  0.78597000  1.0
  N  N125  1  0.79761000  0.26076000  0.52813000  1.0
  N  N126  1  0.73428000  0.26483000  0.49336000  1.0
  N  N127  1  0.61111000  0.11891000  0.23442000  1.0
  Cl  Cl128  1  0.37668000  0.75850000  0.88983000  1.0
  Cl  Cl129  1  0.22223000  0.72967000  0.19725000  1.0
  Cl  Cl130  1  0.51416000  0.11549000  0.86959000  1.0
  Cl  Cl131  1  0.98036000  0.37689000  0.12054000  1.0
  Cl  Cl132  1  0.50801000  0.72855000  0.80750000  1.0
  Cl  Cl133  1  0.97731000  0.75572000  0.08250000  1.0
  Cl  Cl134  1  0.32514000  0.10339000  0.83168000  1.0
  Cl  Cl135  1  0.24123000  0.47646000  0.19198000  1.0
  O  O136  1  0.53960000  0.03170000  0.94772000  1.0
  O  O137  1  0.60619000  0.10954000  0.08681000  1.0
  O  O138  1  0.58044000  0.95286000  0.04033000  1.0
  O  O139  1  0.50711000  0.87952000  0.90158000  1.0
  O  O140  1  0.48069000  0.98157000  0.09657000  1.0
  O  O141  1  0.40831000  0.92080000  0.95796000  1.0
  O  O142  1  0.39500000  0.02719000  0.91043000  1.0
  O  O143  1  0.46072000  0.09372000  0.05016000  1.0
  O  O144  1  0.96477000  0.60605000  0.05957000  1.0
  O  O145  1  0.89530000  0.52153000  0.92158000  1.0
  O  O146  1  0.89973000  0.38210000  0.90813000  1.0
  O  O147  1  0.94306000  0.46439000  0.04455000  1.0
  O  O148  1  0.04945000  0.41689000  0.95617000  1.0
  O  O149  1  0.09132000  0.47127000  0.09226000  1.0
  O  O150  1  0.10527000  0.59495000  0.08282000  1.0
  O  O151  1  0.03802000  0.54777000  0.94658000  1.0
