# generated using pymatgen
data_CdH22C30(N2O)4
_symmetry_space_group_name_H-M   'P 1'
_cell_length_a   9.25163000
_cell_length_b   11.41530000
_cell_length_c   13.45770000
_cell_angle_alpha   75.83180000
_cell_angle_beta   83.32800000
_cell_angle_gamma   80.29310000
_symmetry_Int_Tables_number   1
_chemical_formula_structural   CdH22C30(N2O)4
_chemical_formula_sum   'Cd2 H44 C60 N16 O8'
_cell_volume   1354.12766558
_cell_formula_units_Z   2
loop_
 _symmetry_equiv_pos_site_id
 _symmetry_equiv_pos_as_xyz
  1  'x, y, z'
loop_
 _atom_site_type_symbol
 _atom_site_label
 _atom_site_symmetry_multiplicity
 _atom_site_fract_x
 _atom_site_fract_y
 _atom_site_fract_z
 _atom_site_occupancy
  Cd  Cd0  1  0.27550000  0.65051000  0.81205000  1.0
  Cd  Cd1  1  0.72449000  0.34949000  0.18795000  1.0
  H  H2  1  0.59393000  0.76775000  0.98992000  1.0
  H  H3  1  0.40607000  0.23225000  0.01008000  1.0
  H  H4  1  0.70443000  0.83120000  0.12524000  1.0
  H  H5  1  0.29557000  0.16880000  0.87476000  1.0
  H  H6  1  0.27314000  0.98726000  0.22818000  1.0
  H  H7  1  0.72685000  0.01274000  0.77182000  1.0
  H  H8  1  0.16403000  0.91846000  0.09432000  1.0
  H  H9  1  0.83597000  0.08154000  0.90568000  1.0
  H  H10  1  0.62296000  0.86641000  0.31913000  1.0
  H  H11  1  0.37704000  0.13359000  0.68087000  1.0
  H  H12  1  0.64609000  0.00868000  0.23292000  1.0
  H  H13  1  0.35391000  0.99132000  0.76708000  1.0
  H  H14  1  0.44797000  0.19148000  0.24402000  1.0
  H  H15  1  0.55203000  0.80852000  0.75598000  1.0
  H  H16  1  0.22875000  0.23237000  0.39756000  1.0
  H  H17  1  0.77125000  0.76763000  0.60244000  1.0
  H  H18  1  0.93386000  0.10604000  0.69549000  1.0
  H  H19  1  0.06613000  0.89396000  0.30451000  1.0
  H  H20  1  0.99438000  0.89469000  0.80841000  1.0
  H  H21  1  0.00562000  0.10531000  0.19159000  1.0
  H  H22  1  0.32729000  0.81058000  0.59095000  1.0
  H  H23  1  0.67270000  0.18942000  0.40905000  1.0
  H  H24  1  0.60097000  0.67586000  0.51882000  1.0
  H  H25  1  0.39903000  0.32414000  0.48118000  1.0
  H  H26  1  0.79714000  0.61878000  0.38856000  1.0
  H  H27  1  0.20286000  0.38122000  0.61144000  1.0
  H  H28  1  0.82201000  0.24143000  0.55151000  1.0
  H  H29  1  0.17799000  0.75857000  0.44849000  1.0
  H  H30  1  0.63131000  0.30160000  0.68478000  1.0
  H  H31  1  0.36869000  0.69840000  0.31522000  1.0
  H  H32  1  0.05778000  0.38109000  0.42623000  1.0
  H  H33  1  0.94222000  0.61891000  0.57376000  1.0
  H  H34  1  0.94693000  0.30072000  0.37570000  1.0
  H  H35  1  0.05307000  0.69928000  0.62430000  1.0
  H  H36  1  0.10915000  0.59046000  0.32066000  1.0
  H  H37  1  0.89085000  0.40954000  0.67934000  1.0
  H  H38  1  0.05855000  0.71353000  0.12019000  1.0
  H  H39  1  0.94144000  0.28647000  0.87981000  1.0
  H  H40  1  0.95715000  0.73992000  0.95851000  1.0
  H  H41  1  0.04285000  0.26008000  0.04149000  1.0
  H  H42  1  0.68609000  0.62161000  0.78877000  1.0
  H  H43  1  0.31391000  0.37839000  0.21123000  1.0
  H  H44  1  0.63130000  0.45365000  0.94020000  1.0
  H  H45  1  0.36870000  0.54635000  0.05980000  1.0
  C  C46  1  0.30949000  0.79120000  0.95704000  1.0
  C  C47  1  0.69051000  0.20880000  0.04297000  1.0
  C  C48  1  0.37282000  0.83737000  0.03505000  1.0
  C  C49  1  0.62718000  0.16263000  0.96495000  1.0
  C  C50  1  0.52507000  0.81493000  0.04332000  1.0
  C  C51  1  0.47493000  0.18507000  0.95667000  1.0
  C  C52  1  0.58573000  0.85079000  0.11874000  1.0
  C  C53  1  0.41427000  0.14921000  0.88126000  1.0
  C  C54  1  0.49518000  0.91131000  0.18693000  1.0
  C  C55  1  0.50482000  0.08869000  0.81307000  1.0
  C  C56  1  0.34342000  0.93692000  0.17714000  1.0
  C  C57  1  0.65658000  0.06308000  0.82286000  1.0
  C  C58  1  0.28232000  0.89942000  0.10224000  1.0
  C  C59  1  0.71768000  0.10057000  0.89776000  1.0
  C  C60  1  0.56522000  0.94745000  0.26902000  1.0
  C  C61  1  0.43478000  0.05255000  0.73097000  1.0
  C  C62  1  0.40451000  0.13075000  0.31197000  1.0
  C  C63  1  0.59550000  0.86925000  0.68803000  1.0
  C  C64  1  0.29563000  0.14774000  0.38867000  1.0
  C  C65  1  0.70437000  0.85226000  0.61133000  1.0
  C  C66  1  0.29369000  0.03046000  0.45474000  1.0
  C  C67  1  0.70631000  0.96954000  0.54526000  1.0
  C  C68  1  0.20590000  0.99492000  0.55121000  1.0
  C  C69  1  0.79410000  0.00508000  0.44879000  1.0
  C  C70  1  0.02246000  0.04000000  0.67138000  1.0
  C  C71  1  0.97754000  0.96000000  0.32861000  1.0
  C  C72  1  0.05404000  0.92349000  0.73412000  1.0
  C  C73  1  0.94596000  0.07651000  0.26588000  1.0
  C  C74  1  0.23813000  0.87666000  0.61382000  1.0
  C  C75  1  0.76187000  0.12334000  0.38618000  1.0
  C  C76  1  0.49969000  0.52996000  0.69400000  1.0
  C  C77  1  0.50031000  0.47004000  0.30600000  1.0
  C  C78  1  0.60848000  0.49285000  0.61144000  1.0
  C  C79  1  0.39152000  0.50715000  0.38856000  1.0
  C  C80  1  0.65295000  0.58136000  0.52649000  1.0
  C  C81  1  0.34705000  0.41864000  0.47350000  1.0
  C  C82  1  0.76224000  0.54866000  0.45365000  1.0
  C  C83  1  0.23776000  0.45133000  0.54635000  1.0
  C  C84  1  0.82633000  0.42669000  0.46345000  1.0
  C  C85  1  0.17367000  0.57331000  0.53655000  1.0
  C  C86  1  0.77595000  0.33717000  0.54540000  1.0
  C  C87  1  0.22405000  0.66283000  0.45460000  1.0
  C  C88  1  0.66872000  0.37007000  0.61935000  1.0
  C  C89  1  0.33128000  0.62993000  0.38065000  1.0
  C  C90  1  0.95386000  0.38957000  0.39094000  1.0
  C  C91  1  0.04614000  0.61043000  0.60905000  1.0
  C  C92  1  0.04019000  0.57394000  0.26706000  1.0
  C  C93  1  0.95981000  0.42606000  0.73294000  1.0
  C  C94  1  0.01164000  0.63510000  0.16724000  1.0
  C  C95  1  0.98836000  0.36490000  0.83276000  1.0
  C  C96  1  0.91585000  0.56756000  0.13765000  1.0
  C  C97  1  0.08415000  0.43244000  0.86235000  1.0
  C  C98  1  0.85137000  0.58425000  0.04034000  1.0
  C  C99  1  0.14863000  0.41575000  0.95966000  1.0
  C  C100  1  0.88160000  0.67750000  0.95455000  1.0
  C  C101  1  0.11840000  0.32250000  0.04545000  1.0
  C  C102  1  0.73459000  0.61186000  0.86089000  1.0
  C  C103  1  0.26541000  0.38815000  0.13911000  1.0
  C  C104  1  0.70354000  0.51796000  0.94528000  1.0
  C  C105  1  0.29646000  0.48204000  0.05472000  1.0
  N  N106  1  0.46042000  0.00974000  0.33441000  1.0
  N  N107  1  0.53958000  0.99026000  0.66559000  1.0
  N  N108  1  0.39461000  0.94602000  0.42007000  1.0
  N  N109  1  0.60539000  0.05398000  0.57993000  1.0
  N  N110  1  0.09714000  0.07718000  0.58066000  1.0
  N  N111  1  0.90286000  0.92282000  0.41934000  1.0
  N  N112  1  0.16319000  0.84187000  0.70458000  1.0
  N  N113  1  0.83681000  0.15813000  0.29542000  1.0
  N  N114  1  0.96523000  0.47659000  0.29251000  1.0
  N  N115  1  0.03477000  0.52341000  0.70749000  1.0
  N  N116  1  0.88872000  0.47196000  0.21510000  1.0
  N  N117  1  0.11128000  0.52805000  0.78490000  1.0
  N  N118  1  0.76260000  0.50403000  0.03410000  1.0
  N  N119  1  0.23740000  0.49597000  0.96590000  1.0
  N  N120  1  0.82423000  0.69109000  0.86474000  1.0
  N  N121  1  0.17577000  0.30891000  0.13526000  1.0
  O  O122  1  0.40367000  0.74385000  0.89362000  1.0
  O  O123  1  0.59633000  0.25614000  0.10638000  1.0
  O  O124  1  0.17203000  0.79640000  0.95717000  1.0
  O  O125  1  0.82797000  0.20360000  0.04283000  1.0
  O  O126  1  0.48049000  0.45603000  0.77899000  1.0
  O  O127  1  0.51950000  0.54397000  0.22101000  1.0
  O  O128  1  0.43310000  0.64106000  0.67212000  1.0
  O  O129  1  0.56690000  0.35894000  0.32788000  1.0
