# generated using pymatgen
data_ZnH16C24(NO2)2
_symmetry_space_group_name_H-M   'P 1'
_cell_length_a   11.49790000
_cell_length_b   12.26130000
_cell_length_c   17.01470000
_cell_angle_alpha   90.00010000
_cell_angle_beta   90.00010000
_cell_angle_gamma   93.66120000
_symmetry_Int_Tables_number   1
_chemical_formula_structural   ZnH16C24(NO2)2
_chemical_formula_sum   'Zn4 H64 C96 N8 O16'
_cell_volume   2393.82324649
_cell_formula_units_Z   4
loop_
 _symmetry_equiv_pos_site_id
 _symmetry_equiv_pos_as_xyz
  1  'x, y, z'
loop_
 _atom_site_type_symbol
 _atom_site_label
 _atom_site_symmetry_multiplicity
 _atom_site_fract_x
 _atom_site_fract_y
 _atom_site_fract_z
 _atom_site_occupancy
  Zn  Zn0  1  0.24835000  0.24882000  0.03006000  1.0
  Zn  Zn1  1  0.25165000  0.75118000  0.53006000  1.0
  Zn  Zn2  1  0.75165000  0.75118000  0.96994000  1.0
  Zn  Zn3  1  0.74835000  0.24882000  0.46994000  1.0
  H  H4  1  0.98862000  0.44882000  0.89438000  1.0
  H  H5  1  0.51138000  0.55118000  0.39438000  1.0
  H  H6  1  0.01138000  0.55118000  0.10561000  1.0
  H  H7  1  0.48862000  0.44882000  0.60562000  1.0
  H  H8  1  0.60063000  0.11650000  0.98446000  1.0
  H  H9  1  0.89937000  0.88350000  0.48446000  1.0
  H  H10  1  0.39937000  0.88350000  0.01554000  1.0
  H  H11  1  0.10063000  0.11650000  0.51554000  1.0
  H  H12  1  0.93407000  0.30235000  0.98476000  1.0
  H  H13  1  0.56593000  0.69765000  0.48476000  1.0
  H  H14  1  0.06593000  0.69764000  0.01525000  1.0
  H  H15  1  0.43407000  0.30235000  0.51524000  1.0
  H  H16  1  0.61659000  0.46221000  0.02500000  1.0
  H  H17  1  0.88341000  0.53779000  0.52500000  1.0
  H  H18  1  0.38341000  0.53779000  0.97501000  1.0
  H  H19  1  0.11659000  0.46221000  0.47500000  1.0
  H  H20  1  0.97375000  0.18848000  0.89213000  1.0
  H  H21  1  0.52625000  0.81152000  0.39213000  1.0
  H  H22  1  0.02625000  0.81153000  0.10787000  1.0
  H  H23  1  0.47375000  0.18848000  0.60787000  1.0
  H  H24  1  0.83281000  0.47021000  0.01551000  1.0
  H  H25  1  0.66719000  0.52980000  0.51552000  1.0
  H  H26  1  0.16719000  0.52979000  0.98449000  1.0
  H  H27  1  0.33281000  0.47021000  0.48448000  1.0
  H  H28  1  0.70871000  0.97886000  0.00674000  1.0
  H  H29  1  0.79129000  0.02115000  0.50674000  1.0
  H  H30  1  0.29129000  0.02114000  0.99326000  1.0
  H  H31  1  0.20871000  0.97885000  0.49326000  1.0
  H  H32  1  0.07152000  0.02128000  0.85378000  1.0
  H  H33  1  0.42848000  0.97872000  0.35378000  1.0
  H  H34  1  0.92848000  0.97872000  0.14622000  1.0
  H  H35  1  0.57152000  0.02128000  0.64622000  1.0
  H  H36  1  0.97642000  0.83739000  0.89075000  1.0
  H  H37  1  0.52358000  0.16261000  0.39076000  1.0
  H  H38  1  0.02358000  0.16261000  0.10924000  1.0
  H  H39  1  0.47642000  0.83739000  0.60924000  1.0
  H  H40  1  0.23136000  0.28748000  0.75155000  1.0
  H  H41  1  0.26864000  0.71252000  0.25155000  1.0
  H  H42  1  0.76864000  0.71252000  0.24845000  1.0
  H  H43  1  0.73136000  0.28748000  0.74845000  1.0
  H  H44  1  0.91657000  0.60041000  0.90168000  1.0
  H  H45  1  0.58343000  0.39959000  0.40168000  1.0
  H  H46  1  0.08343000  0.39960000  0.09832000  1.0
  H  H47  1  0.41657000  0.60040000  0.59832000  1.0
  H  H48  1  0.00200000  0.50700000  0.64325000  1.0
  H  H49  1  0.49800000  0.49300000  0.14325000  1.0
  H  H50  1  0.99800000  0.49300000  0.35675000  1.0
  H  H51  1  0.50200000  0.50700000  0.85675000  1.0
  H  H52  1  0.64630000  0.76507000  0.80904000  1.0
  H  H53  1  0.85370000  0.23493000  0.30904000  1.0
  H  H54  1  0.35370000  0.23494000  0.19096000  1.0
  H  H55  1  0.14630000  0.76507000  0.69096000  1.0
  H  H56  1  0.67471000  0.68326000  0.67428000  1.0
  H  H57  1  0.82528000  0.31674000  0.17428000  1.0
  H  H58  1  0.32529000  0.31674000  0.32572000  1.0
  H  H59  1  0.17471000  0.68326000  0.82572000  1.0
  H  H60  1  0.82662000  0.55084000  0.65697000  1.0
  H  H61  1  0.67338000  0.44916000  0.15697000  1.0
  H  H62  1  0.17338000  0.44916000  0.34303000  1.0
  H  H63  1  0.32662000  0.55084000  0.84303000  1.0
  H  H64  1  0.15669000  0.37995000  0.63185000  1.0
  H  H65  1  0.34330000  0.62005000  0.13185000  1.0
  H  H66  1  0.84331000  0.62005000  0.36815000  1.0
  H  H67  1  0.65669000  0.37995000  0.86815000  1.0
  C  C68  1  0.77489000  0.19703000  0.97997000  1.0
  C  C69  1  0.72511000  0.80297000  0.47997000  1.0
  C  C70  1  0.22511000  0.80297000  0.02003000  1.0
  C  C71  1  0.27489000  0.19703000  0.52003000  1.0
  C  C72  1  0.46807000  0.28215000  0.01973000  1.0
  C  C73  1  0.03193000  0.71785000  0.51973000  1.0
  C  C74  1  0.53193000  0.71785000  0.98028000  1.0
  C  C75  1  0.96807000  0.28215000  0.48027000  1.0
  C  C76  1  0.83349000  0.09944000  0.95429000  1.0
  C  C77  1  0.66652000  0.90057000  0.45429000  1.0
  C  C78  1  0.16651000  0.90057000  0.04571000  1.0
  C  C79  1  0.33349000  0.09943000  0.54571000  1.0
  C  C80  1  0.02468000  0.43545000  0.83626000  1.0
  C  C81  1  0.47533000  0.56455000  0.33626000  1.0
  C  C82  1  0.97532000  0.56455000  0.16374000  1.0
  C  C83  1  0.52467000  0.43545000  0.66374000  1.0
  C  C84  1  0.16303000  0.31172000  0.90087000  1.0
  C  C85  1  0.33697000  0.68828000  0.40087000  1.0
  C  C86  1  0.83697000  0.68828000  0.09913000  1.0
  C  C87  1  0.66303000  0.31172000  0.59913000  1.0
  C  C88  1  0.11457000  0.36423000  0.82967000  1.0
  C  C89  1  0.38543000  0.63577000  0.32967000  1.0
  C  C90  1  0.88543000  0.63577000  0.17032000  1.0
  C  C91  1  0.61457000  0.36423000  0.67033000  1.0
  C  C92  1  0.98100000  0.48716000  0.76982000  1.0
  C  C93  1  0.51900000  0.51284000  0.26982000  1.0
  C  C94  1  0.01900000  0.51285000  0.23018000  1.0
  C  C95  1  0.48100000  0.48715000  0.73018000  1.0
  C  C96  1  0.59761000  0.28713000  0.01023000  1.0
  C  C97  1  0.90239000  0.71287000  0.51023000  1.0
  C  C98  1  0.40239000  0.71287000  0.98978000  1.0
  C  C99  1  0.09761000  0.28713000  0.48977000  1.0
  C  C100  1  0.65389000  0.19256000  0.99201000  1.0
  C  C101  1  0.84612000  0.80744000  0.49200000  1.0
  C  C102  1  0.34611000  0.80744000  0.00800000  1.0
  C  C103  1  0.15389000  0.19256000  0.50799000  1.0
  C  C104  1  0.88722000  0.56354000  0.77747000  1.0
  C  C105  1  0.61278000  0.43646000  0.27747000  1.0
  C  C106  1  0.11278000  0.43646000  0.22253000  1.0
  C  C107  1  0.38721000  0.56353000  0.72253000  1.0
  C  C108  1  0.83932000  0.29755000  0.99073000  1.0
  C  C109  1  0.66069000  0.70245000  0.49073000  1.0
  C  C110  1  0.16068000  0.70245000  0.00928000  1.0
  C  C111  1  0.33931000  0.29755000  0.50927000  1.0
  C  C112  1  0.66202000  0.38770000  0.01638000  1.0
  C  C113  1  0.83798000  0.61229000  0.51638000  1.0
  C  C114  1  0.33798000  0.61230000  0.98362000  1.0
  C  C115  1  0.16202000  0.38770000  0.48362000  1.0
  C  C116  1  0.93651000  0.10833000  0.90971000  1.0
  C  C117  1  0.56349000  0.89167000  0.40971000  1.0
  C  C118  1  0.06349000  0.89167000  0.09029000  1.0
  C  C119  1  0.43651000  0.10833000  0.59029000  1.0
  C  C120  1  0.78306000  0.39196000  0.00859000  1.0
  C  C121  1  0.71694000  0.60804000  0.50860000  1.0
  C  C122  1  0.21694000  0.60804000  0.99141000  1.0
  C  C123  1  0.28306000  0.39195000  0.49140000  1.0
  C  C124  1  0.78822000  0.99344000  0.97238000  1.0
  C  C125  1  0.71179000  0.00656000  0.47238000  1.0
  C  C126  1  0.21178000  0.00656000  0.02762000  1.0
  C  C127  1  0.28821000  0.99344000  0.52762000  1.0
  C  C128  1  0.99046000  0.01493000  0.88709000  1.0
  C  C129  1  0.50954000  0.98507000  0.38709000  1.0
  C  C130  1  0.00954000  0.98508000  0.11291000  1.0
  C  C131  1  0.49046000  0.01493000  0.61291000  1.0
  C  C132  1  0.93867000  0.91336000  0.90756000  1.0
  C  C133  1  0.56134000  0.08665000  0.40756000  1.0
  C  C134  1  0.06133000  0.08665000  0.09244000  1.0
  C  C135  1  0.43866000  0.91335000  0.59244000  1.0
  C  C136  1  0.16136000  0.34304000  0.75555000  1.0
  C  C137  1  0.33864000  0.65696000  0.25555000  1.0
  C  C138  1  0.83864000  0.65696000  0.24445000  1.0
  C  C139  1  0.66136000  0.34304000  0.74445000  1.0
  C  C140  1  0.86531000  0.61474000  0.84925000  1.0
  C  C141  1  0.63469000  0.38526000  0.34925000  1.0
  C  C142  1  0.13469000  0.38526000  0.15075000  1.0
  C  C143  1  0.36531000  0.61474000  0.65076000  1.0
  C  C144  1  0.03043000  0.46602000  0.69609000  1.0
  C  C145  1  0.46957000  0.53398000  0.19609000  1.0
  C  C146  1  0.96957000  0.53398000  0.30391000  1.0
  C  C147  1  0.53042000  0.46602000  0.80391000  1.0
  C  C148  1  0.71377000  0.70849000  0.79734000  1.0
  C  C149  1  0.78623000  0.29151000  0.29734000  1.0
  C  C150  1  0.28623000  0.29151000  0.20266000  1.0
  C  C151  1  0.21377000  0.70849000  0.70266000  1.0
  C  C152  1  0.72979000  0.66282000  0.72358000  1.0
  C  C153  1  0.77021000  0.33718000  0.22358000  1.0
  C  C154  1  0.27021000  0.33718000  0.27642000  1.0
  C  C155  1  0.22979000  0.66282000  0.77642000  1.0
  C  C156  1  0.81592000  0.58923000  0.71393000  1.0
  C  C157  1  0.68408000  0.41076000  0.21393000  1.0
  C  C158  1  0.18409000  0.41077000  0.28607000  1.0
  C  C159  1  0.31591000  0.58923000  0.78607000  1.0
  C  C160  1  0.11934000  0.39442000  0.68935000  1.0
  C  C161  1  0.38066000  0.60558000  0.18935000  1.0
  C  C162  1  0.88066000  0.60558000  0.31065000  1.0
  C  C163  1  0.61934000  0.39442000  0.81065000  1.0
  N  N164  1  0.83879000  0.90334000  0.94885000  1.0
  N  N165  1  0.66121000  0.09666000  0.44885000  1.0
  N  N166  1  0.16121000  0.09666000  0.05115000  1.0
  N  N167  1  0.33879000  0.90334000  0.55115000  1.0
  N  N168  1  0.78085000  0.68428000  0.85896000  1.0
  N  N169  1  0.71915000  0.31572000  0.35896000  1.0
  N  N170  1  0.21915000  0.31572000  0.14104000  1.0
  N  N171  1  0.28085000  0.68428000  0.64104000  1.0
  O  O172  1  0.12970000  0.34338000  0.96956000  1.0
  O  O173  1  0.37030000  0.65662000  0.46956000  1.0
  O  O174  1  0.87030000  0.65662000  0.03044000  1.0
  O  O175  1  0.62970000  0.34338000  0.53044000  1.0
  O  O176  1  0.41410000  0.18853000  0.03306000  1.0
  O  O177  1  0.08590000  0.81147000  0.53306000  1.0
  O  O178  1  0.58589000  0.81147000  0.96694000  1.0
  O  O179  1  0.91410000  0.18853000  0.46694000  1.0
  O  O180  1  0.41422000  0.36881000  0.01494000  1.0
  O  O181  1  0.08578000  0.63119000  0.51494000  1.0
  O  O182  1  0.58578000  0.63119000  0.98506000  1.0
  O  O183  1  0.91422000  0.36882000  0.48506000  1.0
  O  O184  1  0.23528000  0.23904000  0.89360000  1.0
  O  O185  1  0.26472000  0.76096000  0.39360000  1.0
  O  O186  1  0.76472000  0.76096000  0.10640000  1.0
  O  O187  1  0.73528000  0.23904000  0.60640000  1.0
