# generated using pymatgen
data_ZnH6C19Br4N2(ClO2)2
_symmetry_space_group_name_H-M   'P 1'
_cell_length_a   21.47640000
_cell_length_b   21.55050000
_cell_length_c   22.10441687
_cell_angle_alpha   118.80266879
_cell_angle_beta   116.63879578
_cell_angle_gamma   90.03270000
_symmetry_Int_Tables_number   1
_chemical_formula_structural   ZnH6C19Br4N2(ClO2)2
_chemical_formula_sum   'Zn4 H24 C76 Br16 N8 Cl8 O16'
_cell_volume   7700.78225291
_cell_formula_units_Z   4
loop_
 _symmetry_equiv_pos_site_id
 _symmetry_equiv_pos_as_xyz
  1  'x, y, z'
loop_
 _atom_site_type_symbol
 _atom_site_label
 _atom_site_symmetry_multiplicity
 _atom_site_fract_x
 _atom_site_fract_y
 _atom_site_fract_z
 _atom_site_occupancy
  Zn  Zn0  1  0.54316000  0.04662000  0.08897000  1.0
  Zn  Zn1  1  0.45932000  0.94802000  0.91037000  1.0
  Zn  Zn2  1  0.96218000  0.45969000  0.91181000  1.0
  Zn  Zn3  1  0.04308000  0.53476000  0.08707000  1.0
  H  H4  1  0.71424000  0.94528000  0.10888000  1.0
  H  H5  1  0.85930000  0.62518000  0.89795000  1.0
  H  H6  1  0.87734000  0.65402000  0.11203000  1.0
  H  H7  1  0.79194000  0.73271000  0.10769000  1.0
  H  H8  1  0.55544000  0.76322000  0.87402000  1.0
  H  H9  1  0.64206000  0.68642000  0.88366000  1.0
  H  H10  1  0.43315000  0.20364000  0.08814000  1.0
  H  H11  1  0.10763000  0.32574000  0.85678000  1.0
  H  H12  1  0.14759000  0.36601000  0.08311000  1.0
  H  H13  1  0.22835000  0.28299000  0.07882000  1.0
  H  H14  1  0.26619000  0.03478000  0.84931000  1.0
  H  H15  1  0.18781000  0.12019000  0.85120000  1.0
  H  H16  1  0.40092000  0.96850000  0.14661000  1.0
  H  H17  1  0.06565000  0.62186000  0.90297000  1.0
  H  H18  1  0.22582000  0.68493000  0.14280000  1.0
  H  H19  1  0.30905000  0.76856000  0.14609000  1.0
  H  H20  1  0.36331000  0.78398000  0.92202000  1.0
  H  H21  1  0.27652000  0.70727000  0.92206000  1.0
  H  H22  1  0.63204000  0.24306000  0.10222000  1.0
  H  H23  1  0.77649000  0.36201000  0.90454000  1.0
  H  H24  1  0.95224000  0.35951000  0.09961000  1.0
  H  H25  1  0.86396000  0.28105000  0.09710000  1.0
  H  H26  1  0.63547000  0.05173000  0.90963000  1.0
  H  H27  1  0.71840000  0.13261000  0.90887000  1.0
  C  C28  1  0.40180000  0.06337000  0.97053000  1.0
  C  C29  1  0.43842000  0.92750000  0.03361000  1.0
  C  C30  1  0.57903000  0.90633000  0.98524000  1.0
  C  C31  1  0.58310000  0.09389000  0.01009000  1.0
  C  C32  1  0.09272000  0.59272000  0.01716000  1.0
  C  C33  1  0.07351000  0.40024000  0.97227000  1.0
  C  C34  1  0.92235000  0.41291000  0.00429000  1.0
  C  C35  1  0.92174000  0.58490000  0.00386000  1.0
  C  C36  1  0.81229000  0.37732000  0.74329000  1.0
  C  C37  1  0.76522000  0.32332000  0.66143000  1.0
  C  C38  1  0.79402000  0.29099000  0.61099000  1.0
  C  C39  1  0.87007000  0.30901000  0.64683000  1.0
  C  C40  1  0.91250000  0.36558000  0.72856000  1.0
  C  C41  1  0.62802000  0.18646000  0.35848000  1.0
  C  C42  1  0.70443000  0.20394000  0.39709000  1.0
  C  C43  1  0.73553000  0.18292000  0.34829000  1.0
  C  C44  1  0.69031000  0.13987000  0.26436000  1.0
  C  C45  1  0.58761000  0.14961000  0.27405000  1.0
  C  C46  1  0.18279000  0.62652000  0.25871000  1.0
  C  C47  1  0.22583000  0.68446000  0.33954000  1.0
  C  C48  1  0.19558000  0.70679000  0.38897000  1.0
  C  C49  1  0.12025000  0.67885000  0.35200000  1.0
  C  C50  1  0.08012000  0.62545000  0.26879000  1.0
  C  C51  1  0.36738000  0.81468000  0.63833000  1.0
  C  C52  1  0.29183000  0.78852000  0.60226000  1.0
  C  C53  1  0.26429000  0.80137000  0.65314000  1.0
  C  C54  1  0.31168000  0.84177000  0.73671000  1.0
  C  C55  1  0.41006000  0.85659000  0.72286000  1.0
  C  C56  1  0.62976000  0.85899000  0.99073000  1.0
  C  C57  1  0.87307000  0.63466000  0.00498000  1.0
  C  C58  1  0.69867000  0.88859000  0.05939000  1.0
  C  C59  1  0.74740000  0.84601000  0.06356000  1.0
  C  C60  1  0.84473000  0.64928000  0.94411000  1.0
  C  C61  1  0.79903000  0.69502000  0.94347000  1.0
  C  C62  1  0.85473000  0.66558000  0.06471000  1.0
  C  C63  1  0.80757000  0.70971000  0.06227000  1.0
  C  C64  1  0.60935000  0.78584000  0.92721000  1.0
  C  C65  1  0.65788000  0.74349000  0.93280000  1.0
  C  C66  1  0.72823000  0.77247000  0.00035000  1.0
  C  C67  1  0.77879000  0.72582000  0.00211000  1.0
  C  C68  1  0.35426000  0.11394000  0.96873000  1.0
  C  C69  1  0.12215000  0.35045000  0.96987000  1.0
  C  C70  1  0.37954000  0.18571000  0.03585000  1.0
  C  C71  1  0.33676000  0.23422000  0.03502000  1.0
  C  C72  1  0.13467000  0.31696000  0.90593000  1.0
  C  C73  1  0.18326000  0.27399000  0.90626000  1.0
  C  C74  1  0.15720000  0.33924000  0.03312000  1.0
  C  C75  1  0.20285000  0.29362000  0.03091000  1.0
  C  C76  1  0.28542000  0.09076000  0.90145000  1.0
  C  C77  1  0.24224000  0.13884000  0.90258000  1.0
  C  C78  1  0.26652000  0.21176000  0.96875000  1.0
  C  C79  1  0.21781000  0.26035000  0.96818000  1.0
  C  C80  1  0.38794000  0.88072000  0.03473000  1.0
  C  C81  1  0.14102000  0.64759000  0.02241000  1.0
  C  C82  1  0.37328000  0.91127000  0.09714000  1.0
  C  C83  1  0.32174000  0.86906000  0.09454000  1.0
  C  C84  1  0.11865000  0.65488000  0.95680000  1.0
  C  C85  1  0.16388000  0.70502000  0.96093000  1.0
  C  C86  1  0.20900000  0.69040000  0.09162000  1.0
  C  C87  1  0.25491000  0.73764000  0.09353000  1.0
  C  C88  1  0.35205000  0.80721000  0.97083000  1.0
  C  C89  1  0.30309000  0.76497000  0.97067000  1.0
  C  C90  1  0.28595000  0.79462000  0.03177000  1.0
  C  C91  1  0.23387000  0.74645000  0.02865000  1.0
  C  C92  1  0.62893000  0.14246000  0.00598000  1.0
  C  C93  1  0.86969000  0.36512000  0.00210000  1.0
  C  C94  1  0.65007000  0.21891000  0.05901000  1.0
  C  C95  1  0.69395000  0.26361000  0.05587000  1.0
  C  C96  1  0.79555000  0.34477000  0.94717000  1.0
  C  C97  1  0.74657000  0.30362000  0.94842000  1.0
  C  C98  1  0.89438000  0.34284000  0.05685000  1.0
  C  C99  1  0.84511000  0.29971000  0.05560000  1.0
  C  C100  1  0.65240000  0.11133000  0.95071000  1.0
  C  C101  1  0.69818000  0.15646000  0.95014000  1.0
  C  C102  1  0.71965000  0.23330000  0.00231000  1.0
  C  C103  1  0.77038000  0.27969000  0.00193000  1.0
  Br  Br104  1  0.01175000  0.40435000  0.77309000  1.0
  Br  Br105  1  0.91518000  0.25494000  0.59061000  1.0
  Br  Br106  1  0.77284000  0.42628000  0.80831000  1.0
  Br  Br107  1  0.66509000  0.29455000  0.62025000  1.0
  Br  Br108  1  0.58013000  0.21612000  0.41660000  1.0
  Br  Br109  1  0.48712000  0.13776000  0.22063000  1.0
  Br  Br110  1  0.83659000  0.21297000  0.39595000  1.0
  Br  Br111  1  0.73198000  0.10470000  0.19953000  1.0
  Br  Br112  1  0.98025000  0.58487000  0.21874000  1.0
  Br  Br113  1  0.07252000  0.71648000  0.40996000  1.0
  Br  Br114  1  0.22719000  0.58056000  0.19861000  1.0
  Br  Br115  1  0.32160000  0.73147000  0.37971000  1.0
  Br  Br116  1  0.41230000  0.78982000  0.57721000  1.0
  Br  Br117  1  0.51000000  0.89813000  0.77361000  1.0
  Br  Br118  1  0.16476000  0.76353000  0.60810000  1.0
  Br  Br119  1  0.27601000  0.85526000  0.80456000  1.0
  N  N120  1  0.88450000  0.39752000  0.77599000  1.0
  N  N121  1  0.74447000  0.23830000  0.52718000  1.0
  N  N122  1  0.75282000  0.25158000  0.48143000  1.0
  N  N123  1  0.61785000  0.12392000  0.22840000  1.0
  N  N124  1  0.11107000  0.59945000  0.22363000  1.0
  N  N125  1  0.24295000  0.76018000  0.47315000  1.0
  N  N126  1  0.24298000  0.74021000  0.51796000  1.0
  N  N127  1  0.38285000  0.86975000  0.77044000  1.0
  Cl  Cl128  1  0.83397000  0.88747000  0.14810000  1.0
  Cl  Cl129  1  0.76939000  0.71473000  0.86909000  1.0
  Cl  Cl130  1  0.37434000  0.32442000  0.11794000  1.0
  Cl  Cl131  1  0.20161000  0.23978000  0.82870000  1.0
  Cl  Cl132  1  0.30108000  0.91247000  0.17013000  1.0
  Cl  Cl133  1  0.13017000  0.71609000  0.88002000  1.0
  Cl  Cl134  1  0.71732000  0.35855000  0.12017000  1.0
  Cl  Cl135  1  0.65451000  0.28223000  0.88266000  1.0
  O  O136  1  0.44860000  0.07642000  0.03895000  1.0
  O  O137  1  0.39136000  0.01078000  0.90267000  1.0
  O  O138  1  0.42549000  0.91013000  0.96475000  1.0
  O  O139  1  0.48923000  0.98155000  0.10118000  1.0
  O  O140  1  0.52512000  0.88284000  0.91497000  1.0
  O  O141  1  0.59382000  0.96590000  0.04985000  1.0
  O  O142  1  0.59064000  0.11838000  0.07920000  1.0
  O  O143  1  0.54207000  0.03245000  0.94604000  1.0
  O  O144  1  0.05242000  0.53491000  0.94819000  1.0
  O  O145  1  0.09692000  0.60856000  0.08280000  1.0
  O  O146  1  0.09240000  0.45597000  0.04115000  1.0
  O  O147  1  0.01806000  0.38331000  0.90551000  1.0
  O  O148  1  0.98175000  0.45127000  0.07132000  1.0
  O  O149  1  0.90357000  0.41281000  0.94088000  1.0
  O  O150  1  0.92152000  0.54695000  0.93812000  1.0
  O  O151  1  0.95834000  0.58346000  0.06683000  1.0
