# generated using pymatgen
data_Mg2H30C38N4O11
_symmetry_space_group_name_H-M   'P 1'
_cell_length_a   11.85010000
_cell_length_b   17.30950433
_cell_length_c   18.40313514
_cell_angle_alpha   106.90891104
_cell_angle_beta   108.26823827
_cell_angle_gamma   103.97606284
_symmetry_Int_Tables_number   1
_chemical_formula_structural   Mg2H30C38N4O11
_chemical_formula_sum   'Mg4 H60 C76 N8 O22'
_cell_volume   3191.41491290
_cell_formula_units_Z   2
loop_
 _symmetry_equiv_pos_site_id
 _symmetry_equiv_pos_as_xyz
  1  'x, y, z'
loop_
 _atom_site_type_symbol
 _atom_site_label
 _atom_site_symmetry_multiplicity
 _atom_site_fract_x
 _atom_site_fract_y
 _atom_site_fract_z
 _atom_site_occupancy
  Mg  Mg0  1  0.91175000  0.65256000  0.81226000  1.0
  Mg  Mg1  1  0.08827000  0.34746000  0.18775000  1.0
  Mg  Mg2  1  0.23187000  0.69158000  0.84418000  1.0
  Mg  Mg3  1  0.76815000  0.30843000  0.15584000  1.0
  H  H4  1  0.99937000  0.88608000  0.02070000  1.0
  H  H5  1  0.00063000  0.11390000  0.97929000  1.0
  H  H6  1  0.06687000  0.03652000  0.12380000  1.0
  H  H7  1  0.93311000  0.96345000  0.87620000  1.0
  H  H8  1  0.44402000  0.09193000  0.12735000  1.0
  H  H9  1  0.55598000  0.90807000  0.87267000  1.0
  H  H10  1  0.37322000  0.94148000  0.02243000  1.0
  H  H11  1  0.62678000  0.05852000  0.97758000  1.0
  H  H12  1  0.14256000  0.18329000  0.10403000  1.0
  H  H13  1  0.85743000  0.81670000  0.89596000  1.0
  H  H14  1  0.36189000  0.40078000  0.32199000  1.0
  H  H15  1  0.63813000  0.59923000  0.67801000  1.0
  H  H16  1  0.40309000  0.39607000  0.45084000  1.0
  H  H17  1  0.59691000  0.60396000  0.54917000  1.0
  H  H18  1  0.56255000  0.47393000  0.59724000  1.0
  H  H19  1  0.43745000  0.52607000  0.40276000  1.0
  H  H20  1  0.82819000  0.37203000  0.53165000  1.0
  H  H21  1  0.17180000  0.62795000  0.46838000  1.0
  H  H22  1  0.67271000  0.29677000  0.38399000  1.0
  H  H23  1  0.32729000  0.70323000  0.61604000  1.0
  H  H24  1  0.88205000  0.37560000  0.41969000  1.0
  H  H25  1  0.11795000  0.62440000  0.58031000  1.0
  H  H26  1  0.00878000  0.44475000  0.57391000  1.0
  H  H27  1  0.99122000  0.55523000  0.42609000  1.0
  H  H28  1  0.32653000  0.38716000  0.53937000  1.0
  H  H29  1  0.67347000  0.61283000  0.46062000  1.0
  H  H30  1  0.19784000  0.31808000  0.38559000  1.0
  H  H31  1  0.80214000  0.68192000  0.61440000  1.0
  H  H32  1  0.17402000  0.56669000  0.66721000  1.0
  H  H33  1  0.82592000  0.43329000  0.33277000  1.0
  H  H34  1  0.42181000  0.59262000  0.89602000  1.0
  H  H35  1  0.57821000  0.40743000  0.10398000  1.0
  H  H36  1  0.65549000  0.53591000  0.85178000  1.0
  H  H37  1  0.34452000  0.46410000  0.14821000  1.0
  H  H38  1  0.79984000  0.49229000  0.94828000  1.0
  H  H39  1  0.20018000  0.50774000  0.05170000  1.0
  H  H40  1  0.47734000  0.31583000  0.94986000  1.0
  H  H41  1  0.52271000  0.68416000  0.05012000  1.0
  H  H42  1  0.33063000  0.36086000  0.85486000  1.0
  H  H43  1  0.66941000  0.63912000  0.14513000  1.0
  H  H44  1  0.52414000  0.18207000  0.35977000  1.0
  H  H45  1  0.47583000  0.81790000  0.64024000  1.0
  H  H46  1  0.43180000  0.09336000  0.26535000  1.0
  H  H47  1  0.56816000  0.90663000  0.73467000  1.0
  H  H48  1  0.28996000  0.31722000  0.61125000  1.0
  H  H49  1  0.71001000  0.68278000  0.38875000  1.0
  H  H50  1  0.39735000  0.33384000  0.70904000  1.0
  H  H51  1  0.60264000  0.66616000  0.29096000  1.0
  H  H52  1  0.00912000  0.54411000  0.76222000  1.0
  H  H53  1  0.99089000  0.45588000  0.23778000  1.0
  H  H54  1  0.08337000  0.58194000  0.86791000  1.0
  H  H55  1  0.91662000  0.41805000  0.13209000  1.0
  H  H56  1  0.45433000  0.77007000  0.94592000  1.0
  H  H57  1  0.54578000  0.22997000  0.05410000  1.0
  H  H58  1  0.47592000  0.74176000  0.86461000  1.0
  H  H59  1  0.52399000  0.25824000  0.13535000  1.0
  H  H60  1  0.97446000  0.59229000  0.93380000  1.0
  H  H61  1  0.02554000  0.40771000  0.06620000  1.0
  H  H62  1  0.94536000  0.67572000  0.95476000  1.0
  H  H63  1  0.05464000  0.32429000  0.04524000  1.0
  C  C64  1  0.13824000  0.81631000  0.94679000  1.0
  C  C65  1  0.86176000  0.18369000  0.05322000  1.0
  C  C66  1  0.18172000  0.90461000  0.01437000  1.0
  C  C67  1  0.81830000  0.09537000  0.98565000  1.0
  C  C68  1  0.09662000  0.93155000  0.04423000  1.0
  C  C69  1  0.90339000  0.06843000  0.95577000  1.0
  C  C70  1  0.13468000  0.01562000  0.10225000  1.0
  C  C71  1  0.86531000  0.98435000  0.89776000  1.0
  C  C72  1  0.25997000  0.07464000  0.13276000  1.0
  C  C73  1  0.74001000  0.92534000  0.86726000  1.0
  C  C74  1  0.34690000  0.04647000  0.10521000  1.0
  C  C75  1  0.65309000  0.95352000  0.89480000  1.0
  C  C76  1  0.30766000  0.96270000  0.04622000  1.0
  C  C77  1  0.69235000  0.03730000  0.95380000  1.0
  C  C78  1  0.29650000  0.16590000  0.18914000  1.0
  C  C79  1  0.70346000  0.83408000  0.81086000  1.0
  C  C80  1  0.22452000  0.21357000  0.16425000  1.0
  C  C81  1  0.77547000  0.78642000  0.83576000  1.0
  C  C82  1  0.34637000  0.33396000  0.28588000  1.0
  C  C83  1  0.65364000  0.66604000  0.71413000  1.0
  C  C84  1  0.42501000  0.29325000  0.31931000  1.0
  C  C85  1  0.57499000  0.70674000  0.68072000  1.0
  C  C86  1  0.39869000  0.20522000  0.26989000  1.0
  C  C87  1  0.60131000  0.79478000  0.73013000  1.0
  C  C88  1  0.52393000  0.33930000  0.40602000  1.0
  C  C89  1  0.47607000  0.66070000  0.59400000  1.0
  C  C90  1  0.49660000  0.39073000  0.46803000  1.0
  C  C91  1  0.50340000  0.60928000  0.53199000  1.0
  C  C92  1  0.58652000  0.43515000  0.55032000  1.0
  C  C93  1  0.41349000  0.56485000  0.44969000  1.0
  C  C94  1  0.70801000  0.43019000  0.57410000  1.0
  C  C95  1  0.29200000  0.56981000  0.42592000  1.0
  C  C96  1  0.73496000  0.37751000  0.51316000  1.0
  C  C97  1  0.26504000  0.62249000  0.48686000  1.0
  C  C98  1  0.64572000  0.33353000  0.43048000  1.0
  C  C99  1  0.35428000  0.66648000  0.56953000  1.0
  C  C100  1  0.81090000  0.48433000  0.66087000  1.0
  C  C101  1  0.18911000  0.51568000  0.33914000  1.0
  C  C102  1  0.96244000  0.30849000  0.30017000  1.0
  C  C103  1  0.03755000  0.69152000  0.69983000  1.0
  C  C104  1  0.03190000  0.34184000  0.39312000  1.0
  C  C105  1  0.96810000  0.65816000  0.60687000  1.0
  C  C106  1  0.97917000  0.37765000  0.44650000  1.0
  C  C107  1  0.02083000  0.62235000  0.55349000  1.0
  C  C108  1  0.04994000  0.41658000  0.53241000  1.0
  C  C109  1  0.95003000  0.58340000  0.46756000  1.0
  C  C110  1  0.17581000  0.42015000  0.56764000  1.0
  C  C111  1  0.82418000  0.57985000  0.43234000  1.0
  C  C112  1  0.22788000  0.38297000  0.51381000  1.0
  C  C113  1  0.77210000  0.61701000  0.48617000  1.0
  C  C114  1  0.15707000  0.34482000  0.42788000  1.0
  C  C115  1  0.84292000  0.65517000  0.57211000  1.0
  C  C116  1  0.24979000  0.46469000  0.65878000  1.0
  C  C117  1  0.75021000  0.53532000  0.34121000  1.0
  C  C118  1  0.23652000  0.54058000  0.70152000  1.0
  C  C119  1  0.76347000  0.45942000  0.29846000  1.0
  C  C120  1  0.37522000  0.55605000  0.82858000  1.0
  C  C121  1  0.62480000  0.44397000  0.17141000  1.0
  C  C122  1  0.39646000  0.48137000  0.79369000  1.0
  C  C123  1  0.60354000  0.51863000  0.20629000  1.0
  C  C124  1  0.33138000  0.43258000  0.70631000  1.0
  C  C125  1  0.66861000  0.56743000  0.29367000  1.0
  C  C126  1  0.48313000  0.45193000  0.84757000  1.0
  C  C127  1  0.51686000  0.54806000  0.15242000  1.0
  C  C128  1  0.61560000  0.48778000  0.87314000  1.0
  C  C129  1  0.38441000  0.51223000  0.12685000  1.0
  C  C130  1  0.69699000  0.46290000  0.92670000  1.0
  C  C131  1  0.30302000  0.53712000  0.07328000  1.0
  C  C132  1  0.64805000  0.40135000  0.95506000  1.0
  C  C133  1  0.35197000  0.59867000  0.04493000  1.0
  C  C134  1  0.51549000  0.36379000  0.92783000  1.0
  C  C135  1  0.48454000  0.63621000  0.07216000  1.0
  C  C136  1  0.43365000  0.38872000  0.87454000  1.0
  C  C137  1  0.56637000  0.61127000  0.12545000  1.0
  C  C138  1  0.73779000  0.38095000  0.01831000  1.0
  C  C139  1  0.26223000  0.61906000  0.98169000  1.0
  N  N140  1  0.24645000  0.29629000  0.21070000  1.0
  N  N141  1  0.75357000  0.70372000  0.78931000  1.0
  N  N142  1  0.46438000  0.15813000  0.29872000  1.0
  N  N143  1  0.53559000  0.84185000  0.70129000  1.0
  N  N144  1  0.29573000  0.58637000  0.78450000  1.0
  N  N145  1  0.70425000  0.41364000  0.21548000  1.0
  N  N146  1  0.34810000  0.35773000  0.67120000  1.0
  N  N147  1  0.65187000  0.64228000  0.32880000  1.0
  O  O148  1  0.21711000  0.79881000  0.91814000  1.0
  O  O149  1  0.78290000  0.20119000  0.08187000  1.0
  O  O150  1  0.02313000  0.76520000  0.92184000  1.0
  O  O151  1  0.97688000  0.23481000  0.07817000  1.0
  O  O152  1  0.91898000  0.47621000  0.67674000  1.0
  O  O153  1  0.08103000  0.52379000  0.32326000  1.0
  O  O154  1  0.78518000  0.53738000  0.71210000  1.0
  O  O155  1  0.21486000  0.46264000  0.28790000  1.0
  O  O156  1  0.05778000  0.59896000  0.81822000  1.0
  O  O157  1  0.94222000  0.40103000  0.18178000  1.0
  O  O158  1  0.43321000  0.77418000  0.89159000  1.0
  O  O159  1  0.56678000  0.22584000  0.10842000  1.0
  O  O160  1  0.90534000  0.61419000  0.91669000  1.0
  O  O161  1  0.09468000  0.38582000  0.08332000  1.0
  O  O162  1  0.02689000  0.29208000  0.25802000  1.0
  O  O163  1  0.97311000  0.70794000  0.74197000  1.0
  O  O164  1  0.84633000  0.30252000  0.26957000  1.0
  O  O165  1  0.15366000  0.69748000  0.73043000  1.0
  O  O166  1  0.85748000  0.42142000  0.04443000  1.0
  O  O167  1  0.14253000  0.57859000  0.95558000  1.0
  O  O168  1  0.68873000  0.32738000  0.04534000  1.0
  O  O169  1  0.31129000  0.67262000  0.95466000  1.0
