# generated using pymatgen
data_AlH4C7BrO5
_symmetry_space_group_name_H-M   'P 1'
_cell_length_a   6.69193000
_cell_length_b   12.60450000
_cell_length_c   17.55660000
_cell_angle_alpha   90.00100000
_cell_angle_beta   90.00110000
_cell_angle_gamma   98.51310000
_symmetry_Int_Tables_number   1
_chemical_formula_structural   AlH4C7BrO5
_chemical_formula_sum   'Al4 H16 C28 Br4 O20'
_cell_volume   1464.55549417
_cell_formula_units_Z   4
loop_
 _symmetry_equiv_pos_site_id
 _symmetry_equiv_pos_as_xyz
  1  'x, y, z'
loop_
 _atom_site_type_symbol
 _atom_site_label
 _atom_site_symmetry_multiplicity
 _atom_site_fract_x
 _atom_site_fract_y
 _atom_site_fract_z
 _atom_site_occupancy
  Al  Al0  1  0.18363000  0.76496000  0.74999000  1.0
  Al  Al1  1  0.81580000  0.23502000  0.24999000  1.0
  Al  Al2  1  0.68155000  0.76024000  0.74999000  1.0
  Al  Al3  1  0.31771000  0.23887000  0.24999000  1.0
  H  H4  1  0.18015000  0.97962000  0.92564000  1.0
  H  H5  1  0.82227000  0.02382000  0.07309000  1.0
  H  H6  1  0.82227000  0.02382000  0.42691000  1.0
  H  H7  1  0.18013000  0.97959000  0.57433000  1.0
  H  H8  1  0.20789000  0.08010000  0.05004000  1.0
  H  H9  1  0.79469000  0.92326000  0.94872000  1.0
  H  H10  1  0.79468000  0.92326000  0.55128000  1.0
  H  H11  1  0.20788000  0.08010000  0.44994000  1.0
  H  H12  1  0.27292000  0.45279000  0.05608000  1.0
  H  H13  1  0.72628000  0.54796000  0.94443000  1.0
  H  H14  1  0.72628000  0.54796000  0.55555000  1.0
  H  H15  1  0.27290000  0.45279000  0.44391000  1.0
  H  H16  1  0.38723000  0.62055000  0.75010000  1.0
  H  H17  1  0.61039000  0.37936000  0.25011000  1.0
  H  H18  1  0.96611000  0.90459000  0.75003000  1.0
  H  H19  1  0.03207000  0.09480000  0.25005000  1.0
  C  C20  1  0.46794000  0.88437000  0.85723000  1.0
  C  C21  1  0.53270000  0.11607000  0.14250000  1.0
  C  C22  1  0.53271000  0.11606000  0.35748000  1.0
  C  C23  1  0.46789000  0.88434000  0.64275000  1.0
  C  C24  1  0.51608000  0.05650000  0.06876000  1.0
  C  C25  1  0.48591000  0.94604000  0.93019000  1.0
  C  C26  1  0.48588000  0.94603000  0.56979000  1.0
  C  C27  1  0.51608000  0.05650000  0.43124000  1.0
  C  C28  1  0.31976000  0.98980000  0.95850000  1.0
  C  C29  1  0.68267000  0.01349000  0.04022000  1.0
  C  C30  1  0.68267000  0.01348000  0.45978000  1.0
  C  C31  1  0.31973000  0.98978000  0.54148000  1.0
  C  C32  1  0.89935000  0.63339000  0.64655000  1.0
  C  C33  1  0.09806000  0.35910000  0.35701000  1.0
  C  C34  1  0.09806000  0.35910000  0.14299000  1.0
  C  C35  1  0.89938000  0.63341000  0.85345000  1.0
  C  C36  1  0.33479000  0.04489000  0.02738000  1.0
  C  C37  1  0.66763000  0.95837000  0.97134000  1.0
  C  C38  1  0.66762000  0.95837000  0.52865000  1.0
  C  C39  1  0.33478000  0.04488000  0.47261000  1.0
  C  C40  1  0.87708000  0.55980000  0.91943000  1.0
  C  C41  1  0.11763000  0.42075000  0.07111000  1.0
  C  C42  1  0.11764000  0.42073000  0.42890000  1.0
  C  C43  1  0.87707000  0.55978000  0.58057000  1.0
  C  C44  1  0.01532000  0.50671000  0.95275000  1.0
  C  C45  1  0.97218000  0.44038000  0.02175000  1.0
  C  C46  1  0.97218000  0.44034000  0.47825000  1.0
  C  C47  1  0.01531000  0.50667000  0.54726000  1.0
  Br  Br48  1  0.69414000  0.38591000  0.03746000  1.0
  Br  Br49  1  0.28378000  0.51480000  0.91459000  1.0
  Br  Br50  1  0.28375000  0.51478000  0.58543000  1.0
  Br  Br51  1  0.69415000  0.38583000  0.46255000  1.0
  O  O52  1  0.62937000  0.85796000  0.67056000  1.0
  O  O53  1  0.37068000  0.14137000  0.32940000  1.0
  O  O54  1  0.37069000  0.14139000  0.17058000  1.0
  O  O55  1  0.62941000  0.85796000  0.82944000  1.0
  O  O56  1  0.29189000  0.86264000  0.82829000  1.0
  O  O57  1  0.70824000  0.13717000  0.17189000  1.0
  O  O58  1  0.70825000  0.13715000  0.32809000  1.0
  O  O59  1  0.29181000  0.86255000  0.67165000  1.0
  O  O60  1  0.07450000  0.66553000  0.82723000  1.0
  O  O61  1  0.92446000  0.33345000  0.17240000  1.0
  O  O62  1  0.92446000  0.33345000  0.32759000  1.0
  O  O63  1  0.07445000  0.66547000  0.67281000  1.0
  O  O64  1  0.41334000  0.69816000  0.75000000  1.0
  O  O65  1  0.58564000  0.30176000  0.25000000  1.0
  O  O66  1  0.73378000  0.65939000  0.67180000  1.0
  O  O67  1  0.26447000  0.33740000  0.32948000  1.0
  O  O68  1  0.26447000  0.33740000  0.17052000  1.0
  O  O69  1  0.73380000  0.65936000  0.82816000  1.0
  O  O70  1  0.94868000  0.82700000  0.74999000  1.0
  O  O71  1  0.05048000  0.17240000  0.24999000  1.0
