# generated using pymatgen
data_LiH7C6O7
_symmetry_space_group_name_H-M   'P 1'
_cell_length_a   7.44423000
_cell_length_b   9.14318000
_cell_length_c   11.22580000
_cell_angle_alpha   90.00000000
_cell_angle_beta   90.00030000
_cell_angle_gamma   108.24200000
_symmetry_Int_Tables_number   1
_chemical_formula_structural   LiH7C6O7
_chemical_formula_sum   'Li4 H28 C24 O28'
_cell_volume   725.67202725
_cell_formula_units_Z   4
loop_
 _symmetry_equiv_pos_site_id
 _symmetry_equiv_pos_as_xyz
  1  'x, y, z'
loop_
 _atom_site_type_symbol
 _atom_site_label
 _atom_site_symmetry_multiplicity
 _atom_site_fract_x
 _atom_site_fract_y
 _atom_site_fract_z
 _atom_site_occupancy
  Li  Li0  1  0.10632000  0.09396000  0.12389000  1.0
  Li  Li1  1  0.89368000  0.40604000  0.62389000  1.0
  Li  Li2  1  0.89368000  0.90604000  0.87611000  1.0
  Li  Li3  1  0.10632000  0.59396000  0.37611000  1.0
  H  H4  1  0.71951000  0.18153000  0.18375000  1.0
  H  H5  1  0.28049000  0.31847000  0.68375000  1.0
  H  H6  1  0.28049000  0.81847000  0.81625000  1.0
  H  H7  1  0.71951000  0.68153000  0.31625000  1.0
  H  H8  1  0.79901000  0.38473000  0.18707000  1.0
  H  H9  1  0.20099000  0.11528000  0.68707000  1.0
  H  H10  1  0.20099000  0.61527000  0.81293000  1.0
  H  H11  1  0.79901000  0.88472000  0.31293000  1.0
  H  H12  1  0.71183000  0.44255000  0.41412000  1.0
  H  H13  1  0.28817000  0.05745000  0.91412000  1.0
  H  H14  1  0.28817000  0.55745000  0.58588000  1.0
  H  H15  1  0.71183000  0.94255000  0.08588000  1.0
  H  H16  1  0.63406000  0.04130000  0.37398000  1.0
  H  H17  1  0.36594000  0.45870000  0.87398000  1.0
  H  H18  1  0.36594000  0.95870000  0.62602000  1.0
  H  H19  1  0.63406000  0.54130000  0.12602000  1.0
  H  H20  1  0.57333000  0.16896000  0.47181000  1.0
  H  H21  1  0.42667000  0.33104000  0.97181000  1.0
  H  H22  1  0.42667000  0.83104000  0.52819000  1.0
  H  H23  1  0.57332000  0.66896000  0.02819000  1.0
  H  H24  1  0.84560000  0.92694000  0.61612000  1.0
  H  H25  1  0.15439000  0.57306000  0.11612000  1.0
  H  H26  1  0.15439000  0.07306000  0.38388000  1.0
  H  H27  1  0.84561000  0.42693000  0.88388000  1.0
  H  H28  1  0.33922000  0.37637000  0.32685000  1.0
  H  H29  1  0.66078000  0.12362000  0.82685000  1.0
  H  H30  1  0.66078000  0.62362000  0.67315000  1.0
  H  H31  1  0.33921000  0.87637000  0.17315000  1.0
  C  C32  1  0.51287000  0.28199000  0.24060000  1.0
  C  C33  1  0.48713000  0.21801000  0.74060000  1.0
  C  C34  1  0.48714000  0.71801000  0.75940000  1.0
  C  C35  1  0.51287000  0.78199000  0.25940000  1.0
  C  C36  1  0.71543000  0.28147000  0.23578000  1.0
  C  C37  1  0.28457000  0.21853000  0.73579000  1.0
  C  C38  1  0.28457000  0.71853000  0.76422000  1.0
  C  C39  1  0.71542000  0.78147000  0.26421000  1.0
  C  C40  1  0.80989000  0.28044000  0.35780000  1.0
  C  C41  1  0.19011000  0.21956000  0.85781000  1.0
  C  C42  1  0.19011000  0.71956000  0.64220000  1.0
  C  C43  1  0.80989000  0.78044000  0.14219000  1.0
  C  C44  1  0.69319000  0.14114000  0.43156000  1.0
  C  C45  1  0.30681000  0.35886000  0.93156000  1.0
  C  C46  1  0.30681000  0.85886000  0.56844000  1.0
  C  C47  1  0.69319000  0.64114000  0.06844000  1.0
  C  C48  1  0.80822000  0.10161000  0.52943000  1.0
  C  C49  1  0.19178000  0.39839000  0.02943000  1.0
  C  C50  1  0.19177000  0.89839000  0.47057000  1.0
  C  C51  1  0.80822000  0.60161000  0.97057000  1.0
  C  C52  1  0.00929000  0.26750000  0.33519000  1.0
  C  C53  1  0.99071000  0.23250000  0.83519000  1.0
  C  C54  1  0.99071000  0.73250000  0.66481000  1.0
  C  C55  1  0.00929000  0.76750000  0.16481000  1.0
  O  O56  1  0.48240000  0.37720000  0.32263000  1.0
  O  O57  1  0.51760000  0.12280000  0.82263000  1.0
  O  O58  1  0.51760000  0.62280000  0.67737000  1.0
  O  O59  1  0.48240000  0.87720000  0.17737000  1.0
  O  O60  1  0.39096000  0.20537000  0.17144000  1.0
  O  O61  1  0.60904000  0.29463000  0.67144000  1.0
  O  O62  1  0.60904000  0.79463000  0.82855000  1.0
  O  O63  1  0.39096000  0.70537000  0.32856000  1.0
  O  O64  1  0.76057000  0.95233000  0.55258000  1.0
  O  O65  1  0.23943000  0.54767000  0.05258000  1.0
  O  O66  1  0.23943000  0.04767000  0.44742000  1.0
  O  O67  1  0.76057000  0.45233000  0.94742000  1.0
  O  O68  1  0.93551000  0.20084000  0.58181000  1.0
  O  O69  1  0.06449000  0.29916000  0.08181000  1.0
  O  O70  1  0.06448000  0.79916000  0.41819000  1.0
  O  O71  1  0.93551000  0.70084000  0.91819000  1.0
  O  O72  1  0.01671000  0.13471000  0.30792000  1.0
  O  O73  1  0.98329000  0.36529000  0.80792000  1.0
  O  O74  1  0.98329000  0.86529000  0.69208000  1.0
  O  O75  1  0.01671000  0.63471000  0.19208000  1.0
  O  O76  1  0.14969000  0.38894000  0.34536000  1.0
  O  O77  1  0.85031000  0.11106000  0.84537000  1.0
  O  O78  1  0.85031000  0.61106000  0.65463000  1.0
  O  O79  1  0.14969000  0.88894000  0.15463000  1.0
  O  O80  1  0.83376000  0.42238000  0.42171000  1.0
  O  O81  1  0.16624000  0.07763000  0.92171000  1.0
  O  O82  1  0.16624000  0.57763000  0.57829000  1.0
  O  O83  1  0.83375000  0.92237000  0.07829000  1.0
