# generated using pymatgen
data_Rb3H6C6N7O6
_symmetry_space_group_name_H-M   'P 1'
_cell_length_a   7.38375000
_cell_length_b   10.51020000
_cell_length_c   17.43600000
_cell_angle_alpha   90.00000000
_cell_angle_beta   90.00000000
_cell_angle_gamma   90.00000000
_symmetry_Int_Tables_number   1
_chemical_formula_structural   Rb3H6C6N7O6
_chemical_formula_sum   'Rb12 H24 C24 N28 O24'
_cell_volume   1353.11536176
_cell_formula_units_Z   4
loop_
 _symmetry_equiv_pos_site_id
 _symmetry_equiv_pos_as_xyz
  1  'x, y, z'
loop_
 _atom_site_type_symbol
 _atom_site_label
 _atom_site_symmetry_multiplicity
 _atom_site_fract_x
 _atom_site_fract_y
 _atom_site_fract_z
 _atom_site_occupancy
  Rb  Rb0  1  0.75874000  0.87980000  0.08105000  1.0
  Rb  Rb1  1  0.74126000  0.12020000  0.58104000  1.0
  Rb  Rb2  1  0.24126000  0.12020000  0.91895000  1.0
  Rb  Rb3  1  0.25874000  0.87980000  0.41895000  1.0
  Rb  Rb4  1  0.81014000  0.72275000  0.33568000  1.0
  Rb  Rb5  1  0.68986000  0.27725000  0.83568000  1.0
  Rb  Rb6  1  0.18986000  0.27725000  0.66432000  1.0
  Rb  Rb7  1  0.31014000  0.72275000  0.16432000  1.0
  Rb  Rb8  1  0.74112000  0.48336000  0.50949000  1.0
  Rb  Rb9  1  0.75888000  0.51664000  0.00949000  1.0
  Rb  Rb10  1  0.25888000  0.51664000  0.49051000  1.0
  Rb  Rb11  1  0.24112000  0.48336000  0.99051000  1.0
  H  H12  1  0.65476000  0.56460000  0.19367000  1.0
  H  H13  1  0.84524000  0.43540000  0.69367000  1.0
  H  H14  1  0.34524000  0.43540000  0.80633000  1.0
  H  H15  1  0.15476000  0.56460000  0.30633000  1.0
  H  H16  1  0.85111000  0.60203000  0.16743000  1.0
  H  H17  1  0.64889000  0.39797000  0.66743000  1.0
  H  H18  1  0.14889000  0.39796000  0.83257000  1.0
  H  H19  1  0.35111000  0.60203000  0.33257000  1.0
  H  H20  1  0.01385000  0.73508000  0.93922000  1.0
  H  H21  1  0.48615000  0.26492000  0.43922000  1.0
  H  H22  1  0.98615000  0.26492000  0.06078000  1.0
  H  H23  1  0.51385000  0.73508000  0.56078000  1.0
  H  H24  1  0.10480000  0.80888000  0.00961000  1.0
  H  H25  1  0.39520000  0.19112000  0.50961000  1.0
  H  H26  1  0.89521000  0.19111000  0.99039000  1.0
  H  H27  1  0.60479000  0.80889000  0.49039000  1.0
  H  H28  1  0.68656000  0.01253000  0.93923000  1.0
  H  H29  1  0.81344000  0.98747000  0.43923000  1.0
  H  H30  1  0.31344000  0.98747000  0.06077000  1.0
  H  H31  1  0.18656000  0.01253000  0.56077000  1.0
  H  H32  1  0.87739000  0.99654000  0.90248000  1.0
  H  H33  1  0.62261000  0.00346000  0.40248000  1.0
  H  H34  1  0.12261000  0.00346000  0.09752000  1.0
  H  H35  1  0.37739000  0.99654000  0.59752000  1.0
  C  C36  1  0.50064000  0.11041000  0.16132000  1.0
  C  C37  1  0.99936000  0.88958000  0.66132000  1.0
  C  C38  1  0.49936000  0.88959000  0.83868000  1.0
  C  C39  1  0.00065000  0.11042000  0.33868000  1.0
  C  C40  1  0.50068000  0.97146000  0.26526000  1.0
  C  C41  1  0.99932000  0.02854000  0.76526000  1.0
  C  C42  1  0.49932000  0.02854000  0.73474000  1.0
  C  C43  1  0.00068000  0.97146000  0.23474000  1.0
  C  C44  1  0.52073000  0.18890000  0.29246000  1.0
  C  C45  1  0.97927000  0.81110000  0.79246000  1.0
  C  C46  1  0.47927000  0.81110000  0.70754000  1.0
  C  C47  1  0.02073000  0.18890000  0.20754000  1.0
  C  C48  1  0.53849000  0.40873000  0.31187000  1.0
  C  C49  1  0.96151000  0.59127000  0.81188000  1.0
  C  C50  1  0.46151000  0.59127000  0.68813000  1.0
  C  C51  1  0.03849000  0.40873000  0.18812000  1.0
  C  C52  1  0.52304000  0.33749000  0.18513000  1.0
  C  C53  1  0.97696000  0.66251000  0.68513000  1.0
  C  C54  1  0.47696000  0.66251000  0.81487000  1.0
  C  C55  1  0.02304000  0.33750000  0.31487000  1.0
  C  C56  1  0.51026000  0.25580000  0.06083000  1.0
  C  C57  1  0.98974000  0.74420000  0.56083000  1.0
  C  C58  1  0.48974000  0.74420000  0.93917000  1.0
  C  C59  1  0.01026000  0.25580000  0.43917000  1.0
  N  N60  1  0.51505000  0.21239000  0.21313000  1.0
  N  N61  1  0.98495000  0.78761000  0.71313000  1.0
  N  N62  1  0.48495000  0.78761000  0.78687000  1.0
  N  N63  1  0.01505000  0.21239000  0.28687000  1.0
  N  N64  1  0.49153000  0.99213000  0.18769000  1.0
  N  N65  1  0.00848000  0.00787000  0.68769000  1.0
  N  N66  1  0.50847000  0.00787000  0.81231000  1.0
  N  N67  1  0.99152000  0.99213000  0.31231000  1.0
  N  N68  1  0.51430000  0.06968000  0.31795000  1.0
  N  N69  1  0.98570000  0.93032000  0.81795000  1.0
  N  N70  1  0.48570000  0.93032000  0.68206000  1.0
  N  N71  1  0.01430000  0.06968000  0.18205000  1.0
  N  N72  1  0.53202000  0.28689000  0.34066000  1.0
  N  N73  1  0.96798000  0.71311000  0.84066000  1.0
  N  N74  1  0.46798000  0.71311000  0.65934000  1.0
  N  N75  1  0.03202000  0.28689000  0.15934000  1.0
  N  N76  1  0.53539000  0.43404000  0.23462000  1.0
  N  N77  1  0.96461000  0.56596000  0.73462000  1.0
  N  N78  1  0.46461000  0.56596000  0.76538000  1.0
  N  N79  1  0.03539000  0.43404000  0.26538000  1.0
  N  N80  1  0.51962000  0.35833000  0.11015000  1.0
  N  N81  1  0.98037000  0.64167000  0.61015000  1.0
  N  N82  1  0.48038000  0.64167000  0.88985000  1.0
  N  N83  1  0.01963000  0.35833000  0.38985000  1.0
  N  N84  1  0.49763000  0.13208000  0.08608000  1.0
  N  N85  1  0.00238000  0.86792000  0.58608000  1.0
  N  N86  1  0.50237000  0.86792000  0.91392000  1.0
  N  N87  1  0.99763000  0.13208000  0.41392000  1.0
  O  O88  1  0.49546000  0.85884000  0.28988000  1.0
  O  O89  1  0.00454000  0.14116000  0.78988000  1.0
  O  O90  1  0.50454000  0.14116000  0.71012000  1.0
  O  O91  1  0.99546000  0.85884000  0.21012000  1.0
  O  O92  1  0.54587000  0.50130000  0.35868000  1.0
  O  O93  1  0.95414000  0.49870000  0.85868000  1.0
  O  O94  1  0.45412000  0.49870000  0.64132000  1.0
  O  O95  1  0.04586000  0.50130000  0.14132000  1.0
  O  O96  1  0.51064000  0.27862000  0.98950000  1.0
  O  O97  1  0.98936000  0.72138000  0.48950000  1.0
  O  O98  1  0.48937000  0.72138000  0.01051000  1.0
  O  O99  1  0.01064000  0.27862000  0.51050000  1.0
  O  O100  1  0.72698000  0.63651000  0.17161000  1.0
  O  O101  1  0.77302000  0.36349000  0.67160000  1.0
  O  O102  1  0.27302000  0.36349000  0.82839000  1.0
  O  O103  1  0.22698000  0.63651000  0.32840000  1.0
  O  O104  1  0.03643000  0.73131000  0.99602000  1.0
  O  O105  1  0.46357000  0.26869000  0.49602000  1.0
  O  O106  1  0.96358000  0.26869000  0.00398000  1.0
  O  O107  1  0.53642000  0.73131000  0.50398000  1.0
  O  O108  1  0.81239000  0.04192000  0.94486000  1.0
  O  O109  1  0.68761000  0.95808000  0.44486000  1.0
  O  O110  1  0.18761000  0.95808000  0.05514000  1.0
  O  O111  1  0.31239000  0.04192000  0.55514000  1.0
