# generated using pymatgen
data_Na2Zn3P8H60C28N4(ClO3)8
_symmetry_space_group_name_H-M   'P 1'
_cell_length_a   9.71373000
_cell_length_b   11.17020000
_cell_length_c   15.12090000
_cell_angle_alpha   100.51600000
_cell_angle_beta   105.39800000
_cell_angle_gamma   105.02700000
_symmetry_Int_Tables_number   1
_chemical_formula_structural   Na2Zn3P8H60C28N4(ClO3)8
_chemical_formula_sum   'Na2 Zn3 P8 H60 C28 N4 Cl8 O24'
_cell_volume   1470.98501567
_cell_formula_units_Z   1
loop_
 _symmetry_equiv_pos_site_id
 _symmetry_equiv_pos_as_xyz
  1  'x, y, z'
loop_
 _atom_site_type_symbol
 _atom_site_label
 _atom_site_symmetry_multiplicity
 _atom_site_fract_x
 _atom_site_fract_y
 _atom_site_fract_z
 _atom_site_occupancy
  Na  Na0  1  0.33075000  0.02198000  0.97234000  1.0
  Na  Na1  1  0.66925000  0.97802000  0.02766000  1.0
  Zn  Zn2  1  0.50000000  0.50000000  0.00000000  1.0
  Zn  Zn3  1  0.19161000  0.19420000  0.10838000  1.0
  Zn  Zn4  1  0.80840000  0.80581000  0.89162000  1.0
  P  P5  1  0.54708000  0.31536000  0.14983000  1.0
  P  P6  1  0.45292000  0.68462000  0.85016000  1.0
  P  P7  1  0.37528000  0.50624000  0.18113000  1.0
  P  P8  1  0.62471000  0.49376000  0.81886000  1.0
  P  P9  1  0.07443000  0.88158000  0.08877000  1.0
  P  P10  1  0.92557000  0.11843000  0.91123000  1.0
  P  P11  1  0.98078000  0.06340000  0.22319000  1.0
  P  P12  1  0.01922000  0.93660000  0.77681000  1.0
  H  H13  1  0.21768000  0.30090000  0.94279000  1.0
  H  H14  1  0.78232000  0.69911000  0.05721000  1.0
  H  H15  1  0.28888000  0.31442000  0.86174000  1.0
  H  H16  1  0.71112000  0.68558000  0.13826000  1.0
  H  H17  1  0.57823000  0.22304000  0.99189000  1.0
  H  H18  1  0.42177000  0.77697000  0.00811000  1.0
  H  H19  1  0.62605000  0.14197000  0.91802000  1.0
  H  H20  1  0.37395000  0.85803000  0.08197000  1.0
  H  H21  1  0.83554000  0.41177000  0.16213000  1.0
  H  H22  1  0.16446000  0.58823000  0.83787000  1.0
  H  H23  1  0.88411000  0.27037000  0.17735000  1.0
  H  H24  1  0.11588000  0.72963000  0.82265000  1.0
  H  H25  1  0.90671000  0.39290000  0.27941000  1.0
  H  H26  1  0.09329000  0.60710000  0.72059000  1.0
  H  H27  1  0.21596000  0.48363000  0.30447000  1.0
  H  H28  1  0.78404000  0.51637000  0.69553000  1.0
  H  H29  1  0.17106000  0.62733000  0.30003000  1.0
  H  H30  1  0.82893000  0.37267000  0.69997000  1.0
  H  H31  1  0.43816000  0.60143000  0.44893000  1.0
  H  H32  1  0.56184000  0.39858000  0.55107000  1.0
  H  H33  1  0.27652000  0.63117000  0.46817000  1.0
  H  H34  1  0.72348000  0.36883000  0.53183000  1.0
  H  H35  1  0.34631000  0.84181000  0.43082000  1.0
  H  H36  1  0.65369000  0.15819000  0.56918000  1.0
  H  H37  1  0.49944000  0.83611000  0.52268000  1.0
  H  H38  1  0.50056000  0.16389000  0.47732000  1.0
  H  H39  1  0.58022000  0.92339000  0.39430000  1.0
  H  H40  1  0.41979000  0.07662000  0.60570000  1.0
  H  H41  1  0.62658000  0.78183000  0.40473000  1.0
  H  H42  1  0.37342000  0.21817000  0.59527000  1.0
  H  H43  1  0.35532000  0.80230000  0.25636000  1.0
  H  H44  1  0.64468000  0.19770000  0.74364000  1.0
  H  H45  1  0.51201000  0.76602000  0.23420000  1.0
  H  H46  1  0.48799000  0.23397000  0.76580000  1.0
  H  H47  1  0.06011000  0.60841000  0.11479000  1.0
  H  H48  1  0.93990000  0.39158000  0.88521000  1.0
  H  H49  1  0.18120000  0.60448000  0.04354000  1.0
  H  H50  1  0.81880000  0.39552000  0.95646000  1.0
  H  H51  1  0.99802000  0.62089000  0.99463000  1.0
  H  H52  1  0.00198000  0.37911000  0.00537000  1.0
  H  H53  1  0.97415000  0.01054000  0.43045000  1.0
  H  H54  1  0.02585000  0.98946000  0.56955000  1.0
  H  H55  1  0.81316000  0.98388000  0.33003000  1.0
  H  H56  1  0.18684000  0.01612000  0.66997000  1.0
  H  H57  1  0.79831000  0.10156000  0.48501000  1.0
  H  H58  1  0.20169000  0.89844000  0.51499000  1.0
  H  H59  1  0.78486000  0.18983000  0.39832000  1.0
  H  H60  1  0.21514000  0.81018000  0.60168000  1.0
  H  H61  1  0.06768000  0.22639000  0.56526000  1.0
  H  H62  1  0.93232000  0.77362000  0.43474000  1.0
  H  H63  1  0.96359000  0.33462000  0.55665000  1.0
  H  H64  1  0.03641000  0.66538000  0.44334000  1.0
  H  H65  1  0.03153000  0.37703000  0.41465000  1.0
  H  H66  1  0.96848000  0.62297000  0.58535000  1.0
  H  H67  1  0.19818000  0.40584000  0.51078000  1.0
  H  H68  1  0.80182000  0.59416000  0.48922000  1.0
  H  H69  1  0.20035000  0.27662000  0.35561000  1.0
  H  H70  1  0.79965000  0.72338000  0.64439000  1.0
  H  H71  1  0.21790000  0.19549000  0.44679000  1.0
  H  H72  1  0.78210000  0.80450000  0.55321000  1.0
  C  C73  1  0.53113000  0.44584000  0.23820000  1.0
  C  C74  1  0.46888000  0.55417000  0.76180000  1.0
  C  C75  1  0.08870000  0.94603000  0.21437000  1.0
  C  C76  1  0.91129000  0.05397000  0.78562000  1.0
  C  C77  1  0.83799000  0.34276000  0.20512000  1.0
  C  C78  1  0.16201000  0.65724000  0.79488000  1.0
  C  C79  1  0.26515000  0.58850000  0.32082000  1.0
  C  C80  1  0.73485000  0.41150000  0.67919000  1.0
  C  C81  1  0.35373000  0.64914000  0.42683000  1.0
  C  C82  1  0.64627000  0.35086000  0.57317000  1.0
  C  C83  1  0.43235000  0.79379000  0.44676000  1.0
  C  C84  1  0.56765000  0.20621000  0.55324000  1.0
  C  C85  1  0.53178000  0.81933000  0.38440000  1.0
  C  C86  1  0.46822000  0.18068000  0.61560000  1.0
  C  C87  1  0.44042000  0.75554000  0.27932000  1.0
  C  C88  1  0.55958000  0.24447000  0.72068000  1.0
  C  C89  1  0.09571000  0.64433000  0.05887000  1.0
  C  C90  1  0.90429000  0.35567000  0.94113000  1.0
  C  C91  1  0.91108000  0.05854000  0.38457000  1.0
  C  C92  1  0.08892000  0.94146000  0.61543000  1.0
  C  C93  1  0.86183000  0.15320000  0.44538000  1.0
  C  C94  1  0.13817000  0.84679000  0.55462000  1.0
  C  C95  1  0.99884000  0.26467000  0.51428000  1.0
  C  C96  1  0.00116000  0.73533000  0.48572000  1.0
  C  C97  1  0.09544000  0.33029000  0.46071000  1.0
  C  C98  1  0.90456000  0.66971000  0.53929000  1.0
  C  C99  1  0.14060000  0.23235000  0.39963000  1.0
  C  C100  1  0.85940000  0.76765000  0.60037000  1.0
  N  N101  1  0.36185000  0.61770000  0.26245000  1.0
  N  N102  1  0.63814000  0.38229000  0.73754000  1.0
  N  N103  1  0.00727000  0.12486000  0.33647000  1.0
  N  N104  1  0.99273000  0.87514000  0.66353000  1.0
  Cl  Cl105  1  0.70564000  0.57649000  0.28451000  1.0
  Cl  Cl106  1  0.29436000  0.42352000  0.71549000  1.0
  Cl  Cl107  1  0.49459000  0.38359000  0.33367000  1.0
  Cl  Cl108  1  0.50541000  0.61641000  0.66633000  1.0
  Cl  Cl109  1  0.28463000  0.02742000  0.28163000  1.0
  Cl  Cl110  1  0.71537000  0.97258000  0.71837000  1.0
  Cl  Cl111  1  0.01697000  0.81650000  0.26154000  1.0
  Cl  Cl112  1  0.98304000  0.18351000  0.73847000  1.0
  O  O113  1  0.28534000  0.36320000  0.92091000  1.0
  O  O114  1  0.71466000  0.63680000  0.07909000  1.0
  O  O115  1  0.56909000  0.13310000  0.96232000  1.0
  O  O116  1  0.43092000  0.86690000  0.03768000  1.0
  O  O117  1  0.57580000  0.36586000  0.06780000  1.0
  O  O118  1  0.42420000  0.63414000  0.93221000  1.0
  O  O119  1  0.40707000  0.19929000  0.12450000  1.0
  O  O120  1  0.59293000  0.80070000  0.87549000  1.0
  O  O121  1  0.68654000  0.27655000  0.20327000  1.0
  O  O122  1  0.31345000  0.72345000  0.79673000  1.0
  O  O123  1  0.42816000  0.56830000  0.10973000  1.0
  O  O124  1  0.57183000  0.43170000  0.89027000  1.0
  O  O125  1  0.23430000  0.38952000  0.14681000  1.0
  O  O126  1  0.76570000  0.61049000  0.85318000  1.0
  O  O127  1  0.15704000  0.99110000  0.05770000  1.0
  O  O128  1  0.84296000  0.00890000  0.94230000  1.0
  O  O129  1  0.90956000  0.80963000  0.03031000  1.0
  O  O130  1  0.09043000  0.19036000  0.96969000  1.0
  O  O131  1  0.16876000  0.78310000  0.09312000  1.0
  O  O132  1  0.83124000  0.21690000  0.90688000  1.0
  O  O133  1  0.06161000  0.17077000  0.18733000  1.0
  O  O134  1  0.93840000  0.82923000  0.81268000  1.0
  O  O135  1  0.81831000  0.98672000  0.17103000  1.0
  O  O136  1  0.18169000  0.01327000  0.82897000  1.0
