# generated using pymatgen
data_ZnH14C18N4O9F4
_symmetry_space_group_name_H-M   'P 1'
_cell_length_a   8.06415000
_cell_length_b   11.88290000
_cell_length_c   12.20286618
_cell_angle_alpha   85.83963758
_cell_angle_beta   70.70521235
_cell_angle_gamma   77.32540000
_symmetry_Int_Tables_number   1
_chemical_formula_structural   ZnH14C18N4O9F4
_chemical_formula_sum   'Zn2 H28 C36 N8 O18 F8'
_cell_volume   1076.77044991
_cell_formula_units_Z   2
loop_
 _symmetry_equiv_pos_site_id
 _symmetry_equiv_pos_as_xyz
  1  'x, y, z'
loop_
 _atom_site_type_symbol
 _atom_site_label
 _atom_site_symmetry_multiplicity
 _atom_site_fract_x
 _atom_site_fract_y
 _atom_site_fract_z
 _atom_site_occupancy
  Zn  Zn0  1  0.57257000  0.75001000  0.85448000  1.0
  Zn  Zn1  1  0.42743000  0.24999000  0.14552000  1.0
  H  H2  1  0.98995000  0.91196000  0.54012000  1.0
  H  H3  1  0.47009000  0.58795000  0.54018000  1.0
  H  H4  1  0.01005000  0.08804000  0.45988000  1.0
  H  H5  1  0.52991000  0.41205000  0.45981000  1.0
  H  H6  1  0.43435000  0.82208000  0.07262000  1.0
  H  H7  1  0.49312000  0.67803000  0.07262000  1.0
  H  H8  1  0.56565000  0.17792000  0.92738000  1.0
  H  H9  1  0.50688000  0.32196000  0.92738000  1.0
  H  H10  1  0.55097000  0.00545000  0.78147000  1.0
  H  H11  1  0.66743000  0.49464000  0.78146000  1.0
  H  H12  1  0.44903000  0.99455000  0.21853000  1.0
  H  H13  1  0.33257000  0.50536000  0.21854000  1.0
  H  H14  1  0.28486000  0.77163000  0.71738000  1.0
  H  H15  1  0.99759000  0.72846000  0.71775000  1.0
  H  H16  1  0.71514000  0.22837000  0.28262000  1.0
  H  H17  1  0.00242000  0.27154000  0.28224000  1.0
  H  H18  1  0.29351000  0.21007000  0.68303000  1.0
  H  H19  1  0.02329000  0.28995000  0.68288000  1.0
  H  H20  1  0.70649000  0.78993000  0.31697000  1.0
  H  H21  1  0.97671000  0.71005000  0.31712000  1.0
  H  H22  1  0.40349000  0.16207000  0.53830000  1.0
  H  H23  1  0.05796000  0.33823000  0.53824000  1.0
  H  H24  1  0.59651000  0.83793000  0.46170000  1.0
  H  H25  1  0.94205000  0.66177000  0.46176000  1.0
  H  H26  1  0.53064000  0.16760000  0.63290000  1.0
  H  H27  1  0.83620000  0.33271000  0.63285000  1.0
  H  H28  1  0.46936000  0.83240000  0.36710000  1.0
  H  H29  1  0.16380000  0.66729000  0.36715000  1.0
  C  C30  1  0.39231000  0.02847000  0.66576000  1.0
  C  C31  1  0.94195000  0.47161000  0.66592000  1.0
  C  C32  1  0.60769000  0.97153000  0.33424000  1.0
  C  C33  1  0.05806000  0.52839000  0.33407000  1.0
  C  C34  1  0.29287000  0.95235000  0.64616000  1.0
  C  C35  1  0.06101000  0.54770000  0.64653000  1.0
  C  C36  1  0.70712000  0.04765000  0.35384000  1.0
  C  C37  1  0.93900000  0.45230000  0.35346000  1.0
  C  C38  1  0.33068000  0.85187000  0.71011000  1.0
  C  C39  1  0.95914000  0.64818000  0.71048000  1.0
  C  C40  1  0.66933000  0.14814000  0.28988000  1.0
  C  C41  1  0.04087000  0.35182000  0.28951000  1.0
  C  C42  1  0.40670000  0.14837000  0.62722000  1.0
  C  C43  1  0.96589000  0.35182000  0.62721000  1.0
  C  C44  1  0.59330000  0.85163000  0.37278000  1.0
  C  C45  1  0.03412000  0.64818000  0.37279000  1.0
  C  C46  1  0.16957000  0.97447000  0.57920000  1.0
  C  C47  1  0.25127000  0.52557000  0.57949000  1.0
  C  C48  1  0.83043000  0.02554000  0.42080000  1.0
  C  C49  1  0.74872000  0.47442000  0.42051000  1.0
  C  C50  1  0.36484000  0.54006000  0.88667000  1.0
  C  C51  1  0.74816000  0.96019000  0.88672000  1.0
  C  C52  1  0.63515000  0.45994000  0.11334000  1.0
  C  C53  1  0.25183000  0.03981000  0.11329000  1.0
  C  C54  1  0.17764000  0.51879000  0.94568000  1.0
  C  C55  1  0.87628000  0.98152000  0.94579000  1.0
  C  C56  1  0.82235000  0.48121000  0.05433000  1.0
  C  C57  1  0.12373000  0.01848000  0.05421000  1.0
  C  C58  1  0.05939000  0.58243000  0.04275000  1.0
  C  C59  1  0.89737000  0.91790000  0.04290000  1.0
  C  C60  1  0.94059000  0.41758000  0.95726000  1.0
  C  C61  1  0.10262000  0.08210000  0.95711000  1.0
  C  C62  1  0.88593000  0.56391000  0.09577000  1.0
  C  C63  1  0.01819000  0.93608000  0.09579000  1.0
  C  C64  1  0.11405000  0.43609000  0.90424000  1.0
  C  C65  1  0.98181000  0.06393000  0.90421000  1.0
  N  N66  1  0.44398000  0.86530000  0.76467000  1.0
  N  N67  1  0.79120000  0.63475000  0.76484000  1.0
  N  N68  1  0.55602000  0.13470000  0.23533000  1.0
  N  N69  1  0.20880000  0.36525000  0.23516000  1.0
  N  N70  1  0.47993000  0.97217000  0.73625000  1.0
  N  N71  1  0.78374000  0.52790000  0.73633000  1.0
  N  N72  1  0.52006000  0.02783000  0.26375000  1.0
  N  N73  1  0.21626000  0.47210000  0.26367000  1.0
  O  O74  1  0.37860000  0.64300000  0.86119000  1.0
  O  O75  1  0.76020000  0.85724000  0.86114000  1.0
  O  O76  1  0.62140000  0.35700000  0.13881000  1.0
  O  O77  1  0.23980000  0.14276000  0.13886000  1.0
  O  O78  1  0.49432000  0.45228000  0.86599000  1.0
  O  O79  1  0.63918000  0.04789000  0.86606000  1.0
  O  O80  1  0.50567000  0.54772000  0.13401000  1.0
  O  O81  1  0.36083000  0.95211000  0.13394000  1.0
  O  O82  1  0.08144000  0.89104000  0.58551000  1.0
  O  O83  1  0.33326000  0.60892000  0.58573000  1.0
  O  O84  1  0.91856000  0.10896000  0.41448000  1.0
  O  O85  1  0.66674000  0.39108000  0.41427000  1.0
  O  O86  1  0.14899000  0.06529000  0.52182000  1.0
  O  O87  1  0.32908000  0.43480000  0.52199000  1.0
  O  O88  1  0.85101000  0.93471000  0.47818000  1.0
  O  O89  1  0.67091000  0.56520000  0.47800000  1.0
  O  O90  1  0.48717000  0.75004000  0.02534000  1.0
  O  O91  1  0.51284000  0.24996000  0.97465000  1.0
  F  F92  1  0.11448000  0.66151000  0.08902000  1.0
  F  F93  1  0.79579000  0.83895000  0.08926000  1.0
  F  F94  1  0.88551000  0.33849000  0.91098000  1.0
  F  F95  1  0.20421000  0.16105000  0.91074000  1.0
  F  F96  1  0.77925000  0.62524000  0.19213000  1.0
  F  F97  1  0.02835000  0.87475000  0.19219000  1.0
  F  F98  1  0.22074000  0.37476000  0.80787000  1.0
  F  F99  1  0.97165000  0.12525000  0.80782000  1.0
