# generated using pymatgen
data_SrH6(C3N2)2
_symmetry_space_group_name_H-M   'P 1'
_cell_length_a   7.10241000
_cell_length_b   7.10242000
_cell_length_c   7.43272000
_cell_angle_alpha   94.76700000
_cell_angle_beta   94.76330000
_cell_angle_gamma   92.37670000
_symmetry_Int_Tables_number   1
_chemical_formula_structural   SrH6(C3N2)2
_chemical_formula_sum   'Sr2 H12 C12 N8'
_cell_volume   371.90900446
_cell_formula_units_Z   2
loop_
 _symmetry_equiv_pos_site_id
 _symmetry_equiv_pos_as_xyz
  1  'x, y, z'
loop_
 _atom_site_type_symbol
 _atom_site_label
 _atom_site_symmetry_multiplicity
 _atom_site_fract_x
 _atom_site_fract_y
 _atom_site_fract_z
 _atom_site_occupancy
  Sr  Sr0  1  0.39248000  0.60752000  0.25000000  1.0
  Sr  Sr1  1  0.60752000  0.39248000  0.74999000  1.0
  H  H2  1  0.11527000  0.64138000  0.75136000  1.0
  H  H3  1  0.35860000  0.88474000  0.74863000  1.0
  H  H4  1  0.88474000  0.35864000  0.24864000  1.0
  H  H5  1  0.64139000  0.11527000  0.25134000  1.0
  H  H6  1  0.96121000  0.10492000  0.90363000  1.0
  H  H7  1  0.89509000  0.03874000  0.59636000  1.0
  H  H8  1  0.03876000  0.89512000  0.09638000  1.0
  H  H9  1  0.10494000  0.96121000  0.40366000  1.0
  H  H10  1  0.33446000  0.18968000  0.02296000  1.0
  H  H11  1  0.81032000  0.66549000  0.47706000  1.0
  H  H12  1  0.66552000  0.81033000  0.97704000  1.0
  H  H13  1  0.18969000  0.33448000  0.52295000  1.0
  C  C14  1  0.12557000  0.50542000  0.80809000  1.0
  C  C15  1  0.49456000  0.87443000  0.69190000  1.0
  C  C16  1  0.87444000  0.49459000  0.19191000  1.0
  C  C17  1  0.50545000  0.12556000  0.30808000  1.0
  C  C18  1  0.04892000  0.22991000  0.88720000  1.0
  C  C19  1  0.77008000  0.95106000  0.61279000  1.0
  C  C20  1  0.95107000  0.77011000  0.11281000  1.0
  C  C21  1  0.22995000  0.04893000  0.38723000  1.0
  C  C22  1  0.23572000  0.27292000  0.94695000  1.0
  C  C23  1  0.72708000  0.76424000  0.55305000  1.0
  C  C24  1  0.76426000  0.72710000  0.05306000  1.0
  C  C25  1  0.27293000  0.23574000  0.44696000  1.0
  N  N26  1  0.28643000  0.45118000  0.89674000  1.0
  N  N27  1  0.54879000  0.71355000  0.60325000  1.0
  N  N28  1  0.71357000  0.54883000  0.10325000  1.0
  N  N29  1  0.45121000  0.28644000  0.39674000  1.0
  N  N30  1  0.97842000  0.37800000  0.79752000  1.0
  N  N31  1  0.62199000  0.02157000  0.70245000  1.0
  N  N32  1  0.02157000  0.62203000  0.20248000  1.0
  N  N33  1  0.37803000  0.97841000  0.29754000  1.0
