# generated using pymatgen
data_CdH26C26(N2O3)2
_symmetry_space_group_name_H-M   'P 1'
_cell_length_a   10.75410000
_cell_length_b   11.81180000
_cell_length_c   11.97750000
_cell_angle_alpha   96.80920000
_cell_angle_beta   113.05400000
_cell_angle_gamma   110.45100000
_symmetry_Int_Tables_number   1
_chemical_formula_structural   CdH26C26(N2O3)2
_chemical_formula_sum   'Cd2 H52 C52 N8 O12'
_cell_volume   1252.82800383
_cell_formula_units_Z   2
loop_
 _symmetry_equiv_pos_site_id
 _symmetry_equiv_pos_as_xyz
  1  'x, y, z'
loop_
 _atom_site_type_symbol
 _atom_site_label
 _atom_site_symmetry_multiplicity
 _atom_site_fract_x
 _atom_site_fract_y
 _atom_site_fract_z
 _atom_site_occupancy
  Cd  Cd0  1  0.70651000  0.51096000  0.58659000  1.0
  Cd  Cd1  1  0.29349000  0.48904000  0.41341000  1.0
  H  H2  1  0.14889000  0.36785000  0.04604000  1.0
  H  H3  1  0.85111000  0.63215000  0.95396000  1.0
  H  H4  1  0.36512000  0.93797000  0.23961000  1.0
  H  H5  1  0.63488000  0.06203000  0.76039000  1.0
  H  H6  1  0.07004000  0.68297000  0.71708000  1.0
  H  H7  1  0.92996000  0.31702000  0.28292000  1.0
  H  H8  1  0.30465000  0.70757000  0.89828000  1.0
  H  H9  1  0.69535000  0.29243000  0.10172000  1.0
  H  H10  1  0.29179000  0.54658000  0.01816000  1.0
  H  H11  1  0.70821000  0.45342000  0.98184000  1.0
  H  H12  1  0.81646000  0.35274000  0.76352000  1.0
  H  H13  1  0.18354000  0.64726000  0.23648000  1.0
  H  H14  1  0.87069000  0.11285000  0.04130000  1.0
  H  H15  1  0.12931000  0.88715000  0.95870000  1.0
  H  H16  1  0.06665000  0.20979000  0.11256000  1.0
  H  H17  1  0.93335000  0.79021000  0.88744000  1.0
  H  H18  1  0.08110000  0.08234000  0.93743000  1.0
  H  H19  1  0.91890000  0.91766000  0.06257000  1.0
  H  H20  1  0.88610000  0.98695000  0.86594000  1.0
  H  H21  1  0.11390000  0.01305000  0.13406000  1.0
  H  H22  1  0.47450000  0.31331000  0.66232000  1.0
  H  H23  1  0.52550000  0.68669000  0.33768000  1.0
  H  H24  1  0.26618000  0.09289000  0.55087000  1.0
  H  H25  1  0.73382000  0.90711000  0.44913000  1.0
  H  H26  1  0.26290000  0.95663000  0.37266000  1.0
  H  H27  1  0.73710000  0.04337000  0.62734000  1.0
  H  H28  1  0.66796000  0.26507000  0.43152000  1.0
  H  H29  1  0.33204000  0.73493000  0.56848000  1.0
  H  H30  1  0.61185000  0.89231000  0.19035000  1.0
  H  H31  1  0.38815000  0.10769000  0.80965000  1.0
  H  H32  1  0.41937000  0.85815000  0.11038000  1.0
  H  H33  1  0.58064000  0.14185000  0.88962000  1.0
  H  H34  1  0.67084000  0.04810000  0.07385000  1.0
  H  H35  1  0.32916000  0.95190000  0.92615000  1.0
  H  H36  1  0.54356000  0.89408000  0.96850000  1.0
  H  H37  1  0.45644000  0.10592000  0.03150000  1.0
  H  H38  1  0.56632000  0.73135000  0.84873000  1.0
  H  H39  1  0.43368000  0.26865000  0.15127000  1.0
  H  H40  1  0.39105000  0.60481000  0.73471000  1.0
  H  H41  1  0.60895000  0.39519000  0.26529000  1.0
  H  H42  1  0.34255000  0.38088000  0.77085000  1.0
  H  H43  1  0.65745000  0.61912000  0.22915000  1.0
  H  H44  1  0.66114000  0.73059000  0.06673000  1.0
  H  H45  1  0.33887000  0.26942000  0.93327000  1.0
  H  H46  1  0.09220000  0.74603000  0.51404000  1.0
  H  H47  1  0.90780000  0.25397000  0.48596000  1.0
  H  H48  1  0.95483000  0.70446000  0.35503000  1.0
  H  H49  1  0.04517000  0.29554000  0.64497000  1.0
  H  H50  1  0.90243000  0.86921000  0.28034000  1.0
  H  H51  1  0.09757000  0.13079000  0.71966000  1.0
  H  H52  1  0.08790000  0.91577000  0.68122000  1.0
  H  H53  1  0.91210000  0.08422000  0.31878000  1.0
  C  C54  1  0.06835000  0.61460000  0.77051000  1.0
  C  C55  1  0.93165000  0.38540000  0.22949000  1.0
  C  C56  1  0.19874000  0.62801000  0.87237000  1.0
  C  C57  1  0.80126000  0.37199000  0.12763000  1.0
  C  C58  1  0.19170000  0.53847000  0.93784000  1.0
  C  C59  1  0.80830000  0.46153000  0.06216000  1.0
  C  C60  1  0.05324000  0.43500000  0.89822000  1.0
  C  C61  1  0.94676000  0.56500000  0.10178000  1.0
  C  C62  1  0.92650000  0.42936000  0.79597000  1.0
  C  C63  1  0.07350000  0.57064000  0.20403000  1.0
  C  C64  1  0.93277000  0.23247000  0.93500000  1.0
  C  C65  1  0.06723000  0.76753000  0.06500000  1.0
  C  C66  1  0.96625000  0.15186000  0.02154000  1.0
  C  C67  1  0.03375000  0.84814000  0.97846000  1.0
  C  C68  1  0.98608000  0.04295000  0.95822000  1.0
  C  C69  1  0.01392000  0.95705000  0.04178000  1.0
  C  C70  1  0.46966000  0.24961000  0.58546000  1.0
  C  C71  1  0.53034000  0.75039000  0.41454000  1.0
  C  C72  1  0.35435000  0.12765000  0.52320000  1.0
  C  C73  1  0.64565000  0.87235000  0.47680000  1.0
  C  C74  1  0.35214000  0.05224000  0.42377000  1.0
  C  C75  1  0.64786000  0.94776000  0.57623000  1.0
  C  C76  1  0.46653000  0.09985000  0.38884000  1.0
  C  C77  1  0.53347000  0.90015000  0.61116000  1.0
  C  C78  1  0.57888000  0.22338000  0.45662000  1.0
  C  C79  1  0.42112000  0.77662000  0.54338000  1.0
  C  C80  1  0.56711000  0.04401000  0.24696000  1.0
  C  C81  1  0.43290000  0.95599000  0.75305000  1.0
  C  C82  1  0.53333000  0.93232000  0.14459000  1.0
  C  C83  1  0.46667000  0.06768000  0.85541000  1.0
  C  C84  1  0.55544000  0.97440000  0.03536000  1.0
  C  C85  1  0.44456000  0.02560000  0.96464000  1.0
  C  C86  1  0.58537000  0.58798000  0.74030000  1.0
  C  C87  1  0.41463000  0.41202000  0.25970000  1.0
  C  C88  1  0.50527000  0.62784000  0.80644000  1.0
  C  C89  1  0.49473000  0.37216000  0.19356000  1.0
  C  C90  1  0.50243000  0.56365000  0.90719000  1.0
  C  C91  1  0.49757000  0.43635000  0.09281000  1.0
  C  C92  1  0.41271000  0.43330000  0.87157000  1.0
  C  C93  1  0.58729000  0.56670000  0.12843000  1.0
  C  C94  1  0.58961000  0.62916000  0.03696000  1.0
  C  C95  1  0.41039000  0.37084000  0.96304000  1.0
  C  C96  1  0.87156000  0.65275000  0.48662000  1.0
  C  C97  1  0.12844000  0.34725000  0.51338000  1.0
  C  C98  1  0.98342000  0.74511000  0.45399000  1.0
  C  C99  1  0.01658000  0.25489000  0.54601000  1.0
  C  C100  1  0.99470000  0.87702000  0.47809000  1.0
  C  C101  1  0.00530000  0.12298000  0.52191000  1.0
  C  C102  1  0.94532000  0.92664000  0.37730000  1.0
  C  C103  1  0.05468000  0.07336000  0.62270000  1.0
  C  C104  1  0.04978000  0.95273000  0.60161000  1.0
  C  C105  1  0.95021000  0.04727000  0.39839000  1.0
  N  N106  1  0.93540000  0.51780000  0.73507000  1.0
  N  N107  1  0.06460000  0.48220000  0.26493000  1.0
  N  N108  1  0.04982000  0.34444000  0.96398000  1.0
  N  N109  1  0.95018000  0.65556000  0.03602000  1.0
  N  N110  1  0.57842000  0.29554000  0.55195000  1.0
  N  N111  1  0.42158000  0.70447000  0.44806000  1.0
  N  N112  1  0.46169000  0.02198000  0.28867000  1.0
  N  N113  1  0.53831000  0.97802000  0.71132000  1.0
  O  O114  1  0.80682000  0.19535000  0.84116000  1.0
  O  O115  1  0.19318000  0.80465000  0.15884000  1.0
  O  O116  1  0.68164000  0.14472000  0.28762000  1.0
  O  O117  1  0.31836000  0.85528000  0.71238000  1.0
  O  O118  1  0.70769000  0.58231000  0.80539000  1.0
  O  O119  1  0.29231000  0.41769000  0.19461000  1.0
  O  O120  1  0.52745000  0.56040000  0.61955000  1.0
  O  O121  1  0.47255000  0.43960000  0.38045000  1.0
  O  O122  1  0.83828000  0.69932000  0.56746000  1.0
  O  O123  1  0.16172000  0.30068000  0.43254000  1.0
  O  O124  1  0.82155000  0.53520000  0.43725000  1.0
  O  O125  1  0.17845000  0.46480000  0.56275000  1.0
