# generated using pymatgen
data_InH9(C7O3)2
_symmetry_space_group_name_H-M   'P 1'
_cell_length_a   13.96870000
_cell_length_b   13.96860000
_cell_length_c   25.03954767
_cell_angle_alpha   105.02923426
_cell_angle_beta   105.02948780
_cell_angle_gamma   94.02160000
_symmetry_Int_Tables_number   1
_chemical_formula_structural   InH9(C7O3)2
_chemical_formula_sum   'In8 H72 C112 O48'
_cell_volume   4507.55940126
_cell_formula_units_Z   8
loop_
 _symmetry_equiv_pos_site_id
 _symmetry_equiv_pos_as_xyz
  1  'x, y, z'
loop_
 _atom_site_type_symbol
 _atom_site_label
 _atom_site_symmetry_multiplicity
 _atom_site_fract_x
 _atom_site_fract_y
 _atom_site_fract_z
 _atom_site_occupancy
  In  In0  1  0.12500000  0.37500000  0.75000000  1.0
  In  In1  1  0.62500000  0.37500000  0.75000000  1.0
  In  In2  1  0.62500000  0.87500000  0.25000000  1.0
  In  In3  1  0.62500000  0.37500000  0.25000000  1.0
  In  In4  1  0.86188000  0.36189000  0.72368000  1.0
  In  In5  1  0.63811000  0.13813000  0.27633000  1.0
  In  In6  1  0.38813000  0.38811000  0.77633000  1.0
  In  In7  1  0.61189000  0.61187000  0.22367000  1.0
  H  H8  1  0.18854000  0.56841000  0.93326000  1.0
  H  H9  1  0.87421000  0.57928000  0.86829000  1.0
  H  H10  1  0.18905000  0.67664000  0.03106000  1.0
  H  H11  1  0.87333000  0.68451000  0.96543000  1.0
  H  H12  1  0.92463000  0.57625000  0.04914000  1.0
  H  H13  1  0.97813000  0.89824000  0.11629000  1.0
  H  H14  1  0.79239000  0.56918000  0.09932000  1.0
  H  H15  1  0.84517000  0.88996000  0.16696000  1.0
  H  H16  1  0.53650000  0.28876000  0.80965000  1.0
  H  H17  1  0.74472000  0.36476000  0.93326000  1.0
  H  H18  1  0.99398000  0.28871000  0.86823000  1.0
  H  H19  1  0.84199000  0.35429000  0.03104000  1.0
  H  H20  1  0.09205000  0.28081000  0.96539000  1.0
  H  H21  1  0.12471000  0.47288000  0.04918000  1.0
  H  H22  1  0.13824000  0.21798000  0.11628000  1.0
  H  H23  1  0.30718000  0.53001000  0.09931000  1.0
  H  H24  1  0.32182000  0.27689000  0.16701000  1.0
  H  H25  1  0.27306000  0.52088000  0.80962000  1.0
  H  H26  1  0.43159000  0.81146000  0.06674000  1.0
  H  H27  1  0.42072000  0.12579000  0.13171000  1.0
  H  H28  1  0.32336000  0.81095000  0.96894000  1.0
  H  H29  1  0.31549000  0.12667000  0.03457000  1.0
  H  H30  1  0.42375000  0.07537000  0.95086000  1.0
  H  H31  1  0.10175000  0.02187000  0.88371000  1.0
  H  H32  1  0.43082000  0.20761000  0.90068000  1.0
  H  H33  1  0.11004000  0.15483000  0.83304000  1.0
  H  H34  1  0.71124000  0.46350000  0.19035000  1.0
  H  H35  1  0.63524000  0.25528000  0.06674000  1.0
  H  H36  1  0.71129000  0.00602000  0.13177000  1.0
  H  H37  1  0.64571000  0.15801000  0.96896000  1.0
  H  H38  1  0.71919000  0.90795000  0.03461000  1.0
  H  H39  1  0.52713000  0.87530000  0.95083000  1.0
  H  H40  1  0.78202000  0.86175000  0.88372000  1.0
  H  H41  1  0.46999000  0.69282000  0.90069000  1.0
  H  H42  1  0.72311000  0.67818000  0.83299000  1.0
  H  H43  1  0.47912000  0.72694000  0.19038000  1.0
  H  H44  1  0.06146000  0.18159000  0.56674000  1.0
  H  H45  1  0.37579000  0.17072000  0.63171000  1.0
  H  H46  1  0.06095000  0.07336000  0.46894000  1.0
  H  H47  1  0.37667000  0.06550000  0.53457000  1.0
  H  H48  1  0.32537000  0.17374000  0.45086000  1.0
  H  H49  1  0.27187000  0.85175000  0.38371000  1.0
  H  H50  1  0.45761000  0.18082000  0.40068000  1.0
  H  H51  1  0.40483000  0.86003000  0.33304000  1.0
  H  H52  1  0.71351000  0.46124000  0.69035000  1.0
  H  H53  1  0.50528000  0.38524000  0.56674000  1.0
  H  H54  1  0.25602000  0.46129000  0.63177000  1.0
  H  H55  1  0.40801000  0.39571000  0.46896000  1.0
  H  H56  1  0.15795000  0.46919000  0.53461000  1.0
  H  H57  1  0.12529000  0.27712000  0.45082000  1.0
  H  H58  1  0.11176000  0.53202000  0.38372000  1.0
  H  H59  1  0.94282000  0.21999000  0.40069000  1.0
  H  H60  1  0.92818000  0.47312000  0.33299000  1.0
  H  H61  1  0.97694000  0.22913000  0.69038000  1.0
  H  H62  1  0.81841000  0.93855000  0.43326000  1.0
  H  H63  1  0.82928000  0.62421000  0.36829000  1.0
  H  H64  1  0.92663000  0.93905000  0.53106000  1.0
  H  H65  1  0.93451000  0.62334000  0.46544000  1.0
  H  H66  1  0.82625000  0.67463000  0.54914000  1.0
  H  H67  1  0.14824000  0.72814000  0.61629000  1.0
  H  H68  1  0.81918000  0.54239000  0.59932000  1.0
  H  H69  1  0.13997000  0.59517000  0.66696000  1.0
  H  H70  1  0.53876000  0.28650000  0.30965000  1.0
  H  H71  1  0.61475000  0.49472000  0.43326000  1.0
  H  H72  1  0.53872000  0.74398000  0.36823000  1.0
  H  H73  1  0.60428000  0.59199000  0.53104000  1.0
  H  H74  1  0.53081000  0.84205000  0.46539000  1.0
  H  H75  1  0.72288000  0.87471000  0.54918000  1.0
  H  H76  1  0.46798000  0.88825000  0.61628000  1.0
  H  H77  1  0.78001000  0.05718000  0.59931000  1.0
  H  H78  1  0.52689000  0.07182000  0.66701000  1.0
  H  H79  1  0.77088000  0.02306000  0.30962000  1.0
  C  C80  1  0.02925000  0.50342000  0.83704000  1.0
  C  C81  1  0.03148000  0.56794000  0.89497000  1.0
  C  C82  1  0.12030000  0.59499000  0.94074000  1.0
  C  C83  1  0.94275000  0.60064000  0.90422000  1.0
  C  C84  1  0.12084000  0.65393000  0.99494000  1.0
  C  C85  1  0.94216000  0.65899000  0.95824000  1.0
  C  C86  1  0.03157000  0.68517000  0.00343000  1.0
  C  C87  1  0.95835000  0.73820000  0.08032000  1.0
  C  C88  1  0.90658000  0.64484000  0.07467000  1.0
  C  C89  1  0.93655000  0.82694000  0.11295000  1.0
  C  C90  1  0.83282000  0.64107000  0.10256000  1.0
  C  C91  1  0.86299000  0.82206000  0.14076000  1.0
  C  C92  1  0.81063000  0.72928000  0.13603000  1.0
  C  C93  1  0.73496000  0.72636000  0.16819000  1.0
  C  C94  1  0.80779000  0.33356000  0.83701000  1.0
  C  C95  1  0.86346000  0.32690000  0.89494000  1.0
  C  C96  1  0.82044000  0.34563000  0.94072000  1.0
  C  C97  1  0.96139000  0.30335000  0.90416000  1.0
  C  C98  1  0.87410000  0.34086000  0.99493000  1.0
  C  C99  1  0.01602000  0.29912000  0.95821000  1.0
  C  C100  1  0.97190000  0.31816000  0.00343000  1.0
  C  C101  1  0.12213000  0.34209000  0.08033000  1.0
  C  C102  1  0.16828000  0.42982000  0.07471000  1.0
  C  C103  1  0.17653000  0.28591000  0.11293000  1.0
  C  C104  1  0.26992000  0.46141000  0.10257000  1.0
  C  C105  1  0.27788000  0.31860000  0.14078000  1.0
  C  C106  1  0.32553000  0.40663000  0.13604000  1.0
  C  C107  1  0.43335000  0.44175000  0.16822000  1.0
  C  C108  1  0.49658000  0.97075000  0.16296000  1.0
  C  C109  1  0.43207000  0.96853000  0.10503000  1.0
  C  C110  1  0.40502000  0.87971000  0.05926000  1.0
  C  C111  1  0.39936000  0.05726000  0.09578000  1.0
  C  C112  1  0.34606000  0.87915000  0.00505000  1.0
  C  C113  1  0.34101000  0.05784000  0.04176000  1.0
  C  C114  1  0.31483000  0.96843000  0.99657000  1.0
  C  C115  1  0.26180000  0.04165000  0.91968000  1.0
  C  C116  1  0.35517000  0.09342000  0.92533000  1.0
  C  C117  1  0.17306000  0.06345000  0.88705000  1.0
  C  C118  1  0.35893000  0.16718000  0.89744000  1.0
  C  C119  1  0.17794000  0.13701000  0.85924000  1.0
  C  C120  1  0.27072000  0.18937000  0.86397000  1.0
  C  C121  1  0.27364000  0.26504000  0.83181000  1.0
  C  C122  1  0.66644000  0.19221000  0.16299000  1.0
  C  C123  1  0.67310000  0.13654000  0.10506000  1.0
  C  C124  1  0.65436000  0.17956000  0.05928000  1.0
  C  C125  1  0.69665000  0.03861000  0.09584000  1.0
  C  C126  1  0.65914000  0.12590000  0.00507000  1.0
  C  C127  1  0.70089000  0.98399000  0.04180000  1.0
  C  C128  1  0.68184000  0.02809000  0.99657000  1.0
  C  C129  1  0.65791000  0.87787000  0.91967000  1.0
  C  C130  1  0.57018000  0.83172000  0.92529000  1.0
  C  C131  1  0.71409000  0.82347000  0.88707000  1.0
  C  C132  1  0.53859000  0.73008000  0.89743000  1.0
  C  C133  1  0.68140000  0.72212000  0.85922000  1.0
  C  C134  1  0.59337000  0.67447000  0.86396000  1.0
  C  C135  1  0.55825000  0.56665000  0.83178000  1.0
  C  C136  1  0.22074000  0.24657000  0.66295000  1.0
  C  C137  1  0.21852000  0.18206000  0.60503000  1.0
  C  C138  1  0.12970000  0.15501000  0.55926000  1.0
  C  C139  1  0.30725000  0.14936000  0.59578000  1.0
  C  C140  1  0.12916000  0.09607000  0.50506000  1.0
  C  C141  1  0.30784000  0.09101000  0.54176000  1.0
  C  C142  1  0.21843000  0.06483000  0.49657000  1.0
  C  C143  1  0.29165000  0.01180000  0.41968000  1.0
  C  C144  1  0.34342000  0.10516000  0.42533000  1.0
  C  C145  1  0.31345000  0.92306000  0.38705000  1.0
  C  C146  1  0.41717000  0.10893000  0.39744000  1.0
  C  C147  1  0.38701000  0.92794000  0.35924000  1.0
  C  C148  1  0.43937000  0.02071000  0.36397000  1.0
  C  C149  1  0.51504000  0.02364000  0.33181000  1.0
  C  C150  1  0.44221000  0.41644000  0.66299000  1.0
  C  C151  1  0.38654000  0.42310000  0.60506000  1.0
  C  C152  1  0.42956000  0.40436000  0.55928000  1.0
  C  C153  1  0.28861000  0.44665000  0.59584000  1.0
  C  C154  1  0.37590000  0.40914000  0.50507000  1.0
  C  C155  1  0.23399000  0.45089000  0.54180000  1.0
  C  C156  1  0.27810000  0.43184000  0.49657000  1.0
  C  C157  1  0.12788000  0.40792000  0.41968000  1.0
  C  C158  1  0.08172000  0.32018000  0.42529000  1.0
  C  C159  1  0.07347000  0.46409000  0.38707000  1.0
  C  C160  1  0.98008000  0.28859000  0.39743000  1.0
  C  C161  1  0.97212000  0.43141000  0.35922000  1.0
  C  C162  1  0.92447000  0.34337000  0.36396000  1.0
  C  C163  1  0.81665000  0.30825000  0.33178000  1.0
  C  C164  1  0.75342000  0.77925000  0.33704000  1.0
  C  C165  1  0.81793000  0.78148000  0.39497000  1.0
  C  C166  1  0.84498000  0.87030000  0.44074000  1.0
  C  C167  1  0.85064000  0.69274000  0.40422000  1.0
  C  C168  1  0.90393000  0.87085000  0.49495000  1.0
  C  C169  1  0.90898000  0.69216000  0.45824000  1.0
  C  C170  1  0.93518000  0.78158000  0.50344000  1.0
  C  C171  1  0.98819000  0.70835000  0.58032000  1.0
  C  C172  1  0.89483000  0.65658000  0.57467000  1.0
  C  C173  1  0.07694000  0.68655000  0.61295000  1.0
  C  C174  1  0.89107000  0.58283000  0.60256000  1.0
  C  C175  1  0.07206000  0.61299000  0.64076000  1.0
  C  C176  1  0.97928000  0.56063000  0.63603000  1.0
  C  C177  1  0.97636000  0.48496000  0.66819000  1.0
  C  C178  1  0.58356000  0.55779000  0.33701000  1.0
  C  C179  1  0.57690000  0.61346000  0.39494000  1.0
  C  C180  1  0.59563000  0.57044000  0.44072000  1.0
  C  C181  1  0.55335000  0.71139000  0.40416000  1.0
  C  C182  1  0.59086000  0.62410000  0.49493000  1.0
  C  C183  1  0.54911000  0.76601000  0.45820000  1.0
  C  C184  1  0.56816000  0.72190000  0.50343000  1.0
  C  C185  1  0.59209000  0.87213000  0.58033000  1.0
  C  C186  1  0.67982000  0.91828000  0.57471000  1.0
  C  C187  1  0.53591000  0.92653000  0.61293000  1.0
  C  C188  1  0.71141000  0.01992000  0.60257000  1.0
  C  C189  1  0.56860000  0.02789000  0.64078000  1.0
  C  C190  1  0.65663000  0.07553000  0.63604000  1.0
  C  C191  1  0.69175000  0.18335000  0.66822000  1.0
  O  O192  1  0.10854000  0.46533000  0.83202000  1.0
  O  O193  1  0.94873000  0.49018000  0.79636000  1.0
  O  O194  1  0.03729000  0.74712000  0.05731000  1.0
  O  O195  1  0.68458000  0.64092000  0.16058000  1.0
  O  O196  1  0.72713000  0.80946000  0.20149000  1.0
  O  O197  1  0.98546000  0.28038000  0.72667000  1.0
  O  O198  1  0.72348000  0.36664000  0.83200000  1.0
  O  O199  1  0.84770000  0.30619000  0.79633000  1.0
  O  O200  1  0.02013000  0.31021000  0.05734000  1.0
  O  O201  1  0.47621000  0.51948000  0.16056000  1.0
  O  O202  1  0.47435000  0.39201000  0.20159000  1.0
  O  O203  1  0.74121000  0.44626000  0.72664000  1.0
  O  O204  1  0.53467000  0.89146000  0.16798000  1.0
  O  O205  1  0.50983000  0.05128000  0.20365000  1.0
  O  O206  1  0.25288000  0.96271000  0.94269000  1.0
  O  O207  1  0.35908000  0.31542000  0.83942000  1.0
  O  O208  1  0.19054000  0.27287000  0.79851000  1.0
  O  O209  1  0.71962000  0.01455000  0.27333000  1.0
  O  O210  1  0.63336000  0.27652000  0.16800000  1.0
  O  O211  1  0.69381000  0.15230000  0.20367000  1.0
  O  O212  1  0.68980000  0.97988000  0.94267000  1.0
  O  O213  1  0.48052000  0.52380000  0.83944000  1.0
  O  O214  1  0.60799000  0.52565000  0.79841000  1.0
  O  O215  1  0.55374000  0.25879000  0.27336000  1.0
  O  O216  1  0.14146000  0.28467000  0.66798000  1.0
  O  O217  1  0.30127000  0.25982000  0.70364000  1.0
  O  O218  1  0.21270000  0.00287000  0.44268000  1.0
  O  O219  1  0.56542000  0.10908000  0.33942000  1.0
  O  O220  1  0.52287000  0.94054000  0.29851000  1.0
  O  O221  1  0.26455000  0.46962000  0.77333000  1.0
  O  O222  1  0.52652000  0.38336000  0.66800000  1.0
  O  O223  1  0.40231000  0.44381000  0.70367000  1.0
  O  O224  1  0.22987000  0.43979000  0.44266000  1.0
  O  O225  1  0.77380000  0.23052000  0.33944000  1.0
  O  O226  1  0.77566000  0.35799000  0.29841000  1.0
  O  O227  1  0.50879000  0.30374000  0.77336000  1.0
  O  O228  1  0.71533000  0.85854000  0.33202000  1.0
  O  O229  1  0.74018000  0.69873000  0.29636000  1.0
  O  O230  1  0.99711000  0.78729000  0.55731000  1.0
  O  O231  1  0.89092000  0.43458000  0.66058000  1.0
  O  O232  1  0.05946000  0.47713000  0.70149000  1.0
  O  O233  1  0.53038000  0.73546000  0.22667000  1.0
  O  O234  1  0.61664000  0.47348000  0.33200000  1.0
  O  O235  1  0.55619000  0.59769000  0.29633000  1.0
  O  O236  1  0.56020000  0.77012000  0.55733000  1.0
  O  O237  1  0.76948000  0.22621000  0.66056000  1.0
  O  O238  1  0.64201000  0.22435000  0.70159000  1.0
  O  O239  1  0.69626000  0.49121000  0.22664000  1.0
