# generated using pymatgen
data_NaH5C5N2O5
_symmetry_space_group_name_H-M   'P 1'
_cell_length_a   3.55431000
_cell_length_b   10.60300000
_cell_length_c   17.87070000
_cell_angle_alpha   90.00040000
_cell_angle_beta   90.00010000
_cell_angle_gamma   91.66940000
_symmetry_Int_Tables_number   1
_chemical_formula_structural   NaH5C5N2O5
_chemical_formula_sum   'Na4 H20 C20 N8 O20'
_cell_volume   673.19558431
_cell_formula_units_Z   4
loop_
 _symmetry_equiv_pos_site_id
 _symmetry_equiv_pos_as_xyz
  1  'x, y, z'
loop_
 _atom_site_type_symbol
 _atom_site_label
 _atom_site_symmetry_multiplicity
 _atom_site_fract_x
 _atom_site_fract_y
 _atom_site_fract_z
 _atom_site_occupancy
  Na  Na0  1  0.28976000  0.13186000  0.53256000  1.0
  Na  Na1  1  0.21024000  0.36815000  0.03256000  1.0
  Na  Na2  1  0.71022000  0.86815000  0.46744000  1.0
  Na  Na3  1  0.78977000  0.63185000  0.96744000  1.0
  H  H4  1  0.09808000  0.49145000  0.24065000  1.0
  H  H5  1  0.40193000  0.00855000  0.74065000  1.0
  H  H6  1  0.90193000  0.50855000  0.75935000  1.0
  H  H7  1  0.59807000  0.99145000  0.25935000  1.0
  H  H8  1  0.61549000  0.55530000  0.44531000  1.0
  H  H9  1  0.88450000  0.94469000  0.94531000  1.0
  H  H10  1  0.38450000  0.44470000  0.55469000  1.0
  H  H11  1  0.11550000  0.05531000  0.05469000  1.0
  H  H12  1  0.05430000  0.26661000  0.25850000  1.0
  H  H13  1  0.44573000  0.23339000  0.75850000  1.0
  H  H14  1  0.94571000  0.73340000  0.74150000  1.0
  H  H15  1  0.55428000  0.76662000  0.24150000  1.0
  H  H16  1  0.87666000  0.21160000  0.64468000  1.0
  H  H17  1  0.62335000  0.28841000  0.14468000  1.0
  H  H18  1  0.12334000  0.78841000  0.35532000  1.0
  H  H19  1  0.37666000  0.71160000  0.85532000  1.0
  H  H20  1  0.89297000  0.06188000  0.64530000  1.0
  H  H21  1  0.60704000  0.43813000  0.14530000  1.0
  H  H22  1  0.10702000  0.93813000  0.35470000  1.0
  H  H23  1  0.39297000  0.56187000  0.85470000  1.0
  C  C24  1  0.84826000  0.54129000  0.33984000  1.0
  C  C25  1  0.65175000  0.95871000  0.83984000  1.0
  C  C26  1  0.15175000  0.45871000  0.66016000  1.0
  C  C27  1  0.34826000  0.04129000  0.16017000  1.0
  C  C28  1  0.66090000  0.36328000  0.42302000  1.0
  C  C29  1  0.83911000  0.13672000  0.92302000  1.0
  C  C30  1  0.33908000  0.63672000  0.57698000  1.0
  C  C31  1  0.16090000  0.86328000  0.07698000  1.0
  C  C32  1  0.79570000  0.27707000  0.36672000  1.0
  C  C33  1  0.70430000  0.22293000  0.86672000  1.0
  C  C34  1  0.20429000  0.72294000  0.63328000  1.0
  C  C35  1  0.29570000  0.77707000  0.13328000  1.0
  C  C36  1  0.94484000  0.32792000  0.30196000  1.0
  C  C37  1  0.55517000  0.17208000  0.80195000  1.0
  C  C38  1  0.05516000  0.67208000  0.69805000  1.0
  C  C39  1  0.44484000  0.82792000  0.19805000  1.0
  C  C40  1  0.81218000  0.13683000  0.37813000  1.0
  C  C41  1  0.68783000  0.36317000  0.87812000  1.0
  C  C42  1  0.18780000  0.86317000  0.62187000  1.0
  C  C43  1  0.31217000  0.63684000  0.12187000  1.0
  N  N44  1  0.97129000  0.45367000  0.28892000  1.0
  N  N45  1  0.52872000  0.04632000  0.78892000  1.0
  N  N46  1  0.02872000  0.54633000  0.71108000  1.0
  N  N47  1  0.47129000  0.95368000  0.21108000  1.0
  N  N48  1  0.70254000  0.49083000  0.40503000  1.0
  N  N49  1  0.79746000  0.00917000  0.90502000  1.0
  N  N50  1  0.29745000  0.50917000  0.59497000  1.0
  N  N51  1  0.20255000  0.99083000  0.09498000  1.0
  O  O52  1  0.86585000  0.65614000  0.32766000  1.0
  O  O53  1  0.63415000  0.84386000  0.82766000  1.0
  O  O54  1  0.13417000  0.34387000  0.67234000  1.0
  O  O55  1  0.36586000  0.15614000  0.17234000  1.0
  O  O56  1  0.50760000  0.33530000  0.48430000  1.0
  O  O57  1  0.99241000  0.16470000  0.98430000  1.0
  O  O58  1  0.49237000  0.66470000  0.51570000  1.0
  O  O59  1  0.00758000  0.83530000  0.01570000  1.0
  O  O60  1  0.76327000  0.09358000  0.44367000  1.0
  O  O61  1  0.73673000  0.40642000  0.94367000  1.0
  O  O62  1  0.23672000  0.90642000  0.55634000  1.0
  O  O63  1  0.26329000  0.59359000  0.05633000  1.0
  O  O64  1  0.89515000  0.07028000  0.32118000  1.0
  O  O65  1  0.60486000  0.42971000  0.82118000  1.0
  O  O66  1  0.10483000  0.92972000  0.67882000  1.0
  O  O67  1  0.39515000  0.57029000  0.17882000  1.0
  O  O68  1  0.76921000  0.13485000  0.62120000  1.0
  O  O69  1  0.73080000  0.36515000  0.12120000  1.0
  O  O70  1  0.23078000  0.86515000  0.37880000  1.0
  O  O71  1  0.26921000  0.63485000  0.87880000  1.0
