# generated using pymatgen
data_Cu2H8C6N4O5
_symmetry_space_group_name_H-M   'P 1'
_cell_length_a   8.14815000
_cell_length_b   16.54830000
_cell_length_c   17.68340000
_cell_angle_alpha   89.99960000
_cell_angle_beta   101.89500000
_cell_angle_gamma   89.99960000
_symmetry_Int_Tables_number   1
_chemical_formula_structural   Cu2H8C6N4O5
_chemical_formula_sum   'Cu16 H64 C48 N32 O40'
_cell_volume   2333.19466374
_cell_formula_units_Z   8
loop_
 _symmetry_equiv_pos_site_id
 _symmetry_equiv_pos_as_xyz
  1  'x, y, z'
loop_
 _atom_site_type_symbol
 _atom_site_label
 _atom_site_symmetry_multiplicity
 _atom_site_fract_x
 _atom_site_fract_y
 _atom_site_fract_z
 _atom_site_occupancy
  Cu  Cu0  1  0.52907000  0.20653000  0.78406000  1.0
  Cu  Cu1  1  0.47092000  0.70653000  0.71594000  1.0
  Cu  Cu2  1  0.47092000  0.79348000  0.21593000  1.0
  Cu  Cu3  1  0.52908000  0.29347000  0.28407000  1.0
  Cu  Cu4  1  0.72479000  0.10394000  0.66912000  1.0
  Cu  Cu5  1  0.27521000  0.60395000  0.83088000  1.0
  Cu  Cu6  1  0.27520000  0.89606000  0.33087000  1.0
  Cu  Cu7  1  0.72480000  0.39606000  0.16913000  1.0
  Cu  Cu8  1  0.05425000  0.16738000  0.47480000  1.0
  Cu  Cu9  1  0.94576000  0.66739000  0.02520000  1.0
  Cu  Cu10  1  0.94574000  0.83261000  0.52519000  1.0
  Cu  Cu11  1  0.05426000  0.33260000  0.97481000  1.0
  Cu  Cu12  1  0.91358000  0.08448000  0.30032000  1.0
  Cu  Cu13  1  0.08643000  0.58447000  0.19967000  1.0
  Cu  Cu14  1  0.08642000  0.91552000  0.69967000  1.0
  Cu  Cu15  1  0.91358000  0.41552000  0.80034000  1.0
  H  H16  1  0.77735000  0.23116000  0.73610000  1.0
  H  H17  1  0.22264000  0.73117000  0.76390000  1.0
  H  H18  1  0.22263000  0.76885000  0.26388000  1.0
  H  H19  1  0.77737000  0.26884000  0.23611000  1.0
  H  H20  1  0.78927000  0.16625000  0.38704000  1.0
  H  H21  1  0.21073000  0.66625000  0.11296000  1.0
  H  H22  1  0.21072000  0.83373000  0.61294000  1.0
  H  H23  1  0.78927000  0.33373000  0.88706000  1.0
  H  H24  1  0.36494000  0.04527000  0.80073000  1.0
  H  H25  1  0.63507000  0.54527000  0.69927000  1.0
  H  H26  1  0.63508000  0.95475000  0.19927000  1.0
  H  H27  1  0.36491000  0.45474000  0.30073000  1.0
  H  H28  1  0.46919000  0.07053000  0.88110000  1.0
  H  H29  1  0.53082000  0.57054000  0.61891000  1.0
  H  H30  1  0.53086000  0.92947000  0.11890000  1.0
  H  H31  1  0.46914000  0.42946000  0.38109000  1.0
  H  H32  1  0.78428000  0.14721000  0.13597000  1.0
  H  H33  1  0.21570000  0.64721000  0.36403000  1.0
  H  H34  1  0.21569000  0.85281000  0.86402000  1.0
  H  H35  1  0.78430000  0.35281000  0.63599000  1.0
  H  H36  1  0.66724000  0.12072000  0.18911000  1.0
  H  H37  1  0.33274000  0.62072000  0.31088000  1.0
  H  H38  1  0.33275000  0.87928000  0.81087000  1.0
  H  H39  1  0.66725000  0.37928000  0.68914000  1.0
  H  H40  1  0.99705000  0.17875000  0.82574000  1.0
  H  H41  1  0.00294000  0.67875000  0.67426000  1.0
  H  H42  1  0.00293000  0.82127000  0.17425000  1.0
  H  H43  1  0.99706000  0.32125000  0.32575000  1.0
  H  H44  1  0.75690000  0.03986000  0.83984000  1.0
  H  H45  1  0.24310000  0.53986000  0.66017000  1.0
  H  H46  1  0.24310000  0.96016000  0.16014000  1.0
  H  H47  1  0.75689000  0.46014000  0.33985000  1.0
  H  H48  1  0.96092000  0.05162000  0.89962000  1.0
  H  H49  1  0.03909000  0.55162000  0.60039000  1.0
  H  H50  1  0.03909000  0.94839000  0.10036000  1.0
  H  H51  1  0.96091000  0.44838000  0.39963000  1.0
  H  H52  1  0.44703000  0.12811000  0.50601000  1.0
  H  H53  1  0.55299000  0.62812000  0.99400000  1.0
  H  H54  1  0.55297000  0.87190000  0.49398000  1.0
  H  H55  1  0.44703000  0.37190000  0.00601000  1.0
  H  H56  1  0.15736000  0.22417000  0.65498000  1.0
  H  H57  1  0.84263000  0.72417000  0.84502000  1.0
  H  H58  1  0.84261000  0.77582000  0.34501000  1.0
  H  H59  1  0.15739000  0.27581000  0.15499000  1.0
  H  H60  1  0.22213000  0.15109000  0.21762000  1.0
  H  H61  1  0.77786000  0.65109000  0.28238000  1.0
  H  H62  1  0.77788000  0.84890000  0.78238000  1.0
  H  H63  1  0.22213000  0.34890000  0.71762000  1.0
  H  H64  1  0.37054000  0.27344000  0.42912000  1.0
  H  H65  1  0.62946000  0.77344000  0.07088000  1.0
  H  H66  1  0.62944000  0.72656000  0.57088000  1.0
  H  H67  1  0.37056000  0.22655000  0.92912000  1.0
  H  H68  1  0.84134000  0.99846000  0.43411000  1.0
  H  H69  1  0.15868000  0.49846000  0.06589000  1.0
  H  H70  1  0.15864000  0.00153000  0.56588000  1.0
  H  H71  1  0.84136000  0.50152000  0.93412000  1.0
  H  H72  1  0.54175000  0.11430000  0.39612000  1.0
  H  H73  1  0.45825000  0.61430000  0.10388000  1.0
  H  H74  1  0.45823000  0.88569000  0.60386000  1.0
  H  H75  1  0.54177000  0.38569000  0.89616000  1.0
  H  H76  1  0.52508000  0.01328000  0.42461000  1.0
  H  H77  1  0.47494000  0.51329000  0.07539000  1.0
  H  H78  1  0.47490000  0.98671000  0.57537000  1.0
  H  H79  1  0.52511000  0.48670000  0.92465000  1.0
  C  C80  1  0.82193000  0.19457000  0.90014000  1.0
  C  C81  1  0.17807000  0.69457000  0.59986000  1.0
  C  C82  1  0.17806000  0.80544000  0.09985000  1.0
  C  C83  1  0.82193000  0.30543000  0.40015000  1.0
  C  C84  1  0.87120000  0.15601000  0.82849000  1.0
  C  C85  1  0.12880000  0.65602000  0.67151000  1.0
  C  C86  1  0.12879000  0.84400000  0.17150000  1.0
  C  C87  1  0.87120000  0.34398000  0.32850000  1.0
  C  C88  1  0.88369000  0.06456000  0.84241000  1.0
  C  C89  1  0.11632000  0.56456000  0.65760000  1.0
  C  C90  1  0.11632000  0.93546000  0.15757000  1.0
  C  C91  1  0.88368000  0.43544000  0.34242000  1.0
  C  C92  1  0.95471000  0.01969000  0.78234000  1.0
  C  C93  1  0.04529000  0.51970000  0.71767000  1.0
  C  C94  1  0.04527000  0.98032000  0.21764000  1.0
  C  C95  1  0.95471000  0.48031000  0.28236000  1.0
  C  C96  1  0.40905000  0.15241000  0.55651000  1.0
  C  C97  1  0.59096000  0.65242000  0.94349000  1.0
  C  C98  1  0.59094000  0.84759000  0.44348000  1.0
  C  C99  1  0.40906000  0.34759000  0.05652000  1.0
  C  C100  1  0.26261000  0.20149000  0.63262000  1.0
  C  C101  1  0.73739000  0.70150000  0.86738000  1.0
  C  C102  1  0.73737000  0.79850000  0.36737000  1.0
  C  C103  1  0.26264000  0.29850000  0.13263000  1.0
  C  C104  1  0.22782000  0.17440000  0.27534000  1.0
  C  C105  1  0.77217000  0.67440000  0.22466000  1.0
  C  C106  1  0.77218000  0.82559000  0.72466000  1.0
  C  C107  1  0.22782000  0.32559000  0.77535000  1.0
  C  C108  1  0.30354000  0.23515000  0.38334000  1.0
  C  C109  1  0.69646000  0.73516000  0.11665000  1.0
  C  C110  1  0.69644000  0.76484000  0.61665000  1.0
  C  C111  1  0.30356000  0.26483000  0.88336000  1.0
  C  C112  1  0.80356000  0.08002000  0.52220000  1.0
  C  C113  1  0.19645000  0.58003000  0.97780000  1.0
  C  C114  1  0.19642000  0.91996000  0.47778000  1.0
  C  C115  1  0.80359000  0.41996000  0.02222000  1.0
  C  C116  1  0.78128000  0.05805000  0.43625000  1.0
  C  C117  1  0.21873000  0.55806000  0.06375000  1.0
  C  C118  1  0.21870000  0.94194000  0.56374000  1.0
  C  C119  1  0.78130000  0.44193000  0.93626000  1.0
  C  C120  1  0.59795000  0.05369000  0.39512000  1.0
  C  C121  1  0.40206000  0.55369000  0.10488000  1.0
  C  C122  1  0.40204000  0.94630000  0.60486000  1.0
  C  C123  1  0.59796000  0.44630000  0.89515000  1.0
  C  C124  1  0.56593000  0.02997000  0.31021000  1.0
  C  C125  1  0.43407000  0.52997000  0.18978000  1.0
  C  C126  1  0.43406000  0.97002000  0.68977000  1.0
  C  C127  1  0.56594000  0.47002000  0.81024000  1.0
  N  N128  1  0.74837000  0.17676000  0.75874000  1.0
  N  N129  1  0.25163000  0.67677000  0.74126000  1.0
  N  N130  1  0.25162000  0.82326000  0.24125000  1.0
  N  N131  1  0.74837000  0.32324000  0.25875000  1.0
  N  N132  1  0.41474000  0.18699000  0.67523000  1.0
  N  N133  1  0.58526000  0.68700000  0.82477000  1.0
  N  N134  1  0.58524000  0.81301000  0.32475000  1.0
  N  N135  1  0.41476000  0.31300000  0.17524000  1.0
  N  N136  1  0.50795000  0.15502000  0.62627000  1.0
  N  N137  1  0.49205000  0.65503000  0.87373000  1.0
  N  N138  1  0.49204000  0.84498000  0.37372000  1.0
  N  N139  1  0.50796000  0.34498000  0.12628000  1.0
  N  N140  1  0.25422000  0.18121000  0.55778000  1.0
  N  N141  1  0.74579000  0.68121000  0.94221000  1.0
  N  N142  1  0.74577000  0.81879000  0.44220000  1.0
  N  N143  1  0.25423000  0.31879000  0.05779000  1.0
  N  N144  1  0.17136000  0.18994000  0.38861000  1.0
  N  N145  1  0.82864000  0.68995000  0.11139000  1.0
  N  N146  1  0.82862000  0.81005000  0.61138000  1.0
  N  N147  1  0.17138000  0.31005000  0.88862000  1.0
  N  N148  1  0.12216000  0.15158000  0.31973000  1.0
  N  N149  1  0.87784000  0.65158000  0.18026000  1.0
  N  N150  1  0.87783000  0.84841000  0.68025000  1.0
  N  N151  1  0.12217000  0.34841000  0.81975000  1.0
  N  N152  1  0.34345000  0.22732000  0.31296000  1.0
  N  N153  1  0.65655000  0.72733000  0.18703000  1.0
  N  N154  1  0.65655000  0.77267000  0.68703000  1.0
  N  N155  1  0.34345000  0.27266000  0.81297000  1.0
  N  N156  1  0.87214000  0.11841000  0.39955000  1.0
  N  N157  1  0.12787000  0.61841000  0.10045000  1.0
  N  N158  1  0.12785000  0.88158000  0.60044000  1.0
  N  N159  1  0.87216000  0.38157000  0.89957000  1.0
  O  O160  1  0.38994000  0.09163000  0.83680000  1.0
  O  O161  1  0.61008000  0.59163000  0.66321000  1.0
  O  O162  1  0.61008000  0.90838000  0.16320000  1.0
  O  O163  1  0.38991000  0.40837000  0.33679000  1.0
  O  O164  1  0.70072000  0.16846000  0.16305000  1.0
  O  O165  1  0.29924000  0.66846000  0.33693000  1.0
  O  O166  1  0.29925000  0.83155000  0.83693000  1.0
  O  O167  1  0.70076000  0.33155000  0.66308000  1.0
  O  O168  1  0.66967000  0.22310000  0.88974000  1.0
  O  O169  1  0.33033000  0.72310000  0.61026000  1.0
  O  O170  1  0.33032000  0.77690000  0.11025000  1.0
  O  O171  1  0.66967000  0.27689000  0.38975000  1.0
  O  O172  1  0.92565000  0.19885000  0.96254000  1.0
  O  O173  1  0.07436000  0.69885000  0.53746000  1.0
  O  O174  1  0.07435000  0.80115000  0.03745000  1.0
  O  O175  1  0.92564000  0.30114000  0.46255000  1.0
  O  O176  1  0.93193000  0.04474000  0.71227000  1.0
  O  O177  1  0.06806000  0.54475000  0.78774000  1.0
  O  O178  1  0.06806000  0.95528000  0.28771000  1.0
  O  O179  1  0.93194000  0.45527000  0.21228000  1.0
  O  O180  1  0.03686000  0.95479000  0.80166000  1.0
  O  O181  1  0.96315000  0.45479000  0.69835000  1.0
  O  O182  1  0.96312000  0.04522000  0.19831000  1.0
  O  O183  1  0.03685000  0.54521000  0.30168000  1.0
  O  O184  1  0.70979000  0.04834000  0.56270000  1.0
  O  O185  1  0.29022000  0.54834000  0.93730000  1.0
  O  O186  1  0.29017000  0.95166000  0.43729000  1.0
  O  O187  1  0.70983000  0.45165000  0.06272000  1.0
  O  O188  1  0.91948000  0.13068000  0.54956000  1.0
  O  O189  1  0.08055000  0.63069000  0.95044000  1.0
  O  O190  1  0.08051000  0.86930000  0.45042000  1.0
  O  O191  1  0.91950000  0.36930000  0.04958000  1.0
  O  O192  1  0.68663000  0.03542000  0.27135000  1.0
  O  O193  1  0.31338000  0.53541000  0.22864000  1.0
  O  O194  1  0.31337000  0.96458000  0.72863000  1.0
  O  O195  1  0.68663000  0.46458000  0.77138000  1.0
  O  O196  1  0.42318000  0.00683000  0.27802000  1.0
  O  O197  1  0.57683000  0.50682000  0.22198000  1.0
  O  O198  1  0.57683000  0.99316000  0.72196000  1.0
  O  O199  1  0.42318000  0.49317000  0.77805000  1.0
