# generated using pymatgen
data_ZnH10C9NO6
_symmetry_space_group_name_H-M   'P 1'
_cell_length_a   9.68470000
_cell_length_b   15.53680000
_cell_length_c   16.22150000
_cell_angle_alpha   90.02200000
_cell_angle_beta   94.33900000
_cell_angle_gamma   91.28870000
_symmetry_Int_Tables_number   1
_chemical_formula_structural   ZnH10C9NO6
_chemical_formula_sum   'Zn4 H40 C36 N4 O24'
_cell_volume   2433.22019431
_cell_formula_units_Z   4
loop_
 _symmetry_equiv_pos_site_id
 _symmetry_equiv_pos_as_xyz
  1  'x, y, z'
loop_
 _atom_site_type_symbol
 _atom_site_label
 _atom_site_symmetry_multiplicity
 _atom_site_fract_x
 _atom_site_fract_y
 _atom_site_fract_z
 _atom_site_occupancy
  Zn  Zn0  1  0.63549000  0.01104000  0.51221000  1.0
  Zn  Zn1  1  0.62777000  0.49943000  0.00867000  1.0
  Zn  Zn2  1  0.35342000  0.99647000  0.49131000  1.0
  Zn  Zn3  1  0.34753000  0.50598000  0.99324000  1.0
  H  H4  1  0.57011000  0.21587000  0.70236000  1.0
  H  H5  1  0.61915000  0.80182000  0.70960000  1.0
  H  H6  1  0.62053000  0.69836000  0.21457000  1.0
  H  H7  1  0.57344000  0.30180000  0.20470000  1.0
  H  H8  1  0.34587000  0.84626000  0.26304000  1.0
  H  H9  1  0.31038000  0.14440000  0.26365000  1.0
  H  H10  1  0.30187000  0.35741000  0.75425000  1.0
  H  H11  1  0.34877000  0.75143000  0.84832000  1.0
  H  H12  1  0.89612000  0.99847000  0.63077000  1.0
  H  H13  1  0.88684000  0.49948000  0.12938000  1.0
  H  H14  1  0.88823000  0.03745000  0.45410000  1.0
  H  H15  1  0.87870000  0.47288000  0.95057000  1.0
  H  H16  1  0.15508000  0.04804000  0.61051000  1.0
  H  H17  1  0.13952000  0.44642000  0.10854000  1.0
  H  H18  1  0.07621000  0.95242000  0.45806000  1.0
  H  H19  1  0.07635000  0.54992000  0.96032000  1.0
  H  H20  1  0.10305000  0.32304000  0.67451000  1.0
  H  H21  1  0.11405000  0.25095000  0.76128000  1.0
  H  H22  1  0.01947000  0.21934000  0.66609000  1.0
  H  H23  1  0.16275000  0.83319000  0.81563000  1.0
  H  H24  1  0.15574000  0.74340000  0.74550000  1.0
  H  H25  1  0.07694000  0.84287000  0.71458000  1.0
  H  H26  1  0.16529000  0.82670000  0.17486000  1.0
  H  H27  1  0.15679000  0.74899000  0.25650000  1.0
  H  H28  1  0.07553000  0.72614000  0.15543000  1.0
  H  H29  1  0.11198000  0.22429000  0.24687000  1.0
  H  H30  1  0.13833000  0.14527000  0.16893000  1.0
  H  H31  1  0.03336000  0.23610000  0.14381000  1.0
  H  H32  1  0.56287000  0.73336000  0.48116000  1.0
  H  H33  1  0.73046000  0.77751000  0.46401000  1.0
  H  H34  1  0.69244000  0.66449000  0.44574000  1.0
  H  H35  1  0.71314000  0.23261000  0.44233000  1.0
  H  H36  1  0.55656000  0.28620000  0.46085000  1.0
  H  H37  1  0.69174000  0.34393000  0.41305000  1.0
  H  H38  1  0.48916000  0.22458000  0.96979000  1.0
  H  H39  1  0.66280000  0.26341000  0.96054000  1.0
  H  H40  1  0.61546000  0.15299000  0.93486000  1.0
  H  H41  1  0.50699000  0.52597000  0.72833000  1.0
  H  H42  1  0.67702000  0.53499000  0.77991000  1.0
  H  H43  1  0.64981000  0.56039000  0.67146000  1.0
  C  C44  1  0.48305000  0.12354000  0.38656000  1.0
  C  C45  1  0.49822000  0.87896000  0.39248000  1.0
  C  C46  1  0.48809000  0.61610000  0.88064000  1.0
  C  C47  1  0.46663000  0.38268000  0.88487000  1.0
  C  C48  1  0.52277000  0.88983000  0.61992000  1.0
  C  C49  1  0.47645000  0.12687000  0.61105000  1.0
  C  C50  1  0.47269000  0.37668000  0.10725000  1.0
  C  C51  1  0.51833000  0.61683000  0.11848000  1.0
  C  C52  1  0.35705000  0.23520000  0.69788000  1.0
  C  C53  1  0.40910000  0.80645000  0.73174000  1.0
  C  C54  1  0.40986000  0.72879000  0.20483000  1.0
  C  C55  1  0.36657000  0.25988000  0.19528000  1.0
  C  C56  1  0.47059000  0.19462000  0.67303000  1.0
  C  C57  1  0.52038000  0.82927000  0.68879000  1.0
  C  C58  1  0.52017000  0.68244000  0.18312000  1.0
  C  C59  1  0.47335000  0.31104000  0.17154000  1.0
  C  C60  1  0.41972000  0.79447000  0.26862000  1.0
  C  C61  1  0.38394000  0.19821000  0.26214000  1.0
  C  C62  1  0.36924000  0.30221000  0.76095000  1.0
  C  C63  1  0.41584000  0.74350000  0.79805000  1.0
  C  C64  1  0.50770000  0.80079000  0.33777000  1.0
  C  C65  1  0.48190000  0.19833000  0.32689000  1.0
  C  C66  1  0.45783000  0.30368000  0.83000000  1.0
  C  C67  1  0.49431000  0.67215000  0.80463000  1.0
  C  C68  1  0.93533000  0.01129000  0.57016000  1.0
  C  C69  1  0.92572000  0.48983000  0.06836000  1.0
  C  C70  1  0.08659000  0.01552000  0.56248000  1.0
  C  C71  1  0.07652000  0.48204000  0.06146000  1.0
  C  C72  1  0.11059000  0.25511000  0.69346000  1.0
  C  C73  1  0.16476000  0.81397000  0.75033000  1.0
  C  C74  1  0.16493000  0.75746000  0.18966000  1.0
  C  C75  1  0.12546000  0.21437000  0.18078000  1.0
  C  C76  1  0.65104000  0.72958000  0.44249000  1.0
  C  C77  1  0.63982000  0.28107000  0.41874000  1.0
  C  C78  1  0.58081000  0.21964000  0.93410000  1.0
  C  C79  1  0.60585000  0.56256000  0.73170000  1.0
  N  N80  1  0.84651000  0.02319000  0.50904000  1.0
  N  N81  1  0.83731000  0.48518000  0.00578000  1.0
  N  N82  1  0.14308000  0.98425000  0.50055000  1.0
  N  N83  1  0.13818000  0.51477000  0.00145000  1.0
  O  O84  1  0.60167000  0.09789000  0.41386000  1.0
  O  O85  1  0.61185000  0.90991000  0.42549000  1.0
  O  O86  1  0.60181000  0.58362000  0.90827000  1.0
  O  O87  1  0.58640000  0.40171000  0.91818000  1.0
  O  O88  1  0.36604000  0.09246000  0.40327000  1.0
  O  O89  1  0.37756000  0.90731000  0.39992000  1.0
  O  O90  1  0.37093000  0.60640000  0.91017000  1.0
  O  O91  1  0.35593000  0.42360000  0.89199000  1.0
  O  O92  1  0.64240000  0.92115000  0.60411000  1.0
  O  O93  1  0.59859000  0.10757000  0.59157000  1.0
  O  O94  1  0.59298000  0.40942000  0.09502000  1.0
  O  O95  1  0.63638000  0.59634000  0.09315000  1.0
  O  O96  1  0.40955000  0.90698000  0.57799000  1.0
  O  O97  1  0.36447000  0.09077000  0.57973000  1.0
  O  O98  1  0.35968000  0.39854000  0.06719000  1.0
  O  O99  1  0.40235000  0.58275000  0.09085000  1.0
  O  O100  1  0.22787000  0.21560000  0.66149000  1.0
  O  O101  1  0.28603000  0.84693000  0.71491000  1.0
  O  O102  1  0.28370000  0.71632000  0.16198000  1.0
  O  O103  1  0.23847000  0.26519000  0.15365000  1.0
  O  O104  1  0.60744000  0.74264000  0.35622000  1.0
  O  O105  1  0.58338000  0.25977000  0.33601000  1.0
  O  O106  1  0.54639000  0.23885000  0.84779000  1.0
  O  O107  1  0.58407000  0.65261000  0.74736000  1.0
