# generated using pymatgen
data_HoH5C7NCl3
_symmetry_space_group_name_H-M   'P 1'
_cell_length_a   6.91464000
_cell_length_b   7.13498655
_cell_length_c   11.42670000
_cell_angle_alpha   87.46286273
_cell_angle_beta   75.36090000
_cell_angle_gamma   64.44577506
_symmetry_Int_Tables_number   1
_chemical_formula_structural   HoH5C7NCl3
_chemical_formula_sum   'Ho2 H10 C14 N2 Cl6'
_cell_volume   490.73253245
_cell_formula_units_Z   2
loop_
 _symmetry_equiv_pos_site_id
 _symmetry_equiv_pos_as_xyz
  1  'x, y, z'
loop_
 _atom_site_type_symbol
 _atom_site_label
 _atom_site_symmetry_multiplicity
 _atom_site_fract_x
 _atom_site_fract_y
 _atom_site_fract_z
 _atom_site_occupancy
  Ho  Ho0  1  0.82516000  0.31924000  0.52866000  1.0
  Ho  Ho1  1  0.17486000  0.68075000  0.47134000  1.0
  H  H2  1  0.70817000  0.82951000  0.25684000  1.0
  H  H3  1  0.29184000  0.17049000  0.74316000  1.0
  H  H4  1  0.62879000  0.20268000  0.24129000  1.0
  H  H5  1  0.37122000  0.79731000  0.75871000  1.0
  H  H6  1  0.81807000  0.60034000  0.07172000  1.0
  H  H7  1  0.18192000  0.39966000  0.92827000  1.0
  H  H8  1  0.65640000  0.34934000  0.03946000  1.0
  H  H9  1  0.34358000  0.65067000  0.96054000  1.0
  H  H10  1  0.84868000  0.74496000  0.86744000  1.0
  H  H11  1  0.15129000  0.25505000  0.13256000  1.0
  C  C12  1  0.75431000  0.05500000  0.94204000  1.0
  C  C13  1  0.24568000  0.94500000  0.05796000  1.0
  C  C14  1  0.72187000  0.89283000  0.16823000  1.0
  C  C15  1  0.27814000  0.10716000  0.83177000  1.0
  C  C16  1  0.76879000  0.13724000  0.82676000  1.0
  C  C17  1  0.23121000  0.86276000  0.17324000  1.0
  C  C18  1  0.67594000  0.10311000  0.15974000  1.0
  C  C19  1  0.32405000  0.89690000  0.84025000  1.0
  C  C20  1  0.78432000  0.76376000  0.06373000  1.0
  C  C21  1  0.21568000  0.23624000  0.93626000  1.0
  C  C22  1  0.69172000  0.18551000  0.04706000  1.0
  C  C23  1  0.30827000  0.81449000  0.95294000  1.0
  C  C24  1  0.80152000  0.84277000  0.94996000  1.0
  C  C25  1  0.19847000  0.15723000  0.05004000  1.0
  N  N26  1  0.78080000  0.20367000  0.73161000  1.0
  N  N27  1  0.21921000  0.79633000  0.26839000  1.0
  Cl  Cl28  1  0.77884000  0.99552000  0.46293000  1.0
  Cl  Cl29  1  0.22117000  0.00448000  0.53708000  1.0
  Cl  Cl30  1  0.13374000  0.39372000  0.35436000  1.0
  Cl  Cl31  1  0.86627000  0.60628000  0.64564000  1.0
  Cl  Cl32  1  0.38533000  0.48929000  0.64137000  1.0
  Cl  Cl33  1  0.61469000  0.51071000  0.35863000  1.0
