# generated using pymatgen
data_AlH11(C3O)6
_symmetry_space_group_name_H-M   'P 1'
_cell_length_a   6.65959000
_cell_length_b   24.59260000
_cell_length_c   27.43640000
_cell_angle_alpha   84.36440000
_cell_angle_beta   89.99980000
_cell_angle_gamma   89.99980000
_symmetry_Int_Tables_number   1
_chemical_formula_structural   AlH11(C3O)6
_chemical_formula_sum   'Al4 H44 C72 O24'
_cell_volume   4471.72250787
_cell_formula_units_Z   4
loop_
 _symmetry_equiv_pos_site_id
 _symmetry_equiv_pos_as_xyz
  1  'x, y, z'
loop_
 _atom_site_type_symbol
 _atom_site_label
 _atom_site_symmetry_multiplicity
 _atom_site_fract_x
 _atom_site_fract_y
 _atom_site_fract_z
 _atom_site_occupancy
  Al  Al0  1  0.79998000  0.24975000  0.75096000  1.0
  Al  Al1  1  0.20002000  0.75025000  0.24904000  1.0
  Al  Al2  1  0.29998000  0.25025000  0.74904000  1.0
  Al  Al3  1  0.70002000  0.74975000  0.25096000  1.0
  H  H4  1  0.25813000  0.63124000  0.16082000  1.0
  H  H5  1  0.74187000  0.36876000  0.83919000  1.0
  H  H6  1  0.75813000  0.86876000  0.33919000  1.0
  H  H7  1  0.24187000  0.13124000  0.66081000  1.0
  H  H8  1  0.28500000  0.56461000  0.09835000  1.0
  H  H9  1  0.71500000  0.43539000  0.90165000  1.0
  H  H10  1  0.78500000  0.93539000  0.40165000  1.0
  H  H11  1  0.21500000  0.06461000  0.59835000  1.0
  H  H12  1  0.66449000  0.59565000  0.06039000  1.0
  H  H13  1  0.33552000  0.40435000  0.93961000  1.0
  H  H14  1  0.16449000  0.90435000  0.43961000  1.0
  H  H15  1  0.83551000  0.09565000  0.56039000  1.0
  H  H16  1  0.68863000  0.50477000  0.04904000  1.0
  H  H17  1  0.31137000  0.49523000  0.95096000  1.0
  H  H18  1  0.18864000  0.99523000  0.45095000  1.0
  H  H19  1  0.81136000  0.00476000  0.54905000  1.0
  H  H20  1  0.70835000  0.44087000  0.98569000  1.0
  H  H21  1  0.29166000  0.55913000  0.01431000  1.0
  H  H22  1  0.20836000  0.05914000  0.51430000  1.0
  H  H23  1  0.79164000  0.94086000  0.48570000  1.0
  H  H24  1  0.34213000  0.44165000  0.56006000  1.0
  H  H25  1  0.65787000  0.55835000  0.43994000  1.0
  H  H26  1  0.84213000  0.05835000  0.93994000  1.0
  H  H27  1  0.15786000  0.94165000  0.06006000  1.0
  H  H28  1  0.35987000  0.36962000  0.63124000  1.0
  H  H29  1  0.64013000  0.63038000  0.36876000  1.0
  H  H30  1  0.85987000  0.13038000  0.86876000  1.0
  H  H31  1  0.14013000  0.86962000  0.13125000  1.0
  H  H32  1  0.71696000  0.35997000  0.63472000  1.0
  H  H33  1  0.28304000  0.64003000  0.36528000  1.0
  H  H34  1  0.21696000  0.14003000  0.86528000  1.0
  H  H35  1  0.78304000  0.85997000  0.13471000  1.0
  H  H36  1  0.69628000  0.43156000  0.56326000  1.0
  H  H37  1  0.30372000  0.56844000  0.43674000  1.0
  H  H38  1  0.19628000  0.06844000  0.93674000  1.0
  H  H39  1  0.80372000  0.93156000  0.06326000  1.0
  H  H40  1  0.50409000  0.65420000  0.10198000  1.0
  H  H41  1  0.49591000  0.34580000  0.89802000  1.0
  H  H42  1  0.00409000  0.84580000  0.39802000  1.0
  H  H43  1  0.99591000  0.15420000  0.60198000  1.0
  H  H44  1  0.54786000  0.31796000  0.76241000  1.0
  H  H45  1  0.45214000  0.68204000  0.23759000  1.0
  H  H46  1  0.04786000  0.18204000  0.73759000  1.0
  H  H47  1  0.95214000  0.81796000  0.26241000  1.0
  C  C48  1  0.54781000  0.18083000  0.81966000  1.0
  C  C49  1  0.45219000  0.81917000  0.18034000  1.0
  C  C50  1  0.04781000  0.31917000  0.68034000  1.0
  C  C51  1  0.95219000  0.68083000  0.31966000  1.0
  C  C52  1  0.55191000  0.18749000  0.68669000  1.0
  C  C53  1  0.44808000  0.81251000  0.31331000  1.0
  C  C54  1  0.05192000  0.31251000  0.81331000  1.0
  C  C55  1  0.94809000  0.68749000  0.18669000  1.0
  C  C56  1  0.12936000  0.62286000  0.13826000  1.0
  C  C57  1  0.87065000  0.37714000  0.86174000  1.0
  C  C58  1  0.62935000  0.87714000  0.36174000  1.0
  C  C59  1  0.37064000  0.12286000  0.63826000  1.0
  C  C60  1  0.14496000  0.58657000  0.10281000  1.0
  C  C61  1  0.85505000  0.41343000  0.89719000  1.0
  C  C62  1  0.64496000  0.91343000  0.39719000  1.0
  C  C63  1  0.35504000  0.08657000  0.60281000  1.0
  C  C64  1  0.97626000  0.57569000  0.07433000  1.0
  C  C65  1  0.02374000  0.42432000  0.92567000  1.0
  C  C66  1  0.47626000  0.92432000  0.42567000  1.0
  C  C67  1  0.52374000  0.07568000  0.57433000  1.0
  C  C68  1  0.79593000  0.60233000  0.08292000  1.0
  C  C69  1  0.20407000  0.39767000  0.91708000  1.0
  C  C70  1  0.29593000  0.89767000  0.41708000  1.0
  C  C71  1  0.70407000  0.10233000  0.58292000  1.0
  C  C72  1  0.77942000  0.63892000  0.11881000  1.0
  C  C73  1  0.22059000  0.36109000  0.88119000  1.0
  C  C74  1  0.27941000  0.86109000  0.38119000  1.0
  C  C75  1  0.72059000  0.13891000  0.61881000  1.0
  C  C76  1  0.94905000  0.64972000  0.14736000  1.0
  C  C77  1  0.05096000  0.35028000  0.85264000  1.0
  C  C78  1  0.44904000  0.85028000  0.35264000  1.0
  C  C79  1  0.55095000  0.14972000  0.64736000  1.0
  C  C80  1  0.82461000  0.50363000  0.02698000  1.0
  C  C81  1  0.17539000  0.49637000  0.97302000  1.0
  C  C82  1  0.32462000  0.99637000  0.47302000  1.0
  C  C83  1  0.67538000  0.00363000  0.52698000  1.0
  C  C84  1  0.83586000  0.46742000  0.99122000  1.0
  C  C85  1  0.16415000  0.53258000  0.00878000  1.0
  C  C86  1  0.33586000  0.03258000  0.50878000  1.0
  C  C87  1  0.66414000  0.96741000  0.49122000  1.0
  C  C88  1  0.01162000  0.46293000  0.96348000  1.0
  C  C89  1  0.98839000  0.53707000  0.03652000  1.0
  C  C90  1  0.51161000  0.03707000  0.53652000  1.0
  C  C91  1  0.48839000  0.96292000  0.46348000  1.0
  C  C92  1  0.20580000  0.42349000  0.57645000  1.0
  C  C93  1  0.79420000  0.57651000  0.42355000  1.0
  C  C94  1  0.70580000  0.07651000  0.92355000  1.0
  C  C95  1  0.29419000  0.92349000  0.07645000  1.0
  C  C96  1  0.21585000  0.38364000  0.61590000  1.0
  C  C97  1  0.78415000  0.61636000  0.38410000  1.0
  C  C98  1  0.71584000  0.11636000  0.88409000  1.0
  C  C99  1  0.28415000  0.88364000  0.11591000  1.0
  C  C100  1  0.03935000  0.36087000  0.63704000  1.0
  C  C101  1  0.96065000  0.63913000  0.36296000  1.0
  C  C102  1  0.53935000  0.13913000  0.86296000  1.0
  C  C103  1  0.46065000  0.86087000  0.13704000  1.0
  C  C104  1  0.85219000  0.37824000  0.61780000  1.0
  C  C105  1  0.14781000  0.62176000  0.38220000  1.0
  C  C106  1  0.35219000  0.12176000  0.88220000  1.0
  C  C107  1  0.64781000  0.87824000  0.11780000  1.0
  C  C108  1  0.84111000  0.41788000  0.57829000  1.0
  C  C109  1  0.15889000  0.58212000  0.42171000  1.0
  C  C110  1  0.34111000  0.08212000  0.92171000  1.0
  C  C111  1  0.65889000  0.91788000  0.07829000  1.0
  C  C112  1  0.01797000  0.44140000  0.55702000  1.0
  C  C113  1  0.98202000  0.55860000  0.44297000  1.0
  C  C114  1  0.51797000  0.05860000  0.94298000  1.0
  C  C115  1  0.48202000  0.94140000  0.05702000  1.0
  C  C116  1  0.00629000  0.48229000  0.51716000  1.0
  C  C117  1  0.99371000  0.51771000  0.48284000  1.0
  C  C118  1  0.50629000  0.01771000  0.98284000  1.0
  C  C119  1  0.49371000  0.98229000  0.01717000  1.0
  O  O120  1  0.38035000  0.20258000  0.70117000  1.0
  O  O121  1  0.61964000  0.79742000  0.29883000  1.0
  O  O122  1  0.88035000  0.29742000  0.79883000  1.0
  O  O123  1  0.11965000  0.70258000  0.20117000  1.0
  O  O124  1  0.72070000  0.19641000  0.80397000  1.0
  O  O125  1  0.27930000  0.80359000  0.19603000  1.0
  O  O126  1  0.22070000  0.30359000  0.69603000  1.0
  O  O127  1  0.77930000  0.69641000  0.30397000  1.0
  O  O128  1  0.71972000  0.20122000  0.70375000  1.0
  O  O129  1  0.28028000  0.79878000  0.29625000  1.0
  O  O130  1  0.21972000  0.29878000  0.79626000  1.0
  O  O131  1  0.78028000  0.70122000  0.20375000  1.0
  O  O132  1  0.87960000  0.30323000  0.69865000  1.0
  O  O133  1  0.12040000  0.69677000  0.30135000  1.0
  O  O134  1  0.37959000  0.19677000  0.80135000  1.0
  O  O135  1  0.62040000  0.80323000  0.19865000  1.0
  O  O136  1  0.55021000  0.28319000  0.74861000  1.0
  O  O137  1  0.44979000  0.71681000  0.25139000  1.0
  O  O138  1  0.05021000  0.21681000  0.75139000  1.0
  O  O139  1  0.94979000  0.78319000  0.24861000  1.0
  O  O140  1  0.60263000  0.66491000  0.12560000  1.0
  O  O141  1  0.39738000  0.33509000  0.87440000  1.0
  O  O142  1  0.10262000  0.83509000  0.37440000  1.0
  O  O143  1  0.89738000  0.16491000  0.62560000  1.0
