# generated using pymatgen
data_Cu3P6H52(C28O9)2
_symmetry_space_group_name_H-M   'P 1'
_cell_length_a   5.06657000
_cell_length_b   15.12980000
_cell_length_c   29.15050000
_cell_angle_alpha   83.71900000
_cell_angle_beta   85.21210000
_cell_angle_gamma   83.03860000
_symmetry_Int_Tables_number   1
_chemical_formula_structural   Cu3P6H52(C28O9)2
_chemical_formula_sum   'Cu3 P6 H52 C56 O18'
_cell_volume   2199.18988559
_cell_formula_units_Z   1
loop_
 _symmetry_equiv_pos_site_id
 _symmetry_equiv_pos_as_xyz
  1  'x, y, z'
loop_
 _atom_site_type_symbol
 _atom_site_label
 _atom_site_symmetry_multiplicity
 _atom_site_fract_x
 _atom_site_fract_y
 _atom_site_fract_z
 _atom_site_occupancy
  Cu  Cu0  1  0.65625000  0.08222000  0.46698000  1.0
  Cu  Cu1  1  0.34376000  0.91778000  0.53302000  1.0
  Cu  Cu2  1  0.00000000  0.50000000  0.00000000  1.0
  P  P3  1  0.46276000  0.52958000  0.05701000  1.0
  P  P4  1  0.53724000  0.47041000  0.94299000  1.0
  P  P5  1  0.19977000  0.00587000  0.41822000  1.0
  P  P6  1  0.80024000  0.99414000  0.58178000  1.0
  P  P7  1  0.11551000  0.21714000  0.47945000  1.0
  P  P8  1  0.88450000  0.78286000  0.52055000  1.0
  H  H9  1  0.42905000  0.62043000  0.99676000  1.0
  H  H10  1  0.57095000  0.37957000  0.00324000  1.0
  H  H11  1  0.15457000  0.64268000  0.12206000  1.0
  H  H12  1  0.84543000  0.35731000  0.87794000  1.0
  H  H13  1  0.20672000  0.66020000  0.20406000  1.0
  H  H14  1  0.79328000  0.33980000  0.79594000  1.0
  H  H15  1  0.92439000  0.47496000  0.20056000  1.0
  H  H16  1  0.07562000  0.52504000  0.79944000  1.0
  H  H17  1  0.86830000  0.45601000  0.11868000  1.0
  H  H18  1  0.13170000  0.54399000  0.88132000  1.0
  H  H19  1  0.45332000  0.71846000  0.25321000  1.0
  H  H20  1  0.54668000  0.28154000  0.74679000  1.0
  H  H21  1  0.72909000  0.60411000  0.38487000  1.0
  H  H22  1  0.27090000  0.39589000  0.61513000  1.0
  H  H23  1  0.76685000  0.44039000  0.27276000  1.0
  H  H24  1  0.23315000  0.55961000  0.72724000  1.0
  H  H25  1  0.16924000  0.50886000  0.38862000  1.0
  H  H26  1  0.83076000  0.49114000  0.61139000  1.0
  H  H27  1  0.30821000  0.38644000  0.44841000  1.0
  H  H28  1  0.69179000  0.61356000  0.55159000  1.0
  H  H29  1  0.74716000  0.22637000  0.40481000  1.0
  H  H30  1  0.25283000  0.77363000  0.59519000  1.0
  H  H31  1  0.61007000  0.34813000  0.34466000  1.0
  H  H32  1  0.38993000  0.65187000  0.65534000  1.0
  H  H33  1  0.15393000  0.79538000  0.30177000  1.0
  H  H34  1  0.84606000  0.20462000  0.69823000  1.0
  H  H35  1  0.00059000  0.93086000  0.34105000  1.0
  H  H36  1  0.99940000  0.06914000  0.65895000  1.0
  H  H37  1  0.66318000  0.87385000  0.42732000  1.0
  H  H38  1  0.33682000  0.12615000  0.57268000  1.0
  H  H39  1  0.81903000  0.73930000  0.38787000  1.0
  H  H40  1  0.18096000  0.26071000  0.61213000  1.0
  H  H41  1  0.79102000  0.29515000  0.57734000  1.0
  H  H42  1  0.20898000  0.70484000  0.42266000  1.0
  H  H43  1  0.65671000  0.26406000  0.52793000  1.0
  H  H44  1  0.34330000  0.73593000  0.47207000  1.0
  H  H45  1  0.70739000  0.41510000  0.48592000  1.0
  H  H46  1  0.29261000  0.58490000  0.51408000  1.0
  H  H47  1  0.86808000  0.44569000  0.53278000  1.0
  H  H48  1  0.13191000  0.55431000  0.46722000  1.0
  H  H49  1  0.52585000  0.42719000  0.54014000  1.0
  H  H50  1  0.47415000  0.57280000  0.45986000  1.0
  H  H51  1  0.54257000  0.04712000  0.33771000  1.0
  H  H52  1  0.45743000  0.95288000  0.66228000  1.0
  H  H53  1  0.60856000  0.12337000  0.37628000  1.0
  H  H54  1  0.39144000  0.87664000  0.62372000  1.0
  H  H55  1  0.25668000  0.16833000  0.29345000  1.0
  H  H56  1  0.74332000  0.83168000  0.70655000  1.0
  H  H57  1  0.57916000  0.20204000  0.29680000  1.0
  H  H58  1  0.42084000  0.79796000  0.70319000  1.0
  H  H59  1  0.30364000  0.24504000  0.33338000  1.0
  H  H60  1  0.69635000  0.75496000  0.66666667  1.0
  C  C61  1  0.50767000  0.54748000  0.11526000  1.0
  C  C62  1  0.49233000  0.45252000  0.88474000  1.0
  C  C63  1  0.32359000  0.60607000  0.13931000  1.0
  C  C64  1  0.67641000  0.39393000  0.86069000  1.0
  C  C65  1  0.35455000  0.61629000  0.18536000  1.0
  C  C66  1  0.64545000  0.38371000  0.81464000  1.0
  C  C67  1  0.56909000  0.56840000  0.20845000  1.0
  C  C68  1  0.43092000  0.43160000  0.79155000  1.0
  C  C69  1  0.75198000  0.51031000  0.18382000  1.0
  C  C70  1  0.24802000  0.48969000  0.81618000  1.0
  C  C71  1  0.72228000  0.49955000  0.13781000  1.0
  C  C72  1  0.27773000  0.50045000  0.86219000  1.0
  C  C73  1  0.60568000  0.57853000  0.25733000  1.0
  C  C74  1  0.39432000  0.42148000  0.74267000  1.0
  C  C75  1  0.53601000  0.66098000  0.27556000  1.0
  C  C76  1  0.46400000  0.33902000  0.72444000  1.0
  C  C77  1  0.58071000  0.67169000  0.32140000  1.0
  C  C78  1  0.41928000  0.32831000  0.67860000  1.0
  C  C79  1  0.70004000  0.59795000  0.34878000  1.0
  C  C80  1  0.29996000  0.40205000  0.65122000  1.0
  C  C81  1  0.76768000  0.51453000  0.33172000  1.0
  C  C82  1  0.23232000  0.48547000  0.66828000  1.0
  C  C83  1  0.71791000  0.50544000  0.28608000  1.0
  C  C84  1  0.28208000  0.49456000  0.71392000  1.0
  C  C85  1  0.87545000  0.43767000  0.36313000  1.0
  C  C86  1  0.12454000  0.56233000  0.63687000  1.0
  C  C87  1  0.07606000  0.44690000  0.39226000  1.0
  C  C88  1  0.92394000  0.55311000  0.60774000  1.0
  C  C89  1  0.15554000  0.37794000  0.42555000  1.0
  C  C90  1  0.84446000  0.62206000  0.57445000  1.0
  C  C91  1  0.03474000  0.29823000  0.43097000  1.0
  C  C92  1  0.96526000  0.70177000  0.56903000  1.0
  C  C93  1  0.84364000  0.28743000  0.40067000  1.0
  C  C94  1  0.15636000  0.71257000  0.59933000  1.0
  C  C95  1  0.76688000  0.35598000  0.36681000  1.0
  C  C96  1  0.23311000  0.64402000  0.63319000  1.0
  C  C97  1  0.49881000  0.75690000  0.34184000  1.0
  C  C98  1  0.50118000  0.24310000  0.65816000  1.0
  C  C99  1  0.27057000  0.81342000  0.32845000  1.0
  C  C100  1  0.72943000  0.18659000  0.67155000  1.0
  C  C101  1  0.18248000  0.88939000  0.35083000  1.0
  C  C102  1  0.81752000  0.11061000  0.64916000  1.0
  C  C103  1  0.32057000  0.91087000  0.38721000  1.0
  C  C104  1  0.67943000  0.08913000  0.61279000  1.0
  C  C105  1  0.55242000  0.85662000  0.39979000  1.0
  C  C106  1  0.44758000  0.14338000  0.60021000  1.0
  C  C107  1  0.63949000  0.78085000  0.37725000  1.0
  C  C108  1  0.36051000  0.21915000  0.62275000  1.0
  C  C109  1  0.79514000  0.30625000  0.53945000  1.0
  C  C110  1  0.20487000  0.69375000  0.46055000  1.0
  C  C111  1  0.72119000  0.40418000  0.52350000  1.0
  C  C112  1  0.27881000  0.59582000  0.47650000  1.0
  C  C113  1  0.46062000  0.10849000  0.35350000  1.0
  C  C114  1  0.53938000  0.89151000  0.64650000  1.0
  C  C115  1  0.39580000  0.18562000  0.31713000  1.0
  C  C116  1  0.60420000  0.81439000  0.68287000  1.0
  O  O117  1  0.18525000  0.49983000  0.05558000  1.0
  O  O118  1  0.81475000  0.50016000  0.94442000  1.0
  O  O119  1  0.48329000  0.62551000  0.02828000  1.0
  O  O120  1  0.51671000  0.37449000  0.97172000  1.0
  O  O121  1  0.68803000  0.46062000  0.03936000  1.0
  O  O122  1  0.31197000  0.53938000  0.96064000  1.0
  O  O123  1  0.93709000  0.14342000  0.48560000  1.0
  O  O124  1  0.06292000  0.85658000  0.51440000  1.0
  O  O125  1  0.06719000  0.27526000  0.52321000  1.0
  O  O126  1  0.93281000  0.72474000  0.47679000  1.0
  O  O127  1  0.41462000  0.19025000  0.47658000  1.0
  O  O128  1  0.58539000  0.80975000  0.52342000  1.0
  O  O129  1  0.90451000  0.00262000  0.43108000  1.0
  O  O130  1  0.09549000  0.99739000  0.56892000  1.0
  O  O131  1  0.21580000  0.09237000  0.38088000  1.0
  O  O132  1  0.78419000  0.90763000  0.61912000  1.0
  O  O133  1  0.37830000  0.00762000  0.45769000  1.0
  O  O134  1  0.62171000  0.99239000  0.54231000  1.0
