# generated using pymatgen
data_CoH11C17(NO)4
_symmetry_space_group_name_H-M   'P 1'
_cell_length_a   9.25755000
_cell_length_b   9.64511000
_cell_length_c   10.51570000
_cell_angle_alpha   70.06140000
_cell_angle_beta   65.30270000
_cell_angle_gamma   88.84150000
_symmetry_Int_Tables_number   1
_chemical_formula_structural   CoH11C17(NO)4
_chemical_formula_sum   'Co2 H22 C34 N8 O8'
_cell_volume   793.66685858
_cell_formula_units_Z   2
loop_
 _symmetry_equiv_pos_site_id
 _symmetry_equiv_pos_as_xyz
  1  'x, y, z'
loop_
 _atom_site_type_symbol
 _atom_site_label
 _atom_site_symmetry_multiplicity
 _atom_site_fract_x
 _atom_site_fract_y
 _atom_site_fract_z
 _atom_site_occupancy
  Co  Co0  1  0.00448000  0.39874000  0.77155000  1.0
  Co  Co1  1  0.99552000  0.60128000  0.22846000  1.0
  H  H2  1  0.12806000  0.16605000  0.99604000  1.0
  H  H3  1  0.87194000  0.83392000  0.00396000  1.0
  H  H4  1  0.64129000  0.13128000  0.72113000  1.0
  H  H5  1  0.35872000  0.86870000  0.27884000  1.0
  H  H6  1  0.84993000  0.11866000  0.09992000  1.0
  H  H7  1  0.15008000  0.88135000  0.90007000  1.0
  H  H8  1  0.59682000  0.37870000  0.66666667  1.0
  H  H9  1  0.40317000  0.62128000  0.33333333  1.0
  H  H10  1  0.45985000  0.36348000  0.21743000  1.0
  H  H11  1  0.54015000  0.63652000  0.78259000  1.0
  H  H12  1  0.26042000  0.09098000  0.15265000  1.0
  H  H13  1  0.73959000  0.90900000  0.84732000  1.0
  H  H14  1  0.36739000  0.54326000  0.59862000  1.0
  H  H15  1  0.63259000  0.45673000  0.40139000  1.0
  H  H16  1  0.68626000  0.51774000  0.92249000  1.0
  H  H17  1  0.31374000  0.48227000  0.07752000  1.0
  H  H18  1  0.42277000  0.25442000  0.44904000  1.0
  H  H19  1  0.57724000  0.74558000  0.55096000  1.0
  H  H20  1  0.69201000  0.92676000  0.29252000  1.0
  H  H21  1  0.30800000  0.07324000  0.70748000  1.0
  H  H22  1  0.94898000  0.12816000  0.27879000  1.0
  H  H23  1  0.05104000  0.87187000  0.72120000  1.0
  C  C24  1  0.93365000  0.30655000  0.42369000  1.0
  C  C25  1  0.06635000  0.69347000  0.57632000  1.0
  C  C26  1  0.97349000  0.15028000  0.46614000  1.0
  C  C27  1  0.02651000  0.84974000  0.53386000  1.0
  C  C28  1  0.00269000  0.07629000  0.59206000  1.0
  C  C29  1  0.99731000  0.92374000  0.40794000  1.0
  C  C30  1  0.00892000  0.15073000  0.69392000  1.0
  C  C31  1  0.99106000  0.84930000  0.30609000  1.0
  C  C32  1  0.56407000  0.10253000  0.35276000  1.0
  C  C33  1  0.43593000  0.89747000  0.64725000  1.0
  C  C34  1  0.22115000  0.25271000  0.90095000  1.0
  C  C35  1  0.77885000  0.74727000  0.09905000  1.0
  C  C36  1  0.58004000  0.07365000  0.84296000  1.0
  C  C37  1  0.41997000  0.92633000  0.15700000  1.0
  C  C38  1  0.77614000  0.20712000  0.08974000  1.0
  C  C39  1  0.22387000  0.79288000  0.91026000  1.0
  C  C40  1  0.46667000  0.36359000  0.72504000  1.0
  C  C41  1  0.53332000  0.63639000  0.27495000  1.0
  C  C42  1  0.57347000  0.33731000  0.14897000  1.0
  C  C43  1  0.42654000  0.66270000  0.85104000  1.0
  C  C44  1  0.36482000  0.05034000  0.08607000  1.0
  C  C45  1  0.63520000  0.94962000  0.91391000  1.0
  C  C46  1  0.35403000  0.44255000  0.69192000  1.0
  C  C47  1  0.64596000  0.55743000  0.30809000  1.0
  C  C48  1  0.68432000  0.41133000  0.00365000  1.0
  C  C49  1  0.31568000  0.58867000  0.99636000  1.0
  C  C50  1  0.44408000  0.12275000  0.92999000  1.0
  C  C51  1  0.55591000  0.87722000  0.06999000  1.0
  C  C52  1  0.45600000  0.14276000  0.47024000  1.0
  C  C53  1  0.54401000  0.85724000  0.52976000  1.0
  C  C54  1  0.60778000  0.95944000  0.38283000  1.0
  C  C55  1  0.39223000  0.04057000  0.61716000  1.0
  C  C56  1  0.97200000  0.07262000  0.37636000  1.0
  C  C57  1  0.02801000  0.92740000  0.62364000  1.0
  N  N58  1  0.80994000  0.32911000  0.96814000  1.0
  N  N59  1  0.19006000  0.67090000  0.03186000  1.0
  N  N60  1  0.20177000  0.37200000  0.80161000  1.0
  N  N61  1  0.79822000  0.62798000  0.19840000  1.0
  N  N62  1  0.63295000  0.20841000  0.20332000  1.0
  N  N63  1  0.36707000  0.79160000  0.79668000  1.0
  N  N64  1  0.38090000  0.24381000  0.85802000  1.0
  N  N65  1  0.61910000  0.75616000  0.14197000  1.0
  O  O66  1  0.00690000  0.07538000  0.81881000  1.0
  O  O67  1  0.99305000  0.92465000  0.18121000  1.0
  O  O68  1  0.04595000  0.40196000  0.30216000  1.0
  O  O69  1  0.95405000  0.59807000  0.69786000  1.0
  O  O70  1  0.01721000  0.29433000  0.64165000  1.0
  O  O71  1  0.98278000  0.70569000  0.35836000  1.0
  O  O72  1  0.79630000  0.33250000  0.49421000  1.0
  O  O73  1  0.20370000  0.66752000  0.50581000  1.0
