# generated using pymatgen
data_AlH12C21NO9
_symmetry_space_group_name_H-M   'P 1'
_cell_length_a   4.13339000
_cell_length_b   13.46510000
_cell_length_c   13.46489647
_cell_angle_alpha   60.00050000
_cell_angle_beta   89.99919999
_cell_angle_gamma   90.00050000
_symmetry_Int_Tables_number   1
_chemical_formula_structural   AlH12C21NO9
_chemical_formula_sum   'Al1 H12 C21 N1 O9'
_cell_volume   649.01062374
_cell_formula_units_Z   1
loop_
 _symmetry_equiv_pos_site_id
 _symmetry_equiv_pos_as_xyz
  1  'x, y, z'
loop_
 _atom_site_type_symbol
 _atom_site_label
 _atom_site_symmetry_multiplicity
 _atom_site_fract_x
 _atom_site_fract_y
 _atom_site_fract_z
 _atom_site_occupancy
  Al  Al0  1  0.97815000  0.00001000  0.50000000  1.0
  H  H1  1  0.18117000  0.97437000  0.20393000  1.0
  H  H2  1  0.19701000  0.86918000  0.09781000  1.0
  H  H3  1  0.80185000  0.61170000  0.36245000  1.0
  H  H4  1  0.80187000  0.86245000  0.02586000  1.0
  H  H5  1  0.18115000  0.70394000  0.82170000  1.0
  H  H6  1  0.19699000  0.59780000  0.03301000  1.0
  H  H7  1  0.80185000  0.52586000  0.11169000  1.0
  H  H8  1  0.18115000  0.32170000  0.47438000  1.0
  H  H9  1  0.19700000  0.53301000  0.36919000  1.0
  H  H10  1  0.97050000  0.77510000  0.48372000  1.0
  H  H11  1  0.97050000  0.98373000  0.74118000  1.0
  H  H12  1  0.97050000  0.24118000  0.27510000  1.0
  C  C13  1  0.48246000  0.90423000  0.67701000  1.0
  C  C14  1  0.48247000  0.17701000  0.41878000  1.0
  C  C15  1  0.48249000  0.91878000  0.40421000  1.0
  C  C16  1  0.32401000  0.89603000  0.23706000  1.0
  C  C17  1  0.32678000  0.83578000  0.17832000  1.0
  C  C18  1  0.49278000  0.73092000  0.22391000  1.0
  C  C19  1  0.66591000  0.69125000  0.32622000  1.0
  C  C20  1  0.67802000  0.75439000  0.38240000  1.0
  C  C21  1  0.49662000  0.85616000  0.33952000  1.0
  C  C22  1  0.66591000  0.82622000  0.98254000  1.0
  C  C23  1  0.67801000  0.88241000  0.86322000  1.0
  C  C24  1  0.49660000  0.83954000  0.80432000  1.0
  C  C25  1  0.32398000  0.73707000  0.86690000  1.0
  C  C26  1  0.32677000  0.67832000  0.98590000  1.0
  C  C27  1  0.49278000  0.72391000  0.04518000  1.0
  C  C28  1  0.66590000  0.48253000  0.19125000  1.0
  C  C29  1  0.67800000  0.36322000  0.25438000  1.0
  C  C30  1  0.49660000  0.30432000  0.35616000  1.0
  C  C31  1  0.32398000  0.36690000  0.39605000  1.0
  C  C32  1  0.32676000  0.48589000  0.33579000  1.0
  C  C33  1  0.49277000  0.54517000  0.23092000  1.0
  N  N34  1  0.48828000  0.66666000  0.16667000  1.0
  O  O35  1  0.71152000  0.98759000  0.39081000  1.0
  O  O36  1  0.71150000  0.89082000  0.62160000  1.0
  O  O37  1  0.71150000  0.12159000  0.48759000  1.0
  O  O38  1  0.23863000  0.89865000  0.47110000  1.0
  O  O39  1  0.23863000  0.13026000  0.39864000  1.0
  O  O40  1  0.23863000  0.97111000  0.63025000  1.0
  O  O41  1  0.86124000  0.71203000  0.47983000  1.0
  O  O42  1  0.86124000  0.97983000  0.80815000  1.0
  O  O43  1  0.86124000  0.30815000  0.21203000  1.0
