# generated using pymatgen
data_MnH12C18N2(Cl2O3)2
_symmetry_space_group_name_H-M   'P 1'
_cell_length_a   8.52067000
_cell_length_b   8.52727000
_cell_length_c   14.57320000
_cell_angle_alpha   106.78000000
_cell_angle_beta   104.25600000
_cell_angle_gamma   94.81010000
_symmetry_Int_Tables_number   1
_chemical_formula_structural   MnH12C18N2(Cl2O3)2
_chemical_formula_sum   'Mn2 H24 C36 N4 Cl8 O12'
_cell_volume   968.76060562
_cell_formula_units_Z   2
loop_
 _symmetry_equiv_pos_site_id
 _symmetry_equiv_pos_as_xyz
  1  'x, y, z'
loop_
 _atom_site_type_symbol
 _atom_site_label
 _atom_site_symmetry_multiplicity
 _atom_site_fract_x
 _atom_site_fract_y
 _atom_site_fract_z
 _atom_site_occupancy
  Mn  Mn0  1  0.97918000  0.72903000  0.74997000  1.0
  Mn  Mn1  1  0.02082000  0.27097000  0.25003000  1.0
  H  H2  1  0.01874000  0.09751000  0.75717000  1.0
  H  H3  1  0.34132000  0.76176000  0.74316000  1.0
  H  H4  1  0.98126000  0.90249000  0.24283000  1.0
  H  H5  1  0.65868000  0.23825000  0.25685000  1.0
  H  H6  1  0.22732000  0.32246000  0.75915000  1.0
  H  H7  1  0.56457000  0.96889000  0.74195000  1.0
  H  H8  1  0.77268000  0.67755000  0.24085000  1.0
  H  H9  1  0.43543000  0.03112000  0.25805000  1.0
  H  H10  1  0.75119000  0.18189000  0.80806000  1.0
  H  H11  1  0.37406000  0.44290000  0.69307000  1.0
  H  H12  1  0.24880000  0.81811000  0.19193000  1.0
  H  H13  1  0.62594000  0.55710000  0.30693000  1.0
  H  H14  1  0.95699000  0.39986000  0.80132000  1.0
  H  H15  1  0.59823000  0.65501000  0.69879000  1.0
  H  H16  1  0.04301000  0.60014000  0.19868000  1.0
  H  H17  1  0.40176000  0.34499000  0.30121000  1.0
  H  H18  1  0.92820000  0.61148000  0.56048000  1.0
  H  H19  1  0.05110000  0.86781000  0.93943000  1.0
  H  H20  1  0.07180000  0.38852000  0.43952000  1.0
  H  H21  1  0.94891000  0.13218000  0.06058000  1.0
  H  H22  1  0.97317000  0.45023000  0.58802000  1.0
  H  H23  1  0.86212000  0.88481000  0.91194000  1.0
  H  H24  1  0.02683000  0.54977000  0.41198000  1.0
  H  H25  1  0.13789000  0.11518000  0.08806000  1.0
  C  C26  1  0.14166000  0.07529000  0.75413000  1.0
  C  C27  1  0.32195000  0.88762000  0.74633000  1.0
  C  C28  1  0.85834000  0.92471000  0.24587000  1.0
  C  C29  1  0.67805000  0.11239000  0.25367000  1.0
  C  C30  1  0.25814000  0.19926000  0.75409000  1.0
  C  C31  1  0.44616000  0.00443000  0.74687000  1.0
  C  C32  1  0.74186000  0.80075000  0.24591000  1.0
  C  C33  1  0.55384000  0.99558000  0.25314000  1.0
  C  C34  1  0.41526000  0.16496000  0.75060000  1.0
  C  C35  1  0.58474000  0.83505000  0.24940000  1.0
  C  C36  1  0.54296000  0.29269000  0.75060000  1.0
  C  C37  1  0.45704000  0.70732000  0.24940000  1.0
  C  C38  1  0.71031000  0.28189000  0.78063000  1.0
  C  C39  1  0.50163000  0.42963000  0.72033000  1.0
  C  C40  1  0.28968000  0.71812000  0.21937000  1.0
  C  C41  1  0.49836000  0.57037000  0.27967000  1.0
  C  C42  1  0.82620000  0.40409000  0.77833000  1.0
  C  C43  1  0.62584000  0.54757000  0.72207000  1.0
  C  C44  1  0.17380000  0.59591000  0.22167000  1.0
  C  C45  1  0.37416000  0.45244000  0.27793000  1.0
  C  C46  1  0.37374000  0.58590000  0.96732000  1.0
  C  C47  1  0.61867000  0.90650000  0.53272000  1.0
  C  C48  1  0.62626000  0.41408000  0.03268000  1.0
  C  C49  1  0.38133000  0.09351000  0.46729000  1.0
  C  C50  1  0.33695000  0.43985000  0.98915000  1.0
  C  C51  1  0.45069000  0.84774000  0.51070000  1.0
  C  C52  1  0.66305000  0.56013000  0.01085000  1.0
  C  C53  1  0.54930000  0.15226000  0.48929000  1.0
  C  C54  1  0.53792000  0.64562000  0.97890000  1.0
  C  C55  1  0.66682000  0.05912000  0.52126000  1.0
  C  C56  1  0.46208000  0.35437000  0.02110000  1.0
  C  C57  1  0.33318000  0.94088000  0.47874000  1.0
  C  C58  1  0.23812000  0.67622000  0.92972000  1.0
  C  C59  1  0.74652000  0.80846000  0.57033000  1.0
  C  C60  1  0.76187000  0.32378000  0.07029000  1.0
  C  C61  1  0.25348000  0.19155000  0.42967000  1.0
  N  N62  1  0.17175000  0.92140000  0.75009000  1.0
  N  N63  1  0.82825000  0.07860000  0.24991000  1.0
  N  N64  1  0.78611000  0.53592000  0.75003000  1.0
  N  N65  1  0.21389000  0.46408000  0.24997000  1.0
  Cl  Cl66  1  0.13635000  0.36515000  0.97688000  1.0
  Cl  Cl67  1  0.38826000  0.65964000  0.52312000  1.0
  Cl  Cl68  1  0.86364000  0.63484000  0.02312000  1.0
  Cl  Cl69  1  0.61174000  0.34035000  0.47687000  1.0
  Cl  Cl70  1  0.58538000  0.82844000  0.95562000  1.0
  Cl  Cl71  1  0.87303000  0.12991000  0.54474000  1.0
  Cl  Cl72  1  0.41462000  0.17155000  0.04438000  1.0
  Cl  Cl73  1  0.12697000  0.87009000  0.45526000  1.0
  O  O74  1  0.17184000  0.62369000  0.83539000  1.0
  O  O75  1  0.78846000  0.83653000  0.66468000  1.0
  O  O76  1  0.82816000  0.37630000  0.16460000  1.0
  O  O77  1  0.21155000  0.16347000  0.33533000  1.0
  O  O78  1  0.20372000  0.79273000  0.99355000  1.0
  O  O79  1  0.79892000  0.71001000  0.50643000  1.0
  O  O80  1  0.79628000  0.20726000  0.00645000  1.0
  O  O81  1  0.20107000  0.29000000  0.49358000  1.0
  O  O82  1  0.00776000  0.57017000  0.60900000  1.0
  O  O83  1  0.96110000  0.89865000  0.89089000  1.0
  O  O84  1  0.99224000  0.42984000  0.39100000  1.0
  O  O85  1  0.03891000  0.10134000  0.10911000  1.0
