# generated using pymatgen
data_CdH14(C11N6)2
_symmetry_space_group_name_H-M   'P 1'
_cell_length_a   6.90304000
_cell_length_b   6.90304000
_cell_length_c   22.79020000
_cell_angle_alpha   93.51830000
_cell_angle_beta   93.51830000
_cell_angle_gamma   108.68700000
_symmetry_Int_Tables_number   1
_chemical_formula_structural   CdH14(C11N6)2
_chemical_formula_sum   'Cd2 H28 C44 N24'
_cell_volume   1023.03059445
_cell_formula_units_Z   2
loop_
 _symmetry_equiv_pos_site_id
 _symmetry_equiv_pos_as_xyz
  1  'x, y, z'
loop_
 _atom_site_type_symbol
 _atom_site_label
 _atom_site_symmetry_multiplicity
 _atom_site_fract_x
 _atom_site_fract_y
 _atom_site_fract_z
 _atom_site_occupancy
  Cd  Cd0  1  0.57042000  0.42958000  0.25000000  1.0
  Cd  Cd1  1  0.42957000  0.57042000  0.75000000  1.0
  H  H2  1  0.94148000  0.79721000  0.10100000  1.0
  H  H3  1  0.20279000  0.05852000  0.39900000  1.0
  H  H4  1  0.05852000  0.20279000  0.89900000  1.0
  H  H5  1  0.79721000  0.94148000  0.60100000  1.0
  H  H6  1  0.07152000  0.99940000  0.19792000  1.0
  H  H7  1  0.00060000  0.92848000  0.30208000  1.0
  H  H8  1  0.92848000  0.00060000  0.80208000  1.0
  H  H9  1  0.99940000  0.07152000  0.69792000  1.0
  H  H10  1  0.85954000  0.47482000  0.13138000  1.0
  H  H11  1  0.52519000  0.14046000  0.36862000  1.0
  H  H12  1  0.14046000  0.52518000  0.86862000  1.0
  H  H13  1  0.47482000  0.85954000  0.63138000  1.0
  H  H14  1  0.74883000  0.25997000  0.03637000  1.0
  H  H15  1  0.74004000  0.25117000  0.46363000  1.0
  H  H16  1  0.25117000  0.74003000  0.96363000  1.0
  H  H17  1  0.25997000  0.74883000  0.53637000  1.0
  H  H18  1  0.17566000  0.66282000  0.42491000  1.0
  H  H19  1  0.33719000  0.82434000  0.07509000  1.0
  H  H20  1  0.82434000  0.33719000  0.57509000  1.0
  H  H21  1  0.66282000  0.17566000  0.92491000  1.0
  H  H22  1  0.77475000  0.72954000  0.48820000  1.0
  H  H23  1  0.27046000  0.22525000  0.01180000  1.0
  H  H24  1  0.22525000  0.27046000  0.51180000  1.0
  H  H25  1  0.72954000  0.77475000  0.98820000  1.0
  H  H26  1  0.83264000  0.58313000  0.38807000  1.0
  H  H27  1  0.41686000  0.16736000  0.11193000  1.0
  H  H28  1  0.16736000  0.41687000  0.61193000  1.0
  H  H29  1  0.58313000  0.83264000  0.88807000  1.0
  C  C30  1  0.92553000  0.94887000  0.10930000  1.0
  C  C31  1  0.05113000  0.07447000  0.39070000  1.0
  C  C32  1  0.07447000  0.05113000  0.89070000  1.0
  C  C33  1  0.94888000  0.92553000  0.60930000  1.0
  C  C34  1  0.99757000  0.06086000  0.16360000  1.0
  C  C35  1  0.93914000  0.00243000  0.33639000  1.0
  C  C36  1  0.00243000  0.93914000  0.83640000  1.0
  C  C37  1  0.06086000  0.99757000  0.66360000  1.0
  C  C38  1  0.97229000  0.25378000  0.17308000  1.0
  C  C39  1  0.74622000  0.02771000  0.32692000  1.0
  C  C40  1  0.02771000  0.74621000  0.82692000  1.0
  C  C41  1  0.25379000  0.97229000  0.67308000  1.0
  C  C42  1  0.87993000  0.32481000  0.12646000  1.0
  C  C43  1  0.67519000  0.12007000  0.37354000  1.0
  C  C44  1  0.12007000  0.67519000  0.87354000  1.0
  C  C45  1  0.32481000  0.87993000  0.62646000  1.0
  C  C46  1  0.81607000  0.20241000  0.07334000  1.0
  C  C47  1  0.79759000  0.18394000  0.42666000  1.0
  C  C48  1  0.18394000  0.79759000  0.92666000  1.0
  C  C49  1  0.20241000  0.81607000  0.57334000  1.0
  C  C50  1  0.03806000  0.37444000  0.23011000  1.0
  C  C51  1  0.62555000  0.96194000  0.26989000  1.0
  C  C52  1  0.96194000  0.62555000  0.76989000  1.0
  C  C53  1  0.37444000  0.03806000  0.73011000  1.0
  C  C54  1  0.19933000  0.50807000  0.31260000  1.0
  C  C55  1  0.49193000  0.80067000  0.18740000  1.0
  C  C56  1  0.80067000  0.49193000  0.68740000  1.0
  C  C57  1  0.50807000  0.19933000  0.81260000  1.0
  C  C58  1  0.35698000  0.56789000  0.36173000  1.0
  C  C59  1  0.43211000  0.64302000  0.13827000  1.0
  C  C60  1  0.64302000  0.43211000  0.63827000  1.0
  C  C61  1  0.56789000  0.35698000  0.86173000  1.0
  C  C62  1  0.32467000  0.64709000  0.41726000  1.0
  C  C63  1  0.35292000  0.67532000  0.08274000  1.0
  C  C64  1  0.67533000  0.35292000  0.58274000  1.0
  C  C65  1  0.64709000  0.32467000  0.91726000  1.0
  C  C66  1  0.65227000  0.68119000  0.45213000  1.0
  C  C67  1  0.31881000  0.34773000  0.04787000  1.0
  C  C68  1  0.34773000  0.31882000  0.54787000  1.0
  C  C69  1  0.68118000  0.65227000  0.95213000  1.0
  C  C70  1  0.68589000  0.60039000  0.39753000  1.0
  C  C71  1  0.39961000  0.31411000  0.10247000  1.0
  C  C72  1  0.31411000  0.39961000  0.60247000  1.0
  C  C73  1  0.60039000  0.68589000  0.89753000  1.0
  N  N74  1  0.83520000  0.01545000  0.06453000  1.0
  N  N75  1  0.98455000  0.16480000  0.43547000  1.0
  N  N76  1  0.16480000  0.98455000  0.93547000  1.0
  N  N77  1  0.01545000  0.83521000  0.56453000  1.0
  N  N78  1  0.21449000  0.39571000  0.26296000  1.0
  N  N79  1  0.60429000  0.78551000  0.23704000  1.0
  N  N80  1  0.78551000  0.60429000  0.73704000  1.0
  N  N81  1  0.39570000  0.21448000  0.76296000  1.0
  N  N82  1  0.02540000  0.55543000  0.31132000  1.0
  N  N83  1  0.44457000  0.97461000  0.18867000  1.0
  N  N84  1  0.97460000  0.44457000  0.68868000  1.0
  N  N85  1  0.55544000  0.02539000  0.81133000  1.0
  N  N86  1  0.92246000  0.47094000  0.25830000  1.0
  N  N87  1  0.52906000  0.07754000  0.24170000  1.0
  N  N88  1  0.07754000  0.52905000  0.74170000  1.0
  N  N89  1  0.47094000  0.92246000  0.75830000  1.0
  N  N90  1  0.53875000  0.54183000  0.35272000  1.0
  N  N91  1  0.45818000  0.46125000  0.14728000  1.0
  N  N92  1  0.46125000  0.45817000  0.64728000  1.0
  N  N93  1  0.54183000  0.53874000  0.85272000  1.0
  N  N94  1  0.46980000  0.70230000  0.46212000  1.0
  N  N95  1  0.29771000  0.53021000  0.03788000  1.0
  N  N96  1  0.53021000  0.29771000  0.53788000  1.0
  N  N97  1  0.70229000  0.46980000  0.96212000  1.0
