# generated using pymatgen
data_AlH8C13NO9
_symmetry_space_group_name_H-M   'P 1'
_cell_length_a   6.65649000
_cell_length_b   10.94220000
_cell_length_c   16.98950000
_cell_angle_alpha   85.04250000
_cell_angle_beta   81.92250000
_cell_angle_gamma   74.05540000
_symmetry_Int_Tables_number   1
_chemical_formula_structural   AlH8C13NO9
_chemical_formula_sum   'Al2 H16 C26 N2 O18'
_cell_volume   1176.55880190
_cell_formula_units_Z   2
loop_
 _symmetry_equiv_pos_site_id
 _symmetry_equiv_pos_as_xyz
  1  'x, y, z'
loop_
 _atom_site_type_symbol
 _atom_site_label
 _atom_site_symmetry_multiplicity
 _atom_site_fract_x
 _atom_site_fract_y
 _atom_site_fract_z
 _atom_site_occupancy
  Al  Al0  1  0.50690000  0.50588000  0.48043000  1.0
  Al  Al1  1  0.00405000  0.50652000  0.48513000  1.0
  H  H2  1  0.23353000  0.59827000  0.39157000  1.0
  H  H3  1  0.77473000  0.37471000  0.55359000  1.0
  H  H4  1  0.88349000  0.47542000  0.72591000  1.0
  H  H5  1  0.83691000  0.46627000  0.87451000  1.0
  H  H6  1  0.44941000  0.52936000  0.87133000  1.0
  H  H7  1  0.62765000  0.45415000  0.08825000  1.0
  H  H8  1  0.23434000  0.51880000  0.09700000  1.0
  H  H9  1  0.15947000  0.52466000  0.24445000  1.0
  H  H10  1  0.52178000  0.54624000  0.65926000  1.0
  H  H11  1  0.52112000  0.45174000  0.29942000  1.0
  H  H12  1  0.08238000  0.21232000  0.45912000  1.0
  H  H13  1  0.31565000  0.78382000  0.45958000  1.0
  H  H14  1  0.61649000  0.28611000  0.68194000  1.0
  H  H15  1  0.93124000  0.08815000  0.76261000  1.0
  H  H16  1  0.00206000  0.79186000  0.72763000  1.0
  H  H17  1  0.86348000  0.70319000  0.59493000  1.0
  C  C18  1  0.64373000  0.73729000  0.50071000  1.0
  C  C19  1  0.81237000  0.49912000  0.33779000  1.0
  C  C20  1  0.35396000  0.27568000  0.49656000  1.0
  C  C21  1  0.21169000  0.51298000  0.62701000  1.0
  C  C22  1  0.19121000  0.50735000  0.71431000  1.0
  C  C23  1  0.00690000  0.48592000  0.75828000  1.0
  C  C24  1  0.97962000  0.48137000  0.84030000  1.0
  C  C25  1  0.14064000  0.49782000  0.88094000  1.0
  C  C26  1  0.32658000  0.51690000  0.83905000  1.0
  C  C27  1  0.35368000  0.52210000  0.75560000  1.0
  C  C28  1  0.74307000  0.46962000  0.12317000  1.0
  C  C29  1  0.93317000  0.48740000  0.08455000  1.0
  C  C30  1  0.08643000  0.50661000  0.12826000  1.0
  C  C31  1  0.04324000  0.51006000  0.20995000  1.0
  C  C32  1  0.85241000  0.49292000  0.25081000  1.0
  C  C33  1  0.70178000  0.47023000  0.20628000  1.0
  C  C34  1  0.54804000  0.86842000  0.52395000  1.0
  C  C35  1  0.64024000  0.93822000  0.57194000  1.0
  C  C36  1  0.35795000  0.93211000  0.49355000  1.0
  C  C37  1  0.77920000  0.87582000  0.62755000  1.0
  C  C38  1  0.85504000  0.94398000  0.67678000  1.0
  C  C39  1  0.40237000  0.13949000  0.52163000  1.0
  C  C40  1  0.28466000  0.06852000  0.49277000  1.0
  C  C41  1  0.56854000  0.07610000  0.56979000  1.0
  C  C42  1  0.64481000  0.14123000  0.62274000  1.0
  C  C43  1  0.78917000  0.07597000  0.67387000  1.0
  N  N44  1  0.12734000  0.49788000  0.96497000  1.0
  N  N45  1  0.95347000  0.48516000  0.00073000  1.0
  O  O46  1  0.52738000  0.67866000  0.47180000  1.0
  O  O47  1  0.95117000  0.51888000  0.37600000  1.0
  O  O48  1  0.16408000  0.33037000  0.47895000  1.0
  O  O49  1  0.38015000  0.53634000  0.58854000  1.0
  O  O50  1  0.49690000  0.33364000  0.48850000  1.0
  O  O51  1  0.06515000  0.49500000  0.59250000  1.0
  O  O52  1  0.84038000  0.68216000  0.50465000  1.0
  O  O53  1  0.63241000  0.48491000  0.37200000  1.0
  O  O54  1  0.23996000  0.56584000  0.44638000  1.0
  O  O55  1  0.76572000  0.45126000  0.51894000  1.0
  O  O56  1  0.53627000  0.54023000  0.71744000  1.0
  O  O57  1  0.51844000  0.44885000  0.24086000  1.0
  O  O58  1  0.11235000  0.11781000  0.45613000  1.0
  O  O59  1  0.24172000  0.87722000  0.45771000  1.0
  O  O60  1  0.57014000  0.27077000  0.63222000  1.0
  O  O61  1  0.84903000  0.14675000  0.72498000  1.0
  O  O62  1  0.98404000  0.88331000  0.73216000  1.0
  O  O63  1  0.83836000  0.74753000  0.64548000  1.0
