# generated using pymatgen
data_ZnH29C36N2(O2F)3
_symmetry_space_group_name_H-M   'P 1'
_cell_length_a   16.45470000
_cell_length_b   16.81360000
_cell_length_c   23.68700000
_cell_angle_alpha   88.91940000
_cell_angle_beta   87.62010000
_cell_angle_gamma   88.45860000
_symmetry_Int_Tables_number   1
_chemical_formula_structural   ZnH29C36N2(O2F)3
_chemical_formula_sum   'Zn2 H58 C72 N4 O12 F6'
_cell_volume   6544.25588664
_cell_formula_units_Z   2
loop_
 _symmetry_equiv_pos_site_id
 _symmetry_equiv_pos_as_xyz
  1  'x, y, z'
loop_
 _atom_site_type_symbol
 _atom_site_label
 _atom_site_symmetry_multiplicity
 _atom_site_fract_x
 _atom_site_fract_y
 _atom_site_fract_z
 _atom_site_occupancy
  Zn  Zn0  1  0.59194000  0.49732000  0.50074000  1.0
  Zn  Zn1  1  0.41026000  0.50335000  0.50875000  1.0
  H  H2  1  0.37737000  0.36336000  0.06655000  1.0
  H  H3  1  0.59742000  0.68784000  0.94284000  1.0
  H  H4  1  0.60848000  0.89610000  0.44392000  1.0
  H  H5  1  0.39531000  0.10467000  0.44645000  1.0
  H  H6  1  0.29974000  0.54218000  0.42608000  1.0
  H  H7  1  0.70552000  0.41253000  0.56270000  1.0
  H  H8  1  0.98974000  0.47320000  0.56719000  1.0
  H  H9  1  0.00929000  0.52195000  0.44197000  1.0
  H  H10  1  0.10999000  0.45912000  0.57828000  1.0
  H  H11  1  0.88777000  0.58504000  0.45147000  1.0
  H  H12  1  0.39298000  0.56839000  0.67706000  1.0
  H  H13  1  0.59805000  0.42347000  0.32179000  1.0
  H  H14  1  0.61098000  0.45675000  0.79488000  1.0
  H  H15  1  0.41083000  0.60909000  0.22295000  1.0
  H  H16  1  0.36711000  0.72725000  0.43377000  1.0
  H  H17  1  0.63425000  0.27861000  0.43838000  1.0
  H  H18  1  0.41183000  0.99698000  0.39912000  1.0
  H  H19  1  0.59830000  0.00954000  0.40176000  1.0
  H  H20  1  0.70494000  0.50957000  0.36396000  1.0
  H  H21  1  0.71067000  0.60658000  0.33369000  1.0
  H  H22  1  0.80170000  0.55381000  0.35128000  1.0
  H  H23  1  0.66634000  0.61457000  0.43568000  1.0
  H  H24  1  0.76228000  0.65764000  0.42418000  1.0
  H  H25  1  0.23672000  0.32035000  0.59543000  1.0
  H  H26  1  0.33600000  0.34492000  0.56943000  1.0
  H  H27  1  0.31473000  0.33667000  0.64352000  1.0
  H  H28  1  0.32000000  0.47902000  0.61501000  1.0
  H  H29  1  0.21965000  0.45595000  0.63921000  1.0
  H  H30  1  0.75394000  0.36260000  0.64502000  1.0
  H  H31  1  0.77564000  0.29221000  0.59109000  1.0
  H  H32  1  0.83380000  0.29073000  0.65250000  1.0
  H  H33  1  0.91536000  0.35093000  0.57398000  1.0
  H  H34  1  0.89228000  0.42130000  0.62633000  1.0
  H  H35  1  0.24252000  0.63205000  0.36161000  1.0
  H  H36  1  0.25226000  0.53303000  0.33751000  1.0
  H  H37  1  0.18048000  0.60017000  0.30742000  1.0
  H  H38  1  0.10737000  0.50828000  0.37283000  1.0
  H  H39  1  0.09820000  0.60617000  0.39705000  1.0
  H  H40  1  0.37787000  0.21314000  0.92984000  1.0
  H  H41  1  0.45946000  0.27642000  0.91043000  1.0
  H  H42  1  0.44648000  0.24094000  0.98163000  1.0
  H  H43  1  0.31308000  0.31831000  0.99067000  1.0
  H  H44  1  0.32787000  0.35409000  0.91991000  1.0
  H  H45  1  0.74869000  0.73465000  0.07341000  1.0
  H  H46  1  0.71985000  0.63544000  0.08934000  1.0
  H  H47  1  0.74356000  0.66524000  0.01796000  1.0
  H  H48  1  0.62173000  0.75982000  0.02126000  1.0
  H  H49  1  0.59875000  0.72864000  0.09221000  1.0
  H  H50  1  0.26830000  0.52060000  0.74329000  1.0
  H  H51  1  0.29312000  0.47861000  0.80982000  1.0
  H  H52  1  0.22662000  0.56404000  0.80635000  1.0
  H  H53  1  0.36488000  0.60545000  0.83236000  1.0
  H  H54  1  0.34160000  0.64524000  0.76555000  1.0
  H  H55  1  0.58858000  0.29914000  0.25301000  1.0
  H  H56  1  0.53277000  0.31636000  0.19131000  1.0
  H  H57  1  0.63724000  0.28510000  0.18546000  1.0
  H  H58  1  0.62541000  0.43077000  0.16367000  1.0
  H  H59  1  0.67820000  0.41400000  0.22600000  1.0
  C  C60  1  0.50554000  0.34885000  0.49159000  1.0
  C  C61  1  0.48761000  0.65228000  0.48800000  1.0
  C  C62  1  0.43106000  0.55101000  0.76246000  1.0
  C  C63  1  0.55907000  0.46406000  0.24002000  1.0
  C  C64  1  0.44043000  0.54435000  0.70381000  1.0
  C  C65  1  0.55679000  0.46324000  0.29907000  1.0
  C  C66  1  0.50866000  0.50831000  0.67658000  1.0
  C  C67  1  0.50304000  0.51136000  0.33157000  1.0
  C  C68  1  0.56965000  0.47768000  0.71091000  1.0
  C  C69  1  0.45170000  0.56427000  0.30277000  1.0
  C  C70  1  0.56287000  0.48197000  0.76932000  1.0
  C  C71  1  0.45148000  0.56733000  0.24431000  1.0
  C  C72  1  0.49384000  0.51843000  0.79452000  1.0
  C  C73  1  0.50421000  0.51651000  0.21370000  1.0
  C  C74  1  0.50824000  0.26847000  0.46496000  1.0
  C  C75  1  0.48982000  0.73371000  0.46112000  1.0
  C  C76  1  0.44160000  0.21807000  0.46412000  1.0
  C  C77  1  0.55771000  0.78263000  0.46059000  1.0
  C  C78  1  0.44760000  0.14289000  0.44137000  1.0
  C  C79  1  0.55608000  0.85922000  0.43838000  1.0
  C  C80  1  0.52160000  0.11355000  0.41675000  1.0
  C  C81  1  0.48559000  0.89144000  0.41388000  1.0
  C  C82  1  0.51240000  0.50403000  0.61322000  1.0
  C  C83  1  0.50244000  0.50401000  0.39470000  1.0
  C  C84  1  0.58658000  0.16641000  0.41488000  1.0
  C  C85  1  0.42002000  0.83983000  0.41109000  1.0
  C  C86  1  0.58146000  0.24087000  0.43875000  1.0
  C  C87  1  0.42054000  0.76398000  0.43467000  1.0
  C  C88  1  0.53466000  0.02998000  0.40387000  1.0
  C  C89  1  0.47494000  0.97615000  0.40243000  1.0
  C  C90  1  0.25426000  0.52485000  0.45839000  1.0
  C  C91  1  0.74926000  0.44863000  0.53875000  1.0
  C  C92  1  0.17163000  0.52838000  0.44750000  1.0
  C  C93  1  0.83172000  0.44309000  0.54939000  1.0
  C  C94  1  0.11666000  0.50471000  0.49200000  1.0
  C  C95  1  0.88404000  0.49286000  0.51635000  1.0
  C  C96  1  0.14958000  0.47881000  0.54302000  1.0
  C  C97  1  0.84953000  0.54407000  0.47612000  1.0
  C  C98  1  0.23300000  0.47635000  0.55065000  1.0
  C  C99  1  0.76600000  0.54643000  0.46801000  1.0
  C  C100  1  0.02904000  0.50704000  0.48438000  1.0
  C  C101  1  0.97134000  0.49081000  0.52491000  1.0
  C  C102  1  0.54573000  0.57787000  0.12344000  1.0
  C  C103  1  0.45002000  0.45884000  0.88491000  1.0
  C  C104  1  0.45259000  0.46195000  0.12877000  1.0
  C  C105  1  0.52768000  0.58544000  0.88015000  1.0
  C  C106  1  0.45265000  0.46377000  0.06637000  1.0
  C  C107  1  0.52930000  0.58248000  0.94258000  1.0
  C  C108  1  0.49476000  0.52288000  0.03439000  1.0
  C  C109  1  0.49043000  0.52117000  0.97442000  1.0
  C  C110  1  0.53935000  0.58226000  0.06106000  1.0
  C  C111  1  0.44802000  0.46024000  0.94768000  1.0
  C  C112  1  0.40958000  0.40680000  0.03980000  1.0
  C  C113  1  0.56961000  0.64135000  0.96933000  1.0
  C  C114  1  0.40618000  0.40258000  0.98050000  1.0
  C  C115  1  0.57662000  0.64304000  0.02851000  1.0
  C  C116  1  0.73032000  0.60098000  0.42401000  1.0
  C  C117  1  0.73775000  0.56544000  0.36467000  1.0
  C  C118  1  0.26618000  0.44554000  0.60523000  1.0
  C  C119  1  0.28973000  0.35648000  0.60316000  1.0
  C  C120  1  0.86456000  0.38615000  0.59358000  1.0
  C  C121  1  0.80325000  0.33006000  0.62201000  1.0
  C  C122  1  0.14237000  0.55632000  0.39055000  1.0
  C  C123  1  0.20824000  0.58167000  0.34712000  1.0
  C  C124  1  0.35922000  0.33508000  0.95796000  1.0
  C  C125  1  0.41433000  0.26206000  0.94421000  1.0
  C  C126  1  0.62503000  0.70927000  0.05134000  1.0
  C  C127  1  0.71474000  0.68440000  0.05832000  1.0
  C  C128  1  0.35482000  0.58916000  0.78853000  1.0
  C  C129  1  0.28125000  0.53492000  0.78704000  1.0
  C  C130  1  0.61802000  0.40972000  0.20776000  1.0
  C  C131  1  0.59261000  0.32241000  0.20936000  1.0
  N  N132  1  0.50017000  0.51916000  0.15293000  1.0
  N  N133  1  0.48959000  0.52166000  0.85557000  1.0
  N  N134  1  0.28480000  0.49987000  0.50792000  1.0
  N  N135  1  0.71691000  0.49835000  0.49967000  1.0
  O  O136  1  0.57337000  0.37569000  0.50546000  1.0
  O  O137  1  0.41827000  0.62712000  0.50425000  1.0
  O  O138  1  0.43642000  0.38414000  0.49661000  1.0
  O  O139  1  0.55539000  0.61446000  0.49077000  1.0
  O  O140  1  0.58149000  0.50329000  0.58766000  1.0
  O  O141  1  0.43489000  0.51588000  0.42133000  1.0
  O  O142  1  0.44359000  0.50250000  0.59051000  1.0
  O  O143  1  0.57018000  0.48500000  0.41590000  1.0
  O  O144  1  0.58826000  0.62137000  0.15040000  1.0
  O  O145  1  0.42018000  0.40625000  0.85751000  1.0
  O  O146  1  0.41461000  0.41358000  0.15839000  1.0
  O  O147  1  0.55809000  0.63879000  0.85078000  1.0
  F  F148  1  0.65943000  0.14137000  0.39034000  1.0
  F  F149  1  0.35087000  0.86754000  0.38627000  1.0
  F  F150  1  0.63739000  0.44033000  0.68808000  1.0
  F  F151  1  0.40144000  0.61647000  0.33156000  1.0
  F  F152  1  0.36887000  0.23953000  0.48954000  1.0
  F  F153  1  0.62694000  0.75796000  0.48596000  1.0
