# generated using pymatgen
data_AlH7C11O7F
_symmetry_space_group_name_H-M   'P 1'
_cell_length_a   6.65308000
_cell_length_b   16.91400000
_cell_length_c   17.41010000
_cell_angle_alpha   89.90020000
_cell_angle_beta   89.63480000
_cell_angle_gamma   92.60590000
_symmetry_Int_Tables_number   1
_chemical_formula_structural   AlH7C11O7F
_chemical_formula_sum   'Al4 H28 C44 O28 F4'
_cell_volume   1957.09216369
_cell_formula_units_Z   4
loop_
 _symmetry_equiv_pos_site_id
 _symmetry_equiv_pos_as_xyz
  1  'x, y, z'
loop_
 _atom_site_type_symbol
 _atom_site_label
 _atom_site_symmetry_multiplicity
 _atom_site_fract_x
 _atom_site_fract_y
 _atom_site_fract_z
 _atom_site_occupancy
  Al  Al0  1  0.77937000  0.72474000  0.24652000  1.0
  Al  Al1  1  0.22838000  0.27757000  0.74801000  1.0
  Al  Al2  1  0.28102000  0.72351000  0.24736000  1.0
  Al  Al3  1  0.72519000  0.27885000  0.74772000  1.0
  H  H4  1  0.90402000  0.04647000  0.14062000  1.0
  H  H5  1  0.02870000  0.96419000  0.10087000  1.0
  H  H6  1  0.91237000  0.03298000  0.03841000  1.0
  H  H7  1  0.83024000  0.87645000  0.77977000  1.0
  H  H8  1  0.58259000  0.90598000  0.80298000  1.0
  H  H9  1  0.66565000  0.81188000  0.83632000  1.0
  H  H10  1  0.03628000  0.99442000  0.57563000  1.0
  H  H11  1  0.07285000  0.89555000  0.54127000  1.0
  H  H12  1  0.08215000  0.91662000  0.64246000  1.0
  H  H13  1  0.39726000  0.10093000  0.31199000  1.0
  H  H14  1  0.31669000  0.19037000  0.35705000  1.0
  H  H15  1  0.14861000  0.13319000  0.29590000  1.0
  H  H16  1  0.50795000  0.72176000  0.96277000  1.0
  H  H17  1  0.60469000  0.70215000  0.05694000  1.0
  H  H18  1  0.74488000  0.67611000  0.97393000  1.0
  H  H19  1  0.97932000  0.16530000  0.91708000  1.0
  H  H20  1  0.97458000  0.25669000  0.96827000  1.0
  H  H21  1  0.93252000  0.16547000  0.01936000  1.0
  H  H22  1  0.99169000  0.17957000  0.58931000  1.0
  H  H23  1  0.94236000  0.14676000  0.49198000  1.0
  H  H24  1  0.95765000  0.25037000  0.51433000  1.0
  H  H25  1  0.54985000  0.71864000  0.49060000  1.0
  H  H26  1  0.65544000  0.75283000  0.58045000  1.0
  H  H27  1  0.79523000  0.69009000  0.51823000  1.0
  H  H28  1  0.52012000  0.62277000  0.27183000  1.0
  H  H29  1  0.48642000  0.38061000  0.76769000  1.0
  H  H30  1  0.04175000  0.82266000  0.27506000  1.0
  H  H31  1  0.96197000  0.17626000  0.76502000  1.0
  C  C32  1  0.54589000  0.81675000  0.14255000  1.0
  C  C33  1  0.46686000  0.18243000  0.85186000  1.0
  C  C34  1  0.46690000  0.18233000  0.64550000  1.0
  C  C35  1  0.53372000  0.81930000  0.35003000  1.0
  C  C36  1  0.01181000  0.62782000  0.35057000  1.0
  C  C37  1  0.98890000  0.37206000  0.64336000  1.0
  C  C38  1  0.98860000  0.37631000  0.84985000  1.0
  C  C39  1  0.02654000  0.63119000  0.14248000  1.0
  C  C40  1  0.01695000  0.57662000  0.07890000  1.0
  C  C41  1  0.99397000  0.43140000  0.91300000  1.0
  C  C42  1  0.99783000  0.42761000  0.58032000  1.0
  C  C43  1  0.00935000  0.57444000  0.41522000  1.0
  C  C44  1  0.00884000  0.52959000  0.02565000  1.0
  C  C45  1  0.00064000  0.47801000  0.96661000  1.0
  C  C46  1  0.00302000  0.47538000  0.52753000  1.0
  C  C47  1  0.00718000  0.52757000  0.46881000  1.0
  C  C48  1  0.54216000  0.87278000  0.07608000  1.0
  C  C49  1  0.45796000  0.12068000  0.91363000  1.0
  C  C50  1  0.46053000  0.12247000  0.58232000  1.0
  C  C51  1  0.54352000  0.87897000  0.41344000  1.0
  C  C52  1  0.30514000  0.06733000  0.03170000  1.0
  C  C53  1  0.66751000  0.92012000  0.95142000  1.0
  C  C54  1  0.68307000  0.92597000  0.53523000  1.0
  C  C55  1  0.31900000  0.07450000  0.46102000  1.0
  C  C56  1  0.32417000  0.12753000  0.97707000  1.0
  C  C57  1  0.65348000  0.86078000  0.00712000  1.0
  C  C58  1  0.67215000  0.86959000  0.47726000  1.0
  C  C59  1  0.33079000  0.13151000  0.51850000  1.0
  C  C60  1  0.56812000  0.05375000  0.90620000  1.0
  C  C61  1  0.43551000  0.94085000  0.08323000  1.0
  C  C62  1  0.42973000  0.94512000  0.40938000  1.0
  C  C63  1  0.57501000  0.05624000  0.58625000  1.0
  C  C64  1  0.55715000  0.99031000  0.95967000  1.0
  C  C65  1  0.42684000  0.99977000  0.02551000  1.0
  C  C66  1  0.43571000  0.00574000  0.46566000  1.0
  C  C67  1  0.56807000  0.99530000  0.53023000  1.0
  C  C68  1  0.99544000  0.02661000  0.09235000  1.0
  C  C69  1  0.71198000  0.87399000  0.82393000  1.0
  C  C70  1  0.01035000  0.93087000  0.58797000  1.0
  C  C71  1  0.26943000  0.13035000  0.33814000  1.0
  C  C72  1  0.64479000  0.71963000  0.99784000  1.0
  C  C73  1  0.01553000  0.19480000  0.97174000  1.0
  C  C74  1  0.01639000  0.19257000  0.52807000  1.0
  C  C75  1  0.68938000  0.73778000  0.52037000  1.0
  O  O76  1  0.36067000  0.78965000  0.33317000  1.0
  O  O77  1  0.63849000  0.20520000  0.67066000  1.0
  O  O78  1  0.64017000  0.20847000  0.82996000  1.0
  O  O79  1  0.37844000  0.79960000  0.17511000  1.0
  O  O80  1  0.71529000  0.79137000  0.16198000  1.0
  O  O81  1  0.29919000  0.20218000  0.82483000  1.0
  O  O82  1  0.29859000  0.20458000  0.67014000  1.0
  O  O83  1  0.69961000  0.80415000  0.31793000  1.0
  O  O84  1  0.85961000  0.64647000  0.17382000  1.0
  O  O85  1  0.15771000  0.35263000  0.82719000  1.0
  O  O86  1  0.15631000  0.35180000  0.66986000  1.0
  O  O87  1  0.84347000  0.65453000  0.33157000  1.0
  O  O88  1  0.52523000  0.67472000  0.24812000  1.0
  O  O89  1  0.48177000  0.32693000  0.74826000  1.0
  O  O90  1  0.18245000  0.64192000  0.31854000  1.0
  O  O91  1  0.81389000  0.34973000  0.66640000  1.0
  O  O92  1  0.81557000  0.35731000  0.82306000  1.0
  O  O93  1  0.20046000  0.65781000  0.16151000  1.0
  O  O94  1  0.03596000  0.77150000  0.24978000  1.0
  O  O95  1  0.97066000  0.23149000  0.74979000  1.0
  O  O96  1  0.17510000  0.07783000  0.09194000  1.0
  O  O97  1  0.79785000  0.91142000  0.89093000  1.0
  O  O98  1  0.79852000  0.91158000  0.59848000  1.0
  O  O99  1  0.18691000  0.08456000  0.40185000  1.0
  O  O100  1  0.75775000  0.79440000  0.99399000  1.0
  O  O101  1  0.22940000  0.19711000  0.98492000  1.0
  O  O102  1  0.22983000  0.19978000  0.51124000  1.0
  O  O103  1  0.78761000  0.80453000  0.48168000  1.0
  F  F104  1  0.34579000  0.95438000  0.15202000  1.0
  F  F105  1  0.68632000  0.04811000  0.84249000  1.0
  F  F106  1  0.69485000  0.04851000  0.64835000  1.0
  F  F107  1  0.31258000  0.95277000  0.34634000  1.0
