# generated using pymatgen
data_AlH24C45(BrO2)3
_symmetry_space_group_name_H-M   'P 1'
_cell_length_a   3.98208000
_cell_length_b   23.54880000
_cell_length_c   23.59414360
_cell_angle_alpha   119.92618096
_cell_angle_beta   90.11057664
_cell_angle_gamma   92.18720000
_symmetry_Int_Tables_number   1
_chemical_formula_structural   AlH24C45(BrO2)3
_chemical_formula_sum   'Al1 H24 C45 Br3 O6'
_cell_volume   1915.54483418
_cell_formula_units_Z   1
loop_
 _symmetry_equiv_pos_site_id
 _symmetry_equiv_pos_as_xyz
  1  'x, y, z'
loop_
 _atom_site_type_symbol
 _atom_site_label
 _atom_site_symmetry_multiplicity
 _atom_site_fract_x
 _atom_site_fract_y
 _atom_site_fract_z
 _atom_site_occupancy
  Al  Al0  1  0.99779000  0.99961000  0.50007000  1.0
  H  H1  1  0.50548000  0.99855000  0.32198000  1.0
  H  H2  1  0.51014000  0.05402000  0.25707000  1.0
  H  H3  1  0.18496000  0.17940000  0.16180000  1.0
  H  H4  1  0.54718000  0.00111000  0.68643000  1.0
  H  H5  1  0.49103000  0.06485000  0.80603000  1.0
  H  H6  1  0.74482000  0.12507000  0.89293000  1.0
  H  H7  1  0.75143000  0.17929000  0.01189000  1.0
  H  H8  1  0.49229000  0.21145000  0.10588000  1.0
  H  H9  1  0.48003000  0.17760000  0.67629000  1.0
  H  H10  1  0.49063000  0.24286000  0.79623000  1.0
  H  H11  1  0.20080000  0.33564000  0.01722000  1.0
  H  H12  1  0.46807000  0.81397000  0.31531000  1.0
  H  H13  1  0.41002000  0.69308000  0.25891000  1.0
  H  H14  1  0.70867000  0.61145000  0.23407000  1.0
  H  H15  1  0.73175000  0.49214000  0.16922000  1.0
  H  H16  1  0.46538000  0.39377000  0.10569000  1.0
  H  H17  1  0.45285000  0.82163000  0.50124000  1.0
  H  H18  1  0.45623000  0.70117000  0.44535000  1.0
  H  H19  1  0.15132000  0.47569000  0.31458000  1.0
  H  H20  1  0.51628000  0.18555000  0.49932000  1.0
  H  H21  1  0.46584000  0.24075000  0.43428000  1.0
  H  H22  1  0.76475000  0.26902000  0.37609000  1.0
  H  H23  1  0.77354000  0.33392000  0.32111000  1.0
  H  H24  1  0.46448000  0.39342000  0.28765000  1.0
  C  C25  1  0.50908000  0.05235000  0.45193000  1.0
  C  C26  1  0.47528000  0.89873000  0.44779000  1.0
  C  C27  1  0.51010000  0.04788000  0.60061000  1.0
  C  C28  1  0.50198000  0.05185000  0.34643000  1.0
  C  C29  1  0.49778000  0.08324000  0.30988000  1.0
  C  C30  1  0.31774000  0.16261000  0.23989000  1.0
  C  C31  1  0.31931000  0.19937000  0.20853000  1.0
  C  C32  1  0.52653000  0.05414000  0.71075000  1.0
  C  C33  1  0.50031000  0.09069000  0.77844000  1.0
  C  C34  1  0.61555000  0.17072000  0.91994000  1.0
  C  C35  1  0.62029000  0.20153000  0.98773000  1.0
  C  C36  1  0.51012000  0.08825000  0.41479000  1.0
  C  C37  1  0.48079000  0.15175000  0.34005000  1.0
  C  C38  1  0.47048000  0.18646000  0.30225000  1.0
  C  C39  1  0.47877000  0.26180000  0.23661000  1.0
  C  C40  1  0.47971000  0.29839000  0.20086000  1.0
  C  C41  1  0.48462000  0.26476000  0.13229000  1.0
  C  C42  1  0.48918000  0.15327000  0.70523000  1.0
  C  C43  1  0.48719000  0.18986000  0.77301000  1.0
  C  C44  1  0.32705000  0.25872000  0.92269000  1.0
  C  C45  1  0.32731000  0.28971000  0.99064000  1.0
  C  C46  1  0.45769000  0.78893000  0.34367000  1.0
  C  C47  1  0.42992000  0.72076000  0.31219000  1.0
  C  C48  1  0.57659000  0.58163000  0.25117000  1.0
  C  C49  1  0.59001000  0.51390000  0.21423000  1.0
  C  C50  1  0.51179000  0.08514000  0.67339000  1.0
  C  C51  1  0.48205000  0.15958000  0.81152000  1.0
  C  C52  1  0.46914000  0.19718000  0.88392000  1.0
  C  C53  1  0.47551000  0.26250000  0.02495000  1.0
  C  C54  1  0.47812000  0.29826000  0.09719000  1.0
  C  C55  1  0.46893000  0.36691000  0.13220000  1.0
  C  C56  1  0.44894000  0.79310000  0.44798000  1.0
  C  C57  1  0.44346000  0.72504000  0.41625000  1.0
  C  C58  1  0.27051000  0.57301000  0.33347000  1.0
  C  C59  1  0.27970000  0.50503000  0.29660000  1.0
  C  C60  1  0.50916000  0.15673000  0.44602000  1.0
  C  C61  1  0.48530000  0.18763000  0.40900000  1.0
  C  C62  1  0.62908000  0.24969000  0.32949000  1.0
  C  C63  1  0.63472000  0.28660000  0.29841000  1.0
  C  C64  1  0.46058000  0.82568000  0.41206000  1.0
  C  C65  1  0.42573000  0.68706000  0.34760000  1.0
  C  C66  1  0.41773000  0.61445000  0.31220000  1.0
  C  C67  1  0.44255000  0.47388000  0.23672000  1.0
  C  C68  1  0.46135000  0.40180000  0.20059000  1.0
  C  C69  1  0.46902000  0.36686000  0.23436000  1.0
  Br  Br70  1  0.04027000  0.60342000  0.41414000  1.0
  Br  Br71  1  0.08384000  0.07889000  0.19080000  1.0
  Br  Br72  1  0.11234000  0.30807000  0.88941000  1.0
  O  O73  1  0.73617000  0.00654000  0.57178000  1.0
  O  O74  1  0.74824000  0.06459000  0.49303000  1.0
  O  O75  1  0.71565000  0.92817000  0.43559000  1.0
  O  O76  1  0.27961000  0.06111000  0.57184000  1.0
  O  O77  1  0.24684000  0.92692000  0.48931000  1.0
  O  O78  1  0.26615000  0.01032000  0.43862000  1.0
