# generated using pymatgen
data_Zn2H18C31(N2O3)3
_symmetry_space_group_name_H-M   'P 1'
_cell_length_a   7.42265000
_cell_length_b   11.47450000
_cell_length_c   17.32145869
_cell_angle_alpha   81.72253512
_cell_angle_beta   77.97920121
_cell_angle_gamma   81.88750000
_symmetry_Int_Tables_number   1
_chemical_formula_structural   Zn2H18C31(N2O3)3
_chemical_formula_sum   'Zn4 H36 C62 N12 O18'
_cell_volume   1418.46352569
_cell_formula_units_Z   2
loop_
 _symmetry_equiv_pos_site_id
 _symmetry_equiv_pos_as_xyz
  1  'x, y, z'
loop_
 _atom_site_type_symbol
 _atom_site_label
 _atom_site_symmetry_multiplicity
 _atom_site_fract_x
 _atom_site_fract_y
 _atom_site_fract_z
 _atom_site_occupancy
  Zn  Zn0  1  0.27421000  0.46724000  0.53365000  1.0
  Zn  Zn1  1  0.72579000  0.53276000  0.46635000  1.0
  Zn  Zn2  1  0.18286000  0.16522000  0.96436000  1.0
  Zn  Zn3  1  0.81714000  0.83478000  0.03564000  1.0
  H  H4  1  0.87499000  0.48633000  0.64633000  1.0
  H  H5  1  0.12502000  0.51367000  0.35367000  1.0
  H  H6  1  0.37859000  0.59483000  0.67023000  1.0
  H  H7  1  0.62140000  0.40518000  0.32978000  1.0
  H  H8  1  0.09226000  0.68818000  0.78644000  1.0
  H  H9  1  0.90774000  0.31183000  0.21356000  1.0
  H  H10  1  0.30358000  0.90313000  0.94946000  1.0
  H  H11  1  0.69642000  0.09687000  0.05053000  1.0
  H  H12  1  0.46195000  0.19267000  0.77928000  1.0
  H  H13  1  0.53805000  0.80733000  0.22072000  1.0
  H  H14  1  0.62129000  0.98700000  0.71827000  1.0
  H  H15  1  0.37871000  0.01300000  0.28173000  1.0
  H  H16  1  0.40361000  0.35901000  0.83899000  1.0
  H  H17  1  0.59640000  0.64099000  0.16101000  1.0
  H  H18  1  0.11383000  0.37324000  0.07443000  1.0
  H  H19  1  0.88617000  0.62676000  0.92557000  1.0
  H  H20  1  0.26327000  0.58896000  0.01892000  1.0
  H  H21  1  0.73673000  0.41104000  0.98107000  1.0
  H  H22  1  0.79475000  0.81156000  0.74799000  1.0
  H  H23  1  0.20524000  0.18844000  0.25201000  1.0
  H  H24  1  0.28057000  0.73307000  0.90522000  1.0
  H  H25  1  0.71942000  0.26693000  0.09478000  1.0
  H  H26  1  0.68447000  0.44799000  0.81856000  1.0
  H  H27  1  0.31554000  0.55201000  0.18143000  1.0
  H  H28  1  0.53471000  0.10786000  0.47192000  1.0
  H  H29  1  0.46529000  0.89213000  0.52809000  1.0
  H  H30  1  0.10798000  0.00138000  0.37555000  1.0
  H  H31  1  0.89202000  0.99863000  0.62445000  1.0
  H  H32  1  0.19926000  0.16599000  0.43450000  1.0
  H  H33  1  0.80073000  0.83402000  0.56551000  1.0
  H  H34  1  0.89288000  0.10175000  0.26039000  1.0
  H  H35  1  0.10712000  0.89825000  0.73961000  1.0
  H  H36  1  0.82486000  0.74033000  0.35524000  1.0
  H  H37  1  0.17515000  0.25967000  0.64476000  1.0
  H  H38  1  0.00637000  0.67550000  0.22736000  1.0
  H  H39  1  0.99364000  0.32450000  0.77264000  1.0
  C  C40  1  0.97400000  0.52538000  0.67011000  1.0
  C  C41  1  0.02600000  0.47462000  0.32989000  1.0
  C  C42  1  0.23203000  0.58457000  0.68430000  1.0
  C  C43  1  0.76797000  0.41543000  0.31570000  1.0
  C  C44  1  0.09421000  0.63120000  0.74113000  1.0
  C  C45  1  0.90579000  0.36880000  0.25887000  1.0
  C  C46  1  0.36812000  0.95484000  0.89580000  1.0
  C  C47  1  0.63188000  0.04515000  0.10419000  1.0
  C  C48  1  0.45332000  0.10238000  0.80681000  1.0
  C  C49  1  0.54668000  0.89762000  0.19319000  1.0
  C  C50  1  0.53527000  0.00094000  0.77546000  1.0
  C  C51  1  0.46472000  0.99906000  0.22453000  1.0
  C  C52  1  0.34071000  0.39090000  0.89530000  1.0
  C  C53  1  0.65928000  0.60910000  0.10470000  1.0
  C  C54  1  0.19484000  0.40416000  0.01753000  1.0
  C  C55  1  0.80516000  0.59584000  0.98247000  1.0
  C  C56  1  0.26615000  0.50954000  0.99104000  1.0
  C  C57  1  0.73385000  0.49046000  0.00895000  1.0
  C  C58  1  0.75134000  0.62749000  0.77519000  1.0
  C  C59  1  0.24866000  0.37251000  0.22481000  1.0
  C  C60  1  0.70026000  0.74844000  0.77932000  1.0
  C  C61  1  0.29974000  0.25156000  0.22067000  1.0
  C  C62  1  0.53155000  0.78543000  0.82677000  1.0
  C  C63  1  0.46845000  0.21457000  0.17323000  1.0
  C  C64  1  0.41396000  0.70357000  0.86935000  1.0
  C  C65  1  0.58603000  0.29643000  0.13065000  1.0
  C  C66  1  0.47047000  0.58327000  0.86459000  1.0
  C  C67  1  0.52953000  0.41673000  0.13540000  1.0
  C  C68  1  0.63845000  0.54283000  0.81720000  1.0
  C  C69  1  0.36155000  0.45717000  0.18280000  1.0
  C  C70  1  0.97936000  0.33058000  0.51544000  1.0
  C  C71  1  0.02064000  0.66942000  0.48456000  1.0
  C  C72  1  0.57727000  0.29442000  0.53836000  1.0
  C  C73  1  0.42272000  0.70558000  0.46165000  1.0
  C  C74  1  0.16387000  0.79861000  0.09876000  1.0
  C  C75  1  0.83613000  0.20139000  0.90124000  1.0
  C  C76  1  0.08075000  0.07185000  0.11882000  1.0
  C  C77  1  0.91925000  0.92815000  0.88118000  1.0
  C  C78  1  0.91996000  0.23114000  0.48407000  1.0
  C  C79  1  0.08004000  0.76885000  0.51594000  1.0
  C  C80  1  0.73185000  0.21365000  0.49549000  1.0
  C  C81  1  0.26814000  0.78634000  0.50452000  1.0
  C  C82  1  0.68031000  0.12151000  0.46323000  1.0
  C  C83  1  0.31970000  0.87849000  0.53677000  1.0
  C  C84  1  0.81525000  0.04807000  0.41828000  1.0
  C  C85  1  0.18475000  0.95194000  0.58172000  1.0
  C  C86  1  0.00367000  0.06294000  0.40755000  1.0
  C  C87  1  0.99633000  0.93707000  0.59245000  1.0
  C  C88  1  0.05385000  0.15349000  0.44076000  1.0
  C  C89  1  0.94615000  0.84652000  0.55924000  1.0
  C  C90  1  0.05623000  0.85136000  0.17215000  1.0
  C  C91  1  0.94377000  0.14864000  0.82785000  1.0
  C  C92  1  0.02160000  0.97298000  0.18201000  1.0
  C  C93  1  0.97841000  0.02702000  0.81799000  1.0
  C  C94  1  0.92074000  0.00744000  0.25437000  1.0
  C  C95  1  0.07927000  0.99256000  0.74563000  1.0
  C  C96  1  0.85688000  0.92386000  0.31676000  1.0
  C  C97  1  0.14314000  0.07614000  0.68323000  1.0
  C  C98  1  0.88431000  0.80385000  0.30733000  1.0
  C  C99  1  0.11569000  0.19615000  0.69267000  1.0
  C  C100  1  0.98411000  0.76944000  0.23526000  1.0
  C  C101  1  0.01590000  0.23056000  0.76474000  1.0
  N  N102  1  0.15537000  0.51965000  0.64049000  1.0
  N  N103  1  0.84462000  0.48035000  0.35952000  1.0
  N  N104  1  0.93155000  0.59249000  0.73146000  1.0
  N  N105  1  0.06845000  0.40751000  0.26854000  1.0
  N  N106  1  0.35026000  0.07245000  0.88171000  1.0
  N  N107  1  0.64973000  0.92754000  0.11829000  1.0
  N  N108  1  0.47992000  0.90771000  0.83230000  1.0
  N  N109  1  0.52008000  0.09229000  0.16770000  1.0
  N  N110  1  0.24207000  0.33141000  0.95736000  1.0
  N  N111  1  0.75793000  0.66858000  0.04264000  1.0
  N  N112  1  0.35910000  0.49968000  0.91313000  1.0
  N  N113  1  0.64090000  0.50031000  0.08687000  1.0
  O  O114  1  0.15198000  0.32829000  0.51410000  1.0
  O  O115  1  0.84802000  0.67171000  0.48590000  1.0
  O  O116  1  0.85706000  0.41344000  0.54225000  1.0
  O  O117  1  0.14294000  0.58656000  0.45775000  1.0
  O  O118  1  0.51913000  0.38500000  0.49040000  1.0
  O  O119  1  0.48086000  0.61500000  0.50961000  1.0
  O  O120  1  0.50881000  0.27143000  0.60942000  1.0
  O  O121  1  0.49121000  0.72856000  0.39058000  1.0
  O  O122  1  0.31811000  0.74059000  0.10222000  1.0
  O  O123  1  0.68189000  0.25941000  0.89778000  1.0
  O  O124  1  0.08607000  0.80714000  0.03747000  1.0
  O  O125  1  0.91393000  0.19286000  0.96253000  1.0
  O  O126  1  0.19550000  0.04159000  0.05591000  1.0
  O  O127  1  0.80451000  0.95840000  0.94409000  1.0
  O  O128  1  0.01646000  0.17725000  0.12902000  1.0
  O  O129  1  0.98355000  0.82275000  0.87098000  1.0
  O  O130  1  0.75492000  0.95900000  0.38826000  1.0
  O  O131  1  0.24508000  0.04100000  0.61174000  1.0
