# generated using pymatgen
data_Cu2H15C12I2N7
_symmetry_space_group_name_H-M   'P 1'
_cell_length_a   9.44261000
_cell_length_b   18.50260000
_cell_length_c   18.50276851
_cell_angle_alpha   117.14352483
_cell_angle_beta   99.79048285
_cell_angle_gamma   99.79120000
_symmetry_Int_Tables_number   1
_chemical_formula_structural   Cu2H15C12I2N7
_chemical_formula_sum   'Cu12 H90 C72 I12 N42'
_cell_volume   2719.36885464
_cell_formula_units_Z   6
loop_
 _symmetry_equiv_pos_site_id
 _symmetry_equiv_pos_as_xyz
  1  'x, y, z'
loop_
 _atom_site_type_symbol
 _atom_site_label
 _atom_site_symmetry_multiplicity
 _atom_site_fract_x
 _atom_site_fract_y
 _atom_site_fract_z
 _atom_site_occupancy
  Cu  Cu0  1  0.29893000  0.04847000  0.37392000  1.0
  Cu  Cu1  1  0.92498000  0.62629000  0.67447000  1.0
  Cu  Cu2  1  0.25087000  0.32549000  0.95168000  1.0
  Cu  Cu3  1  0.70107000  0.95153000  0.62608000  1.0
  Cu  Cu4  1  0.07502000  0.37371000  0.32553000  1.0
  Cu  Cu5  1  0.74913000  0.67451000  0.04832000  1.0
  Cu  Cu6  1  0.45435000  0.95089000  0.38820000  1.0
  Cu  Cu7  1  0.06630000  0.61167000  0.56254000  1.0
  Cu  Cu8  1  0.50366000  0.43739000  0.04910000  1.0
  Cu  Cu9  1  0.54565000  0.04911000  0.61180000  1.0
  Cu  Cu10  1  0.93370000  0.38833000  0.43746000  1.0
  Cu  Cu11  1  0.49634000  0.56261000  0.95090000  1.0
  H  H12  1  0.54153000  0.20718000  0.39869000  1.0
  H  H13  1  0.14304000  0.60127000  0.80819000  1.0
  H  H14  1  0.33467000  0.19127000  0.79302000  1.0
  H  H15  1  0.45847000  0.79282000  0.60131000  1.0
  H  H16  1  0.85696000  0.39872000  0.19180000  1.0
  H  H17  1  0.66533000  0.80872000  0.20698000  1.0
  H  H18  1  0.52391000  0.37089000  0.48555000  1.0
  H  H19  1  0.03868000  0.51449000  0.88521000  1.0
  H  H20  1  0.15309000  0.11421000  0.62937000  1.0
  H  H21  1  0.47610000  0.62911000  0.51445000  1.0
  H  H22  1  0.96132000  0.48551000  0.11479000  1.0
  H  H23  1  0.84691000  0.88578000  0.37063000  1.0
  H  H24  1  0.26982000  0.35311000  0.53892000  1.0
  H  H25  1  0.73121000  0.46132000  0.81431000  1.0
  H  H26  1  0.91699000  0.18553000  0.64708000  1.0
  H  H27  1  0.73019000  0.64690000  0.46108000  1.0
  H  H28  1  0.26879000  0.53868000  0.18569000  1.0
  H  H29  1  0.08301000  0.81447000  0.35292000  1.0
  H  H30  1  0.17824000  0.93289000  0.17276000  1.0
  H  H31  1  0.00525000  0.82750000  0.76004000  1.0
  H  H32  1  0.24559000  0.23983000  0.06726000  1.0
  H  H33  1  0.82176000  0.06711000  0.82724000  1.0
  H  H34  1  0.99475000  0.17250000  0.23996000  1.0
  H  H35  1  0.75441000  0.76017000  0.93274000  1.0
  H  H36  1  0.88892000  0.90487000  0.08431000  1.0
  H  H37  1  0.80412000  0.91581000  0.82036000  1.0
  H  H38  1  0.98434000  0.17973000  0.09559000  1.0
  H  H39  1  0.11107000  0.09512000  0.91569000  1.0
  H  H40  1  0.19588000  0.08419000  0.17964000  1.0
  H  H41  1  0.01566000  0.82027000  0.90441000  1.0
  H  H42  1  0.75532000  0.98157000  0.21096000  1.0
  H  H43  1  0.54403000  0.78909000  0.77033000  1.0
  H  H44  1  0.77425000  0.22981000  0.01895000  1.0
  H  H45  1  0.24468000  0.01843000  0.78904000  1.0
  H  H46  1  0.45598000  0.21091000  0.22967000  1.0
  H  H47  1  0.22575000  0.77019000  0.98105000  1.0
  H  H48  1  0.16343000  0.13825000  0.50971000  1.0
  H  H49  1  0.65393000  0.49050000  0.62863000  1.0
  H  H50  1  0.02581000  0.37135000  0.86180000  1.0
  H  H51  1  0.83657000  0.86175000  0.49029000  1.0
  H  H52  1  0.34607000  0.50950000  0.37137000  1.0
  H  H53  1  0.97419000  0.62865000  0.13820000  1.0
  H  H54  1  0.11592000  0.23593000  0.54707000  1.0
  H  H55  1  0.56913000  0.45310000  0.68895000  1.0
  H  H56  1  0.88070000  0.31112000  0.76411000  1.0
  H  H57  1  0.88408000  0.76407000  0.45293000  1.0
  H  H58  1  0.43088000  0.54690000  0.31105000  1.0
  H  H59  1  0.11930000  0.68888000  0.23589000  1.0
  H  H60  1  0.82424000  0.03095000  0.36188000  1.0
  H  H61  1  0.46227000  0.63820000  0.66901000  1.0
  H  H62  1  0.79353000  0.33090000  0.96905000  1.0
  H  H63  1  0.17576000  0.96905000  0.63812000  1.0
  H  H64  1  0.53773000  0.36180000  0.33099000  1.0
  H  H65  1  0.20646000  0.66909000  0.03095000  1.0
  H  H66  1  0.00003000  0.02537000  0.41053000  1.0
  H  H67  1  0.58941000  0.58955000  0.61478000  1.0
  H  H68  1  0.97482000  0.38519000  0.97463000  1.0
  H  H69  1  0.99998000  0.97464000  0.58948000  1.0
  H  H70  1  0.41060000  0.41045000  0.38522000  1.0
  H  H71  1  0.02518000  0.61481000  0.02537000  1.0
  H  H72  1  0.86611000  0.42883000  0.61172000  1.0
  H  H73  1  0.25463000  0.38840000  0.81726000  1.0
  H  H74  1  0.43658000  0.18261000  0.57132000  1.0
  H  H75  1  0.13389000  0.57117000  0.38828000  1.0
  H  H76  1  0.74537000  0.61160000  0.18274000  1.0
  H  H77  1  0.56343000  0.81740000  0.42868000  1.0
  H  H78  1  0.73612000  0.29979000  0.63727000  1.0
  H  H79  1  0.09933000  0.36281000  0.66265000  1.0
  H  H80  1  0.43650000  0.33738000  0.70025000  1.0
  H  H81  1  0.26388000  0.70021000  0.36273000  1.0
  H  H82  1  0.90067000  0.63719000  0.33735000  1.0
  H  H83  1  0.56350000  0.66262000  0.29975000  1.0
  H  H84  1  0.76589000  0.15627000  0.50579000  1.0
  H  H85  1  0.26054000  0.49426000  0.65050000  1.0
  H  H86  1  0.61072000  0.34964000  0.84367000  1.0
  H  H87  1  0.23412000  0.84373000  0.49421000  1.0
  H  H88  1  0.73946000  0.50574000  0.34950000  1.0
  H  H89  1  0.38927000  0.65036000  0.15633000  1.0
  H  H90  1  0.98908000  0.23808000  0.39001000  1.0
  H  H91  1  0.59927000  0.61013000  0.84806000  1.0
  H  H92  1  0.75163000  0.15195000  0.76200000  1.0
  H  H93  1  0.01092000  0.76193000  0.60999000  1.0
  H  H94  1  0.40074000  0.38987000  0.15194000  1.0
  H  H95  1  0.24836000  0.84804000  0.23800000  1.0
  H  H96  1  0.82431000  0.15155000  0.34661000  1.0
  H  H97  1  0.47779000  0.65351000  0.80492000  1.0
  H  H98  1  0.67327000  0.19501000  0.84850000  1.0
  H  H99  1  0.17570000  0.84846000  0.65339000  1.0
  H  H100  1  0.52221000  0.34649000  0.19508000  1.0
  H  H101  1  0.32672000  0.80499000  0.15150000  1.0
  C  C102  1  0.46004000  0.23053000  0.43133000  1.0
  C  C103  1  0.02894000  0.56867000  0.79899000  1.0
  C  C104  1  0.22985000  0.20059000  0.76966000  1.0
  C  C105  1  0.53996000  0.76947000  0.56867000  1.0
  C  C106  1  0.97106000  0.43133000  0.20101000  1.0
  C  C107  1  0.77014000  0.79941000  0.23034000  1.0
  C  C108  1  0.44925000  0.31360000  0.47548000  1.0
  C  C109  1  0.97407000  0.52456000  0.83799000  1.0
  C  C110  1  0.13583000  0.16152000  0.68663000  1.0
  C  C111  1  0.55076000  0.68640000  0.52452000  1.0
  C  C112  1  0.02593000  0.47544000  0.16201000  1.0
  C  C113  1  0.86417000  0.83848000  0.31337000  1.0
  C  C114  1  0.32345000  0.30641000  0.50370000  1.0
  C  C115  1  0.82003000  0.49644000  0.80271000  1.0
  C  C116  1  0.01733000  0.19702000  0.69378000  1.0
  C  C117  1  0.67655000  0.69359000  0.49630000  1.0
  C  C118  1  0.17996000  0.50355000  0.19728000  1.0
  C  C119  1  0.98267000  0.80298000  0.30622000  1.0
  C  C120  1  0.08522000  0.95145000  0.19657000  1.0
  C  C121  1  0.88842000  0.80360000  0.75473000  1.0
  C  C122  1  0.13407000  0.24515000  0.04873000  1.0
  C  C123  1  0.91478000  0.04854000  0.80343000  1.0
  C  C124  1  0.11158000  0.19640000  0.24527000  1.0
  C  C125  1  0.86593000  0.75485000  0.95127000  1.0
  C  C126  1  0.93852000  0.93887000  0.15221000  1.0
  C  C127  1  0.78595000  0.84793000  0.78644000  1.0
  C  C128  1  0.99999000  0.21353000  0.06148000  1.0
  C  C129  1  0.06148000  0.06112000  0.84779000  1.0
  C  C130  1  0.21404000  0.15207000  0.21356000  1.0
  C  C131  1  0.00001000  0.78647000  0.93852000  1.0
  C  C132  1  0.86929000  0.97719000  0.21433000  1.0
  C  C133  1  0.65466000  0.78576000  0.76259000  1.0
  C  C134  1  0.89258000  0.23746000  0.02325000  1.0
  C  C135  1  0.13071000  0.02281000  0.78567000  1.0
  C  C136  1  0.34535000  0.21423000  0.23741000  1.0
  C  C137  1  0.10742000  0.76254000  0.97675000  1.0
  C  C138  1  0.13396000  0.18405000  0.49199000  1.0
  C  C139  1  0.64219000  0.50820000  0.69213000  1.0
  C  C140  1  0.95051000  0.30789000  0.81602000  1.0
  C  C141  1  0.86603000  0.81595000  0.50801000  1.0
  C  C142  1  0.35781000  0.49180000  0.30787000  1.0
  C  C143  1  0.04948000  0.69211000  0.18398000  1.0
  C  C144  1  0.94646000  0.05150000  0.37423000  1.0
  C  C145  1  0.57219000  0.62589000  0.67719000  1.0
  C  C146  1  0.89529000  0.32276000  0.94858000  1.0
  C  C147  1  0.05353000  0.94850000  0.62577000  1.0
  C  C148  1  0.42781000  0.37411000  0.32281000  1.0
  C  C149  1  0.10471000  0.67724000  0.05142000  1.0
  C  C150  1  0.85156000  0.36134000  0.57520000  1.0
  C  C151  1  0.27660000  0.42494000  0.78628000  1.0
  C  C152  1  0.48987000  0.21365000  0.63878000  1.0
  C  C153  1  0.14844000  0.63866000  0.42480000  1.0
  C  C154  1  0.72340000  0.57506000  0.21372000  1.0
  C  C155  1  0.51013000  0.78635000  0.36122000  1.0
  C  C156  1  0.78834000  0.29540000  0.58821000  1.0
  C  C157  1  0.20053000  0.41188000  0.70731000  1.0
  C  C158  1  0.49313000  0.29272000  0.70464000  1.0
  C  C159  1  0.21166000  0.70460000  0.41179000  1.0
  C  C160  1  0.79947000  0.58812000  0.29269000  1.0
  C  C161  1  0.50687000  0.70728000  0.29536000  1.0
  C  C162  1  0.80036000  0.22226000  0.52214000  1.0
  C  C163  1  0.27862000  0.47793000  0.70017000  1.0
  C  C164  1  0.57887000  0.29993000  0.77773000  1.0
  C  C165  1  0.19965000  0.77775000  0.47786000  1.0
  C  C166  1  0.72138000  0.52207000  0.29983000  1.0
  C  C167  1  0.42113000  0.70007000  0.22227000  1.0
  C  C168  1  0.92080000  0.19292000  0.40263000  1.0
  C  C169  1  0.51836000  0.59751000  0.79029000  1.0
  C  C170  1  0.72845000  0.20970000  0.80714000  1.0
  C  C171  1  0.07921000  0.80709000  0.59737000  1.0
  C  C172  1  0.48164000  0.40249000  0.20971000  1.0
  C  C173  1  0.27155000  0.79030000  0.19286000  1.0
  I  I174  1  0.51161000  0.01640000  0.29512000  1.0
  I  I175  1  0.21642000  0.70490000  0.72106000  1.0
  I  I176  1  0.49579000  0.27890000  0.98385000  1.0
  I  I177  1  0.48839000  0.98359000  0.70488000  1.0
  I  I178  1  0.78358000  0.29510000  0.27894000  1.0
  I  I179  1  0.50421000  0.72110000  0.01615000  1.0
  I  I180  1  0.72317000  0.00528000  0.51383000  1.0
  I  I181  1  0.20926000  0.48613000  0.49140000  1.0
  I  I182  1  0.71788000  0.50856000  0.99471000  1.0
  I  I183  1  0.27683000  0.99472000  0.48617000  1.0
  I  I184  1  0.79074000  0.51387000  0.50860000  1.0
  I  I185  1  0.28212000  0.49144000  0.00529000  1.0
  N  N186  1  0.34878000  0.17548000  0.43249000  1.0
  N  N187  1  0.91646000  0.56759000  0.74287000  1.0
  N  N188  1  0.17383000  0.25695000  0.82467000  1.0
  N  N189  1  0.65122000  0.82452000  0.56751000  1.0
  N  N190  1  0.08354000  0.43241000  0.25713000  1.0
  N  N191  1  0.82617000  0.74305000  0.17533000  1.0
  N  N192  1  0.26606000  0.22305000  0.47709000  1.0
  N  N193  1  0.78918000  0.52309000  0.74598000  1.0
  N  N194  1  0.04352000  0.25394000  0.77709000  1.0
  N  N195  1  0.73394000  0.77695000  0.52291000  1.0
  N  N196  1  0.21083000  0.47691000  0.25402000  1.0
  N  N197  1  0.95648000  0.74606000  0.22291000  1.0
  N  N198  1  0.10559000  0.99488000  0.28073000  1.0
  N  N199  1  0.82473000  0.71944000  0.71402000  1.0
  N  N200  1  0.11103000  0.28585000  0.00523000  1.0
  N  N201  1  0.89441000  0.00512000  0.71927000  1.0
  N  N202  1  0.17527000  0.28056000  0.28598000  1.0
  N  N203  1  0.88896000  0.71414000  0.99476000  1.0
  N  N204  1  0.97245000  0.01035000  0.29046000  1.0
  N  N205  1  0.68182000  0.70967000  0.71968000  1.0
  N  N206  1  0.96250000  0.28028000  0.98991000  1.0
  N  N207  1  0.02754000  0.98965000  0.70954000  1.0
  N  N208  1  0.31818000  0.29033000  0.28032000  1.0
  N  N209  1  0.03750000  0.71972000  0.01009000  1.0
  N  N210  1  0.89991000  0.33116000  0.50561000  1.0
  N  N211  1  0.39448000  0.49455000  0.82566000  1.0
  N  N212  1  0.56864000  0.17429000  0.66894000  1.0
  N  N213  1  0.10009000  0.66884000  0.49439000  1.0
  N  N214  1  0.60552000  0.50545000  0.17434000  1.0
  N  N215  1  0.43136000  0.82571000  0.33106000  1.0
  N  N216  1  0.86813000  0.24593000  0.47415000  1.0
  N  N217  1  0.39425000  0.52596000  0.77183000  1.0
  N  N218  1  0.62276000  0.22822000  0.75410000  1.0
  N  N219  1  0.13188000  0.75408000  0.52585000  1.0
  N  N220  1  0.60575000  0.47404000  0.22817000  1.0
  N  N221  1  0.37724000  0.77178000  0.24590000  1.0
  N  N222  1  0.00135000  0.14203000  0.42208000  1.0
  N  N223  1  0.57947000  0.57811000  0.71999000  1.0
  N  N224  1  0.85980000  0.28001000  0.85804000  1.0
  N  N225  1  0.99866000  0.85797000  0.57792000  1.0
  N  N226  1  0.42054000  0.42189000  0.28001000  1.0
  N  N227  1  0.14020000  0.71999000  0.14196000  1.0
