# generated using pymatgen
data_ZnH30C32(NO)4
_symmetry_space_group_name_H-M   'P 1'
_cell_length_a   8.48803000
_cell_length_b   9.00062000
_cell_length_c   10.40760000
_cell_angle_alpha   80.12960000
_cell_angle_beta   74.85410000
_cell_angle_gamma   64.25080000
_symmetry_Int_Tables_number   1
_chemical_formula_structural   ZnH30C32(NO)4
_chemical_formula_sum   'Zn1 H30 C32 N4 O4'
_cell_volume   689.75122763
_cell_formula_units_Z   1
loop_
 _symmetry_equiv_pos_site_id
 _symmetry_equiv_pos_as_xyz
  1  'x, y, z'
loop_
 _atom_site_type_symbol
 _atom_site_label
 _atom_site_symmetry_multiplicity
 _atom_site_fract_x
 _atom_site_fract_y
 _atom_site_fract_z
 _atom_site_occupancy
  Zn  Zn0  1  0.50000000  0.50000000  0.50000000  1.0
  H  H1  1  0.81509000  0.99862000  0.31115000  1.0
  H  H2  1  0.18491000  0.00138000  0.68885000  1.0
  H  H3  1  0.84616000  0.86804000  0.46040000  1.0
  H  H4  1  0.15384000  0.13196000  0.53960000  1.0
  H  H5  1  0.98009000  0.98337000  0.39202000  1.0
  H  H6  1  0.01991000  0.01663000  0.60798000  1.0
  H  H7  1  0.62583000  0.97330000  0.63864000  1.0
  H  H8  1  0.37417000  0.02670000  0.36136000  1.0
  H  H9  1  0.35439000  0.21887000  0.89824000  1.0
  H  H10  1  0.64561000  0.78113000  0.10176000  1.0
  H  H11  1  0.41339000  0.02740000  0.83184000  1.0
  H  H12  1  0.58661000  0.97259000  0.16816000  1.0
  H  H13  1  0.21321000  0.20223000  0.81000000  1.0
  H  H14  1  0.78679000  0.79776000  0.19000000  1.0
  H  H15  1  0.56872000  0.29735000  0.25863000  1.0
  H  H16  1  0.43128000  0.70265000  0.74137000  1.0
  H  H17  1  0.38644000  0.22402000  0.14441000  1.0
  H  H18  1  0.61356000  0.77598000  0.85559000  1.0
  H  H19  1  0.91408000  0.59784000  0.35860000  1.0
  H  H20  1  0.08593000  0.40216000  0.64140000  1.0
  H  H21  1  0.11738000  0.65842000  0.46128000  1.0
  H  H22  1  0.88262000  0.34158000  0.53872000  1.0
  H  H23  1  0.87421000  0.42413000  0.22821000  1.0
  H  H24  1  0.12579000  0.57588000  0.77179000  1.0
  H  H25  1  0.78710000  0.44013000  0.03494000  1.0
  H  H26  1  0.21290000  0.55987000  0.96506000  1.0
  H  H27  1  0.62033000  0.35804000  0.91685000  1.0
  H  H28  1  0.37967000  0.64196000  0.08315000  1.0
  H  H29  1  0.72588000  0.06386000  0.87114000  1.0
  H  H30  1  0.27412000  0.93614000  0.12886000  1.0
  C  C31  1  0.84574000  0.98543000  0.40991000  1.0
  C  C32  1  0.15426000  0.01457000  0.59009000  1.0
  C  C33  1  0.70920000  0.13187000  0.48760000  1.0
  C  C34  1  0.29080000  0.86813000  0.51240000  1.0
  C  C35  1  0.59761000  0.10225000  0.60619000  1.0
  C  C36  1  0.40239000  0.89775000  0.39381000  1.0
  C  C37  1  0.45053000  0.22105000  0.68558000  1.0
  C  C38  1  0.54947000  0.77895000  0.31442000  1.0
  C  C39  1  0.35448000  0.16188000  0.81286000  1.0
  C  C40  1  0.64552000  0.83812000  0.18714000  1.0
  C  C41  1  0.42316000  0.36034000  0.27742000  1.0
  C  C42  1  0.57684000  0.63966000  0.72257000  1.0
  C  C43  1  0.32249000  0.32013000  0.21509000  1.0
  C  C44  1  0.67751000  0.67987000  0.78491000  1.0
  C  C45  1  0.13484000  0.40205000  0.24654000  1.0
  C  C46  1  0.86516000  0.59794000  0.75347000  1.0
  C  C47  1  0.05886000  0.52969000  0.33343000  1.0
  C  C48  1  0.94115000  0.47030000  0.66658000  1.0
  C  C49  1  0.17009000  0.56293000  0.39074000  1.0
  C  C50  1  0.82991000  0.43706000  0.60926000  1.0
  C  C51  1  0.01962000  0.35527000  0.19441000  1.0
  C  C52  1  0.98038000  0.64473000  0.80559000  1.0
  C  C53  1  0.98475000  0.19337000  0.06019000  1.0
  C  C54  1  0.01525000  0.80663000  0.93981000  1.0
  C  C55  1  0.04864000  0.02281000  0.03399000  1.0
  C  C56  1  0.95136000  0.97719000  0.96600000  1.0
  C  C57  1  0.83125000  0.31032000  0.01850000  1.0
  C  C58  1  0.16875000  0.68968000  0.98150000  1.0
  C  C59  1  0.73807000  0.26357000  0.95084000  1.0
  C  C60  1  0.26192000  0.73643000  0.04916000  1.0
  C  C61  1  0.79637000  0.10039000  0.92475000  1.0
  C  C62  1  0.20363000  0.89961000  0.07526000  1.0
  N  N63  1  0.09018000  0.23519000  0.11707000  1.0
  N  N64  1  0.90982000  0.76481000  0.88293000  1.0
  N  N65  1  0.34819000  0.47717000  0.36685000  1.0
  N  N66  1  0.65181000  0.52283000  0.63315000  1.0
  O  O67  1  0.70586000  0.27326000  0.43738000  1.0
  O  O68  1  0.29414000  0.72674000  0.56261000  1.0
  O  O69  1  0.38648000  0.37789000  0.65947000  1.0
  O  O70  1  0.61352000  0.62211000  0.34053000  1.0
