# generated using pymatgen
data_NiH16C20(NO)6
_symmetry_space_group_name_H-M   'P 1'
_cell_length_a   10.82030000
_cell_length_b   11.32721001
_cell_length_c   12.99910000
_cell_angle_alpha   100.01927843
_cell_angle_beta   90.01630000
_cell_angle_gamma   118.49605430
_symmetry_Int_Tables_number   1
_chemical_formula_structural   NiH16C20(NO)6
_chemical_formula_sum   'Ni2 H32 C40 N12 O12'
_cell_volume   1372.44632228
_cell_formula_units_Z   2
loop_
 _symmetry_equiv_pos_site_id
 _symmetry_equiv_pos_as_xyz
  1  'x, y, z'
loop_
 _atom_site_type_symbol
 _atom_site_label
 _atom_site_symmetry_multiplicity
 _atom_site_fract_x
 _atom_site_fract_y
 _atom_site_fract_z
 _atom_site_occupancy
  Ni  Ni0  1  0.31690000  0.00007000  0.24991000  1.0
  Ni  Ni1  1  0.68307000  0.99990000  0.75007000  1.0
  H  H2  1  0.30948000  0.24744000  0.22321000  1.0
  H  H3  1  0.93732000  0.24697000  0.72337000  1.0
  H  H4  1  0.69053000  0.75254000  0.77678000  1.0
  H  H5  1  0.06265000  0.75302000  0.27663000  1.0
  H  H6  1  0.37403000  0.46755000  0.33747000  1.0
  H  H7  1  0.09297000  0.46708000  0.83742000  1.0
  H  H8  1  0.62597000  0.53240000  0.66252000  1.0
  H  H9  1  0.90702000  0.53289000  0.16260000  1.0
  H  H10  1  0.59351000  0.36456000  0.55630000  1.0
  H  H11  1  0.77090000  0.36487000  0.05642000  1.0
  H  H12  1  0.40649000  0.63541000  0.44368000  1.0
  H  H13  1  0.22907000  0.63507000  0.94358000  1.0
  H  H14  1  0.51673000  0.14794000  0.43586000  1.0
  H  H15  1  0.63115000  0.14812000  0.93624000  1.0
  H  H16  1  0.48329000  0.85204000  0.56413000  1.0
  H  H17  1  0.36883000  0.85187000  0.06373000  1.0
  H  H18  1  0.55907000  0.12161000  0.13666000  1.0
  H  H19  1  0.56249000  0.12153000  0.63669000  1.0
  H  H20  1  0.44088000  0.87834000  0.86330000  1.0
  H  H21  1  0.43753000  0.87847000  0.36331000  1.0
  H  H22  1  0.78979000  0.12188000  0.12966000  1.0
  H  H23  1  0.33205000  0.12192000  0.62961000  1.0
  H  H24  1  0.21020000  0.87814000  0.87033000  1.0
  H  H25  1  0.66800000  0.87816000  0.37041000  1.0
  H  H26  1  0.87721000  0.94797000  0.07996000  1.0
  H  H27  1  0.07078000  0.94826000  0.57982000  1.0
  H  H28  1  0.12281000  0.05213000  0.92004000  1.0
  H  H29  1  0.92923000  0.05178000  0.42019000  1.0
  H  H30  1  0.11501000  0.95937000  0.08759000  1.0
  H  H31  1  0.84435000  0.95967000  0.58752000  1.0
  H  H32  1  0.88498000  0.04065000  0.91242000  1.0
  H  H33  1  0.15563000  0.04029000  0.41249000  1.0
  C  C34  1  0.37033000  0.27602000  0.29868000  1.0
  C  C35  1  0.90513000  0.27575000  0.79884000  1.0
  C  C36  1  0.62968000  0.72395000  0.70130000  1.0
  C  C37  1  0.09484000  0.72424000  0.20117000  1.0
  C  C38  1  0.40764000  0.40059000  0.36424000  1.0
  C  C39  1  0.99253000  0.40027000  0.86434000  1.0
  C  C40  1  0.59238000  0.59939000  0.63574000  1.0
  C  C41  1  0.00745000  0.59970000  0.13567000  1.0
  C  C42  1  0.48358000  0.43613000  0.46257000  1.0
  C  C43  1  0.95238000  0.43607000  0.96270000  1.0
  C  C44  1  0.51643000  0.56384000  0.53741000  1.0
  C  C45  1  0.04758000  0.56389000  0.03732000  1.0
  C  C46  1  0.52726000  0.34414000  0.48544000  1.0
  C  C47  1  0.81679000  0.34427000  0.98566000  1.0
  C  C48  1  0.47277000  0.65583000  0.51454000  1.0
  C  C49  1  0.18318000  0.65569000  0.01435000  1.0
  C  C50  1  0.48636000  0.22079000  0.41657000  1.0
  C  C51  1  0.73428000  0.22085000  0.91693000  1.0
  C  C52  1  0.51365000  0.77919000  0.58341000  1.0
  C  C53  1  0.26565000  0.77911000  0.08307000  1.0
  C  C54  1  0.58779000  0.06822000  0.18619000  1.0
  C  C55  1  0.48039000  0.06814000  0.68622000  1.0
  C  C56  1  0.41219000  0.93176000  0.81379000  1.0
  C  C57  1  0.51962000  0.93187000  0.31378000  1.0
  C  C58  1  0.71595000  0.06834000  0.18359000  1.0
  C  C59  1  0.35230000  0.06829000  0.68353000  1.0
  C  C60  1  0.28406000  0.93169000  0.81641000  1.0
  C  C61  1  0.64772000  0.93176000  0.31648000  1.0
  C  C62  1  0.74845000  0.00006000  0.25005000  1.0
  C  C63  1  0.25158000  0.00001000  0.74996000  1.0
  C  C64  1  0.88456000  0.99999000  0.25007000  1.0
  C  C65  1  0.11546000  0.00007000  0.74994000  1.0
  C  C66  1  0.93796000  0.97458000  0.15544000  1.0
  C  C67  1  0.03666000  0.97485000  0.65532000  1.0
  C  C68  1  0.06206000  0.02549000  0.84459000  1.0
  C  C69  1  0.96336000  0.02520000  0.34470000  1.0
  C  C70  1  0.06652000  0.97553000  0.15827000  1.0
  C  C71  1  0.90905000  0.97581000  0.65823000  1.0
  C  C72  1  0.93349000  0.02451000  0.84174000  1.0
  C  C73  1  0.09096000  0.02421000  0.34177000  1.0
  N  N74  1  0.38414000  0.18013000  0.05104000  1.0
  N  N75  1  0.79569000  0.18004000  0.55096000  1.0
  N  N76  1  0.61589000  0.81989000  0.94898000  1.0
  N  N77  1  0.20431000  0.81997000  0.44904000  1.0
  N  N78  1  0.40455000  0.18426000  0.32583000  1.0
  N  N79  1  0.77935000  0.18412000  0.82612000  1.0
  N  N80  1  0.59547000  0.81572000  0.67416000  1.0
  N  N81  1  0.22061000  0.81585000  0.17387000  1.0
  N  N82  1  0.49133000  0.00002000  0.24997000  1.0
  N  N83  1  0.50866000  0.99995000  0.75002000  1.0
  N  N84  1  0.14150000  0.99995000  0.25001000  1.0
  N  N85  1  0.85850000  0.00006000  0.74999000  1.0
  O  O86  1  0.34035000  0.05170000  0.04520000  1.0
  O  O87  1  0.71096000  0.05168000  0.54527000  1.0
  O  O88  1  0.65968000  0.94831000  0.95481000  1.0
  O  O89  1  0.28908000  0.94832000  0.45470000  1.0
  O  O90  1  0.51537000  0.26298000  0.06629000  1.0
  O  O91  1  0.74755000  0.26314000  0.56626000  1.0
  O  O92  1  0.48465000  0.73703000  0.93372000  1.0
  O  O93  1  0.25243000  0.73685000  0.43379000  1.0
  O  O94  1  0.29523000  0.22151000  0.04392000  1.0
  O  O95  1  0.92585000  0.22113000  0.54366000  1.0
  O  O96  1  0.70478000  0.77849000  0.95610000  1.0
  O  O97  1  0.07416000  0.77892000  0.45632000  1.0
