# generated using pymatgen
data_Zn8H33C76Cl5O26
_symmetry_space_group_name_H-M   'P 1'
_cell_length_a   18.25620000
_cell_length_b   18.26889935
_cell_length_c   18.41612142
_cell_angle_alpha   89.85067785
_cell_angle_beta   60.34748303
_cell_angle_gamma   60.03096556
_symmetry_Int_Tables_number   1
_chemical_formula_structural   Zn8H33C76Cl5O26
_chemical_formula_sum   'Zn8 H33 C76 Cl5 O26'
_cell_volume   4373.38404032
_cell_formula_units_Z   1
loop_
 _symmetry_equiv_pos_site_id
 _symmetry_equiv_pos_as_xyz
  1  'x, y, z'
loop_
 _atom_site_type_symbol
 _atom_site_label
 _atom_site_symmetry_multiplicity
 _atom_site_fract_x
 _atom_site_fract_y
 _atom_site_fract_z
 _atom_site_occupancy
  Zn  Zn0  1  0.91179000  0.54428000  0.95685000  1.0
  Zn  Zn1  1  0.90485000  0.54606000  0.13090000  1.0
  Zn  Zn2  1  0.08658000  0.54583000  0.95925000  1.0
  Zn  Zn3  1  0.08836000  0.37020000  0.95758000  1.0
  Zn  Zn4  1  0.08801000  0.95640000  0.54043000  1.0
  Zn  Zn5  1  0.91478000  0.95384000  0.53835000  1.0
  Zn  Zn6  1  0.08088000  0.96272000  0.36770000  1.0
  Zn  Zn7  1  0.90959000  0.13119000  0.54548000  1.0
  H  H8  1  0.00400000  0.51181000  0.61953000  1.0
  H  H9  1  0.58918000  0.18228000  0.59632000  1.0
  H  H10  1  0.33842000  0.20287000  0.10591000  1.0
  H  H11  1  0.84788000  0.26222000  0.35622000  1.0
  H  H12  1  0.94596000  0.79114000  0.15816000  1.0
  H  H13  1  0.15548000  0.45998000  0.30889000  1.0
  H  H14  1  0.18157000  0.55505000  0.37742000  1.0
  H  H15  1  0.95082000  0.89074000  0.24524000  1.0
  H  H16  1  0.58972000  0.59797000  0.17356000  1.0
  H  H17  1  0.58705000  0.96726000  0.22945000  1.0
  H  H18  1  0.39485000  0.05963000  0.33016000  1.0
  H  H19  1  0.99593000  0.61000000  0.52462000  1.0
  H  H20  1  0.34193000  0.08233000  0.48245000  1.0
  H  H21  1  0.18633000  0.08657000  0.53651000  1.0
  H  H22  1  0.65952000  0.32251000  0.91867000  1.0
  H  H23  1  0.81950000  0.40738000  0.96346000  1.0
  H  H24  1  0.03166000  0.76715000  0.85724000  1.0
  H  H25  1  0.66262000  0.41458000  0.01621000  1.0
  H  H26  1  0.00864000  0.54721000  0.74497000  1.0
  H  H27  1  0.84943000  0.35662000  0.25755000  1.0
  H  H28  1  0.19418000  0.27915000  0.08967000  1.0
  H  H29  1  0.31851000  0.14559000  0.23353000  1.0
  H  H30  1  0.99760000  0.74006000  0.55387000  1.0
  H  H31  1  0.11168000  0.71041000  0.37615000  1.0
  H  H32  1  0.30339000  0.98741000  0.36347000  1.0
  H  H33  1  0.39812000  0.69383000  0.26883000  1.0
  H  H34  1  0.81410000  0.22189000  0.77032000  1.0
  H  H35  1  0.03477000  0.85923000  0.75647000  1.0
  H  H36  1  0.39853000  0.28557000  0.69540000  1.0
  H  H37  1  0.42921000  0.31066000  0.04676000  1.0
  H  H38  1  0.62073000  0.20320000  0.94499000  1.0
  H  H39  1  0.70384000  0.14915000  0.78436000  1.0
  H  H40  1  0.18655000  0.28224000  0.72487000  1.0
  C  C41  1  0.00463000  0.36068000  0.13728000  1.0
  C  C42  1  0.73011000  0.31764000  0.89521000  1.0
  C  C43  1  0.73180000  0.37020000  0.95032000  1.0
  C  C44  1  0.00239000  0.63965000  0.86200000  1.0
  C  C45  1  0.81957000  0.36595000  0.92097000  1.0
  C  C46  1  0.00650000  0.58978000  0.70368000  1.0
  C  C47  1  0.00348000  0.57017000  0.63338000  1.0
  C  C48  1  0.99949000  0.62522000  0.57956000  1.0
  C  C49  1  0.00061000  0.69814000  0.59582000  1.0
  C  C50  1  0.00512000  0.71985000  0.66695000  1.0
  C  C51  1  0.00654000  0.66497000  0.72337000  1.0
  C  C52  1  0.18453000  0.13070000  0.57801000  1.0
  C  C53  1  0.01234000  0.68637000  0.79445000  1.0
  C  C54  1  0.02469000  0.75383000  0.80411000  1.0
  C  C55  1  0.02591000  0.80580000  0.74779000  1.0
  C  C56  1  0.71880000  0.63942000  0.13278000  1.0
  C  C57  1  0.01299000  0.79162000  0.68233000  1.0
  C  C58  1  0.40668000  0.31314000  0.94337000  1.0
  C  C59  1  0.46672000  0.28545000  0.97591000  1.0
  C  C60  1  0.57439000  0.22559000  0.91830000  1.0
  C  C61  1  0.62050000  0.19542000  0.82888000  1.0
  C  C62  1  0.56095000  0.22279000  0.79342000  1.0
  C  C63  1  0.09225000  0.18908000  0.66352000  1.0
  C  C64  1  0.45012000  0.28279000  0.85129000  1.0
  C  C65  1  0.39326000  0.30545000  0.81294000  1.0
  C  C66  1  0.44352000  0.26887000  0.72309000  1.0
  C  C67  1  0.55131000  0.21014000  0.66689000  1.0
  C  C68  1  0.27759000  0.36491000  0.86451000  1.0
  C  C69  1  0.60908000  0.18876000  0.70100000  1.0
  C  C70  1  0.18782000  0.24932000  0.14181000  1.0
  C  C71  1  0.26812000  0.20717000  0.15130000  1.0
  C  C72  1  0.25826000  0.17316000  0.22194000  1.0
  C  C73  1  0.17011000  0.17715000  0.27881000  1.0
  C  C74  1  0.09288000  0.24476000  0.71845000  1.0
  C  C75  1  0.08901000  0.21193000  0.26654000  1.0
  C  C76  1  0.09614000  0.25485000  0.19980000  1.0
  C  C77  1  0.00702000  0.30688000  0.19846000  1.0
  C  C78  1  0.91758000  0.31350000  0.25747000  1.0
  C  C79  1  0.91569000  0.26258000  0.31477000  1.0
  C  C80  1  0.99799000  0.63051000  0.14553000  1.0
  C  C81  1  0.00012000  0.21102000  0.31827000  1.0
  C  C82  1  0.08099000  0.55932000  0.26237000  1.0
  C  C83  1  0.12888000  0.52735000  0.30546000  1.0
  C  C84  1  0.14221000  0.58148000  0.34481000  1.0
  C  C85  1  0.00079000  0.19554000  0.69513000  1.0
  C  C86  1  0.10345000  0.66798000  0.34389000  1.0
  C  C87  1  0.05330000  0.70303000  0.30066000  1.0
  C  C88  1  0.04507000  0.64676000  0.25437000  1.0
  C  C89  1  0.00495000  0.68153000  0.20319000  1.0
  C  C90  1  0.97407000  0.76697000  0.19933000  1.0
  C  C91  1  0.97776000  0.82295000  0.24750000  1.0
  C  C92  1  0.00307000  0.36053000  0.86000000  1.0
  C  C93  1  0.01476000  0.79246000  0.29867000  1.0
  C  C94  1  0.60165000  0.84458000  0.20744000  1.0
  C  C95  1  0.54608000  0.93582000  0.24521000  1.0
  C  C96  1  0.90987000  0.25439000  0.77916000  1.0
  C  C97  1  0.43798000  0.98744000  0.30203000  1.0
  C  C98  1  0.38697000  0.94718000  0.32067000  1.0
  C  C99  1  0.44168000  0.85372000  0.28312000  1.0
  C  C100  1  0.55272000  0.79904000  0.22472000  1.0
  C  C101  1  0.60401000  0.70552000  0.18752000  1.0
  C  C102  1  0.54851000  0.66956000  0.20342000  1.0
  C  C103  1  0.44046000  0.72330000  0.25785000  1.0
  C  C104  1  0.18452000  0.24081000  0.68453000  1.0
  C  C105  1  0.38794000  0.81323000  0.29869000  1.0
  C  C106  1  0.72402000  0.13165000  0.63945000  1.0
  C  C107  1  0.91111000  0.30882000  0.83477000  1.0
  C  C108  1  0.27278000  0.86778000  0.35886000  1.0
  C  C109  1  0.00721000  0.85444000  0.62982000  1.0
  C  C110  1  0.99594000  0.14849000  0.37037000  1.0
  C  C111  1  0.00820000  0.85690000  0.35544000  1.0
  C  C112  1  0.00005000  0.13843000  0.63763000  1.0
  C  C113  1  0.27044000  0.18426000  0.60153000  1.0
  C  C114  1  0.27171000  0.12775000  0.54735000  1.0
  C  C115  1  0.00253000  0.30279000  0.80293000  1.0
  C  C116  1  0.81667000  0.26123000  0.81226000  1.0
  Cl  Cl117  1  0.27539000  0.38637000  0.02100000  1.0
  Cl  Cl118  1  0.15489000  0.14888000  0.37320000  1.0
  Cl  Cl119  1  0.06405000  0.48838000  0.22087000  1.0
  Cl  Cl120  1  0.38139000  0.18021000  0.56030000  1.0
  Cl  Cl121  1  0.73401000  0.78893000  0.13480000  1.0
  O  O122  1  0.99891000  0.50133000  0.00119000  1.0
  O  O123  1  0.06611000  0.06555000  0.32724000  1.0
  O  O124  1  0.96455000  0.86355000  0.43713000  1.0
  O  O125  1  0.07353000  0.32018000  0.05479000  1.0
  O  O126  1  0.94599000  0.17882000  0.60791000  1.0
  O  O127  1  0.04363000  0.90149000  0.31889000  1.0
  O  O128  1  0.05362000  0.05458000  0.62340000  1.0
  O  O129  1  0.07380000  0.87240000  0.60311000  1.0
  O  O130  1  0.91886000  0.18280000  0.45075000  1.0
  O  O131  1  0.76792000  0.05101000  0.59726000  1.0
  O  O132  1  0.22628000  0.87278000  0.32349000  1.0
  O  O133  1  0.76398000  0.61118000  0.04957000  1.0
  O  O134  1  0.93948000  0.61798000  0.88528000  1.0
  O  O135  1  0.75899000  0.61316000  0.17576000  1.0
  O  O136  1  0.23451000  0.44827000  0.87713000  1.0
  O  O137  1  0.91850000  0.62967000  0.18119000  1.0
  O  O138  1  0.06065000  0.32087000  0.88685000  1.0
  O  O139  1  0.07053000  0.59878000  0.06369000  1.0
  O  O140  1  0.94576000  0.44442000  0.87656000  1.0
  O  O141  1  0.23461000  0.32363000  0.88467000  1.0
  O  O142  1  0.93142000  0.44355000  0.17461000  1.0
  O  O143  1  0.05552000  0.62719000  0.89280000  1.0
  O  O144  1  0.99945000  0.00050000  0.49750000  1.0
  O  O145  1  0.76787000  0.17000000  0.63438000  1.0
  O  O146  1  0.23161000  0.90301000  0.44017000  1.0
  O  O147  1  0.93541000  0.88652000  0.61778000  1.0
