# generated using pymatgen
data_ZnH6C4(NO)4
_symmetry_space_group_name_H-M   'P 1'
_cell_length_a   6.34602000
_cell_length_b   7.13728000
_cell_length_c   18.58120000
_cell_angle_alpha   90.00020000
_cell_angle_beta   90.00010000
_cell_angle_gamma   108.20200000
_symmetry_Int_Tables_number   1
_chemical_formula_structural   ZnH6C4(NO)4
_chemical_formula_sum   'Zn4 H24 C16 N16 O16'
_cell_volume   799.49135672
_cell_formula_units_Z   4
loop_
 _symmetry_equiv_pos_site_id
 _symmetry_equiv_pos_as_xyz
  1  'x, y, z'
loop_
 _atom_site_type_symbol
 _atom_site_label
 _atom_site_symmetry_multiplicity
 _atom_site_fract_x
 _atom_site_fract_y
 _atom_site_fract_z
 _atom_site_occupancy
  Zn  Zn0  1  0.51369000  0.72910000  0.29247000  1.0
  Zn  Zn1  1  0.98630000  0.27090000  0.79248000  1.0
  Zn  Zn2  1  0.48630000  0.27091000  0.70753000  1.0
  Zn  Zn3  1  0.01369000  0.72908000  0.20752000  1.0
  H  H4  1  0.82726000  0.98539000  0.24034000  1.0
  H  H5  1  0.67273000  0.01461000  0.74035000  1.0
  H  H6  1  0.17274000  0.01461000  0.75965000  1.0
  H  H7  1  0.32725000  0.98539000  0.25965000  1.0
  H  H8  1  0.90339000  0.91061000  0.35115000  1.0
  H  H9  1  0.59662000  0.08940000  0.85116000  1.0
  H  H10  1  0.09661000  0.08939000  0.64885000  1.0
  H  H11  1  0.40339000  0.91061000  0.14885000  1.0
  H  H12  1  0.03919000  0.00035000  0.43482000  1.0
  H  H13  1  0.46082000  0.99965000  0.93483000  1.0
  H  H14  1  0.96082000  0.99965000  0.56518000  1.0
  H  H15  1  0.53918000  0.00034000  0.06518000  1.0
  H  H16  1  0.52253000  0.77632000  0.60683000  1.0
  H  H17  1  0.97750000  0.22368000  0.10683000  1.0
  H  H18  1  0.47748000  0.22368000  0.39318000  1.0
  H  H19  1  0.02254000  0.77632000  0.89317000  1.0
  H  H20  1  0.17051000  0.59694000  0.54212000  1.0
  H  H21  1  0.32951000  0.40308000  0.04212000  1.0
  H  H22  1  0.82950000  0.40307000  0.45788000  1.0
  H  H23  1  0.67051000  0.59693000  0.95787000  1.0
  H  H24  1  0.18725000  0.58959000  0.40492000  1.0
  H  H25  1  0.31274000  0.41043000  0.90492000  1.0
  H  H26  1  0.81275000  0.41042000  0.59508000  1.0
  H  H27  1  0.68724000  0.58957000  0.09508000  1.0
  C  C28  1  0.51878000  0.76614000  0.54810000  1.0
  C  C29  1  0.98123000  0.23388000  0.04810000  1.0
  C  C30  1  0.48122000  0.23388000  0.45190000  1.0
  C  C31  1  0.01877000  0.76611000  0.95190000  1.0
  C  C32  1  0.32174000  0.66623000  0.51232000  1.0
  C  C33  1  0.17827000  0.33377000  0.01232000  1.0
  C  C34  1  0.67826000  0.33376000  0.48768000  1.0
  C  C35  1  0.82174000  0.66623000  0.98768000  1.0
  C  C36  1  0.33203000  0.66202000  0.43802000  1.0
  C  C37  1  0.16797000  0.33798000  0.93803000  1.0
  C  C38  1  0.66797000  0.33798000  0.56198000  1.0
  C  C39  1  0.83203000  0.66202000  0.06198000  1.0
  C  C40  1  0.70911000  0.83999000  0.44068000  1.0
  C  C41  1  0.79089000  0.16001000  0.94069000  1.0
  C  C42  1  0.29090000  0.16001000  0.55932000  1.0
  C  C43  1  0.20911000  0.83998000  0.05931000  1.0
  N  N44  1  0.52190000  0.74734000  0.40171000  1.0
  N  N45  1  0.97810000  0.25268000  0.90172000  1.0
  N  N46  1  0.47811000  0.25268000  0.59828000  1.0
  N  N47  1  0.02189000  0.74732000  0.09828000  1.0
  N  N48  1  0.70854000  0.85261000  0.51380000  1.0
  N  N49  1  0.79148000  0.14738000  0.01381000  1.0
  N  N50  1  0.29147000  0.14738000  0.48619000  1.0
  N  N51  1  0.20853000  0.85261000  0.98619000  1.0
  N  N52  1  0.89994000  0.92022000  0.40620000  1.0
  N  N53  1  0.60007000  0.07978000  0.90620000  1.0
  N  N54  1  0.10006000  0.07978000  0.59380000  1.0
  N  N55  1  0.39994000  0.92021000  0.09380000  1.0
  N  N56  1  0.32681000  0.37284000  0.21885000  1.0
  N  N57  1  0.17319000  0.62716000  0.71885000  1.0
  N  N58  1  0.67318000  0.62716000  0.78115000  1.0
  N  N59  1  0.82681000  0.37284000  0.28115000  1.0
  O  O60  1  0.81020000  0.84840000  0.25288000  1.0
  O  O61  1  0.68978000  0.15160000  0.75289000  1.0
  O  O62  1  0.18978000  0.15160000  0.74711000  1.0
  O  O63  1  0.31021000  0.84840000  0.24711000  1.0
  O  O64  1  0.37542000  0.43235000  0.28529000  1.0
  O  O65  1  0.12457000  0.56766000  0.78529000  1.0
  O  O66  1  0.62458000  0.56766000  0.71471000  1.0
  O  O67  1  0.87541000  0.43233000  0.21471000  1.0
  O  O68  1  0.22883000  0.19399000  0.20858000  1.0
  O  O69  1  0.27116000  0.80602000  0.70858000  1.0
  O  O70  1  0.77117000  0.80602000  0.79142000  1.0
  O  O71  1  0.72883000  0.19399000  0.29143000  1.0
  O  O72  1  0.37926000  0.49711000  0.16913000  1.0
  O  O73  1  0.12074000  0.50290000  0.66912000  1.0
  O  O74  1  0.62072000  0.50290000  0.83088000  1.0
  O  O75  1  0.87927000  0.49711000  0.33087000  1.0
