# generated using pymatgen
data_ZnH7C8N5O2
_symmetry_space_group_name_H-M   'P 1'
_cell_length_a   7.89914000
_cell_length_b   10.05990000
_cell_length_c   19.09610000
_cell_angle_alpha   90.00000000
_cell_angle_beta   90.00010000
_cell_angle_gamma   95.72730000
_symmetry_Int_Tables_number   1
_chemical_formula_structural   ZnH7C8N5O2
_chemical_formula_sum   'Zn4 H28 C32 N20 O8'
_cell_volume   1509.88818203
_cell_formula_units_Z   4
loop_
 _symmetry_equiv_pos_site_id
 _symmetry_equiv_pos_as_xyz
  1  'x, y, z'
loop_
 _atom_site_type_symbol
 _atom_site_label
 _atom_site_symmetry_multiplicity
 _atom_site_fract_x
 _atom_site_fract_y
 _atom_site_fract_z
 _atom_site_occupancy
  Zn  Zn0  1  0.80459000  0.40757000  0.34022000  1.0
  Zn  Zn1  1  0.19541000  0.09243000  0.84022000  1.0
  Zn  Zn2  1  0.19541000  0.59243000  0.65978000  1.0
  Zn  Zn3  1  0.80459000  0.90757000  0.15978000  1.0
  H  H4  1  0.43472000  0.42842000  0.31854000  1.0
  H  H5  1  0.56528000  0.07158000  0.81854000  1.0
  H  H6  1  0.56528000  0.57158000  0.68146000  1.0
  H  H7  1  0.43472000  0.92842000  0.18146000  1.0
  H  H8  1  0.72241000  0.32329000  0.48820000  1.0
  H  H9  1  0.27759000  0.17671000  0.98820000  1.0
  H  H10  1  0.27759000  0.67671000  0.51180000  1.0
  H  H11  1  0.72241000  0.82329000  0.01180000  1.0
  H  H12  1  0.17848000  0.32797000  0.51297000  1.0
  H  H13  1  0.82153000  0.17203000  0.01297000  1.0
  H  H14  1  0.82152000  0.67203000  0.48703000  1.0
  H  H15  1  0.17848000  0.82797000  0.98703000  1.0
  H  H16  1  0.46059000  0.28979000  0.56513000  1.0
  H  H17  1  0.53942000  0.21021000  0.06512000  1.0
  H  H18  1  0.53941000  0.71021000  0.43487000  1.0
  H  H19  1  0.46058000  0.78979000  0.93487000  1.0
  H  H20  1  0.96027000  0.64566000  0.13745000  1.0
  H  H21  1  0.03973000  0.85434000  0.63745000  1.0
  H  H22  1  0.03973000  0.35434000  0.86255000  1.0
  H  H23  1  0.96027000  0.14566000  0.36255000  1.0
  H  H24  1  0.86471000  0.48421000  0.16295000  1.0
  H  H25  1  0.13529000  0.01579000  0.66295000  1.0
  H  H26  1  0.13529000  0.51579000  0.83705000  1.0
  H  H27  1  0.86471000  0.98421000  0.33705000  1.0
  H  H28  1  0.05397000  0.55246000  0.20500000  1.0
  H  H29  1  0.94603000  0.94754000  0.70500000  1.0
  H  H30  1  0.94603000  0.44754000  0.79500000  1.0
  H  H31  1  0.05397000  0.05246000  0.29500000  1.0
  C  C32  1  0.43733000  0.39705000  0.37317000  1.0
  C  C33  1  0.56267000  0.10295000  0.87317000  1.0
  C  C34  1  0.56267000  0.60296000  0.62683000  1.0
  C  C35  1  0.43734000  0.89704000  0.12683000  1.0
  C  C36  1  0.12339000  0.40438000  0.37556000  1.0
  C  C37  1  0.87661000  0.09561000  0.87556000  1.0
  C  C38  1  0.87661000  0.59561000  0.62444000  1.0
  C  C39  1  0.12339000  0.90439000  0.12444000  1.0
  C  C40  1  0.59578000  0.33728000  0.46849000  1.0
  C  C41  1  0.40422000  0.16272000  0.96849000  1.0
  C  C42  1  0.40422000  0.66272000  0.53151000  1.0
  C  C43  1  0.59579000  0.83728000  0.03151000  1.0
  C  C44  1  0.83125000  0.63967000  0.23529000  1.0
  C  C45  1  0.16875000  0.86033000  0.73529000  1.0
  C  C46  1  0.16875000  0.36033000  0.76471000  1.0
  C  C47  1  0.83125000  0.13967000  0.26471000  1.0
  C  C48  1  0.29429000  0.34008000  0.48160000  1.0
  C  C49  1  0.70571000  0.15992000  0.98160000  1.0
  C  C50  1  0.70571000  0.65992000  0.51840000  1.0
  C  C51  1  0.29429000  0.84008000  0.01840000  1.0
  C  C52  1  0.28629000  0.38007000  0.41160000  1.0
  C  C53  1  0.71371000  0.11993000  0.91160000  1.0
  C  C54  1  0.71371000  0.61993000  0.58840000  1.0
  C  C55  1  0.28629000  0.88007000  0.08840000  1.0
  C  C56  1  0.45139000  0.31790000  0.51030000  1.0
  C  C57  1  0.54861000  0.18210000  0.01030000  1.0
  C  C58  1  0.54861000  0.68210000  0.48970000  1.0
  C  C59  1  0.45139000  0.81790000  0.98970000  1.0
  C  C60  1  0.93406000  0.57753000  0.18174000  1.0
  C  C61  1  0.06594000  0.92246000  0.68174000  1.0
  C  C62  1  0.06594000  0.42247000  0.81826000  1.0
  C  C63  1  0.93406000  0.07754000  0.31826000  1.0
  N  N64  1  0.58870000  0.37641000  0.40103000  1.0
  N  N65  1  0.41130000  0.12359000  0.90103000  1.0
  N  N66  1  0.41130000  0.62359000  0.59897000  1.0
  N  N67  1  0.58870000  0.87641000  0.09897000  1.0
  N  N68  1  0.77498000  0.76099000  0.23117000  1.0
  N  N69  1  0.22502000  0.73901000  0.73117000  1.0
  N  N70  1  0.22502000  0.23901000  0.76883000  1.0
  N  N71  1  0.77498000  0.26099000  0.26883000  1.0
  N  N72  1  0.77688000  0.58435000  0.29637000  1.0
  N  N73  1  0.22312000  0.91565000  0.79637000  1.0
  N  N74  1  0.22312000  0.41565000  0.70363000  1.0
  N  N75  1  0.77688000  0.08435000  0.20363000  1.0
  N  N76  1  0.68653000  0.67380000  0.32947000  1.0
  N  N77  1  0.31347000  0.82620000  0.82947000  1.0
  N  N78  1  0.31347000  0.32620000  0.67053000  1.0
  N  N79  1  0.68653000  0.17380000  0.17053000  1.0
  N  N80  1  0.68522000  0.77956000  0.29051000  1.0
  N  N81  1  0.31478000  0.72044000  0.79051000  1.0
  N  N82  1  0.31478000  0.22044000  0.70949000  1.0
  N  N83  1  0.68522000  0.27956000  0.20949000  1.0
  O  O84  1  0.12654000  0.44267000  0.31319000  1.0
  O  O85  1  0.87346000  0.05732000  0.81319000  1.0
  O  O86  1  0.87346000  0.55732000  0.68681000  1.0
  O  O87  1  0.12654000  0.94268000  0.18681000  1.0
  O  O88  1  0.98406000  0.38064000  0.41175000  1.0
  O  O89  1  0.01594000  0.11936000  0.91175000  1.0
  O  O90  1  0.01594000  0.61936000  0.58825000  1.0
  O  O91  1  0.98406000  0.88064000  0.08825000  1.0
