# generated using pymatgen
data_ZnP2H14C6(NO3)2
_symmetry_space_group_name_H-M   'P 1'
_cell_length_a   8.23742000
_cell_length_b   8.88054000
_cell_length_c   8.90527000
_cell_angle_alpha   62.97380000
_cell_angle_beta   87.58750000
_cell_angle_gamma   80.01000000
_symmetry_Int_Tables_number   1
_chemical_formula_structural   ZnP2H14C6(NO3)2
_chemical_formula_sum   'Zn2 P4 H28 C12 N4 O12'
_cell_volume   571.00654900
_cell_formula_units_Z   2
loop_
 _symmetry_equiv_pos_site_id
 _symmetry_equiv_pos_as_xyz
  1  'x, y, z'
loop_
 _atom_site_type_symbol
 _atom_site_label
 _atom_site_symmetry_multiplicity
 _atom_site_fract_x
 _atom_site_fract_y
 _atom_site_fract_z
 _atom_site_occupancy
  Zn  Zn0  1  0.25579000  0.07862000  0.41418000  1.0
  Zn  Zn1  1  0.74421000  0.92139000  0.58582000  1.0
  P  P2  1  0.44751000  0.02544000  0.75291000  1.0
  P  P3  1  0.55249000  0.97456000  0.24709000  1.0
  P  P4  1  0.92159000  0.26189000  0.45145000  1.0
  P  P5  1  0.07841000  0.73811000  0.54855000  1.0
  H  H6  1  0.28633000  0.80390000  0.82548000  1.0
  H  H7  1  0.71367000  0.19610000  0.17452000  1.0
  H  H8  1  0.36252000  0.80798000  0.01148000  1.0
  H  H9  1  0.63749000  0.19201000  0.98852000  1.0
  H  H10  1  0.89069000  0.56975000  0.35493000  1.0
  H  H11  1  0.10931000  0.43025000  0.64507000  1.0
  H  H12  1  0.79669000  0.52195000  0.20848000  1.0
  H  H13  1  0.20331000  0.47805000  0.79152000  1.0
  H  H14  1  0.23473000  0.14838000  0.95755000  1.0
  H  H15  1  0.76527000  0.85162000  0.04246000  1.0
  H  H16  1  0.20075000  0.95835000  0.13336000  1.0
  H  H17  1  0.79926000  0.04165000  0.86664000  1.0
  H  H18  1  0.60602000  0.66832000  0.32213000  1.0
  H  H19  1  0.39398000  0.33168000  0.67787000  1.0
  H  H20  1  0.07333000  0.74811000  0.09293000  1.0
  H  H21  1  0.92667000  0.25189000  0.90707000  1.0
  H  H22  1  0.00735000  0.79668000  0.88338000  1.0
  H  H23  1  0.99265000  0.20332000  0.11663000  1.0
  H  H24  1  0.55022000  0.31103000  0.42975000  1.0
  H  H25  1  0.44978000  0.68897000  0.57025000  1.0
  H  H26  1  0.51244000  0.49330000  0.22839000  1.0
  H  H27  1  0.48755000  0.50671000  0.77161000  1.0
  H  H28  1  0.74227000  0.55469000  0.60300000  1.0
  H  H29  1  0.25773000  0.44531000  0.39700000  1.0
  H  H30  1  0.68963000  0.34900000  0.65751000  1.0
  H  H31  1  0.31037000  0.65100000  0.34249000  1.0
  H  H32  1  0.08585000  0.07257000  0.77714000  1.0
  H  H33  1  0.91415000  0.92742000  0.22286000  1.0
  C  C34  1  0.30452000  0.88505000  0.88443000  1.0
  C  C35  1  0.69548000  0.11495000  0.11557000  1.0
  C  C36  1  0.81280000  0.48624000  0.34306000  1.0
  C  C37  1  0.18719000  0.51376000  0.65694000  1.0
  C  C38  1  0.14767000  0.05893000  0.01077000  1.0
  C  C39  1  0.85233000  0.94106000  0.98923000  1.0
  C  C40  1  0.01963000  0.85064000  0.97088000  1.0
  C  C41  1  0.98037000  0.14936000  0.02912000  1.0
  C  C42  1  0.51623000  0.45079000  0.36503000  1.0
  C  C43  1  0.48377000  0.54921000  0.63497000  1.0
  C  C44  1  0.65055000  0.48815000  0.58432000  1.0
  C  C45  1  0.34945000  0.51185000  0.41568000  1.0
  N  N46  1  0.64638000  0.52911000  0.40203000  1.0
  N  N47  1  0.35362000  0.47089000  0.59798000  1.0
  N  N48  1  0.13797000  0.97458000  0.89969000  1.0
  N  N49  1  0.86204000  0.02542000  0.10031000  1.0
  O  O50  1  0.37389000  0.12091000  0.57155000  1.0
  O  O51  1  0.62611000  0.87909000  0.42844000  1.0
  O  O52  1  0.60537000  0.89409000  0.77618000  1.0
  O  O53  1  0.39463000  0.10591000  0.22382000  1.0
  O  O54  1  0.06273000  0.26411000  0.33062000  1.0
  O  O55  1  0.93728000  0.73589000  0.66938000  1.0
  O  O56  1  0.79709000  0.15147000  0.45054000  1.0
  O  O57  1  0.20292000  0.84853000  0.54946000  1.0
  O  O58  1  0.46584000  0.15803000  0.81338000  1.0
  O  O59  1  0.53416000  0.84197000  0.18662000  1.0
  O  O60  1  0.97849000  0.22617000  0.62720000  1.0
  O  O61  1  0.02152000  0.77383000  0.37280000  1.0
