# generated using pymatgen
data_NaH7(C2O3)2
_symmetry_space_group_name_H-M   'P 1'
_cell_length_a   6.03930000
_cell_length_b   6.41116000
_cell_length_c   9.21091000
_cell_angle_alpha   96.44580000
_cell_angle_beta   95.98790000
_cell_angle_gamma   115.39100000
_symmetry_Int_Tables_number   1
_chemical_formula_structural   NaH7(C2O3)2
_chemical_formula_sum   'Na2 H14 C8 O12'
_cell_volume   315.49887172
_cell_formula_units_Z   2
loop_
 _symmetry_equiv_pos_site_id
 _symmetry_equiv_pos_as_xyz
  1  'x, y, z'
loop_
 _atom_site_type_symbol
 _atom_site_label
 _atom_site_symmetry_multiplicity
 _atom_site_fract_x
 _atom_site_fract_y
 _atom_site_fract_z
 _atom_site_occupancy
  Na  Na0  1  0.75574000  0.48183000  0.10031000  1.0
  Na  Na1  1  0.24426000  0.51817000  0.89969000  1.0
  H  H2  1  0.13117000  0.26297000  0.42558000  1.0
  H  H3  1  0.86884000  0.73703000  0.57443000  1.0
  H  H4  1  0.02484000  0.19635000  0.11323000  1.0
  H  H5  1  0.97516000  0.80365000  0.88677000  1.0
  H  H6  1  0.82152000  0.08978000  0.96588000  1.0
  H  H7  1  0.17849000  0.91023000  0.03412000  1.0
  H  H8  1  0.36364000  0.63713000  0.20730000  1.0
  H  H9  1  0.63636000  0.36287000  0.79269000  1.0
  H  H10  1  0.54346000  0.84949000  0.15071000  1.0
  H  H11  1  0.45654000  0.15051000  0.84929000  1.0
  H  H12  1  0.50727000  0.29863000  0.52218000  1.0
  H  H13  1  0.49273000  0.70136000  0.47782000  1.0
  H  H14  1  0.74452000  0.02037000  0.37325000  1.0
  H  H15  1  0.25548000  0.97963000  0.62675000  1.0
  C  C16  1  0.36668000  0.14246000  0.29536000  1.0
  C  C17  1  0.63332000  0.85753000  0.70464000  1.0
  C  C18  1  0.47049000  0.13454000  0.45123000  1.0
  C  C19  1  0.52951000  0.86547000  0.54877000  1.0
  C  C20  1  0.69365000  0.07654000  0.47580000  1.0
  C  C21  1  0.30636000  0.92346000  0.52420000  1.0
  C  C22  1  0.91639000  0.26764000  0.57830000  1.0
  C  C23  1  0.08363000  0.73237000  0.42172000  1.0
  O  O24  1  0.46614000  0.11629000  0.18549000  1.0
  O  O25  1  0.53387000  0.88371000  0.81451000  1.0
  O  O26  1  0.17128000  0.17800000  0.28580000  1.0
  O  O27  1  0.82873000  0.82202000  0.71419000  1.0
  O  O28  1  0.13340000  0.34401000  0.53433000  1.0
  O  O29  1  0.86660000  0.65598000  0.46566000  1.0
  O  O30  1  0.89888000  0.35290000  0.70203000  1.0
  O  O31  1  0.10111000  0.64709000  0.29798000  1.0
  O  O32  1  0.95502000  0.23623000  0.02414000  1.0
  O  O33  1  0.04498000  0.76377000  0.97586000  1.0
  O  O34  1  0.49821000  0.68194000  0.14761000  1.0
  O  O35  1  0.50179000  0.31806000  0.85238000  1.0
