# generated using pymatgen
data_Zn2H17C36I2N2ClO8
_symmetry_space_group_name_H-M   'P 1'
_cell_length_a   11.52640000
_cell_length_b   11.79886666
_cell_length_c   13.12200000
_cell_angle_alpha   89.86454603
_cell_angle_beta   77.94540000
_cell_angle_gamma   71.50137357
_symmetry_Int_Tables_number   1
_chemical_formula_structural   Zn2H17C36I2N2ClO8
_chemical_formula_sum   'Zn2 H17 C36 I2 N2 Cl1 O8'
_cell_volume   1651.11390089
_cell_formula_units_Z   1
loop_
 _symmetry_equiv_pos_site_id
 _symmetry_equiv_pos_as_xyz
  1  'x, y, z'
loop_
 _atom_site_type_symbol
 _atom_site_label
 _atom_site_symmetry_multiplicity
 _atom_site_fract_x
 _atom_site_fract_y
 _atom_site_fract_z
 _atom_site_occupancy
  Zn  Zn0  1  0.09890000  0.55105000  0.48446000  1.0
  Zn  Zn1  1  0.89709000  0.45758000  0.50669000  1.0
  H  H2  1  0.13744000  0.09710000  0.35838000  1.0
  H  H3  1  0.24129000  0.47843000  0.14079000  1.0
  H  H4  1  0.75029000  0.52127000  0.04231000  1.0
  H  H5  1  0.76471000  0.51710000  0.84969000  1.0
  H  H6  1  0.15215000  0.49438000  0.79549000  1.0
  H  H7  1  0.35763000  0.41447000  0.38835000  1.0
  H  H8  1  0.19275000  0.70181000  0.60879000  1.0
  H  H9  1  0.59775000  0.30636000  0.34963000  1.0
  H  H10  1  0.39854000  0.68988000  0.65190000  1.0
  H  H11  1  0.80447000  0.29952000  0.38813000  1.0
  H  H12  1  0.63814000  0.58429000  0.61116000  1.0
  H  H13  1  0.30306000  0.89841000  0.31114000  1.0
  H  H14  1  0.89710000  0.92753000  0.55866000  1.0
  H  H15  1  0.54603000  0.18296000  0.53076000  1.0
  H  H16  1  0.75474000  0.13977000  0.56961000  1.0
  H  H17  1  0.69707000  0.70302000  0.39978000  1.0
  H  H18  1  0.85103000  0.51076000  0.19188000  1.0
  C  C19  1  0.96731000  0.50895000  0.69730000  1.0
  C  C20  1  0.56543000  0.99825000  0.49400000  1.0
  C  C21  1  0.65308000  0.87963000  0.47588000  1.0
  C  C22  1  0.44230000  0.02203000  0.46959000  1.0
  C  C23  1  0.42530000  0.93607000  0.40098000  1.0
  C  C24  1  0.52294000  0.82199000  0.37624000  1.0
  C  C25  1  0.62747000  0.79163000  0.41700000  1.0
  C  C26  1  0.33667000  0.12586000  0.50683000  1.0
  C  C27  1  0.22141000  0.07318000  0.39032000  1.0
  C  C28  1  0.77078000  0.85505000  0.50524000  1.0
  C  C29  1  0.04424000  0.49499000  0.17718000  1.0
  C  C30  1  0.85970000  0.73014000  0.50249000  1.0
  C  C31  1  0.95993000  0.50640000  0.81244000  1.0
  C  C32  1  0.83867000  0.51317000  0.98790000  1.0
  C  C33  1  0.84587000  0.51207000  0.88191000  1.0
  C  C34  1  0.06561000  0.49806000  0.85022000  1.0
  C  C35  1  0.06234000  0.49420000  0.95830000  1.0
  C  C36  1  0.94559000  0.50391000  0.02938000  1.0
  C  C37  1  0.93952000  0.50334000  0.13807000  1.0
  C  C38  1  0.16008000  0.48492000  0.10835000  1.0
  C  C39  1  0.16850000  0.48296000  0.00218000  1.0
  C  C40  1  0.60263000  0.36896000  0.40825000  1.0
  C  C41  1  0.03579000  0.49782000  0.29267000  1.0
  C  C42  1  0.71614000  0.36408000  0.42905000  1.0
  C  C43  1  0.62397000  0.52382000  0.55578000  1.0
  C  C44  1  0.50293000  0.53729000  0.53966000  1.0
  C  C45  1  0.49271000  0.45777000  0.46297000  1.0
  C  C46  1  0.37194000  0.47374000  0.44474000  1.0
  C  C47  1  0.28064000  0.63554000  0.56935000  1.0
  C  C48  1  0.39346000  0.62752000  0.59316000  1.0
  C  C49  1  0.12987000  0.27584000  0.48160000  1.0
  C  C50  1  0.31433000  0.96412000  0.36311000  1.0
  C  C51  1  0.23079000  0.15543000  0.46306000  1.0
  C  C52  1  0.80541000  0.94837000  0.53944000  1.0
  C  C53  1  0.72462000  0.06662000  0.54687000  1.0
  C  C54  1  0.60663000  0.09053000  0.52573000  1.0
  I  I55  1  0.50789000  0.69257000  0.27259000  1.0
  I  I56  1  0.31629000  0.22350000  0.65004000  1.0
  N  N57  1  0.27110000  0.55921000  0.49580000  1.0
  N  N58  1  0.72574000  0.44140000  0.50175000  1.0
  Cl  Cl59  1  0.31312000  0.46630000  0.91962000  1.0
  O  O60  1  0.04447000  0.55545000  0.64501000  1.0
  O  O61  1  0.89593000  0.46379000  0.66114000  1.0
  O  O62  1  0.97668000  0.71699000  0.48114000  1.0
  O  O63  1  0.81225000  0.64709000  0.52460000  1.0
  O  O64  1  0.12335000  0.51975000  0.32564000  1.0
  O  O65  1  0.94023000  0.47888000  0.34921000  1.0
  O  O66  1  0.16840000  0.36474000  0.48635000  1.0
  O  O67  1  0.01719000  0.28126000  0.48444000  1.0
