# generated using pymatgen
data_Er2H20C12O13
_symmetry_space_group_name_H-M   'P 1'
_cell_length_a   8.33821000
_cell_length_b   11.31520000
_cell_length_c   11.31510000
_cell_angle_alpha   91.82530000
_cell_angle_beta   107.69000000
_cell_angle_gamma   107.68900000
_symmetry_Int_Tables_number   1
_chemical_formula_structural   Er2H20C12O13
_chemical_formula_sum   'Er4 H40 C24 O26'
_cell_volume   959.88310732
_cell_formula_units_Z   2
loop_
 _symmetry_equiv_pos_site_id
 _symmetry_equiv_pos_as_xyz
  1  'x, y, z'
loop_
 _atom_site_type_symbol
 _atom_site_label
 _atom_site_symmetry_multiplicity
 _atom_site_fract_x
 _atom_site_fract_y
 _atom_site_fract_z
 _atom_site_occupancy
  Er  Er0  1  0.74683000  0.86941000  0.15433000  1.0
  Er  Er1  1  0.24682000  0.15433000  0.86941000  1.0
  Er  Er2  1  0.50579000  0.50568000  0.01912000  1.0
  Er  Er3  1  0.00579000  0.01912000  0.50568000  1.0
  H  H4  1  0.11336000  0.73901000  0.08671000  1.0
  H  H5  1  0.61339000  0.08674000  0.73903000  1.0
  H  H6  1  0.16123000  0.59947000  0.13673000  1.0
  H  H7  1  0.66123000  0.13676000  0.59949000  1.0
  H  H8  1  0.11425000  0.62237000  0.97742000  1.0
  H  H9  1  0.61423000  0.97744000  0.62237000  1.0
  H  H10  1  0.90351000  0.83292000  0.87502000  1.0
  H  H11  1  0.40353000  0.87503000  0.83291000  1.0
  H  H12  1  0.73563000  0.74383000  0.73631000  1.0
  H  H13  1  0.23567000  0.73632000  0.74383000  1.0
  H  H14  1  0.91810000  0.69320000  0.80672000  1.0
  H  H15  1  0.41812000  0.80674000  0.69319000  1.0
  H  H16  1  0.98714000  0.49022000  0.36540000  1.0
  H  H17  1  0.48715000  0.36539000  0.49022000  1.0
  H  H18  1  0.99500000  0.62642000  0.45693000  1.0
  H  H19  1  0.49500000  0.45693000  0.62642000  1.0
  H  H20  1  0.14049000  0.64297000  0.37067000  1.0
  H  H21  1  0.64048000  0.37066000  0.64298000  1.0
  H  H22  1  0.38694000  0.97835000  0.24752000  1.0
  H  H23  1  0.88692000  0.24750000  0.97834000  1.0
  H  H24  1  0.38073000  0.07941000  0.37193000  1.0
  H  H25  1  0.88073000  0.37192000  0.07941000  1.0
  H  H26  1  0.32518000  0.91743000  0.37820000  1.0
  H  H27  1  0.82517000  0.37819000  0.91742000  1.0
  H  H28  1  0.53411000  0.64917000  0.50787000  1.0
  H  H29  1  0.03405000  0.50786000  0.64918000  1.0
  H  H30  1  0.53923000  0.62339000  0.35105000  1.0
  H  H31  1  0.03919000  0.35104000  0.62339000  1.0
  H  H32  1  0.41169000  0.71150000  0.38120000  1.0
  H  H33  1  0.91167000  0.38119000  0.71152000  1.0
  H  H34  1  0.65553000  0.27663000  0.37047000  1.0
  H  H35  1  0.15555000  0.37047000  0.27664000  1.0
  H  H36  1  0.52989000  0.20520000  0.21076000  1.0
  H  H37  1  0.02990000  0.21076000  0.20522000  1.0
  H  H38  1  0.74210000  0.31935000  0.24755000  1.0
  H  H39  1  0.24212000  0.24754000  0.31935000  1.0
  H  H40  1  0.66004000  0.03468000  0.97094000  1.0
  H  H41  1  0.16007000  0.97093000  0.03467000  1.0
  H  H42  1  0.81297000  0.00477000  0.93580000  1.0
  H  H43  1  0.31300000  0.93580000  0.00477000  1.0
  C  C44  1  0.37212000  0.73323000  0.09356000  1.0
  C  C45  1  0.87211000  0.09356000  0.73323000  1.0
  C  C46  1  0.17790000  0.67071000  0.07402000  1.0
  C  C47  1  0.67790000  0.07404000  0.67072000  1.0
  C  C48  1  0.72496000  0.65935000  0.90106000  1.0
  C  C49  1  0.22497000  0.90107000  0.65933000  1.0
  C  C50  1  0.82792000  0.73779000  0.82720000  1.0
  C  C51  1  0.32795000  0.82721000  0.73778000  1.0
  C  C52  1  0.87074000  0.61854000  0.25999000  1.0
  C  C53  1  0.37074000  0.25999000  0.61854000  1.0
  C  C54  1  0.00544000  0.59041000  0.36926000  1.0
  C  C55  1  0.50544000  0.36925000  0.59041000  1.0
  C  C56  1  0.12441000  0.96733000  0.24931000  1.0
  C  C57  1  0.62439000  0.24930000  0.96732000  1.0
  C  C58  1  0.31782000  0.98774000  0.31353000  1.0
  C  C59  1  0.81781000  0.31352000  0.98774000  1.0
  C  C60  1  0.69081000  0.80935000  0.44769000  1.0
  C  C61  1  0.19079000  0.44768000  0.80934000  1.0
  C  C62  1  0.53579000  0.69036000  0.42188000  1.0
  C  C63  1  0.03577000  0.42187000  0.69036000  1.0
  C  C64  1  0.74874000  0.13973000  0.30069000  1.0
  C  C65  1  0.24874000  0.30068000  0.13973000  1.0
  C  C66  1  0.66238000  0.24031000  0.28182000  1.0
  C  C67  1  0.16240000  0.28182000  0.24032000  1.0
  O  O68  1  0.48254000  0.67302000  0.13077000  1.0
  O  O69  1  0.98254000  0.13077000  0.67302000  1.0
  O  O70  1  0.43338000  0.84628000  0.07558000  1.0
  O  O71  1  0.93337000  0.07557000  0.84627000  1.0
  O  O72  1  0.66454000  0.54053000  0.87439000  1.0
  O  O73  1  0.16454000  0.87439000  0.54052000  1.0
  O  O74  1  0.69218000  0.71038000  0.99074000  1.0
  O  O75  1  0.19218000  0.99074000  0.71036000  1.0
  O  O76  1  0.87899000  0.73154000  0.25547000  1.0
  O  O77  1  0.37896000  0.25546000  0.73153000  1.0
  O  O78  1  0.75578000  0.52674000  0.17892000  1.0
  O  O79  1  0.25578000  0.17891000  0.52673000  1.0
  O  O80  1  0.02963000  0.98926000  0.31256000  1.0
  O  O81  1  0.52963000  0.31255000  0.98926000  1.0
  O  O82  1  0.04559000  0.92357000  0.13398000  1.0
  O  O83  1  0.54557000  0.13398000  0.92356000  1.0
  O  O84  1  0.71904000  0.86864000  0.35696000  1.0
  O  O85  1  0.21902000  0.35696000  0.86864000  1.0
  O  O86  1  0.79392000  0.85391000  0.55918000  1.0
  O  O87  1  0.29392000  0.55917000  0.85389000  1.0
  O  O88  1  0.85344000  0.14193000  0.41076000  1.0
  O  O89  1  0.35346000  0.41076000  0.14193000  1.0
  O  O90  1  0.71507000  0.06072000  0.20690000  1.0
  O  O91  1  0.21506000  0.20689000  0.06072000  1.0
  O  O92  1  0.72928000  0.97554000  0.98356000  1.0
  O  O93  1  0.22925000  0.98357000  0.97553000  1.0
