# generated using pymatgen
data_ZnH20C19(NO)4
_symmetry_space_group_name_H-M   'P 1'
_cell_length_a   10.38910000
_cell_length_b   13.73920000
_cell_length_c   14.24530000
_cell_angle_alpha   89.99940000
_cell_angle_beta   76.86200000
_cell_angle_gamma   89.99970000
_symmetry_Int_Tables_number   1
_chemical_formula_structural   ZnH20C19(NO)4
_chemical_formula_sum   'Zn4 H80 C76 N16 O16'
_cell_volume   1980.12261621
_cell_formula_units_Z   4
loop_
 _symmetry_equiv_pos_site_id
 _symmetry_equiv_pos_as_xyz
  1  'x, y, z'
loop_
 _atom_site_type_symbol
 _atom_site_label
 _atom_site_symmetry_multiplicity
 _atom_site_fract_x
 _atom_site_fract_y
 _atom_site_fract_z
 _atom_site_occupancy
  Zn  Zn0  1  0.75201000  0.31128000  0.97680000  1.0
  Zn  Zn1  1  0.24799000  0.81128000  0.52320000  1.0
  Zn  Zn2  1  0.24799000  0.68872000  0.02320000  1.0
  Zn  Zn3  1  0.75201000  0.18872000  0.47681000  1.0
  H  H4  1  0.37015000  0.15691000  0.02218000  1.0
  H  H5  1  0.62985000  0.65690000  0.47782000  1.0
  H  H6  1  0.62985000  0.84310000  0.97782000  1.0
  H  H7  1  0.37015000  0.34309000  0.52218000  1.0
  H  H8  1  0.39406000  0.16597000  0.89612000  1.0
  H  H9  1  0.60595000  0.66596000  0.60388000  1.0
  H  H10  1  0.60594000  0.83404000  0.10388000  1.0
  H  H11  1  0.39405000  0.33403000  0.39612000  1.0
  H  H12  1  0.25858000  0.31680000  0.91177000  1.0
  H  H13  1  0.74141000  0.81678000  0.58823000  1.0
  H  H14  1  0.74141000  0.68321000  0.08823000  1.0
  H  H15  1  0.25858000  0.18321000  0.41177000  1.0
  H  H16  1  0.24463000  0.31940000  0.03630000  1.0
  H  H17  1  0.75537000  0.81940000  0.46370000  1.0
  H  H18  1  0.75536000  0.68061000  0.96370000  1.0
  H  H19  1  0.24463000  0.18060000  0.53629000  1.0
  H  H20  1  0.11325000  0.16661000  0.05775000  1.0
  H  H21  1  0.88675000  0.66660000  0.44226000  1.0
  H  H22  1  0.88675000  0.83340000  0.94226000  1.0
  H  H23  1  0.11325000  0.33333333  0.55775000  1.0
  H  H24  1  0.13535000  0.15310000  0.93227000  1.0
  H  H25  1  0.86467000  0.65310000  0.56774000  1.0
  H  H26  1  0.86466000  0.84690000  0.06774000  1.0
  H  H27  1  0.13534000  0.34690000  0.43227000  1.0
  H  H28  1  0.71259000  0.33989000  0.76334000  1.0
  H  H29  1  0.28742000  0.83989000  0.73666000  1.0
  H  H30  1  0.28740000  0.66011000  0.23666000  1.0
  H  H31  1  0.71258000  0.16011000  0.26334000  1.0
  H  H32  1  0.82497000  0.49703000  0.64961000  1.0
  H  H33  1  0.17504000  0.99704000  0.85038000  1.0
  H  H34  1  0.17502000  0.50297000  0.35038000  1.0
  H  H35  1  0.82497000  0.00297000  0.14962000  1.0
  H  H36  1  0.91112000  0.51966000  0.92579000  1.0
  H  H37  1  0.08887000  0.01966000  0.57421000  1.0
  H  H38  1  0.08888000  0.48034000  0.07420000  1.0
  H  H39  1  0.91113000  0.98034000  0.42579000  1.0
  H  H40  1  0.00765000  0.62879000  0.68309000  1.0
  H  H41  1  0.99236000  0.12879000  0.81692000  1.0
  H  H42  1  0.99235000  0.37121000  0.31691000  1.0
  H  H43  1  0.00764000  0.87121000  0.18308000  1.0
  H  H44  1  0.00699000  0.64452000  0.80732000  1.0
  H  H45  1  0.99301000  0.14452000  0.69268000  1.0
  H  H46  1  0.99301000  0.35548000  0.19268000  1.0
  H  H47  1  0.00699000  0.85548000  0.30731000  1.0
  H  H48  1  0.98813000  0.82048000  0.72442000  1.0
  H  H49  1  0.01187000  0.32048000  0.77558000  1.0
  H  H50  1  0.01187000  0.17951000  0.27556000  1.0
  H  H51  1  0.98813000  0.67952000  0.22443000  1.0
  H  H52  1  0.82795000  0.95384000  0.73282000  1.0
  H  H53  1  0.17205000  0.45384000  0.76718000  1.0
  H  H54  1  0.17205000  0.04615000  0.26716000  1.0
  H  H55  1  0.82795000  0.54616000  0.23283000  1.0
  H  H56  1  0.50802000  0.74850000  0.81331000  1.0
  H  H57  1  0.49198000  0.24850000  0.68669000  1.0
  H  H58  1  0.49197000  0.25150000  0.18670000  1.0
  H  H59  1  0.50802000  0.75150000  0.31330000  1.0
  H  H60  1  0.66804000  0.61573000  0.80605000  1.0
  H  H61  1  0.33196000  0.11573000  0.69395000  1.0
  H  H62  1  0.33195000  0.38427000  0.19396000  1.0
  H  H63  1  0.66804000  0.88427000  0.30605000  1.0
  H  H64  1  0.47562000  0.91439000  0.74339000  1.0
  H  H65  1  0.52437000  0.41439000  0.75663000  1.0
  H  H66  1  0.52438000  0.08561000  0.25661000  1.0
  H  H67  1  0.47563000  0.58561000  0.24338000  1.0
  H  H68  1  0.50700000  0.95964000  0.85275000  1.0
  H  H69  1  0.49301000  0.45964000  0.64726000  1.0
  H  H70  1  0.49300000  0.04036000  0.14725000  1.0
  H  H71  1  0.50700000  0.54036000  0.35274000  1.0
  H  H72  1  0.78778000  0.22506000  0.68636000  1.0
  H  H73  1  0.21223000  0.72506000  0.81364000  1.0
  H  H74  1  0.21222000  0.77494000  0.31364000  1.0
  H  H75  1  0.78778000  0.27494000  0.18636000  1.0
  H  H76  1  0.66986000  0.10777000  0.84194000  1.0
  H  H77  1  0.33015000  0.60778000  0.65807000  1.0
  H  H78  1  0.33014000  0.89222000  0.15806000  1.0
  H  H79  1  0.66987000  0.39223000  0.34193000  1.0
  H  H80  1  0.58630000  0.99505000  0.58405000  1.0
  H  H81  1  0.41369000  0.49504000  0.91597000  1.0
  H  H82  1  0.41370000  0.00495000  0.41595000  1.0
  H  H83  1  0.58631000  0.50496000  0.08404000  1.0
  C  C84  1  0.50164000  0.27006000  0.95858000  1.0
  C  C85  1  0.49836000  0.77005000  0.54142000  1.0
  C  C86  1  0.49836000  0.72995000  0.04142000  1.0
  C  C87  1  0.50163000  0.22994000  0.45858000  1.0
  C  C88  1  0.37762000  0.20953000  0.96291000  1.0
  C  C89  1  0.62238000  0.70953000  0.53709000  1.0
  C  C90  1  0.62238000  0.79048000  0.03709000  1.0
  C  C91  1  0.37762000  0.29047000  0.46291000  1.0
  C  C92  1  0.25206000  0.26990000  0.97493000  1.0
  C  C93  1  0.74795000  0.76989000  0.52507000  1.0
  C  C94  1  0.74794000  0.73011000  0.02507000  1.0
  C  C95  1  0.25205000  0.23011000  0.47493000  1.0
  C  C96  1  0.12751000  0.20783000  0.98960000  1.0
  C  C97  1  0.87250000  0.70782000  0.51040000  1.0
  C  C98  1  0.87249000  0.79218000  0.01040000  1.0
  C  C99  1  0.12750000  0.29217000  0.48960000  1.0
  C  C100  1  0.00247000  0.26718000  0.99395000  1.0
  C  C101  1  0.99754000  0.76718000  0.50604000  1.0
  C  C102  1  0.99753000  0.73282000  0.00604000  1.0
  C  C103  1  0.00246000  0.23282000  0.49396000  1.0
  C  C104  1  0.77173000  0.39970000  0.77941000  1.0
  C  C105  1  0.22827000  0.89970000  0.72059000  1.0
  C  C106  1  0.22826000  0.60030000  0.22059000  1.0
  C  C107  1  0.77173000  0.10030000  0.27941000  1.0
  C  C108  1  0.82541000  0.47714000  0.72313000  1.0
  C  C109  1  0.17459000  0.97714000  0.77687000  1.0
  C  C110  1  0.17458000  0.52286000  0.27687000  1.0
  C  C111  1  0.82541000  0.02286000  0.22313000  1.0
  C  C112  1  0.87187000  0.48952000  0.86738000  1.0
  C  C113  1  0.12813000  0.98952000  0.63262000  1.0
  C  C114  1  0.12813000  0.51048000  0.13261000  1.0
  C  C115  1  0.87187000  0.01048000  0.36738000  1.0
  C  C116  1  0.94416000  0.62973000  0.75648000  1.0
  C  C117  1  0.05584000  0.12973000  0.74351000  1.0
  C  C118  1  0.05584000  0.37027000  0.24351000  1.0
  C  C119  1  0.94416000  0.87027000  0.25648000  1.0
  C  C120  1  0.84027000  0.70847000  0.76415000  1.0
  C  C121  1  0.15973000  0.20847000  0.73585000  1.0
  C  C122  1  0.15973000  0.29153000  0.23585000  1.0
  C  C123  1  0.84027000  0.79153000  0.26415000  1.0
  C  C124  1  0.88270000  0.80455000  0.74506000  1.0
  C  C125  1  0.11730000  0.30455000  0.75494000  1.0
  C  C126  1  0.11730000  0.19544000  0.25493000  1.0
  C  C127  1  0.88270000  0.69545000  0.24506000  1.0
  C  C128  1  0.79182000  0.88001000  0.75002000  1.0
  C  C129  1  0.20818000  0.38001000  0.74998000  1.0
  C  C130  1  0.20818000  0.11999000  0.24997000  1.0
  C  C131  1  0.79182000  0.61999000  0.25003000  1.0
  C  C132  1  0.65595000  0.86094000  0.77413000  1.0
  C  C133  1  0.34405000  0.36094000  0.72588000  1.0
  C  C134  1  0.34405000  0.13906000  0.22587000  1.0
  C  C135  1  0.65595000  0.63906000  0.27413000  1.0
  C  C136  1  0.61344000  0.76503000  0.79403000  1.0
  C  C137  1  0.38656000  0.26503000  0.70597000  1.0
  C  C138  1  0.38656000  0.23497000  0.20597000  1.0
  C  C139  1  0.61344000  0.73497000  0.29403000  1.0
  C  C140  1  0.70444000  0.68959000  0.78939000  1.0
  C  C141  1  0.29556000  0.18959000  0.71061000  1.0
  C  C142  1  0.29556000  0.31041000  0.21061000  1.0
  C  C143  1  0.70444000  0.81042000  0.28939000  1.0
  C  C144  1  0.55362000  0.94024000  0.77775000  1.0
  C  C145  1  0.44638000  0.44024000  0.72226000  1.0
  C  C146  1  0.44638000  0.05976000  0.22224000  1.0
  C  C147  1  0.55363000  0.55976000  0.27775000  1.0
  C  C148  1  0.72702000  0.16073000  0.68894000  1.0
  C  C149  1  0.27299000  0.66073000  0.81106000  1.0
  C  C150  1  0.27298000  0.83927000  0.31106000  1.0
  C  C151  1  0.72702000  0.33927000  0.18894000  1.0
  C  C152  1  0.67260000  0.10179000  0.76546000  1.0
  C  C153  1  0.32740000  0.60180000  0.73455000  1.0
  C  C154  1  0.32740000  0.89820000  0.23455000  1.0
  C  C155  1  0.67261000  0.39821000  0.26545000  1.0
  C  C156  1  0.62500000  0.04391000  0.63124000  1.0
  C  C157  1  0.37499000  0.54391000  0.86877000  1.0
  C  C158  1  0.37500000  0.95609000  0.36876000  1.0
  C  C159  1  0.62501000  0.45609000  0.13123000  1.0
  N  N160  1  0.80215000  0.40789000  0.86849000  1.0
  N  N161  1  0.19785000  0.90789000  0.63151000  1.0
  N  N162  1  0.19784000  0.59211000  0.13151000  1.0
  N  N163  1  0.80215000  0.09211000  0.36849000  1.0
  N  N164  1  0.88806000  0.53326000  0.77998000  1.0
  N  N165  1  0.11194000  0.03326000  0.72002000  1.0
  N  N166  1  0.11194000  0.46674000  0.22002000  1.0
  N  N167  1  0.88806000  0.96674000  0.27998000  1.0
  N  N168  1  0.69592000  0.12445000  0.60646000  1.0
  N  N169  1  0.30408000  0.62445000  0.89354000  1.0
  N  N170  1  0.30408000  0.87555000  0.39354000  1.0
  N  N171  1  0.69593000  0.37555000  0.10646000  1.0
  N  N172  1  0.60853000  0.02839000  0.72757000  1.0
  N  N173  1  0.39147000  0.52839000  0.77244000  1.0
  N  N174  1  0.39147000  0.97161000  0.27243000  1.0
  N  N175  1  0.60854000  0.47161000  0.22757000  1.0
  O  O176  1  0.60728000  0.22046000  0.96324000  1.0
  O  O177  1  0.39272000  0.72045000  0.53676000  1.0
  O  O178  1  0.39271000  0.77955000  0.03676000  1.0
  O  O179  1  0.60728000  0.27954000  0.46324000  1.0
  O  O180  1  0.50006000  0.36082000  0.95128000  1.0
  O  O181  1  0.49994000  0.86081000  0.54874000  1.0
  O  O182  1  0.49993000  0.63920000  0.04873000  1.0
  O  O183  1  0.50006000  0.13918000  0.45127000  1.0
  O  O184  1  0.99673000  0.35481000  0.01899000  1.0
  O  O185  1  0.00328000  0.85480000  0.48099000  1.0
  O  O186  1  0.00327000  0.64520000  0.98100000  1.0
  O  O187  1  0.99672000  0.14519000  0.51900000  1.0
  O  O188  1  0.90419000  0.22049000  0.97169000  1.0
  O  O189  1  0.09582000  0.72049000  0.52831000  1.0
  O  O190  1  0.09581000  0.77951000  0.02831000  1.0
  O  O191  1  0.90418000  0.27951000  0.47169000  1.0
