# generated using pymatgen
data_ZnH15C20(NO2)3
_symmetry_space_group_name_H-M   'P 1'
_cell_length_a   9.04025000
_cell_length_b   15.04120000
_cell_length_c   16.17200000
_cell_angle_alpha   92.64310000
_cell_angle_beta   90.00000000
_cell_angle_gamma   89.99990000
_symmetry_Int_Tables_number   1
_chemical_formula_structural   ZnH15C20(NO2)3
_chemical_formula_sum   'Zn4 H60 C80 N12 O24'
_cell_volume   2196.66785633
_cell_formula_units_Z   4
loop_
 _symmetry_equiv_pos_site_id
 _symmetry_equiv_pos_as_xyz
  1  'x, y, z'
loop_
 _atom_site_type_symbol
 _atom_site_label
 _atom_site_symmetry_multiplicity
 _atom_site_fract_x
 _atom_site_fract_y
 _atom_site_fract_z
 _atom_site_occupancy
  Zn  Zn0  1  0.92363000  0.25000000  0.25000000  1.0
  Zn  Zn1  1  0.07637000  0.75000000  0.75000000  1.0
  Zn  Zn2  1  0.63191000  0.25000000  0.75000000  1.0
  Zn  Zn3  1  0.36808000  0.75000000  0.25000000  1.0
  H  H4  1  0.28486000  0.28454000  0.49778000  1.0
  H  H5  1  0.28486000  0.21546000  0.00221000  1.0
  H  H6  1  0.71514000  0.71546000  0.50222000  1.0
  H  H7  1  0.71515000  0.78454000  0.99779000  1.0
  H  H8  1  0.40821000  0.03791000  0.60359000  1.0
  H  H9  1  0.40820000  0.46210000  0.89641000  1.0
  H  H10  1  0.59181000  0.96210000  0.39641000  1.0
  H  H11  1  0.59180000  0.53791000  0.10359000  1.0
  H  H12  1  0.10439000  0.03798000  0.39707000  1.0
  H  H13  1  0.10439000  0.46202000  0.10293000  1.0
  H  H14  1  0.89561000  0.96202000  0.60293000  1.0
  H  H15  1  0.89561000  0.53798000  0.89707000  1.0
  H  H16  1  0.75180000  0.23573000  0.39892000  1.0
  H  H17  1  0.75181000  0.26426000  0.10108000  1.0
  H  H18  1  0.24820000  0.76427000  0.60109000  1.0
  H  H19  1  0.24820000  0.73573000  0.89891000  1.0
  H  H20  1  0.56867000  0.32283000  0.48401000  1.0
  H  H21  1  0.56867000  0.17717000  0.01598000  1.0
  H  H22  1  0.43133000  0.67717000  0.51599000  1.0
  H  H23  1  0.43133000  0.82283000  0.98401000  1.0
  H  H24  1  0.60963000  0.53306000  0.31187000  1.0
  H  H25  1  0.60962000  0.96694000  0.18812000  1.0
  H  H26  1  0.39037000  0.46694000  0.68812000  1.0
  H  H27  1  0.39037000  0.03306000  0.81188000  1.0
  H  H28  1  0.79155000  0.43572000  0.23177000  1.0
  H  H29  1  0.79155000  0.06427000  0.26822000  1.0
  H  H30  1  0.20845000  0.56428000  0.76822000  1.0
  H  H31  1  0.20845000  0.93572000  0.73178000  1.0
  H  H32  1  0.36327000  0.45280000  0.46244000  1.0
  H  H33  1  0.36327000  0.04720000  0.03756000  1.0
  H  H34  1  0.63673000  0.54720000  0.53756000  1.0
  H  H35  1  0.63673000  0.95280000  0.96244000  1.0
  H  H36  1  0.44246000  0.55212000  0.42650000  1.0
  H  H37  1  0.44246000  0.94788000  0.07350000  1.0
  H  H38  1  0.55754000  0.44788000  0.57350000  1.0
  H  H39  1  0.55754000  0.05212000  0.92650000  1.0
  H  H40  1  0.14930000  0.02601000  0.96321000  1.0
  H  H41  1  0.14930000  0.47399000  0.53679000  1.0
  H  H42  1  0.85071000  0.97400000  0.03679000  1.0
  H  H43  1  0.85070000  0.52601000  0.46321000  1.0
  H  H44  1  0.04256000  0.93145000  0.93024000  1.0
  H  H45  1  0.04256000  0.56855000  0.56976000  1.0
  H  H46  1  0.95744000  0.06855000  0.06976000  1.0
  H  H47  1  0.95744000  0.43145000  0.43024000  1.0
  H  H48  1  0.86701000  0.94908000  0.81933000  1.0
  H  H49  1  0.86700000  0.55093000  0.68067000  1.0
  H  H50  1  0.13300000  0.05092000  0.18067000  1.0
  H  H51  1  0.13300000  0.44908000  0.31933000  1.0
  H  H52  1  0.71170000  0.05182000  0.73630000  1.0
  H  H53  1  0.71170000  0.44818000  0.76370000  1.0
  H  H54  1  0.28830000  0.94818000  0.26370000  1.0
  H  H55  1  0.28831000  0.55182000  0.23630000  1.0
  H  H56  1  0.84827000  0.27257000  0.87954000  1.0
  H  H57  1  0.84826000  0.22743000  0.62046000  1.0
  H  H58  1  0.15173000  0.72743000  0.12046000  1.0
  H  H59  1  0.15174000  0.77257000  0.37954000  1.0
  H  H60  1  0.00668000  0.18026000  0.96776000  1.0
  H  H61  1  0.00667000  0.31975000  0.53223000  1.0
  H  H62  1  0.99332000  0.81975000  0.03223000  1.0
  H  H63  1  0.99333000  0.68025000  0.46777000  1.0
  C  C64  1  0.18684000  0.16677000  0.44034000  1.0
  C  C65  1  0.18684000  0.33322000  0.05965000  1.0
  C  C66  1  0.81316000  0.83323000  0.55966000  1.0
  C  C67  1  0.81316000  0.66677000  0.94034000  1.0
  C  C68  1  0.27704000  0.21233000  0.49828000  1.0
  C  C69  1  0.27704000  0.28767000  0.00171000  1.0
  C  C70  1  0.72296000  0.78767000  0.50172000  1.0
  C  C71  1  0.72296000  0.71233000  0.99829000  1.0
  C  C72  1  0.35698000  0.16688000  0.55708000  1.0
  C  C73  1  0.35696000  0.33311000  0.94291000  1.0
  C  C74  1  0.64303000  0.83312000  0.44292000  1.0
  C  C75  1  0.64303000  0.66688000  0.05708000  1.0
  C  C76  1  0.34683000  0.07432000  0.55821000  1.0
  C  C77  1  0.34682000  0.42568000  0.94178000  1.0
  C  C78  1  0.65318000  0.92568000  0.44179000  1.0
  C  C79  1  0.65318000  0.57432000  0.05821000  1.0
  C  C80  1  0.25515000  0.02995000  0.50052000  1.0
  C  C81  1  0.25514000  0.47005000  0.99948000  1.0
  C  C82  1  0.74486000  0.97005000  0.49948000  1.0
  C  C83  1  0.74485000  0.52995000  0.00052000  1.0
  C  C84  1  0.17492000  0.07430000  0.44139000  1.0
  C  C85  1  0.17491000  0.42570000  0.05861000  1.0
  C  C86  1  0.82509000  0.92570000  0.55861000  1.0
  C  C87  1  0.82508000  0.57430000  0.94139000  1.0
  C  C88  1  0.10194000  0.21840000  0.37869000  1.0
  C  C89  1  0.10194000  0.28160000  0.12131000  1.0
  C  C90  1  0.89806000  0.78160000  0.62132000  1.0
  C  C91  1  0.89806000  0.71840000  0.87869000  1.0
  C  C92  1  0.45157000  0.21875000  0.61870000  1.0
  C  C93  1  0.45157000  0.28125000  0.88129000  1.0
  C  C94  1  0.54843000  0.78125000  0.38130000  1.0
  C  C95  1  0.54843000  0.71875000  0.11870000  1.0
  C  C96  1  0.71692000  0.30159000  0.38122000  1.0
  C  C97  1  0.71692000  0.19840000  0.11877000  1.0
  C  C98  1  0.28308000  0.69840000  0.61878000  1.0
  C  C99  1  0.28308000  0.80159000  0.88122000  1.0
  C  C100  1  0.61456000  0.35022000  0.42817000  1.0
  C  C101  1  0.61456000  0.14978000  0.07183000  1.0
  C  C102  1  0.38545000  0.64978000  0.57183000  1.0
  C  C103  1  0.38545000  0.85022000  0.92817000  1.0
  C  C104  1  0.57296000  0.43494000  0.40395000  1.0
  C  C105  1  0.57295000  0.06506000  0.09605000  1.0
  C  C106  1  0.42705000  0.56506000  0.59605000  1.0
  C  C107  1  0.42704000  0.93494000  0.90395000  1.0
  C  C108  1  0.63699000  0.46679000  0.33212000  1.0
  C  C109  1  0.63698000  0.03321000  0.16788000  1.0
  C  C110  1  0.36301000  0.53321000  0.66788000  1.0
  C  C111  1  0.36301000  0.96679000  0.83212000  1.0
  C  C112  1  0.73836000  0.41372000  0.28787000  1.0
  C  C113  1  0.73836000  0.08628000  0.21213000  1.0
  C  C114  1  0.26164000  0.58628000  0.71213000  1.0
  C  C115  1  0.26163000  0.91372000  0.78787000  1.0
  C  C116  1  0.46757000  0.48984000  0.45637000  1.0
  C  C117  1  0.46756000  0.01015000  0.04363000  1.0
  C  C118  1  0.53243000  0.51015000  0.54363000  1.0
  C  C119  1  0.53243000  0.98984000  0.95637000  1.0
  C  C120  1  0.03610000  0.99983000  0.95663000  1.0
  C  C121  1  0.03609000  0.50017000  0.54337000  1.0
  C  C122  1  0.96391000  0.00017000  0.04337000  1.0
  C  C123  1  0.96391000  0.49983000  0.45663000  1.0
  C  C124  1  0.94957000  0.05685000  0.90045000  1.0
  C  C125  1  0.94957000  0.44315000  0.59956000  1.0
  C  C126  1  0.05043000  0.94315000  0.09956000  1.0
  C  C127  1  0.05043000  0.55685000  0.40044000  1.0
  C  C128  1  0.86649000  0.02067000  0.83384000  1.0
  C  C129  1  0.86648000  0.47933000  0.66616000  1.0
  C  C130  1  0.13351000  0.97933000  0.16616000  1.0
  C  C131  1  0.13351000  0.52067000  0.33384000  1.0
  C  C132  1  0.78051000  0.07696000  0.78765000  1.0
  C  C133  1  0.78051000  0.42304000  0.71235000  1.0
  C  C134  1  0.21949000  0.92304000  0.21235000  1.0
  C  C135  1  0.21949000  0.57696000  0.28765000  1.0
  C  C136  1  0.85672000  0.20087000  0.86742000  1.0
  C  C137  1  0.85672000  0.29913000  0.63258000  1.0
  C  C138  1  0.14328000  0.79914000  0.13258000  1.0
  C  C139  1  0.14328000  0.70087000  0.36742000  1.0
  C  C140  1  0.94444000  0.14916000  0.91635000  1.0
  C  C141  1  0.94443000  0.35085000  0.58365000  1.0
  C  C142  1  0.05557000  0.85085000  0.08365000  1.0
  C  C143  1  0.05556000  0.64916000  0.41635000  1.0
  N  N144  1  0.24086000  0.93313000  0.50283000  1.0
  N  N145  1  0.24085000  0.56687000  0.99717000  1.0
  N  N146  1  0.75915000  0.06687000  0.49717000  1.0
  N  N147  1  0.75915000  0.43313000  0.00283000  1.0
  N  N148  1  0.77802000  0.33264000  0.31215000  1.0
  N  N149  1  0.77802000  0.16736000  0.18785000  1.0
  N  N150  1  0.22198000  0.66736000  0.68785000  1.0
  N  N151  1  0.22198000  0.83264000  0.81215000  1.0
  N  N152  1  0.77480000  0.16546000  0.80448000  1.0
  N  N153  1  0.77480000  0.33454000  0.69552000  1.0
  N  N154  1  0.22520000  0.83455000  0.19552000  1.0
  N  N155  1  0.22520000  0.66546000  0.30448000  1.0
  O  O156  1  0.02221000  0.17089000  0.32640000  1.0
  O  O157  1  0.02221000  0.32911000  0.17360000  1.0
  O  O158  1  0.97778000  0.82911000  0.67361000  1.0
  O  O159  1  0.97779000  0.67089000  0.82640000  1.0
  O  O160  1  0.11042000  0.30147000  0.38076000  1.0
  O  O161  1  0.11042000  0.19853000  0.11924000  1.0
  O  O162  1  0.88958000  0.69853000  0.61924000  1.0
  O  O163  1  0.88959000  0.80147000  0.88076000  1.0
  O  O164  1  0.45441000  0.30186000  0.61827000  1.0
  O  O165  1  0.45440000  0.19814000  0.88172000  1.0
  O  O166  1  0.54558000  0.69814000  0.38173000  1.0
  O  O167  1  0.54559000  0.80186000  0.11827000  1.0
  O  O168  1  0.52548000  0.17120000  0.66959000  1.0
  O  O169  1  0.52548000  0.32879000  0.83041000  1.0
  O  O170  1  0.47452000  0.82880000  0.33041000  1.0
  O  O171  1  0.47452000  0.67120000  0.16959000  1.0
  O  O172  1  0.32552000  0.89313000  0.54900000  1.0
  O  O173  1  0.32552000  0.60686000  0.95100000  1.0
  O  O174  1  0.67448000  0.10687000  0.45100000  1.0
  O  O175  1  0.67448000  0.39313000  0.04900000  1.0
  O  O176  1  0.14397000  0.89597000  0.45892000  1.0
  O  O177  1  0.14397000  0.60403000  0.04108000  1.0
  O  O178  1  0.85604000  0.10403000  0.54108000  1.0
  O  O179  1  0.85603000  0.39597000  0.95892000  1.0
