# generated using pymatgen
data_CuH9C9N2ClO2
_symmetry_space_group_name_H-M   'P 1'
_cell_length_a   7.73201000
_cell_length_b   9.83404000
_cell_length_c   13.44610000
_cell_angle_alpha   89.99980000
_cell_angle_beta   104.88300000
_cell_angle_gamma   89.97750000
_symmetry_Int_Tables_number   1
_chemical_formula_structural   CuH9C9N2ClO2
_chemical_formula_sum   'Cu4 H36 C36 N8 Cl4 O8'
_cell_volume   988.10049205
_cell_formula_units_Z   4
loop_
 _symmetry_equiv_pos_site_id
 _symmetry_equiv_pos_as_xyz
  1  'x, y, z'
loop_
 _atom_site_type_symbol
 _atom_site_label
 _atom_site_symmetry_multiplicity
 _atom_site_fract_x
 _atom_site_fract_y
 _atom_site_fract_z
 _atom_site_occupancy
  Cu  Cu0  1  0.69958000  0.62347000  0.31139000  1.0
  Cu  Cu1  1  0.30034000  0.12346000  0.18861000  1.0
  Cu  Cu2  1  0.30056000  0.37649000  0.68859000  1.0
  Cu  Cu3  1  0.69948000  0.87651000  0.81138000  1.0
  H  H4  1  0.65993000  0.63309000  0.59103000  1.0
  H  H5  1  0.34011000  0.13302000  0.90896000  1.0
  H  H6  1  0.34005000  0.36693000  0.40896000  1.0
  H  H7  1  0.65987000  0.86701000  0.09103000  1.0
  H  H8  1  0.57820000  0.84749000  0.52724000  1.0
  H  H9  1  0.42185000  0.34745000  0.97276000  1.0
  H  H10  1  0.42183000  0.15248000  0.47274000  1.0
  H  H11  1  0.57831000  0.65259000  0.02729000  1.0
  H  H12  1  0.42311000  0.81577000  0.40526000  1.0
  H  H13  1  0.57680000  0.31557000  0.09477000  1.0
  H  H14  1  0.57695000  0.18415000  0.59470000  1.0
  H  H15  1  0.42313000  0.68443000  0.90535000  1.0
  H  H16  1  0.79554000  0.39862000  0.65224000  1.0
  H  H17  1  0.20454000  0.89869000  0.84778000  1.0
  H  H18  1  0.20448000  0.60139000  0.34781000  1.0
  H  H19  1  0.79554000  0.10137000  0.15220000  1.0
  H  H20  1  0.87072000  0.33602000  0.30209000  1.0
  H  H21  1  0.12928000  0.83618000  0.19792000  1.0
  H  H22  1  0.12937000  0.66395000  0.69798000  1.0
  H  H23  1  0.87050000  0.16386000  0.80200000  1.0
  H  H24  1  0.93058000  0.17885000  0.60996000  1.0
  H  H25  1  0.06958000  0.67895000  0.89008000  1.0
  H  H26  1  0.06941000  0.82114000  0.39011000  1.0
  H  H27  1  0.93063000  0.32103000  0.10988000  1.0
  H  H28  1  0.96751000  0.14871000  0.42877000  1.0
  H  H29  1  0.03260000  0.64886000  0.07127000  1.0
  H  H30  1  0.03253000  0.85125000  0.57130000  1.0
  H  H31  1  0.96742000  0.35113000  0.92865000  1.0
  H  H32  1  0.60329000  0.03121000  0.40998000  1.0
  H  H33  1  0.39658000  0.53116000  0.09000000  1.0
  H  H34  1  0.39660000  0.96875000  0.58998000  1.0
  H  H35  1  0.60337000  0.46887000  0.91003000  1.0
  H  H36  1  0.79915000  0.93150000  0.42989000  1.0
  H  H37  1  0.20075000  0.43152000  0.07011000  1.0
  H  H38  1  0.20085000  0.06861000  0.57017000  1.0
  H  H39  1  0.79917000  0.56853000  0.92980000  1.0
  C  C40  1  0.76363000  0.47780000  0.49984000  1.0
  C  C41  1  0.23638000  0.97786000  0.00016000  1.0
  C  C42  1  0.23641000  0.52219000  0.50019000  1.0
  C  C43  1  0.76352000  0.02219000  0.99980000  1.0
  C  C44  1  0.62100000  0.91585000  0.27949000  1.0
  C  C45  1  0.37897000  0.41580000  0.22049000  1.0
  C  C46  1  0.37916000  0.08419000  0.72052000  1.0
  C  C47  1  0.62084000  0.58421000  0.77947000  1.0
  C  C48  1  0.68446000  0.60796000  0.51609000  1.0
  C  C49  1  0.31552000  0.10796000  0.98389000  1.0
  C  C50  1  0.31559000  0.39204000  0.48392000  1.0
  C  C51  1  0.68440000  0.89210000  0.01609000  1.0
  C  C52  1  0.56593000  0.82183000  0.44602000  1.0
  C  C53  1  0.43401000  0.32174000  0.05396000  1.0
  C  C54  1  0.43411000  0.17813000  0.55397000  1.0
  C  C55  1  0.56598000  0.67828000  0.94607000  1.0
  C  C56  1  0.81579000  0.37923000  0.57623000  1.0
  C  C57  1  0.18425000  0.87932000  0.92377000  1.0
  C  C58  1  0.18421000  0.62075000  0.42382000  1.0
  C  C59  1  0.81577000  0.12074000  0.07619000  1.0
  C  C60  1  0.85499000  0.34372000  0.38012000  1.0
  C  C61  1  0.14502000  0.84386000  0.11989000  1.0
  C  C62  1  0.14506000  0.65623000  0.61993000  1.0
  C  C63  1  0.85486000  0.15618000  0.88005000  1.0
  C  C64  1  0.89050000  0.25829000  0.55191000  1.0
  C  C65  1  0.10959000  0.75843000  0.94812000  1.0
  C  C66  1  0.10949000  0.74170000  0.44815000  1.0
  C  C67  1  0.89049000  0.24160000  0.05184000  1.0
  C  C68  1  0.90866000  0.23993000  0.45240000  1.0
  C  C69  1  0.09140000  0.74006000  0.04763000  1.0
  C  C70  1  0.09139000  0.76004000  0.54765000  1.0
  C  C71  1  0.90858000  0.25995000  0.95232000  1.0
  C  C72  1  0.65379000  0.93115000  0.39533000  1.0
  C  C73  1  0.34614000  0.43112000  0.10464000  1.0
  C  C74  1  0.34623000  0.06885000  0.60466000  1.0
  C  C75  1  0.65378000  0.56892000  0.89534000  1.0
  N  N76  1  0.78530000  0.45992000  0.40345000  1.0
  N  N77  1  0.21473000  0.96004000  0.09657000  1.0
  N  N78  1  0.21474000  0.54005000  0.59657000  1.0
  N  N79  1  0.78516000  0.04003000  0.90340000  1.0
  N  N80  1  0.64632000  0.69032000  0.43923000  1.0
  N  N81  1  0.35360000  0.19032000  0.06072000  1.0
  N  N82  1  0.35380000  0.30965000  0.56077000  1.0
  N  N83  1  0.64632000  0.80973000  0.93925000  1.0
  Cl  Cl84  1  0.82618000  0.55096000  0.18561000  1.0
  Cl  Cl85  1  0.17378000  0.05107000  0.31440000  1.0
  Cl  Cl86  1  0.17379000  0.44884000  0.81438000  1.0
  Cl  Cl87  1  0.82622000  0.94886000  0.68563000  1.0
  O  O88  1  0.58619000  0.02045000  0.22408000  1.0
  O  O89  1  0.41392000  0.52032000  0.27594000  1.0
  O  O90  1  0.41390000  0.97957000  0.77592000  1.0
  O  O91  1  0.58604000  0.47964000  0.72408000  1.0
  O  O92  1  0.63004000  0.79719000  0.23929000  1.0
  O  O93  1  0.36985000  0.29714000  0.26068000  1.0
  O  O94  1  0.37030000  0.20280000  0.76073000  1.0
  O  O95  1  0.62985000  0.70285000  0.73927000  1.0
