# generated using pymatgen
data_MnH12C7O5
_symmetry_space_group_name_H-M   'P 1'
_cell_length_a   6.79985000
_cell_length_b   10.79590000
_cell_length_c   12.90170000
_cell_angle_alpha   90.00040000
_cell_angle_beta   105.28900000
_cell_angle_gamma   89.99950000
_symmetry_Int_Tables_number   1
_chemical_formula_structural   MnH12C7O5
_chemical_formula_sum   'Mn4 H48 C28 O20'
_cell_volume   913.59983311
_cell_formula_units_Z   4
loop_
 _symmetry_equiv_pos_site_id
 _symmetry_equiv_pos_as_xyz
  1  'x, y, z'
loop_
 _atom_site_type_symbol
 _atom_site_label
 _atom_site_symmetry_multiplicity
 _atom_site_fract_x
 _atom_site_fract_y
 _atom_site_fract_z
 _atom_site_occupancy
  Mn  Mn0  1  0.35901000  0.28479000  0.00008000  1.0
  Mn  Mn1  1  0.14099000  0.78479000  0.99993000  1.0
  Mn  Mn2  1  0.64099000  0.71521000  0.99992000  1.0
  Mn  Mn3  1  0.85901000  0.21521000  0.00008000  1.0
  H  H4  1  0.15581000  0.59168000  0.74911000  1.0
  H  H5  1  0.34419000  0.09168000  0.25089000  1.0
  H  H6  1  0.59339000  0.40833000  0.74911000  1.0
  H  H7  1  0.90661000  0.90833000  0.25088000  1.0
  H  H8  1  0.84419000  0.40832000  0.25089000  1.0
  H  H9  1  0.65581000  0.90832000  0.74911000  1.0
  H  H10  1  0.40660000  0.59167000  0.25089000  1.0
  H  H11  1  0.09340000  0.09167000  0.74912000  1.0
  H  H12  1  0.06866000  0.47454000  0.65362000  1.0
  H  H13  1  0.43133000  0.97454000  0.34638000  1.0
  H  H14  1  0.58510000  0.52548000  0.65365000  1.0
  H  H15  1  0.91490000  0.02547000  0.34635000  1.0
  H  H16  1  0.93133000  0.52546000  0.34638000  1.0
  H  H17  1  0.56866000  0.02546000  0.65362000  1.0
  H  H18  1  0.41490000  0.47453000  0.34635000  1.0
  H  H19  1  0.08510000  0.97453000  0.65365000  1.0
  H  H20  1  0.02083000  0.68434000  0.56940000  1.0
  H  H21  1  0.47916000  0.18434000  0.43060000  1.0
  H  H22  1  0.54849000  0.31573000  0.56938000  1.0
  H  H23  1  0.95151000  0.81573000  0.43062000  1.0
  H  H24  1  0.97917000  0.31566000  0.43060000  1.0
  H  H25  1  0.52083000  0.81566000  0.56940000  1.0
  H  H26  1  0.45151000  0.68427000  0.43062000  1.0
  H  H27  1  0.04849000  0.18427000  0.56938000  1.0
  H  H28  1  0.86691000  0.73059000  0.65385000  1.0
  H  H29  1  0.63309000  0.23059000  0.34615000  1.0
  H  H30  1  0.78690000  0.26940000  0.65379000  1.0
  H  H31  1  0.71310000  0.76940000  0.34621000  1.0
  H  H32  1  0.13309000  0.26941000  0.34615000  1.0
  H  H33  1  0.36691000  0.76941000  0.65385000  1.0
  H  H34  1  0.21310000  0.73060000  0.34621000  1.0
  H  H35  1  0.28690000  0.23060000  0.65379000  1.0
  H  H36  1  0.77961000  0.61452000  0.55431000  1.0
  H  H37  1  0.72039000  0.11452000  0.44569000  1.0
  H  H38  1  0.77461000  0.38553000  0.55431000  1.0
  H  H39  1  0.72538000  0.88553000  0.44568000  1.0
  H  H40  1  0.22039000  0.38547000  0.44569000  1.0
  H  H41  1  0.27961000  0.88548000  0.55431000  1.0
  H  H42  1  0.22538000  0.61447000  0.44569000  1.0
  H  H43  1  0.27462000  0.11447000  0.55432000  1.0
  H  H44  1  0.64968000  0.43830000  0.93769000  1.0
  H  H45  1  0.85032000  0.93830000  0.06232000  1.0
  H  H46  1  0.28801000  0.56164000  0.93771000  1.0
  H  H47  1  0.21199000  0.06163000  0.06229000  1.0
  H  H48  1  0.35032000  0.56170000  0.06232000  1.0
  H  H49  1  0.14969000  0.06170000  0.93769000  1.0
  H  H50  1  0.71199000  0.43836000  0.06229000  1.0
  H  H51  1  0.78801000  0.93836000  0.93771000  1.0
  C  C52  1  0.00190000  0.40098000  0.84185000  1.0
  C  C53  1  0.49812000  0.90097000  0.15815000  1.0
  C  C54  1  0.84005000  0.59900000  0.84177000  1.0
  C  C55  1  0.65994000  0.09901000  0.15823000  1.0
  C  C56  1  0.99810000  0.59902000  0.15815000  1.0
  C  C57  1  0.50188000  0.09903000  0.84185000  1.0
  C  C58  1  0.15995000  0.40100000  0.15823000  1.0
  C  C59  1  0.34006000  0.90099000  0.84177000  1.0
  C  C60  1  0.88175000  0.49997000  0.76329000  1.0
  C  C61  1  0.61826000  0.99997000  0.23671000  1.0
  C  C62  1  0.11825000  0.50003000  0.23671000  1.0
  C  C63  1  0.38175000  0.00003000  0.76330000  1.0
  C  C64  1  0.01770000  0.55249000  0.69507000  1.0
  C  C65  1  0.48230000  0.05249000  0.30493000  1.0
  C  C66  1  0.67749000  0.44750000  0.69509000  1.0
  C  C67  1  0.82251000  0.94750000  0.30491000  1.0
  C  C68  1  0.98230000  0.44751000  0.30493000  1.0
  C  C69  1  0.51770000  0.94751000  0.69507000  1.0
  C  C70  1  0.32251000  0.55250000  0.30491000  1.0
  C  C71  1  0.17749000  0.05250000  0.69509000  1.0
  C  C72  1  0.91437000  0.65052000  0.61376000  1.0
  C  C73  1  0.58563000  0.15052000  0.38624000  1.0
  C  C74  1  0.69935000  0.34951000  0.61375000  1.0
  C  C75  1  0.80064000  0.84950000  0.38625000  1.0
  C  C76  1  0.08563000  0.34948000  0.38624000  1.0
  C  C77  1  0.41437000  0.84948000  0.61376000  1.0
  C  C78  1  0.30064000  0.65050000  0.38625000  1.0
  C  C79  1  0.19936000  0.15050000  0.61375000  1.0
  O  O80  1  0.65186000  0.38244000  0.00001000  1.0
  O  O81  1  0.84815000  0.88244000  0.99999000  1.0
  O  O82  1  0.34815000  0.61756000  0.99999000  1.0
  O  O83  1  0.15185000  0.11756000  0.00001000  1.0
  O  O84  1  0.19205000  0.42068000  0.88428000  1.0
  O  O85  1  0.30794000  0.92067000  0.11572000  1.0
  O  O86  1  0.69231000  0.57926000  0.88416000  1.0
  O  O87  1  0.80770000  0.07926000  0.11583000  1.0
  O  O88  1  0.80795000  0.57932000  0.11572000  1.0
  O  O89  1  0.69206000  0.07932000  0.88428000  1.0
  O  O90  1  0.30769000  0.42074000  0.11584000  1.0
  O  O91  1  0.19230000  0.92074000  0.88416000  1.0
  O  O92  1  0.90704000  0.30829000  0.86418000  1.0
  O  O93  1  0.59297000  0.80830000  0.13582000  1.0
  O  O94  1  0.95706000  0.69178000  0.86405000  1.0
  O  O95  1  0.54296000  0.19177000  0.13596000  1.0
  O  O96  1  0.09296000  0.69171000  0.13582000  1.0
  O  O97  1  0.40704000  0.19170000  0.86418000  1.0
  O  O98  1  0.04294000  0.30822000  0.13595000  1.0
  O  O99  1  0.45705000  0.80822000  0.86404000  1.0
