# generated using pymatgen
data_ZnH10(C5N3)2
_symmetry_space_group_name_H-M   'P 1'
_cell_length_a   16.37240000
_cell_length_b   16.77080000
_cell_length_c   18.47890000
_cell_angle_alpha   89.99930000
_cell_angle_beta   90.00180000
_cell_angle_gamma   89.73370000
_symmetry_Int_Tables_number   1
_chemical_formula_structural   ZnH10(C5N3)2
_chemical_formula_sum   'Zn8 H80 C80 N48'
_cell_volume   5073.84914211
_cell_formula_units_Z   8
loop_
 _symmetry_equiv_pos_site_id
 _symmetry_equiv_pos_as_xyz
  1  'x, y, z'
loop_
 _atom_site_type_symbol
 _atom_site_label
 _atom_site_symmetry_multiplicity
 _atom_site_fract_x
 _atom_site_fract_y
 _atom_site_fract_z
 _atom_site_occupancy
  Zn  Zn0  1  0.64427000  0.49736000  0.00093000  1.0
  Zn  Zn1  1  0.50134000  0.63313000  0.00453000  1.0
  Zn  Zn2  1  0.35573000  0.50265000  0.00093000  1.0
  Zn  Zn3  1  0.49866000  0.36688000  0.00453000  1.0
  Zn  Zn4  1  0.14386000  0.00269000  0.51818000  1.0
  Zn  Zn5  1  0.99797000  0.13338000  0.51857000  1.0
  Zn  Zn6  1  0.85614000  0.99730000  0.51817000  1.0
  Zn  Zn7  1  0.00202000  0.86661000  0.51858000  1.0
  H  H8  1  0.47241000  0.70391000  0.70100000  1.0
  H  H9  1  0.61790000  0.77728000  0.39568000  1.0
  H  H10  1  0.04818000  0.77902000  0.22956000  1.0
  H  H11  1  0.38210000  0.22271000  0.39567000  1.0
  H  H12  1  0.02995000  0.20080000  0.82155000  1.0
  H  H13  1  0.39939000  0.77033000  0.60611000  1.0
  H  H14  1  0.97004000  0.79921000  0.82156000  1.0
  H  H15  1  0.60061000  0.22967000  0.60612000  1.0
  H  H16  1  0.32927000  0.58609000  0.70857000  1.0
  H  H17  1  0.25151000  0.16546000  0.87287000  1.0
  H  H18  1  0.67074000  0.41390000  0.70859000  1.0
  H  H19  1  0.10347000  0.26880000  0.91469000  1.0
  H  H20  1  0.74847000  0.83456000  0.87287000  1.0
  H  H21  1  0.69609000  0.60031000  0.28697000  1.0
  H  H22  1  0.73651000  0.17866000  0.16578000  1.0
  H  H23  1  0.30391000  0.39968000  0.28696000  1.0
  H  H24  1  0.26351000  0.82135000  0.16579000  1.0
  H  H25  1  0.81307000  0.09813000  0.22910000  1.0
  H  H26  1  0.77001000  0.68020000  0.35271000  1.0
  H  H27  1  0.18693000  0.90187000  0.22912000  1.0
  H  H28  1  0.22999000  0.31980000  0.35270000  1.0
  H  H29  1  0.17670000  0.08627000  0.81025000  1.0
  H  H30  1  0.52760000  0.29608000  0.70101000  1.0
  H  H31  1  0.25266000  0.66639000  0.64756000  1.0
  H  H32  1  0.82329000  0.91376000  0.81024000  1.0
  H  H33  1  0.74736000  0.33358000  0.64758000  1.0
  H  H34  1  0.71116000  0.47577000  0.23373000  1.0
  H  H35  1  0.70813000  0.43394000  0.15097000  1.0
  H  H36  1  0.39325000  0.83241000  0.13009000  1.0
  H  H37  1  0.47206000  0.78679000  0.08805000  1.0
  H  H38  1  0.28884000  0.52423000  0.23373000  1.0
  H  H39  1  0.29187000  0.56606000  0.15097000  1.0
  H  H40  1  0.60677000  0.16761000  0.13009000  1.0
  H  H41  1  0.89651000  0.73122000  0.91469000  1.0
  H  H42  1  0.52797000  0.21323000  0.08805000  1.0
  H  H43  1  0.32754000  0.45407000  0.76488000  1.0
  H  H44  1  0.31335000  0.42682000  0.85186000  1.0
  H  H45  1  0.62575000  0.85350000  0.92628000  1.0
  H  H46  1  0.54043000  0.79875000  0.93447000  1.0
  H  H47  1  0.67246000  0.54593000  0.76488000  1.0
  H  H48  1  0.68664000  0.57318000  0.85186000  1.0
  H  H49  1  0.37423000  0.14652000  0.92628000  1.0
  H  H50  1  0.45954000  0.20126000  0.93447000  1.0
  H  H51  1  0.18150000  0.95506000  0.75367000  1.0
  H  H52  1  0.54824000  0.71313000  0.29829000  1.0
  H  H53  1  0.19323000  0.92757000  0.66641000  1.0
  H  H54  1  0.86917000  0.35346000  0.59065000  1.0
  H  H55  1  0.94927000  0.29589000  0.61060000  1.0
  H  H56  1  0.81850000  0.04496000  0.75366000  1.0
  H  H57  1  0.80676000  0.07244000  0.66639000  1.0
  H  H58  1  0.13083000  0.64652000  0.59064000  1.0
  H  H59  1  0.05074000  0.70409000  0.61060000  1.0
  H  H60  1  0.80357000  0.97071000  0.28192000  1.0
  H  H61  1  0.80311000  0.93001000  0.36510000  1.0
  H  H62  1  0.03280000  0.30082000  0.46301000  1.0
  H  H63  1  0.88347000  0.28489000  0.13080000  1.0
  H  H64  1  0.11110000  0.34967000  0.42442000  1.0
  H  H65  1  0.19641000  0.02927000  0.28192000  1.0
  H  H66  1  0.19688000  0.06998000  0.36511000  1.0
  H  H67  1  0.96720000  0.69917000  0.46302000  1.0
  H  H68  1  0.88890000  0.65032000  0.42443000  1.0
  H  H69  1  0.20016000  0.61849000  0.05805000  1.0
  H  H70  1  0.50472000  0.32798000  0.17277000  1.0
  H  H71  1  0.79986000  0.38153000  0.05805000  1.0
  H  H72  1  0.49528000  0.67202000  0.17276000  1.0
  H  H73  1  0.80320000  0.61456000  0.94800000  1.0
  H  H74  1  0.45175000  0.28686000  0.29829000  1.0
  H  H75  1  0.48913000  0.32416000  0.83433000  1.0
  H  H76  1  0.19678000  0.38545000  0.94800000  1.0
  H  H77  1  0.51086000  0.67584000  0.83433000  1.0
  H  H78  1  0.69380000  0.11576000  0.56572000  1.0
  H  H79  1  0.01137000  0.82753000  0.68950000  1.0
  H  H80  1  0.30620000  0.88422000  0.56573000  1.0
  H  H81  1  0.98862000  0.17248000  0.68948000  1.0
  H  H82  1  0.29780000  0.11759000  0.45839000  1.0
  H  H83  1  0.99849000  0.82103000  0.35313000  1.0
  H  H84  1  0.70220000  0.88240000  0.45839000  1.0
  H  H85  1  0.11656000  0.71512000  0.13079000  1.0
  H  H86  1  0.00152000  0.17894000  0.35311000  1.0
  H  H87  1  0.95184000  0.22095000  0.22957000  1.0
  C  C88  1  0.63797000  0.53360000  0.16282000  1.0
  C  C89  1  0.85085000  0.23661000  0.57009000  1.0
  C  C90  1  0.87633000  0.97323000  0.68199000  1.0
  C  C91  1  0.14915000  0.76337000  0.57009000  1.0
  C  C92  1  0.86815000  0.03255000  0.35595000  1.0
  C  C93  1  0.13662000  0.23450000  0.44992000  1.0
  C  C94  1  0.13184000  0.96743000  0.35596000  1.0
  C  C95  1  0.86338000  0.76550000  0.44993000  1.0
  C  C96  1  0.25794000  0.65014000  0.05841000  1.0
  C  C97  1  0.46078000  0.37519000  0.16169000  1.0
  C  C98  1  0.74209000  0.34988000  0.05842000  1.0
  C  C99  1  0.36111000  0.73333000  0.07364000  1.0
  C  C100  1  0.53922000  0.62481000  0.16169000  1.0
  C  C101  1  0.74680000  0.64839000  0.95368000  1.0
  C  C102  1  0.52993000  0.37404000  0.84362000  1.0
  C  C103  1  0.25318000  0.35162000  0.95368000  1.0
  C  C104  1  0.47007000  0.62596000  0.84361000  1.0
  C  C105  1  0.75062000  0.14886000  0.56343000  1.0
  C  C106  1  0.96928000  0.87643000  0.67884000  1.0
  C  C107  1  0.24937000  0.85112000  0.56344000  1.0
  C  C108  1  0.03071000  0.12358000  0.67883000  1.0
  C  C109  1  0.24024000  0.15003000  0.46069000  1.0
  C  C110  1  0.36203000  0.46640000  0.16282000  1.0
  C  C111  1  0.03904000  0.87131000  0.36154000  1.0
  C  C112  1  0.75976000  0.84996000  0.46070000  1.0
  C  C113  1  0.96096000  0.12866000  0.36153000  1.0
  C  C114  1  0.60286000  0.59517000  0.20582000  1.0
  C  C115  1  0.27736000  0.72348000  0.09149000  1.0
  C  C116  1  0.39715000  0.40483000  0.20582000  1.0
  C  C117  1  0.72267000  0.27654000  0.09149000  1.0
  C  C118  1  0.41599000  0.58826000  0.79498000  1.0
  C  C119  1  0.73118000  0.72908000  0.93668000  1.0
  C  C120  1  0.58401000  0.41174000  0.79499000  1.0
  C  C121  1  0.63891000  0.26669000  0.07364000  1.0
  C  C122  1  0.26880000  0.27094000  0.93668000  1.0
  C  C123  1  0.08729000  0.08673000  0.72600000  1.0
  C  C124  1  0.76593000  0.22883000  0.58300000  1.0
  C  C125  1  0.91271000  0.91329000  0.72600000  1.0
  C  C126  1  0.23408000  0.77116000  0.58300000  1.0
  C  C127  1  0.90139000  0.09635000  0.31489000  1.0
  C  C128  1  0.21969000  0.22429000  0.42958000  1.0
  C  C129  1  0.09861000  0.90362000  0.31490000  1.0
  C  C130  1  0.78031000  0.77570000  0.42959000  1.0
  C  C131  1  0.41348000  0.67782000  0.68653000  1.0
  C  C132  1  0.38019000  0.52728000  0.83787000  1.0
  C  C133  1  0.13642000  0.22047000  0.88741000  1.0
  C  C134  1  0.58653000  0.32217000  0.68655000  1.0
  C  C135  1  0.86356000  0.77954000  0.88740000  1.0
  C  C136  1  0.60867000  0.68895000  0.31135000  1.0
  C  C137  1  0.85025000  0.23624000  0.15689000  1.0
  C  C138  1  0.39133000  0.31105000  0.31135000  1.0
  C  C139  1  0.14978000  0.76377000  0.15689000  1.0
  C  C140  1  0.89455000  0.19350000  0.21235000  1.0
  C  C141  1  0.65295000  0.73165000  0.36666000  1.0
  C  C142  1  0.10547000  0.80649000  0.21235000  1.0
  C  C143  1  0.64702000  0.73795000  0.95322000  1.0
  C  C144  1  0.34705000  0.26834000  0.36666000  1.0
  C  C145  1  0.09012000  0.17597000  0.83460000  1.0
  C  C146  1  0.36706000  0.72169000  0.63308000  1.0
  C  C147  1  0.90987000  0.82405000  0.83460000  1.0
  C  C148  1  0.63295000  0.27830000  0.63309000  1.0
  C  C149  1  0.38612000  0.61461000  0.72590000  1.0
  C  C150  1  0.21819000  0.21402000  0.89968000  1.0
  C  C151  1  0.61389000  0.38538000  0.72591000  1.0
  C  C152  1  0.78179000  0.78600000  0.89967000  1.0
  C  C153  1  0.63700000  0.62623000  0.27158000  1.0
  C  C154  1  0.61980000  0.47272000  0.83787000  1.0
  C  C155  1  0.77037000  0.22624000  0.13858000  1.0
  C  C156  1  0.36300000  0.37376000  0.27158000  1.0
  C  C157  1  0.22966000  0.77378000  0.13858000  1.0
  C  C158  1  0.86875000  0.12732000  0.24838000  1.0
  C  C159  1  0.73402000  0.72480000  0.38223000  1.0
  C  C160  1  0.13126000  0.87267000  0.24839000  1.0
  C  C161  1  0.26598000  0.27519000  0.38222000  1.0
  C  C162  1  0.11836000  0.11350000  0.79446000  1.0
  C  C163  1  0.28551000  0.71464000  0.62031000  1.0
  C  C164  1  0.88163000  0.88652000  0.79446000  1.0
  C  C165  1  0.35297000  0.26206000  0.95323000  1.0
  C  C166  1  0.71450000  0.28534000  0.62033000  1.0
  C  C167  1  0.12367000  0.02679000  0.68199000  1.0
  N  N168  1  0.59965000  0.52997000  0.09817000  1.0
  N  N169  1  0.88227000  0.16740000  0.54598000  1.0
  N  N170  1  0.90703000  0.96916000  0.61419000  1.0
  N  N171  1  0.11773000  0.83259000  0.54600000  1.0
  N  N172  1  0.90350000  0.03002000  0.42205000  1.0
  N  N173  1  0.11109000  0.17158000  0.48886000  1.0
  N  N174  1  0.09650000  0.96996000  0.42206000  1.0
  N  N175  1  0.88891000  0.82841000  0.48888000  1.0
  N  N176  1  0.32352000  0.61853000  0.02503000  1.0
  N  N177  1  0.46161000  0.41364000  0.09810000  1.0
  N  N178  1  0.67650000  0.38149000  0.02504000  1.0
  N  N179  1  0.38806000  0.67087000  0.03445000  1.0
  N  N180  1  0.53839000  0.58636000  0.09810000  1.0
  N  N181  1  0.67850000  0.61229000  0.97679000  1.0
  N  N182  1  0.53542000  0.40760000  0.90909000  1.0
  N  N183  1  0.32149000  0.38773000  0.97679000  1.0
  N  N184  1  0.46457000  0.59241000  0.90909000  1.0
  N  N185  1  0.82006000  0.11233000  0.54258000  1.0
  N  N186  1  0.96467000  0.90941000  0.61302000  1.0
  N  N187  1  0.17994000  0.88766000  0.54260000  1.0
  N  N188  1  0.03533000  0.09060000  0.61302000  1.0
  N  N189  1  0.17579000  0.11824000  0.49516000  1.0
  N  N190  1  0.40035000  0.47003000  0.09817000  1.0
  N  N191  1  0.03871000  0.91070000  0.42455000  1.0
  N  N192  1  0.82420000  0.88175000  0.49517000  1.0
  N  N193  1  0.96129000  0.08928000  0.42454000  1.0
  N  N194  1  0.70401000  0.48553000  0.17990000  1.0
  N  N195  1  0.41097000  0.79809000  0.08766000  1.0
  N  N196  1  0.29599000  0.51448000  0.17990000  1.0
  N  N197  1  0.58905000  0.20193000  0.08765000  1.0
  N  N198  1  0.32162000  0.47293000  0.81681000  1.0
  N  N199  1  0.59902000  0.80650000  0.95131000  1.0
  N  N200  1  0.67838000  0.52707000  0.81682000  1.0
  N  N201  1  0.61196000  0.32916000  0.03445000  1.0
  N  N202  1  0.40096000  0.19351000  0.95132000  1.0
  N  N203  1  0.18460000  0.97364000  0.70148000  1.0
  N  N204  1  0.90111000  0.30377000  0.57631000  1.0
  N  N205  1  0.81540000  0.02638000  0.70146000  1.0
  N  N206  1  0.09890000  0.69621000  0.57631000  1.0
  N  N207  1  0.80607000  0.98144000  0.33593000  1.0
  N  N208  1  0.08367000  0.29609000  0.43150000  1.0
  N  N209  1  0.19392000  0.01854000  0.33594000  1.0
  N  N210  1  0.91633000  0.70390000  0.43150000  1.0
  N  N211  1  0.40877000  0.53158000  0.90635000  1.0
  N  N212  1  0.61622000  0.66854000  0.97710000  1.0
  N  N213  1  0.59122000  0.46844000  0.90635000  1.0
  N  N214  1  0.38376000  0.33148000  0.97710000  1.0
  N  N215  1  0.09297000  0.03085000  0.61419000  1.0
