# generated using pymatgen
data_Li9H29C18O19
_symmetry_space_group_name_H-M   'P 1'
_cell_length_a   9.66672000
_cell_length_b   9.86778000
_cell_length_c   37.10630000
_cell_angle_alpha   90.00000000
_cell_angle_beta   90.00000000
_cell_angle_gamma   92.68110000
_symmetry_Int_Tables_number   1
_chemical_formula_structural   Li9H29C18O19
_chemical_formula_sum   'Li36 H116 C72 O76'
_cell_volume   3535.66079143
_cell_formula_units_Z   4
loop_
 _symmetry_equiv_pos_site_id
 _symmetry_equiv_pos_as_xyz
  1  'x, y, z'
loop_
 _atom_site_type_symbol
 _atom_site_label
 _atom_site_symmetry_multiplicity
 _atom_site_fract_x
 _atom_site_fract_y
 _atom_site_fract_z
 _atom_site_occupancy
  Li  Li0  1  0.66585000  0.53412000  0.39784000  1.0
  Li  Li1  1  0.83415000  0.46588000  0.89784000  1.0
  Li  Li2  1  0.33415000  0.46588000  0.60216000  1.0
  Li  Li3  1  0.16585000  0.53412000  0.10216000  1.0
  Li  Li4  1  0.86718000  0.95232000  0.49653000  1.0
  Li  Li5  1  0.63282000  0.04768000  0.99653000  1.0
  Li  Li6  1  0.13282000  0.04768000  0.50347000  1.0
  Li  Li7  1  0.36718000  0.95232000  0.00347000  1.0
  Li  Li8  1  0.56073000  0.80968000  0.41727000  1.0
  Li  Li9  1  0.93927000  0.19032000  0.91727000  1.0
  Li  Li10  1  0.43927000  0.19032000  0.58273000  1.0
  Li  Li11  1  0.06073000  0.80968000  0.08273000  1.0
  Li  Li12  1  0.65982000  0.10045000  0.45261000  1.0
  Li  Li13  1  0.84018000  0.89955000  0.95261000  1.0
  Li  Li14  1  0.34018000  0.89955000  0.54739000  1.0
  Li  Li15  1  0.15982000  0.10045000  0.04739000  1.0
  Li  Li16  1  0.76395000  0.25010000  0.32710000  1.0
  Li  Li17  1  0.73605000  0.74990000  0.82710000  1.0
  Li  Li18  1  0.23605000  0.74990000  0.67290000  1.0
  Li  Li19  1  0.26395000  0.25010000  0.17290000  1.0
  Li  Li20  1  0.40281000  0.14310000  0.50112000  1.0
  Li  Li21  1  0.09719000  0.85690000  0.00112000  1.0
  Li  Li22  1  0.59719000  0.85690000  0.49888000  1.0
  Li  Li23  1  0.90281000  0.14310000  0.99888000  1.0
  Li  Li24  1  0.91353000  0.44160000  0.27515000  1.0
  Li  Li25  1  0.58647000  0.55840000  0.77515000  1.0
  Li  Li26  1  0.08647000  0.55840000  0.72485000  1.0
  Li  Li27  1  0.41353000  0.44160000  0.22485000  1.0
  Li  Li28  1  0.12561000  0.30327000  0.23090000  1.0
  Li  Li29  1  0.37439000  0.69673000  0.73090000  1.0
  Li  Li30  1  0.87439000  0.69673000  0.76910000  1.0
  Li  Li31  1  0.62561000  0.30327000  0.26910000  1.0
  Li  Li32  1  0.76078000  0.29119000  0.40399000  1.0
  Li  Li33  1  0.73921000  0.70881000  0.90399000  1.0
  Li  Li34  1  0.23922000  0.70881000  0.59601000  1.0
  Li  Li35  1  0.26078000  0.29119000  0.09601000  1.0
  H  H36  1  0.84635000  0.49466000  0.47077000  1.0
  H  H37  1  0.65365000  0.50534000  0.97077000  1.0
  H  H38  1  0.15365000  0.50534000  0.52923000  1.0
  H  H39  1  0.34635000  0.49466000  0.02923000  1.0
  H  H40  1  0.96864000  0.62828000  0.48323000  1.0
  H  H41  1  0.53136000  0.37172000  0.98323000  1.0
  H  H42  1  0.03136000  0.37172000  0.51677000  1.0
  H  H43  1  0.46864000  0.62828000  0.01677000  1.0
  H  H44  1  0.94430000  0.57681000  0.43671000  1.0
  H  H45  1  0.55570000  0.42319000  0.93671000  1.0
  H  H46  1  0.05570000  0.42319000  0.56329000  1.0
  H  H47  1  0.44430000  0.57681000  0.06329000  1.0
  H  H48  1  0.34201000  0.71216000  0.23729000  1.0
  H  H49  1  0.15799000  0.28785000  0.73729000  1.0
  H  H50  1  0.65799000  0.28784000  0.76271000  1.0
  H  H51  1  0.84201000  0.71216000  0.26271000  1.0
  H  H52  1  0.18305000  0.79833000  0.24441000  1.0
  H  H53  1  0.31695000  0.20167000  0.74441000  1.0
  H  H54  1  0.81695000  0.20167000  0.75559000  1.0
  H  H55  1  0.68305000  0.79833000  0.25559000  1.0
  H  H56  1  0.21388000  0.71202000  0.20319000  1.0
  H  H57  1  0.28612000  0.28798000  0.70319000  1.0
  H  H58  1  0.78612000  0.28798000  0.79681000  1.0
  H  H59  1  0.71388000  0.71202000  0.29681000  1.0
  H  H60  1  0.90877000  0.94517000  0.26691000  1.0
  H  H61  1  0.59123000  0.05483000  0.76691000  1.0
  H  H62  1  0.09123000  0.05483000  0.73309000  1.0
  H  H63  1  0.40877000  0.94517000  0.23309000  1.0
  H  H64  1  0.01911000  0.02844000  0.23401000  1.0
  H  H65  1  0.48089000  0.97157000  0.73401000  1.0
  H  H66  1  0.98089000  0.97157000  0.76599000  1.0
  H  H67  1  0.51912000  0.02843000  0.26599000  1.0
  H  H68  1  0.83868000  0.99170000  0.22519000  1.0
  H  H69  1  0.66133000  0.00830000  0.72519000  1.0
  H  H70  1  0.16132000  0.00830000  0.77481000  1.0
  H  H71  1  0.33868000  0.99170000  0.27481000  1.0
  H  H72  1  0.92004000  0.63976000  0.55386000  1.0
  H  H73  1  0.57996000  0.36024000  0.05386000  1.0
  H  H74  1  0.07996000  0.36024000  0.44614000  1.0
  H  H75  1  0.42004000  0.63976000  0.94614000  1.0
  H  H76  1  0.82349000  0.78465000  0.56416000  1.0
  H  H77  1  0.67651000  0.21535000  0.06416000  1.0
  H  H78  1  0.17651000  0.21535000  0.43584000  1.0
  H  H79  1  0.32349000  0.78465000  0.93584000  1.0
  H  H80  1  0.94686000  0.72201000  0.59566000  1.0
  H  H81  1  0.55314000  0.27799000  0.09566000  1.0
  H  H82  1  0.05314000  0.27799000  0.40434000  1.0
  H  H83  1  0.44686000  0.72201000  0.90434000  1.0
  H  H84  1  0.34682000  0.47117000  0.43137000  1.0
  H  H85  1  0.15318000  0.52883000  0.93137000  1.0
  H  H86  1  0.65318000  0.52883000  0.56863000  1.0
  H  H87  1  0.84681000  0.47117000  0.06863000  1.0
  H  H88  1  0.45995000  0.53307000  0.46531000  1.0
  H  H89  1  0.04005000  0.46693000  0.96531000  1.0
  H  H90  1  0.54005000  0.46693000  0.53469000  1.0
  H  H91  1  0.95995000  0.53307000  0.03469000  1.0
  H  H92  1  0.33011000  0.40274000  0.47600000  1.0
  H  H93  1  0.16989000  0.59726000  0.97600000  1.0
  H  H94  1  0.66989000  0.59726000  0.52400000  1.0
  H  H95  1  0.83011000  0.40274000  0.02400000  1.0
  H  H96  1  0.93752000  0.69563000  0.36586000  1.0
  H  H97  1  0.56248000  0.30437000  0.86586000  1.0
  H  H98  1  0.06248000  0.30437000  0.63414000  1.0
  H  H99  1  0.43752000  0.69563000  0.13414000  1.0
  H  H100  1  0.01395000  0.64272000  0.32396000  1.0
  H  H101  1  0.48604000  0.35728000  0.82396000  1.0
  H  H102  1  0.98605000  0.35729000  0.67604000  1.0
  H  H103  1  0.51395000  0.64272000  0.17604000  1.0
  H  H104  1  0.08803000  0.60048000  0.36619000  1.0
  H  H105  1  0.41197000  0.39952000  0.86619000  1.0
  H  H106  1  0.91197000  0.39952000  0.63381000  1.0
  H  H107  1  0.58803000  0.60048000  0.13381000  1.0
  H  H108  1  0.18928000  0.72354000  0.46063000  1.0
  H  H109  1  0.31072000  0.27646000  0.96063000  1.0
  H  H110  1  0.81073000  0.27646000  0.53937000  1.0
  H  H111  1  0.68927000  0.72354000  0.03937000  1.0
  H  H112  1  0.26127000  0.78532000  0.41925000  1.0
  H  H113  1  0.23874000  0.21468000  0.91925000  1.0
  H  H114  1  0.73874000  0.21468000  0.58075000  1.0
  H  H115  1  0.76126000  0.78532000  0.08075000  1.0
  H  H116  1  0.13469000  0.88007000  0.44352000  1.0
  H  H117  1  0.36531000  0.11992000  0.94352000  1.0
  H  H118  1  0.86532000  0.11992000  0.55648000  1.0
  H  H119  1  0.63469000  0.88008000  0.05648000  1.0
  H  H120  1  0.42902000  0.65613000  0.29660000  1.0
  H  H121  1  0.07097000  0.34386000  0.79661000  1.0
  H  H122  1  0.57098000  0.34386000  0.70340000  1.0
  H  H123  1  0.92902000  0.65614000  0.20340000  1.0
  H  H124  1  0.29349000  0.72381000  0.32339000  1.0
  H  H125  1  0.20651000  0.27619000  0.82339000  1.0
  H  H126  1  0.70651000  0.27619000  0.67661000  1.0
  H  H127  1  0.79349000  0.72381000  0.17661000  1.0
  H  H128  1  0.31380000  0.54501000  0.31992000  1.0
  H  H129  1  0.18620000  0.45499000  0.81992000  1.0
  H  H130  1  0.68620000  0.45499000  0.68008000  1.0
  H  H131  1  0.81380000  0.54501000  0.18008000  1.0
  H  H132  1  0.71222000  0.81194000  0.35928000  1.0
  H  H133  1  0.78778000  0.18806000  0.85928000  1.0
  H  H134  1  0.28778000  0.18806000  0.64072000  1.0
  H  H135  1  0.21222000  0.81194000  0.14072000  1.0
  H  H136  1  0.84102000  0.92584000  0.33950000  1.0
  H  H137  1  0.65898000  0.07416000  0.83950000  1.0
  H  H138  1  0.15898000  0.07416000  0.66050000  1.0
  H  H139  1  0.34102000  0.92584000  0.16050000  1.0
  H  H140  1  0.66682000  0.93372000  0.32618000  1.0
  H  H141  1  0.83318000  0.06628000  0.82618000  1.0
  H  H142  1  0.33318000  0.06628000  0.67382000  1.0
  H  H143  1  0.16682000  0.93372000  0.17382000  1.0
  H  H144  1  0.00192000  0.27934000  0.16780000  1.0
  H  H145  1  0.49808000  0.72066000  0.66780000  1.0
  H  H146  1  0.99807000  0.72066000  0.83220000  1.0
  H  H147  1  0.50192000  0.27934000  0.33220000  1.0
  H  H148  1  0.06856000  0.42892000  0.16796000  1.0
  H  H149  1  0.43144000  0.57108000  0.66796000  1.0
  H  H150  1  0.93144000  0.57108000  0.83204000  1.0
  H  H151  1  0.56856000  0.42892000  0.33204000  1.0
  C  C152  1  0.78019000  0.69279000  0.45830000  1.0
  C  C153  1  0.71981000  0.30721000  0.95830000  1.0
  C  C154  1  0.21981000  0.30721000  0.54170000  1.0
  C  C155  1  0.28019000  0.69279000  0.04170000  1.0
  C  C156  1  0.33872000  0.88450000  0.46750000  1.0
  C  C157  1  0.16128000  0.11550000  0.96750000  1.0
  C  C158  1  0.66128000  0.11550000  0.53250000  1.0
  C  C159  1  0.83872000  0.88450000  0.03250000  1.0
  C  C160  1  0.50657000  0.33666000  0.44526000  1.0
  C  C161  1  0.99342000  0.66334000  0.94526000  1.0
  C  C162  1  0.49342000  0.66334000  0.55474000  1.0
  C  C163  1  0.00658000  0.33666000  0.05474000  1.0
  C  C164  1  0.87805000  0.15860000  0.26141000  1.0
  C  C165  1  0.62194000  0.84140000  0.76141000  1.0
  C  C166  1  0.12194000  0.84140000  0.73859000  1.0
  C  C167  1  0.37806000  0.15860000  0.23859000  1.0
  C  C168  1  0.46561000  0.65009000  0.35368000  1.0
  C  C169  1  0.03439000  0.34991000  0.85368000  1.0
  C  C170  1  0.53439000  0.34991000  0.64632000  1.0
  C  C171  1  0.96561000  0.65009000  0.14632000  1.0
  C  C172  1  0.03943000  0.82739000  0.55025000  1.0
  C  C173  1  0.46057000  0.17261000  0.05025000  1.0
  C  C174  1  0.96057000  0.17260000  0.44975000  1.0
  C  C175  1  0.53943000  0.82739000  0.94975000  1.0
  C  C176  1  0.16154000  0.57912000  0.24641000  1.0
  C  C177  1  0.33847000  0.42088000  0.74641000  1.0
  C  C178  1  0.83847000  0.42088000  0.75359000  1.0
  C  C179  1  0.66153000  0.57912000  0.25359000  1.0
  C  C180  1  0.90296000  0.48327000  0.35395000  1.0
  C  C181  1  0.59704000  0.51672000  0.85395000  1.0
  C  C182  1  0.09704000  0.51673000  0.64605000  1.0
  C  C183  1  0.40296000  0.48328000  0.14605000  1.0
  C  C184  1  0.71153000  0.02147000  0.37795000  1.0
  C  C185  1  0.78847000  0.97853000  0.87795000  1.0
  C  C186  1  0.28847000  0.97853000  0.62205000  1.0
  C  C187  1  0.21153000  0.02147000  0.12205000  1.0
  C  C188  1  0.89377000  0.59365000  0.46269000  1.0
  C  C189  1  0.60623000  0.40635000  0.96269000  1.0
  C  C190  1  0.10623000  0.40635000  0.53731000  1.0
  C  C191  1  0.39377000  0.59365000  0.03731000  1.0
  C  C192  1  0.22991000  0.70985000  0.23253000  1.0
  C  C193  1  0.27010000  0.29014000  0.73253000  1.0
  C  C194  1  0.77010000  0.29014000  0.76747000  1.0
  C  C195  1  0.72990000  0.70986000  0.26747000  1.0
  C  C196  1  0.91511000  0.02324000  0.24585000  1.0
  C  C197  1  0.58489000  0.97676000  0.74585000  1.0
  C  C198  1  0.08489000  0.97676000  0.75415000  1.0
  C  C199  1  0.41511000  0.02324000  0.25415000  1.0
  C  C200  1  0.92410000  0.73946000  0.56708000  1.0
  C  C201  1  0.57590000  0.26054000  0.06708000  1.0
  C  C202  1  0.07590000  0.26053000  0.43292000  1.0
  C  C203  1  0.42410000  0.73947000  0.93292000  1.0
  C  C204  1  0.40343000  0.44104000  0.45554000  1.0
  C  C205  1  0.09657000  0.55896000  0.95553000  1.0
  C  C206  1  0.59657000  0.55896000  0.54446000  1.0
  C  C207  1  0.90343000  0.44104000  0.04446000  1.0
  C  C208  1  0.98993000  0.61456000  0.35190000  1.0
  C  C209  1  0.51006000  0.38544000  0.85190000  1.0
  C  C210  1  0.01007000  0.38545000  0.64810000  1.0
  C  C211  1  0.48993000  0.61456000  0.14810000  1.0
  C  C212  1  0.22376000  0.81571000  0.44581000  1.0
  C  C213  1  0.27624000  0.18428000  0.94581000  1.0
  C  C214  1  0.77624000  0.18429000  0.55419000  1.0
  C  C215  1  0.72375000  0.81571000  0.05419000  1.0
  C  C216  1  0.36894000  0.64479000  0.32164000  1.0
  C  C217  1  0.13107000  0.35520000  0.82164000  1.0
  C  C218  1  0.63106000  0.35520000  0.67836000  1.0
  C  C219  1  0.86894000  0.64480000  0.17836000  1.0
  C  C220  1  0.73397000  0.91518000  0.34938000  1.0
  C  C221  1  0.76603000  0.08483000  0.84938000  1.0
  C  C222  1  0.26603000  0.08482000  0.65062000  1.0
  C  C223  1  0.23397000  0.91518000  0.15062000  1.0
  O  O224  1  0.30696000  0.96317000  0.49361000  1.0
  O  O225  1  0.19304000  0.03682000  0.99361000  1.0
  O  O226  1  0.69304000  0.03682000  0.50639000  1.0
  O  O227  1  0.80696000  0.96317000  0.00639000  1.0
  O  O228  1  0.76454000  0.16434000  0.27907000  1.0
  O  O229  1  0.73546000  0.83566000  0.77907000  1.0
  O  O230  1  0.23546000  0.83566000  0.72093000  1.0
  O  O231  1  0.26454000  0.16434000  0.22093000  1.0
  O  O232  1  0.69597000  0.67666000  0.43220000  1.0
  O  O233  1  0.80403000  0.32334000  0.93220000  1.0
  O  O234  1  0.30403000  0.32333000  0.56780000  1.0
  O  O235  1  0.19597000  0.67667000  0.06780000  1.0
  O  O236  1  0.84033000  0.45539000  0.38357000  1.0
  O  O237  1  0.65967000  0.54461000  0.88357000  1.0
  O  O238  1  0.15968000  0.54461000  0.61643000  1.0
  O  O239  1  0.34033000  0.45539000  0.11643000  1.0
  O  O240  1  0.50323000  0.22153000  0.46113000  1.0
  O  O241  1  0.99676000  0.77847000  0.96113000  1.0
  O  O242  1  0.49677000  0.77847000  0.53887000  1.0
  O  O243  1  0.00324000  0.22153000  0.03887000  1.0
  O  O244  1  0.59424000  0.36934000  0.42094000  1.0
  O  O245  1  0.90575000  0.63066000  0.92094000  1.0
  O  O246  1  0.40576000  0.63066000  0.57906000  1.0
  O  O247  1  0.09424000  0.36935000  0.07906000  1.0
  O  O248  1  0.77056000  0.78704000  0.48165000  1.0
  O  O249  1  0.72944000  0.21296000  0.98165000  1.0
  O  O250  1  0.22944000  0.21296000  0.51834000  1.0
  O  O251  1  0.27056000  0.78704000  0.01834000  1.0
  O  O252  1  0.46320000  0.86019000  0.46032000  1.0
  O  O253  1  0.03680000  0.13981000  0.96032000  1.0
  O  O254  1  0.53680000  0.13981000  0.53968000  1.0
  O  O255  1  0.96320000  0.86019000  0.03968000  1.0
  O  O256  1  0.66031000  0.98600000  0.40834000  1.0
  O  O257  1  0.83970000  0.01400000  0.90834000  1.0
  O  O258  1  0.33969000  0.01400000  0.59166000  1.0
  O  O259  1  0.16031000  0.98600000  0.09166000  1.0
  O  O260  1  0.16331000  0.79276000  0.55453000  1.0
  O  O261  1  0.33669000  0.20724000  0.05453000  1.0
  O  O262  1  0.83669000  0.20723000  0.44547000  1.0
  O  O263  1  0.66331000  0.79276000  0.94547000  1.0
  O  O264  1  0.00817000  0.93170000  0.53221000  1.0
  O  O265  1  0.49183000  0.06830000  0.03221000  1.0
  O  O266  1  0.99183000  0.06830000  0.46779000  1.0
  O  O267  1  0.50817000  0.93170000  0.96779000  1.0
  O  O268  1  0.74573000  0.14429000  0.36984000  1.0
  O  O269  1  0.75427000  0.85571000  0.86985000  1.0
  O  O270  1  0.25427000  0.85571000  0.63016000  1.0
  O  O271  1  0.24573000  0.14429000  0.13016000  1.0
  O  O272  1  0.89680000  0.40453000  0.32686000  1.0
  O  O273  1  0.60320000  0.59547000  0.82686000  1.0
  O  O274  1  0.10319000  0.59547000  0.67314000  1.0
  O  O275  1  0.39680000  0.40453000  0.17314000  1.0
  O  O276  1  0.22607000  0.46972000  0.24166000  1.0
  O  O277  1  0.27393000  0.53027000  0.74166000  1.0
  O  O278  1  0.77394000  0.53027000  0.75834000  1.0
  O  O279  1  0.72607000  0.46973000  0.25834000  1.0
  O  O280  1  0.56330000  0.56514000  0.35428000  1.0
  O  O281  1  0.93670000  0.43486000  0.85428000  1.0
  O  O282  1  0.43670000  0.43486000  0.64572000  1.0
  O  O283  1  0.06330000  0.56514000  0.14572000  1.0
  O  O284  1  0.07709000  0.33381000  0.17865000  1.0
  O  O285  1  0.42292000  0.66619000  0.67865000  1.0
  O  O286  1  0.92291000  0.66620000  0.82135000  1.0
  O  O287  1  0.57708000  0.33381000  0.32135000  1.0
  O  O288  1  0.44986000  0.73648000  0.37828000  1.0
  O  O289  1  0.05014000  0.26352000  0.87829000  1.0
  O  O290  1  0.55014000  0.26351000  0.62171000  1.0
  O  O291  1  0.94986000  0.73649000  0.12171000  1.0
  O  O292  1  0.96025000  0.26108000  0.25640000  1.0
  O  O293  1  0.53975000  0.73892000  0.75640000  1.0
  O  O294  1  0.03975000  0.73892000  0.74360000  1.0
  O  O295  1  0.46025000  0.26108000  0.24360000  1.0
  O  O296  1  0.04303000  0.58248000  0.26076000  1.0
  O  O297  1  0.45697000  0.41752000  0.76076000  1.0
  O  O298  1  0.95697000  0.41752000  0.73924000  1.0
  O  O299  1  0.54302000  0.58249000  0.23924000  1.0
