# generated using pymatgen
data_FeHC4O3
_symmetry_space_group_name_H-M   'P 1'
_cell_length_a   6.74269000
_cell_length_b   15.23240000
_cell_length_c   15.27660000
_cell_angle_alpha   117.95000000
_cell_angle_beta   98.42330000
_cell_angle_gamma   97.82110000
_symmetry_Int_Tables_number   1
_chemical_formula_structural   FeHC4O3
_chemical_formula_sum   'Fe6 H6 C24 O18'
_cell_volume   1332.88862828
_cell_formula_units_Z   6
loop_
 _symmetry_equiv_pos_site_id
 _symmetry_equiv_pos_as_xyz
  1  'x, y, z'
loop_
 _atom_site_type_symbol
 _atom_site_label
 _atom_site_symmetry_multiplicity
 _atom_site_fract_x
 _atom_site_fract_y
 _atom_site_fract_z
 _atom_site_occupancy
  Fe  Fe0  1  0.48730000  0.27712000  0.60684000  1.0
  Fe  Fe1  1  0.21260000  0.33025000  0.72603000  1.0
  Fe  Fe2  1  0.88040000  0.39713000  0.67174000  1.0
  Fe  Fe3  1  0.52648000  0.72595000  0.39416000  1.0
  Fe  Fe4  1  0.78172000  0.67633000  0.26896000  1.0
  Fe  Fe5  1  0.11558000  0.58820000  0.32285000  1.0
  H  H6  1  0.81915000  0.44079000  0.46629000  1.0
  H  H7  1  0.38166000  0.02144000  0.55599000  1.0
  H  H8  1  0.35072000  0.53594000  0.97550000  1.0
  H  H9  1  0.17596000  0.55381000  0.52895000  1.0
  H  H10  1  0.63016000  0.98052000  0.45232000  1.0
  H  H11  1  0.64860000  0.47015000  0.02426000  1.0
  C  C12  1  0.22599000  0.42111000  0.58838000  1.0
  C  C13  1  0.81233000  0.17030000  0.58323000  1.0
  C  C14  1  0.63900000  0.41334000  0.83332000  1.0
  C  C15  1  0.76444000  0.56829000  0.40147000  1.0
  C  C16  1  0.19172000  0.82817000  0.42563000  1.0
  C  C17  1  0.35857000  0.59667000  0.16697000  1.0
  C  C18  1  0.37015000  0.45834000  0.54320000  1.0
  C  C19  1  0.91918000  0.08714000  0.54512000  1.0
  C  C20  1  0.82711000  0.45793000  0.91526000  1.0
  C  C21  1  0.62232000  0.53421000  0.44982000  1.0
  C  C22  1  0.09200000  0.91509000  0.46385000  1.0
  C  C23  1  0.17188000  0.54926000  0.08432000  1.0
  C  C24  1  0.55738000  0.42541000  0.52621000  1.0
  C  C25  1  0.13786000  0.10065000  0.57562000  1.0
  C  C26  1  0.03061000  0.47593000  0.89984000  1.0
  C  C27  1  0.43616000  0.56790000  0.46734000  1.0
  C  C28  1  0.87472000  0.90277000  0.43369000  1.0
  C  C29  1  0.96871000  0.53033000  0.09972000  1.0
  C  C30  1  0.67681000  0.46506000  0.47961000  1.0
  C  C31  1  0.21641000  0.01280000  0.53326000  1.0
  C  C32  1  0.19586000  0.52161000  0.98585000  1.0
  C  C33  1  0.31766000  0.52911000  0.51480000  1.0
  C  C34  1  0.79540000  0.98945000  0.47498000  1.0
  C  C35  1  0.80355000  0.48460000  0.01397000  1.0
  O  O36  1  0.24764000  0.34181000  0.59811000  1.0
  O  O37  1  0.91087000  0.25902000  0.66166000  1.0
  O  O38  1  0.64963000  0.40392000  0.74447000  1.0
  O  O39  1  0.74148000  0.64430000  0.38741000  1.0
  O  O40  1  0.08441000  0.73901000  0.35338000  1.0
  O  O41  1  0.34484000  0.61391000  0.25729000  1.0
  O  O42  1  0.07801000  0.46222000  0.61658000  1.0
  O  O43  1  0.62444000  0.15797000  0.54292000  1.0
  O  O44  1  0.46374000  0.38469000  0.84556000  1.0
  O  O45  1  0.91220000  0.52582000  0.37545000  1.0
  O  O46  1  0.38200000  0.84073000  0.46271000  1.0
  O  O47  1  0.53649000  0.62112000  0.15326000  1.0
  O  O48  1  0.62685000  0.36005000  0.55206000  1.0
  O  O49  1  0.27038000  0.19104000  0.64135000  1.0
  O  O50  1  0.07408000  0.45152000  0.80910000  1.0
  O  O51  1  0.36747000  0.63266000  0.43962000  1.0
  O  O52  1  0.74101000  0.81219000  0.36800000  1.0
  O  O53  1  0.92831000  0.55492000  0.19174000  1.0
