# generated using pymatgen
data_CoH24C30(N2O3)2
_symmetry_space_group_name_H-M   'P 1'
_cell_length_a   12.90200000
_cell_length_b   12.90200000
_cell_length_c   15.31370000
_cell_angle_alpha   90.00000000
_cell_angle_beta   89.99980000
_cell_angle_gamma   60.00000000
_symmetry_Int_Tables_number   1
_chemical_formula_structural   CoH24C30(N2O3)2
_chemical_formula_sum   'Co3 H72 C90 N12 O18'
_cell_volume   2207.62265230
_cell_formula_units_Z   3
loop_
 _symmetry_equiv_pos_site_id
 _symmetry_equiv_pos_as_xyz
  1  'x, y, z'
loop_
 _atom_site_type_symbol
 _atom_site_label
 _atom_site_symmetry_multiplicity
 _atom_site_fract_x
 _atom_site_fract_y
 _atom_site_fract_z
 _atom_site_occupancy
  Co  Co0  1  0.00000000  0.61424000  1.00000000  1.0
  Co  Co1  1  0.38576000  0.00000000  0.33333333  1.0
  Co  Co2  1  0.61424000  0.38576000  0.66666667  1.0
  H  H3  1  0.88064000  0.63422000  0.18239000  1.0
  H  H4  1  0.48514000  0.88063000  0.51572000  1.0
  H  H5  1  0.63425000  0.48513000  0.84905000  1.0
  H  H6  1  0.11936000  0.51487000  0.81761000  1.0
  H  H7  1  0.51486000  0.36578000  0.48428000  1.0
  H  H8  1  0.36575000  0.11938000  0.15095000  1.0
  H  H9  1  0.57718000  0.54370000  0.40594000  1.0
  H  H10  1  0.87912000  0.57718000  0.73927000  1.0
  H  H11  1  0.54369000  0.87913000  0.07261000  1.0
  H  H12  1  0.42282000  0.12088000  0.59406000  1.0
  H  H13  1  0.12088000  0.45630000  0.26073000  1.0
  H  H14  1  0.45630000  0.42282000  0.92739000  1.0
  H  H15  1  0.88951000  0.46296000  0.88695000  1.0
  H  H16  1  0.64754000  0.88951000  0.22028000  1.0
  H  H17  1  0.46295000  0.64754000  0.55362000  1.0
  H  H18  1  0.11049000  0.35246000  0.11305000  1.0
  H  H19  1  0.35246000  0.53705000  0.77972000  1.0
  H  H20  1  0.53705000  0.11049000  0.44638000  1.0
  H  H21  1  0.59816000  0.58550000  0.24979000  1.0
  H  H22  1  0.81635000  0.59816000  0.58312000  1.0
  H  H23  1  0.58549000  0.81634000  0.91647000  1.0
  H  H24  1  0.40184000  0.18366000  0.75021000  1.0
  H  H25  1  0.18365000  0.41452000  0.41687000  1.0
  H  H26  1  0.41451000  0.40183000  0.08353000  1.0
  H  H27  1  0.95910000  0.37142000  0.43890000  1.0
  H  H28  1  0.66947000  0.95910000  0.77224000  1.0
  H  H29  1  0.37142000  0.66948000  0.10558000  1.0
  H  H30  1  0.04091000  0.33052000  0.56110000  1.0
  H  H31  1  0.33053000  0.62857000  0.22776000  1.0
  H  H32  1  0.62858000  0.04090000  0.89442000  1.0
  H  H33  1  0.82269000  0.31266000  0.87135000  1.0
  H  H34  1  0.86466000  0.82269000  0.20468000  1.0
  H  H35  1  0.31264000  0.86466000  0.53802000  1.0
  H  H36  1  0.17731000  0.13534000  0.12865000  1.0
  H  H37  1  0.13534000  0.68735000  0.79532000  1.0
  H  H38  1  0.68736000  0.17730000  0.46198000  1.0
  H  H39  1  0.72769000  0.34766000  0.14592000  1.0
  H  H40  1  0.92465000  0.72769000  0.47925000  1.0
  H  H41  1  0.34766000  0.92466000  0.81259000  1.0
  H  H42  1  0.27231000  0.07535000  0.85408000  1.0
  H  H43  1  0.07535000  0.65233000  0.52075000  1.0
  H  H44  1  0.65234000  0.27231000  0.18741000  1.0
  H  H45  1  0.98156000  0.40736000  0.28334000  1.0
  H  H46  1  0.61107000  0.98157000  0.61668000  1.0
  H  H47  1  0.40736000  0.61107000  0.95002000  1.0
  H  H48  1  0.01844000  0.38892000  0.71666000  1.0
  H  H49  1  0.38893000  0.59264000  0.38332000  1.0
  H  H50  1  0.59264000  0.01843000  0.04998000  1.0
  H  H51  1  0.74258000  0.25511000  0.99852000  1.0
  H  H52  1  0.00232000  0.74258000  0.33186000  1.0
  H  H53  1  0.25510000  0.00231000  0.66520000  1.0
  H  H54  1  0.25742000  0.99768000  0.00148000  1.0
  H  H55  1  0.99768000  0.74490000  0.66814000  1.0
  H  H56  1  0.74491000  0.25740000  0.33480000  1.0
  H  H57  1  0.83209000  0.82510000  0.99427000  1.0
  H  H58  1  0.34281000  0.83210000  0.32763000  1.0
  H  H59  1  0.82509000  0.34281000  0.66096000  1.0
  H  H60  1  0.16791000  0.65718000  0.00572000  1.0
  H  H61  1  0.65718000  0.17492000  0.67237000  1.0
  H  H62  1  0.17491000  0.16790000  0.33904000  1.0
  H  H63  1  0.01317000  0.83730000  0.10006000  1.0
  H  H64  1  0.14952000  0.01318000  0.43338000  1.0
  H  H65  1  0.83731000  0.14952000  0.76673000  1.0
  H  H66  1  0.98683000  0.85047000  0.89994000  1.0
  H  H67  1  0.85048000  0.16271000  0.56662000  1.0
  H  H68  1  0.16269000  0.98683000  0.23327000  1.0
  H  H69  1  0.89908000  0.95719000  0.03792000  1.0
  H  H70  1  0.14372000  0.89909000  0.37125000  1.0
  H  H71  1  0.95720000  0.14372000  0.70459000  1.0
  H  H72  1  0.10093000  0.85627000  0.96208000  1.0
  H  H73  1  0.85628000  0.04281000  0.62875000  1.0
  H  H74  1  0.04280000  0.10093000  0.29541000  1.0
  C  C75  1  0.86047000  0.58035000  0.13892000  1.0
  C  C76  1  0.55918000  0.86046000  0.47225000  1.0
  C  C77  1  0.58037000  0.55917000  0.80558000  1.0
  C  C78  1  0.13953000  0.44082000  0.86108000  1.0
  C  C79  1  0.44082000  0.41965000  0.52775000  1.0
  C  C80  1  0.41963000  0.13955000  0.19442000  1.0
  C  C81  1  0.84641000  0.48799000  0.02464000  1.0
  C  C82  1  0.66560000  0.84641000  0.35797000  1.0
  C  C83  1  0.48800000  0.66559000  0.69130000  1.0
  C  C84  1  0.15359000  0.33440000  0.97536000  1.0
  C  C85  1  0.33440000  0.51201000  0.64203000  1.0
  C  C86  1  0.51201000  0.15359000  0.30870000  1.0
  C  C87  1  0.75493000  0.42555000  0.52556000  1.0
  C  C88  1  0.81950000  0.75493000  0.85890000  1.0
  C  C89  1  0.42557000  0.81950000  0.19224000  1.0
  C  C90  1  0.24507000  0.18049000  0.47444000  1.0
  C  C91  1  0.18050000  0.57443000  0.14110000  1.0
  C  C92  1  0.57443000  0.24508000  0.80776000  1.0
  C  C93  1  0.79941000  0.45527000  0.09622000  1.0
  C  C94  1  0.74532000  0.79940000  0.42955000  1.0
  C  C95  1  0.45528000  0.74531000  0.76289000  1.0
  C  C96  1  0.20059000  0.25469000  0.90378000  1.0
  C  C97  1  0.25468000  0.54472000  0.57045000  1.0
  C  C98  1  0.54472000  0.20060000  0.23711000  1.0
  C  C99  1  0.79154000  0.49870000  0.25776000  1.0
  C  C100  1  0.70977000  0.79154000  0.59109000  1.0
  C  C101  1  0.49869000  0.70977000  0.92443000  1.0
  C  C102  1  0.20846000  0.29024000  0.74224000  1.0
  C  C103  1  0.29023000  0.50131000  0.40891000  1.0
  C  C104  1  0.50131000  0.20845000  0.07557000  1.0
  C  C105  1  0.76600000  0.45616000  0.43269000  1.0
  C  C106  1  0.77784000  0.76600000  0.76602000  1.0
  C  C107  1  0.45615000  0.77784000  0.09936000  1.0
  C  C108  1  0.23400000  0.22216000  0.56731000  1.0
  C  C109  1  0.22216000  0.54384000  0.23398000  1.0
  C  C110  1  0.54385000  0.23399000  0.90064000  1.0
  C  C111  1  0.66524000  0.51540000  0.37861000  1.0
  C  C112  1  0.81936000  0.66524000  0.71194000  1.0
  C  C113  1  0.51539000  0.81937000  0.04528000  1.0
  C  C114  1  0.33476000  0.18065000  0.62139000  1.0
  C  C115  1  0.18064000  0.48460000  0.28806000  1.0
  C  C116  1  0.48460000  0.33476000  0.95472000  1.0
  C  C117  1  0.85444000  0.43726000  0.94243000  1.0
  C  C118  1  0.70830000  0.85444000  0.27576000  1.0
  C  C119  1  0.43726000  0.70830000  0.60909000  1.0
  C  C120  1  0.14556000  0.29170000  0.05757000  1.0
  C  C121  1  0.29170000  0.56273000  0.72424000  1.0
  C  C122  1  0.56274000  0.14556000  0.39091000  1.0
  C  C123  1  0.67700000  0.53770000  0.29115000  1.0
  C  C124  1  0.78531000  0.67700000  0.62448000  1.0
  C  C125  1  0.53768000  0.78531000  0.95782000  1.0
  C  C126  1  0.32300000  0.21470000  0.70885000  1.0
  C  C127  1  0.21469000  0.46232000  0.37552000  1.0
  C  C128  1  0.46231000  0.32300000  0.04218000  1.0
  C  C129  1  0.87975000  0.41958000  0.39840000  1.0
  C  C130  1  0.70067000  0.87975000  0.73173000  1.0
  C  C131  1  0.41958000  0.70067000  0.06507000  1.0
  C  C132  1  0.12026000  0.29933000  0.60160000  1.0
  C  C133  1  0.29933000  0.58042000  0.26826000  1.0
  C  C134  1  0.58042000  0.12026000  0.93493000  1.0
  C  C135  1  0.81710000  0.35319000  0.93496000  1.0
  C  C136  1  0.82971000  0.81710000  0.26829000  1.0
  C  C137  1  0.35319000  0.82970000  0.60163000  1.0
  C  C138  1  0.18290000  0.17029000  0.06504000  1.0
  C  C139  1  0.17029000  0.64680000  0.73171000  1.0
  C  C140  1  0.64681000  0.18290000  0.39837000  1.0
  C  C141  1  0.76174000  0.37167000  0.08914000  1.0
  C  C142  1  0.86659000  0.76174000  0.42247000  1.0
  C  C143  1  0.37167000  0.86659000  0.75581000  1.0
  C  C144  1  0.23826000  0.13341000  0.91086000  1.0
  C  C145  1  0.13341000  0.62832000  0.57753000  1.0
  C  C146  1  0.62833000  0.23826000  0.24419000  1.0
  C  C147  1  0.89275000  0.43967000  0.31094000  1.0
  C  C148  1  0.66758000  0.89275000  0.64427000  1.0
  C  C149  1  0.43966000  0.66759000  0.97761000  1.0
  C  C150  1  0.10725000  0.33242000  0.68906000  1.0
  C  C151  1  0.33242000  0.56033000  0.35573000  1.0
  C  C152  1  0.56034000  0.10725000  0.02239000  1.0
  C  C153  1  0.77141000  0.32079000  0.00712000  1.0
  C  C154  1  0.90780000  0.77141000  0.34046000  1.0
  C  C155  1  0.32078000  0.90780000  0.67380000  1.0
  C  C156  1  0.22859000  0.09220000  0.99288000  1.0
  C  C157  1  0.09220000  0.67921000  0.65954000  1.0
  C  C158  1  0.67922000  0.22858000  0.32620000  1.0
  C  C159  1  0.95925000  0.85926000  0.04005000  1.0
  C  C160  1  0.18148000  0.95927000  0.37338000  1.0
  C  C161  1  0.85926000  0.18148000  0.70672000  1.0
  C  C162  1  0.04075000  0.81851000  0.95995000  1.0
  C  C163  1  0.81852000  0.14074000  0.62662000  1.0
  C  C164  1  0.14074000  0.04075000  0.29328000  1.0
  N  N165  1  0.88381000  0.56621000  0.05403000  1.0
  N  N166  1  0.54998000  0.88380000  0.38736000  1.0
  N  N167  1  0.56623000  0.54998000  0.72069000  1.0
  N  N168  1  0.11619000  0.45003000  0.94597000  1.0
  N  N169  1  0.45002000  0.43378000  0.61264000  1.0
  N  N170  1  0.43377000  0.11621000  0.27931000  1.0
  N  N171  1  0.80868000  0.51678000  0.16800000  1.0
  N  N172  1  0.67454000  0.80867000  0.50133000  1.0
  N  N173  1  0.51679000  0.67454000  0.83467000  1.0
  N  N174  1  0.19132000  0.32546000  0.83200000  1.0
  N  N175  1  0.32546000  0.48322000  0.49867000  1.0
  N  N176  1  0.48321000  0.19132000  0.16533000  1.0
  O  O177  1  0.65682000  0.43044000  0.54660000  1.0
  O  O178  1  0.91272000  0.65684000  0.87994000  1.0
  O  O179  1  0.43044000  0.91273000  0.21327000  1.0
  O  O180  1  0.34318000  0.08726000  0.45340000  1.0
  O  O181  1  0.08727000  0.56957000  0.12006000  1.0
  O  O182  1  0.56956000  0.34317000  0.78673000  1.0
  O  O183  1  0.84389000  0.39471000  0.57633000  1.0
  O  O184  1  0.76136000  0.84390000  0.90967000  1.0
  O  O185  1  0.39474000  0.76138000  0.24301000  1.0
  O  O186  1  0.15611000  0.23860000  0.42367000  1.0
  O  O187  1  0.23864000  0.60525000  0.09033000  1.0
  O  O188  1  0.60525000  0.15612000  0.75699000  1.0
  O  O189  1  0.89134000  0.79907000  0.04604000  1.0
  O  O190  1  0.30959000  0.89136000  0.37939000  1.0
  O  O191  1  0.79906000  0.30960000  0.71273000  1.0
  O  O192  1  0.10866000  0.69040000  0.95395000  1.0
  O  O193  1  0.69041000  0.20094000  0.62061000  1.0
  O  O194  1  0.20094000  0.10866000  0.28727000  1.0
