# generated using pymatgen
data_ZnH22C22N3ClO2
_symmetry_space_group_name_H-M   'P 1'
_cell_length_a   9.36782000
_cell_length_b   10.75720000
_cell_length_c   11.29700000
_cell_angle_alpha   109.24100000
_cell_angle_beta   102.26600000
_cell_angle_gamma   98.76740000
_symmetry_Int_Tables_number   1
_chemical_formula_structural   ZnH22C22N3ClO2
_chemical_formula_sum   'Zn2 H44 C44 N6 Cl2 O4'
_cell_volume   1019.30553364
_cell_formula_units_Z   2
loop_
 _symmetry_equiv_pos_site_id
 _symmetry_equiv_pos_as_xyz
  1  'x, y, z'
loop_
 _atom_site_type_symbol
 _atom_site_label
 _atom_site_symmetry_multiplicity
 _atom_site_fract_x
 _atom_site_fract_y
 _atom_site_fract_z
 _atom_site_occupancy
  Zn  Zn0  1  0.05930000  0.35275000  0.90018000  1.0
  Zn  Zn1  1  0.94070000  0.64725000  0.09983000  1.0
  H  H2  1  0.62263000  0.23438000  0.08005000  1.0
  H  H3  1  0.37737000  0.76561000  0.91995000  1.0
  H  H4  1  0.67030000  0.18984000  0.93080000  1.0
  H  H5  1  0.32970000  0.81015000  0.06920000  1.0
  H  H6  1  0.07434000  0.23387000  0.62453000  1.0
  H  H7  1  0.92566000  0.76613000  0.37547000  1.0
  H  H8  1  0.21516000  0.78965000  0.47340000  1.0
  H  H9  1  0.78484000  0.21035000  0.52660000  1.0
  H  H10  1  0.44052000  0.27488000  0.16838000  1.0
  H  H11  1  0.55948000  0.72512000  0.83162000  1.0
  H  H12  1  0.27468000  0.33340000  0.14071000  1.0
  H  H13  1  0.72533000  0.66666667  0.85929000  1.0
  H  H14  1  0.17847000  0.57013000  0.66569000  1.0
  H  H15  1  0.82153000  0.42987000  0.33431000  1.0
  H  H16  1  0.54682000  0.06387000  0.69309000  1.0
  H  H17  1  0.45318000  0.93613000  0.30691000  1.0
  H  H18  1  0.39091000  0.02513000  0.46788000  1.0
  H  H19  1  0.60909000  0.97487000  0.53212000  1.0
  H  H20  1  0.97552000  0.83988000  0.91495000  1.0
  H  H21  1  0.02448000  0.16012000  0.08505000  1.0
  H  H22  1  0.13435000  0.94825000  0.62227000  1.0
  H  H23  1  0.86565000  0.05175000  0.37773000  1.0
  H  H24  1  0.20015000  0.58241000  0.34202000  1.0
  H  H25  1  0.79985000  0.41759000  0.65799000  1.0
  H  H26  1  0.12646000  0.51509000  0.44558000  1.0
  H  H27  1  0.87354000  0.48491000  0.55443000  1.0
  H  H28  1  0.25383000  0.33123000  0.39351000  1.0
  H  H29  1  0.74617000  0.66877000  0.60650000  1.0
  H  H30  1  0.50756000  0.95289000  0.85776000  1.0
  H  H31  1  0.49243000  0.04711000  0.14223000  1.0
  H  H32  1  0.66353000  0.99877000  0.99688000  1.0
  H  H33  1  0.33646000  0.00122000  0.00312000  1.0
  H  H34  1  0.02141000  0.00567000  0.80547000  1.0
  H  H35  1  0.97859000  0.99433000  0.19453000  1.0
  H  H36  1  0.16224000  0.10922000  0.43506000  1.0
  H  H37  1  0.83776000  0.89078000  0.56494000  1.0
  H  H38  1  0.50917000  0.74598000  0.56788000  1.0
  H  H39  1  0.49083000  0.25402000  0.43212000  1.0
  H  H40  1  0.49888000  0.52686000  0.27694000  1.0
  H  H41  1  0.50112000  0.47314000  0.72306000  1.0
  H  H42  1  0.41859000  0.54130000  0.12604000  1.0
  H  H43  1  0.58141000  0.45869000  0.87396000  1.0
  H  H44  1  0.58784000  0.48435000  0.14963000  1.0
  H  H45  1  0.41216000  0.51566000  0.85036000  1.0
  C  C46  1  0.39235000  0.16654000  0.78173000  1.0
  C  C47  1  0.60765000  0.83346000  0.21827000  1.0
  C  C48  1  0.58251000  0.16704000  0.97673000  1.0
  C  C49  1  0.41748000  0.83295000  0.02327000  1.0
  C  C50  1  0.17600000  0.19667000  0.63894000  1.0
  C  C51  1  0.82400000  0.80333000  0.36106000  1.0
  C  C52  1  0.07402000  0.69633000  0.79467000  1.0
  C  C53  1  0.92598000  0.30367000  0.20534000  1.0
  C  C54  1  0.38350000  0.33368000  0.11905000  1.0
  C  C55  1  0.61650000  0.66632000  0.88095000  1.0
  C  C56  1  0.14335000  0.66515000  0.69345000  1.0
  C  C57  1  0.85665000  0.33485000  0.30656000  1.0
  C  C58  1  0.44358000  0.09829000  0.67723000  1.0
  C  C59  1  0.55642000  0.90171000  0.32277000  1.0
  C  C60  1  0.26061000  0.21465000  0.76395000  1.0
  C  C61  1  0.73940000  0.78535000  0.23605000  1.0
  C  C62  1  0.35741000  0.07933000  0.55315000  1.0
  C  C63  1  0.64259000  0.92067000  0.44685000  1.0
  C  C64  1  0.16310000  0.75460000  0.62770000  1.0
  C  C65  1  0.83690000  0.24540000  0.37230000  1.0
  C  C66  1  0.02886000  0.81813000  0.83606000  1.0
  C  C67  1  0.97114000  0.18187000  0.16394000  1.0
  C  C68  1  0.36580000  0.54426000  0.47850000  1.0
  C  C69  1  0.63420000  0.45574000  0.52150000  1.0
  C  C70  1  0.04544000  0.59764000  0.85821000  1.0
  C  C71  1  0.95456000  0.40236000  0.14179000  1.0
  C  C72  1  0.11994000  0.87847000  0.67249000  1.0
  C  C73  1  0.88006000  0.12153000  0.32752000  1.0
  C  C74  1  0.35407000  0.26806000  0.97517000  1.0
  C  C75  1  0.64593000  0.73194000  0.02482000  1.0
  C  C76  1  0.22144000  0.58828000  0.44372000  1.0
  C  C77  1  0.77856000  0.41172000  0.55628000  1.0
  C  C78  1  0.36202000  0.40566000  0.44026000  1.0
  C  C79  1  0.63798000  0.59434000  0.55974000  1.0
  C  C80  1  0.55319000  0.01807000  0.96220000  1.0
  C  C81  1  0.44681000  0.98192000  0.03780000  1.0
  C  C82  1  0.05532000  0.90993000  0.77526000  1.0
  C  C83  1  0.94468000  0.09007000  0.22474000  1.0
  C  C84  1  0.22625000  0.12761000  0.53415000  1.0
  C  C85  1  0.77375000  0.87239000  0.46585000  1.0
  C  C86  1  0.50537000  0.63802000  0.53886000  1.0
  C  C87  1  0.49463000  0.36198000  0.46114000  1.0
  C  C88  1  0.47846000  0.48054000  0.17082000  1.0
  C  C89  1  0.52154000  0.51946000  0.82918000  1.0
  N  N90  1  0.44866000  0.20201000  0.91559000  1.0
  N  N91  1  0.55134000  0.79799000  0.08441000  1.0
  N  N92  1  0.23948000  0.27605000  0.88605000  1.0
  N  N93  1  0.76052000  0.72395000  0.11395000  1.0
  N  N94  1  0.22080000  0.72531000  0.52210000  1.0
  N  N95  1  0.77920000  0.27469000  0.47790000  1.0
  Cl  Cl96  1  0.84210000  0.20944000  0.76767000  1.0
  Cl  Cl97  1  0.15791000  0.79056000  0.23233000  1.0
  O  O98  1  0.12207000  0.50812000  0.84830000  1.0
  O  O99  1  0.87793000  0.49188000  0.15171000  1.0
  O  O100  1  0.94208000  0.60469000  0.91648000  1.0
  O  O101  1  0.05792000  0.39531000  0.08353000  1.0
