# generated using pymatgen
data_SmH19C21NO8
_symmetry_space_group_name_H-M   'P 1'
_cell_length_a   12.18420000
_cell_length_b   12.18630000
_cell_length_c   18.39480000
_cell_angle_alpha   102.22900000
_cell_angle_beta   107.84900000
_cell_angle_gamma   102.56400000
_symmetry_Int_Tables_number   1
_chemical_formula_structural   SmH19C21NO8
_chemical_formula_sum   'Sm4 H76 C84 N4 O32'
_cell_volume   2420.86152660
_cell_formula_units_Z   4
loop_
 _symmetry_equiv_pos_site_id
 _symmetry_equiv_pos_as_xyz
  1  'x, y, z'
loop_
 _atom_site_type_symbol
 _atom_site_label
 _atom_site_symmetry_multiplicity
 _atom_site_fract_x
 _atom_site_fract_y
 _atom_site_fract_z
 _atom_site_occupancy
  Sm  Sm0  1  0.32655000  0.90247000  0.98713000  1.0
  Sm  Sm1  1  0.41521000  0.33939000  0.51273000  1.0
  Sm  Sm2  1  0.67345000  0.09753000  0.01287000  1.0
  Sm  Sm3  1  0.58479000  0.66061000  0.48727000  1.0
  H  H4  1  0.48065000  0.82405000  0.89100000  1.0
  H  H5  1  0.43290000  0.58949000  0.60903000  1.0
  H  H6  1  0.51935000  0.17595000  0.10900000  1.0
  H  H7  1  0.56710000  0.41051000  0.39098000  1.0
  H  H8  1  0.38155000  0.70850000  0.88765000  1.0
  H  H9  1  0.32067000  0.49362000  0.61232000  1.0
  H  H10  1  0.61846000  0.29150000  0.11235000  1.0
  H  H11  1  0.67933000  0.50637000  0.38768000  1.0
  H  H12  1  0.06526000  0.13730000  0.04689000  1.0
  H  H13  1  0.59059000  0.01890000  0.45303000  1.0
  H  H14  1  0.93474000  0.86270000  0.95311000  1.0
  H  H15  1  0.40941000  0.98110000  0.54697000  1.0
  H  H16  1  0.01433000  0.29132000  0.13118000  1.0
  H  H17  1  0.66048000  0.88359000  0.36890000  1.0
  H  H18  1  0.98567000  0.70868000  0.86882000  1.0
  H  H19  1  0.33952000  0.11641000  0.63110000  1.0
  H  H20  1  0.38869000  0.43444000  0.29013000  1.0
  H  H21  1  0.64393000  0.09824000  0.20944000  1.0
  H  H22  1  0.61131000  0.56556000  0.70987000  1.0
  H  H23  1  0.35607000  0.90176000  0.79056000  1.0
  H  H24  1  0.43690000  0.27569000  0.20915000  1.0
  H  H25  1  0.56603000  0.22749000  0.29032000  1.0
  H  H26  1  0.56310000  0.72431000  0.79085000  1.0
  H  H27  1  0.43397000  0.77250000  0.70968000  1.0
  H  H28  1  0.23169000  0.63929000  0.45358000  1.0
  H  H29  1  0.68514000  0.77755000  0.04629000  1.0
  H  H30  1  0.76832000  0.36072000  0.54642000  1.0
  H  H31  1  0.31486000  0.22244000  0.95370000  1.0
  H  H32  1  0.09804000  0.73751000  0.37834000  1.0
  H  H33  1  0.85860000  0.71908000  0.12149000  1.0
  H  H34  1  0.90197000  0.26250000  0.62166000  1.0
  H  H35  1  0.14140000  0.28092000  0.87851000  1.0
  H  H36  1  0.00770000  0.66176000  0.22816000  1.0
  H  H37  1  0.93338000  0.77919000  0.27170000  1.0
  H  H38  1  0.99230000  0.33824000  0.77184000  1.0
  H  H39  1  0.06662000  0.22080000  0.72830000  1.0
  H  H40  1  0.05518000  0.49497000  0.15706000  1.0
  H  H41  1  0.83798000  0.89823000  0.34284000  1.0
  H  H42  1  0.94482000  0.50504000  0.84294000  1.0
  H  H43  1  0.16202000  0.10177000  0.65716000  1.0
  H  H44  1  0.98663000  0.70190000  0.04737000  1.0
  H  H45  1  0.15450000  0.93927000  0.45259000  1.0
  H  H46  1  0.01337000  0.29810000  0.95263000  1.0
  H  H47  1  0.84550000  0.06073000  0.54742000  1.0
  H  H48  1  0.16539000  0.47611000  0.95133000  1.0
  H  H49  1  0.02477000  0.21401000  0.54863000  1.0
  H  H50  1  0.83461000  0.52389000  0.04867000  1.0
  H  H51  1  0.97523000  0.78599000  0.45137000  1.0
  H  H52  1  0.06855000  0.97085000  0.87935000  1.0
  H  H53  1  0.59111000  0.18910000  0.62046000  1.0
  H  H54  1  0.93145000  0.02915000  0.12065000  1.0
  H  H55  1  0.40888000  0.81089000  0.37954000  1.0
  H  H56  1  0.91467000  0.99058000  0.79367000  1.0
  H  H57  1  0.69659000  0.12087000  0.70607000  1.0
  H  H58  1  0.08533000  0.00942000  0.20633000  1.0
  H  H59  1  0.30341000  0.87913000  0.29393000  1.0
  H  H60  1  0.83246000  0.85956000  0.71054000  1.0
  H  H61  1  0.64869000  0.12168000  0.78918000  1.0
  H  H62  1  0.16754000  0.14044000  0.28946000  1.0
  H  H63  1  0.35131000  0.87832000  0.21082000  1.0
  H  H64  1  0.92057000  0.98532000  0.69685000  1.0
  H  H65  1  0.78823000  0.22342000  0.80292000  1.0
  H  H66  1  0.07943000  0.01467000  0.30315000  1.0
  H  H67  1  0.21177000  0.77658000  0.19708000  1.0
  H  H68  1  0.11827000  0.78900000  0.71830000  1.0
  H  H69  1  0.57061000  0.39992000  0.78164000  1.0
  H  H70  1  0.88173000  0.21100000  0.28170000  1.0
  H  H71  1  0.42939000  0.60008000  0.21836000  1.0
  H  H72  1  0.05533000  0.86842000  0.65318000  1.0
  H  H73  1  0.71520000  0.40198000  0.84669000  1.0
  H  H74  1  0.94467000  0.13158000  0.34682000  1.0
  H  H75  1  0.28480000  0.59802000  0.15331000  1.0
  H  H76  1  0.95793000  0.74124000  0.65987000  1.0
  H  H77  1  0.58131000  0.29800000  0.84003000  1.0
  H  H78  1  0.04207000  0.25876000  0.34013000  1.0
  H  H79  1  0.41869000  0.70200000  0.15998000  1.0
  C  C80  1  0.28412000  0.10225000  0.07407000  1.0
  C  C81  1  0.52824000  0.21035000  0.42565000  1.0
  C  C82  1  0.71588000  0.89775000  0.92593000  1.0
  C  C83  1  0.47176000  0.78965000  0.57435000  1.0
  C  C84  1  0.25460000  0.19678000  0.12296000  1.0
  C  C85  1  0.57377000  0.13182000  0.37673000  1.0
  C  C86  1  0.74540000  0.80322000  0.87704000  1.0
  C  C87  1  0.42622000  0.86818000  0.62326000  1.0
  C  C88  1  0.13542000  0.20232000  0.10054000  1.0
  C  C89  1  0.60186000  0.03523000  0.39930000  1.0
  C  C90  1  0.86457000  0.79769000  0.89945000  1.0
  C  C91  1  0.39814000  0.96476000  0.60070000  1.0
  C  C92  1  0.10742000  0.28906000  0.14749000  1.0
  C  C93  1  0.64184000  0.96028000  0.35249000  1.0
  C  C94  1  0.89258000  0.71094000  0.85252000  1.0
  C  C95  1  0.35816000  0.03972000  0.64751000  1.0
  C  C96  1  0.19718000  0.37265000  0.21703000  1.0
  C  C97  1  0.65577000  0.98030000  0.28286000  1.0
  C  C98  1  0.80281000  0.62735000  0.78297000  1.0
  C  C99  1  0.34424000  0.01970000  0.71714000  1.0
  C  C100  1  0.31667000  0.36781000  0.23835000  1.0
  C  C101  1  0.62920000  0.07815000  0.26130000  1.0
  C  C102  1  0.68334000  0.63219000  0.76165000  1.0
  C  C103  1  0.37081000  0.92186000  0.73871000  1.0
  C  C104  1  0.34453000  0.28016000  0.19210000  1.0
  C  C105  1  0.58777000  0.15235000  0.30748000  1.0
  C  C106  1  0.65547000  0.71983000  0.80790000  1.0
  C  C107  1  0.41223000  0.84765000  0.69252000  1.0
  C  C108  1  0.28819000  0.44882000  0.39783000  1.0
  C  C109  1  0.55073000  0.89027000  0.10221000  1.0
  C  C110  1  0.71181000  0.55118000  0.60217000  1.0
  C  C111  1  0.44927000  0.10973000  0.89779000  1.0
  C  C112  1  0.21562000  0.50941000  0.34803000  1.0
  C  C113  1  0.66114000  0.86738000  0.15189000  1.0
  C  C114  1  0.78438000  0.49059000  0.65198000  1.0
  C  C115  1  0.33886000  0.13261000  0.84811000  1.0
  C  C116  1  0.19148000  0.60698000  0.38843000  1.0
  C  C117  1  0.71813000  0.80265000  0.11146000  1.0
  C  C118  1  0.80852000  0.39302000  0.61157000  1.0
  C  C119  1  0.28187000  0.19735000  0.88854000  1.0
  C  C120  1  0.11644000  0.66202000  0.34610000  1.0
  C  C121  1  0.81555000  0.76995000  0.15376000  1.0
  C  C122  1  0.88356000  0.33798000  0.65390000  1.0
  C  C123  1  0.18445000  0.23005000  0.84624000  1.0
  C  C124  1  0.06594000  0.61987000  0.26264000  1.0
  C  C125  1  0.85708000  0.80308000  0.23724000  1.0
  C  C126  1  0.93406000  0.38013000  0.73736000  1.0
  C  C127  1  0.14292000  0.19693000  0.76276000  1.0
  C  C128  1  0.09160000  0.52463000  0.22223000  1.0
  C  C129  1  0.80242000  0.86939000  0.27766000  1.0
  C  C130  1  0.90840000  0.47537000  0.77777000  1.0
  C  C131  1  0.19758000  0.13061000  0.72234000  1.0
  C  C132  1  0.16687000  0.46794000  0.26363000  1.0
  C  C133  1  0.70431000  0.90321000  0.23628000  1.0
  C  C134  1  0.83313000  0.53206000  0.73637000  1.0
  C  C135  1  0.29569000  0.09680000  0.76372000  1.0
  C  C136  1  0.17103000  0.70307000  0.99678000  1.0
  C  C137  1  0.20627000  0.17417000  0.50314000  1.0
  C  C138  1  0.82898000  0.29693000  0.00322000  1.0
  C  C139  1  0.79372000  0.82583000  0.49686000  1.0
  C  C140  1  0.08423000  0.59813000  0.99986000  1.0
  C  C141  1  0.09828000  0.08434000  0.50014000  1.0
  C  C142  1  0.91577000  0.40188000  0.00014000  1.0
  C  C143  1  0.90172000  0.91566000  0.49986000  1.0
  C  C144  1  0.99131000  0.61283000  0.02722000  1.0
  C  C145  1  0.08560000  0.96411000  0.47274000  1.0
  C  C146  1  0.00870000  0.38717000  0.97278000  1.0
  C  C147  1  0.91440000  0.03589000  0.52726000  1.0
  C  C148  1  0.09263000  0.48488000  0.97270000  1.0
  C  C149  1  0.01219000  0.11991000  0.52730000  1.0
  C  C150  1  0.90737000  0.51512000  0.02730000  1.0
  C  C151  1  0.98781000  0.88009000  0.47270000  1.0
  C  C152  1  0.09085000  0.91278000  0.83516000  1.0
  C  C153  1  0.57731000  0.25562000  0.66469000  1.0
  C  C154  1  0.90915000  0.08722000  0.16484000  1.0
  C  C155  1  0.42269000  0.74438000  0.33531000  1.0
  C  C156  1  0.91588000  0.93431000  0.73900000  1.0
  C  C157  1  0.69504000  0.17670000  0.76077000  1.0
  C  C158  1  0.08412000  0.06569000  0.26100000  1.0
  C  C159  1  0.30496000  0.82330000  0.23923000  1.0
  C  C160  1  0.03926000  0.81730000  0.69352000  1.0
  C  C161  1  0.62369000  0.34566000  0.80636000  1.0
  C  C162  1  0.96074000  0.18270000  0.30648000  1.0
  C  C163  1  0.37631000  0.65434000  0.19364000  1.0
  N  N164  1  0.02048000  0.89124000  0.75920000  1.0
  N  N165  1  0.63183000  0.26117000  0.74062000  1.0
  N  N166  1  0.97952000  0.10876000  0.24080000  1.0
  N  N167  1  0.36817000  0.73883000  0.25938000  1.0
  O  O168  1  0.38936000  0.08700000  0.10062000  1.0
  O  O169  1  0.48633000  0.28896000  0.39910000  1.0
  O  O170  1  0.61064000  0.91300000  0.89937000  1.0
  O  O171  1  0.51368000  0.71104000  0.60090000  1.0
  O  O172  1  0.20561000  0.03552000  0.00686000  1.0
  O  O173  1  0.52879000  0.19906000  0.49289000  1.0
  O  O174  1  0.79439000  0.96448000  0.99313000  1.0
  O  O175  1  0.47121000  0.80094000  0.50711000  1.0
  O  O176  1  0.24290000  0.34327000  0.39391000  1.0
  O  O177  1  0.44905000  0.84898000  0.10612000  1.0
  O  O178  1  0.75710000  0.65673000  0.60609000  1.0
  O  O179  1  0.55095000  0.15102000  0.89388000  1.0
  O  O180  1  0.39576000  0.50849000  0.44846000  1.0
  O  O181  1  0.55991000  0.94727000  0.05163000  1.0
  O  O182  1  0.60424000  0.49151000  0.55154000  1.0
  O  O183  1  0.44009000  0.05273000  0.94837000  1.0
  O  O184  1  0.23933000  0.68774000  0.95719000  1.0
  O  O185  1  0.23044000  0.28204000  0.54266000  1.0
  O  O186  1  0.76067000  0.31226000  0.04281000  1.0
  O  O187  1  0.76956000  0.71796000  0.45734000  1.0
  O  O188  1  0.17278000  0.80614000  0.03221000  1.0
  O  O189  1  0.27390000  0.14049000  0.46768000  1.0
  O  O190  1  0.82722000  0.19387000  0.96779000  1.0
  O  O191  1  0.72610000  0.85951000  0.53232000  1.0
  O  O192  1  0.39720000  0.79112000  0.89016000  1.0
  O  O193  1  0.40072000  0.50681000  0.60968000  1.0
  O  O194  1  0.60280000  0.20888000  0.10984000  1.0
  O  O195  1  0.59928000  0.49319000  0.39032000  1.0
  O  O196  1  0.17754000  0.87129000  0.85724000  1.0
  O  O197  1  0.51370000  0.32022000  0.64266000  1.0
  O  O198  1  0.82246000  0.12871000  0.14276000  1.0
  O  O199  1  0.48629000  0.67977000  0.35734000  1.0
