# generated using pymatgen
data_DyAgH8C12(N2O5)2
_symmetry_space_group_name_H-M   'P 1'
_cell_length_a   6.74658000
_cell_length_b   9.26728000
_cell_length_c   14.45755507
_cell_angle_alpha   78.10921188
_cell_angle_beta   81.51596900
_cell_angle_gamma   76.20900000
_symmetry_Int_Tables_number   1
_chemical_formula_structural   DyAgH8C12(N2O5)2
_chemical_formula_sum   'Dy2 Ag2 H16 C24 N8 O20'
_cell_volume   854.40735778
_cell_formula_units_Z   2
loop_
 _symmetry_equiv_pos_site_id
 _symmetry_equiv_pos_as_xyz
  1  'x, y, z'
loop_
 _atom_site_type_symbol
 _atom_site_label
 _atom_site_symmetry_multiplicity
 _atom_site_fract_x
 _atom_site_fract_y
 _atom_site_fract_z
 _atom_site_occupancy
  Dy  Dy0  1  0.18231000  0.51049000  0.72717000  1.0
  Dy  Dy1  1  0.81769000  0.48951000  0.27283000  1.0
  Ag  Ag2  1  0.79187000  0.17639000  0.80096000  1.0
  Ag  Ag3  1  0.20811000  0.82360000  0.19904000  1.0
  H  H4  1  0.48612000  0.72858000  0.83986000  1.0
  H  H5  1  0.51387000  0.27142000  0.16014000  1.0
  H  H6  1  0.39114000  0.65754000  0.01716000  1.0
  H  H7  1  0.60885000  0.34247000  0.98283000  1.0
  H  H8  1  0.81625000  0.04661000  0.61573000  1.0
  H  H9  1  0.18377000  0.95339000  0.38427000  1.0
  H  H10  1  0.83492000  0.13773000  0.43775000  1.0
  H  H11  1  0.16507000  0.86227000  0.56226000  1.0
  H  H12  1  0.03284000  0.61318000  0.91844000  1.0
  H  H13  1  0.96717000  0.38683000  0.08156000  1.0
  H  H14  1  0.16715000  0.44497000  0.93163000  1.0
  H  H15  1  0.83285000  0.55503000  0.06838000  1.0
  H  H16  1  0.87932000  0.76140000  0.70785000  1.0
  H  H17  1  0.12070000  0.23861000  0.29214000  1.0
  H  H18  1  0.98878000  0.82083000  0.77806000  1.0
  H  H19  1  0.01121000  0.17918000  0.22194000  1.0
  C  C20  1  0.41765000  0.81487000  0.88336000  1.0
  C  C21  1  0.58235000  0.18514000  0.11663000  1.0
  C  C22  1  0.36438000  0.77493000  0.98108000  1.0
  C  C23  1  0.63559000  0.22508000  0.01892000  1.0
  C  C24  1  0.24404000  0.02614000  0.99125000  1.0
  C  C25  1  0.75594000  0.97385000  0.00875000  1.0
  C  C26  1  0.29715000  0.06418000  0.89309000  1.0
  C  C27  1  0.70282000  0.93584000  0.10691000  1.0
  C  C28  1  0.25477000  0.22441000  0.84012000  1.0
  C  C29  1  0.74522000  0.77559000  0.15987000  1.0
  C  C30  1  0.14636000  0.14197000  0.05375000  1.0
  C  C31  1  0.85363000  0.85803000  0.94624000  1.0
  C  C32  1  0.79814000  0.16624000  0.58540000  1.0
  C  C33  1  0.20188000  0.83376000  0.41459000  1.0
  C  C34  1  0.80976000  0.21585000  0.48734000  1.0
  C  C35  1  0.19025000  0.78414000  0.51266000  1.0
  C  C36  1  0.75540000  0.46122000  0.51045000  1.0
  C  C37  1  0.24462000  0.53878000  0.48955000  1.0
  C  C38  1  0.73878000  0.41169000  0.60910000  1.0
  C  C39  1  0.26124000  0.58831000  0.39090000  1.0
  C  C40  1  0.68709000  0.52114000  0.67840000  1.0
  C  C41  1  0.31292000  0.47886000  0.32160000  1.0
  C  C42  1  0.73513000  0.62717000  0.46636000  1.0
  C  C43  1  0.26489000  0.37283000  0.53364000  1.0
  N  N44  1  0.38770000  0.95903000  0.83956000  1.0
  N  N45  1  0.61228000  0.04098000  0.16044000  1.0
  N  N46  1  0.28104000  0.88026000  0.03435000  1.0
  N  N47  1  0.71893000  0.11973000  0.96565000  1.0
  N  N48  1  0.76448000  0.26320000  0.64634000  1.0
  N  N49  1  0.23555000  0.73680000  0.35366000  1.0
  N  N50  1  0.79198000  0.36261000  0.45030000  1.0
  N  N51  1  0.20803000  0.63739000  0.54970000  1.0
  O  O52  1  0.07396000  0.28654000  0.81830000  1.0
  O  O53  1  0.92602000  0.71348000  0.18171000  1.0
  O  O54  1  0.40003000  0.29425000  0.81558000  1.0
  O  O55  1  0.59994000  0.70575000  0.18442000  1.0
  O  O56  1  0.14421000  0.28013000  0.02021000  1.0
  O  O57  1  0.85581000  0.71987000  0.97980000  1.0
  O  O58  1  0.07062000  0.09224000  0.13650000  1.0
  O  O59  1  0.92936000  0.90775000  0.86350000  1.0
  O  O60  1  0.83403000  0.55084000  0.71094000  1.0
  O  O61  1  0.16597000  0.44916000  0.28906000  1.0
  O  O62  1  0.49922000  0.56846000  0.70411000  1.0
  O  O63  1  0.50080000  0.43153000  0.29588000  1.0
  O  O64  1  0.71205000  0.71991000  0.52015000  1.0
  O  O65  1  0.28795000  0.28009000  0.47985000  1.0
  O  O66  1  0.74569000  0.65409000  0.37489000  1.0
  O  O67  1  0.25431000  0.34590000  0.62511000  1.0
  O  O68  1  0.14887000  0.54254000  0.88738000  1.0
  O  O69  1  0.85115000  0.45746000  0.11262000  1.0
  O  O70  1  0.01428000  0.77197000  0.71933000  1.0
  O  O71  1  0.98574000  0.22804000  0.28067000  1.0
