# generated using pymatgen
data_EuP3H33C18(NO5)3
_symmetry_space_group_name_H-M   'P 1'
_cell_length_a   12.34240000
_cell_length_b   12.34250000
_cell_length_c   18.77890000
_cell_angle_alpha   90.00080000
_cell_angle_beta   90.00090000
_cell_angle_gamma   89.99940000
_symmetry_Int_Tables_number   1
_chemical_formula_structural   EuP3H33C18(NO5)3
_chemical_formula_sum   'Eu4 P12 H132 C72 N12 O60'
_cell_volume   2860.70386169
_cell_formula_units_Z   4
loop_
 _symmetry_equiv_pos_site_id
 _symmetry_equiv_pos_as_xyz
  1  'x, y, z'
loop_
 _atom_site_type_symbol
 _atom_site_label
 _atom_site_symmetry_multiplicity
 _atom_site_fract_x
 _atom_site_fract_y
 _atom_site_fract_z
 _atom_site_occupancy
  Eu  Eu0  1  0.03679000  0.07040000  0.80374000  1.0
  Eu  Eu1  1  0.96321000  0.92960000  0.30375000  1.0
  Eu  Eu2  1  0.07039000  0.96320000  0.55375000  1.0
  Eu  Eu3  1  0.92961000  0.03680000  0.05374000  1.0
  P  P4  1  0.18771000  0.07400000  0.97938000  1.0
  P  P5  1  0.81229000  0.92600000  0.47938000  1.0
  P  P6  1  0.07399000  0.81228000  0.72937000  1.0
  P  P7  1  0.92601000  0.18772000  0.22937000  1.0
  P  P8  1  0.92524000  0.26804000  0.93193000  1.0
  P  P9  1  0.07476000  0.73196000  0.43193000  1.0
  P  P10  1  0.26802000  0.07477000  0.68194000  1.0
  P  P11  1  0.73198000  0.92523000  0.18195000  1.0
  P  P12  1  0.96977000  0.20247000  0.62979000  1.0
  P  P13  1  0.03023000  0.79753000  0.12980000  1.0
  P  P14  1  0.20248000  0.03021000  0.37980000  1.0
  P  P15  1  0.79752000  0.96979000  0.87980000  1.0
  H  H16  1  0.32511000  0.19024000  0.94065000  1.0
  H  H17  1  0.67489000  0.80976000  0.44065000  1.0
  H  H18  1  0.19022000  0.67486000  0.69066000  1.0
  H  H19  1  0.80978000  0.32514000  0.19066000  1.0
  H  H20  1  0.81577000  0.39193000  0.87104000  1.0
  H  H21  1  0.18423000  0.60807000  0.37104000  1.0
  H  H22  1  0.39190000  0.18421000  0.62105000  1.0
  H  H23  1  0.60810000  0.81579000  0.12105000  1.0
  H  H24  1  0.84569000  0.30482000  0.57083000  1.0
  H  H25  1  0.15431000  0.69518000  0.07083000  1.0
  H  H26  1  0.30482000  0.15429000  0.32083000  1.0
  H  H27  1  0.69518000  0.84571000  0.82083000  1.0
  H  H28  1  0.38893000  0.97064000  0.93700000  1.0
  H  H29  1  0.61107000  0.02935000  0.43700000  1.0
  H  H30  1  0.97064000  0.61107000  0.68701000  1.0
  H  H31  1  0.02936000  0.38893000  0.18701000  1.0
  H  H32  1  0.03028000  0.45972000  0.87355000  1.0
  H  H33  1  0.96972000  0.54028000  0.37355000  1.0
  H  H34  1  0.45970000  0.96971000  0.62356000  1.0
  H  H35  1  0.54030000  0.03029000  0.12355000  1.0
  H  H36  1  0.05765000  0.38456000  0.54405000  1.0
  H  H37  1  0.94235000  0.61544000  0.04405000  1.0
  H  H38  1  0.38458000  0.94234000  0.29405000  1.0
  H  H39  1  0.61542000  0.05766000  0.79405000  1.0
  H  H40  1  0.34958000  0.76415000  0.01431000  1.0
  H  H41  1  0.65042000  0.23585000  0.51432000  1.0
  H  H42  1  0.76413000  0.65045000  0.76431000  1.0
  H  H43  1  0.23587000  0.34955000  0.26431000  1.0
  H  H44  1  0.54166000  0.77136000  0.91612000  1.0
  H  H45  1  0.45834000  0.22864000  0.41611000  1.0
  H  H46  1  0.77136000  0.45835000  0.66612000  1.0
  H  H47  1  0.22864000  0.54165000  0.16612000  1.0
  H  H48  1  0.44461000  0.66769000  0.93030000  1.0
  H  H49  1  0.55539000  0.33231000  0.43030000  1.0
  H  H50  1  0.66768000  0.55539000  0.68030000  1.0
  H  H51  1  0.33232000  0.44461000  0.18030000  1.0
  H  H52  1  0.44226000  0.85379000  0.82709000  1.0
  H  H53  1  0.55774000  0.14621000  0.32709000  1.0
  H  H54  1  0.85379000  0.55773000  0.57709000  1.0
  H  H55  1  0.14621000  0.44226000  0.07709000  1.0
  H  H56  1  0.36564000  0.73236000  0.82003000  1.0
  H  H57  1  0.63436000  0.26764000  0.32004000  1.0
  H  H58  1  0.73236000  0.63435000  0.57003000  1.0
  H  H59  1  0.26764000  0.36564000  0.07003000  1.0
  H  H60  1  0.25984000  0.91999000  0.85326000  1.0
  H  H61  1  0.74016000  0.08001000  0.35325000  1.0
  H  H62  1  0.91999000  0.74016000  0.60325000  1.0
  H  H63  1  0.08001000  0.25984000  0.10325000  1.0
  H  H64  1  0.22829000  0.80121000  0.90280000  1.0
  H  H65  1  0.77171000  0.19879000  0.40280000  1.0
  H  H66  1  0.80121000  0.77171000  0.65279000  1.0
  H  H67  1  0.19879000  0.22829000  0.15278000  1.0
  H  H68  1  0.29540000  0.96230000  0.05541000  1.0
  H  H69  1  0.70460000  0.03770000  0.55541000  1.0
  H  H70  1  0.96227000  0.70463000  0.80541000  1.0
  H  H71  1  0.03773000  0.29537000  0.30541000  1.0
  H  H72  1  0.19281000  0.88532000  0.01122000  1.0
  H  H73  1  0.80719000  0.11468000  0.51122000  1.0
  H  H74  1  0.88530000  0.80721000  0.76120000  1.0
  H  H75  1  0.11470000  0.19279000  0.26120000  1.0
  H  H76  1  0.23485000  0.44620000  0.95767000  1.0
  H  H77  1  0.76515000  0.55380000  0.45767000  1.0
  H  H78  1  0.44621000  0.76515000  0.70767000  1.0
  H  H79  1  0.55379000  0.23485000  0.20767000  1.0
  H  H80  1  0.31159000  0.56635000  0.86935000  1.0
  H  H81  1  0.68841000  0.43365000  0.36935000  1.0
  H  H82  1  0.56637000  0.68843000  0.61934000  1.0
  H  H83  1  0.43363000  0.31157000  0.11934000  1.0
  H  H84  1  0.18267000  0.59960000  0.83364000  1.0
  H  H85  1  0.81733000  0.40040000  0.33364000  1.0
  H  H86  1  0.59959000  0.81736000  0.58364000  1.0
  H  H87  1  0.40041000  0.18264000  0.08363000  1.0
  H  H88  1  0.21339000  0.45634000  0.75431000  1.0
  H  H89  1  0.78661000  0.54366000  0.25431000  1.0
  H  H90  1  0.45631000  0.78661000  0.50431000  1.0
  H  H91  1  0.54369000  0.21339000  0.00431000  1.0
  H  H92  1  0.31340000  0.39519000  0.80906000  1.0
  H  H93  1  0.68660000  0.60481000  0.30906000  1.0
  H  H94  1  0.39519000  0.68659000  0.55907000  1.0
  H  H95  1  0.60481000  0.31341000  0.05907000  1.0
  H  H96  1  0.08778000  0.32855000  0.80239000  1.0
  H  H97  1  0.91222000  0.67145000  0.30239000  1.0
  H  H98  1  0.32853000  0.91222000  0.55240000  1.0
  H  H99  1  0.67147000  0.08778000  0.05240000  1.0
  H  H100  1  0.18871000  0.28287000  0.86389000  1.0
  H  H101  1  0.81129000  0.71713000  0.36389000  1.0
  H  H102  1  0.28286000  0.81129000  0.61390000  1.0
  H  H103  1  0.71714000  0.18871000  0.11390000  1.0
  H  H104  1  0.02070000  0.40100000  0.00039000  1.0
  H  H105  1  0.97930000  0.59900000  0.50039000  1.0
  H  H106  1  0.40099000  0.97930000  0.75040000  1.0
  H  H107  1  0.59901000  0.02070000  0.25039000  1.0
  H  H108  1  0.10819000  0.29122000  0.97587000  1.0
  H  H109  1  0.89181000  0.70878000  0.47587000  1.0
  H  H110  1  0.29121000  0.89181000  0.72588000  1.0
  H  H111  1  0.70879000  0.10819000  0.22588000  1.0
  H  H112  1  0.26282000  0.39660000  0.62692000  1.0
  H  H113  1  0.73719000  0.60340000  0.12692000  1.0
  H  H114  1  0.39663000  0.73716000  0.37691000  1.0
  H  H115  1  0.60338000  0.26284000  0.87691000  1.0
  H  H116  1  0.24492000  0.53072000  0.49326000  1.0
  H  H117  1  0.75508000  0.46928000  0.99326000  1.0
  H  H118  1  0.53074000  0.75509000  0.24325000  1.0
  H  H119  1  0.46926000  0.24491000  0.74325000  1.0
  H  H120  1  0.35601000  0.45516000  0.52751000  1.0
  H  H121  1  0.64399000  0.54484000  0.02751000  1.0
  H  H122  1  0.45521000  0.64399000  0.27750000  1.0
  H  H123  1  0.54479000  0.35601000  0.77750000  1.0
  H  H124  1  0.30595000  0.31804000  0.44378000  1.0
  H  H125  1  0.69405000  0.68196000  0.94378000  1.0
  H  H126  1  0.31805000  0.69403000  0.19379000  1.0
  H  H127  1  0.68195000  0.30597000  0.69379000  1.0
  H  H128  1  0.18133000  0.38454000  0.42673000  1.0
  H  H129  1  0.81867000  0.61546000  0.92673000  1.0
  H  H130  1  0.38454000  0.81865000  0.17672000  1.0
  H  H131  1  0.61546000  0.18135000  0.67672000  1.0
  H  H132  1  0.23428000  0.22377000  0.54620000  1.0
  H  H133  1  0.76572000  0.77623000  0.04620000  1.0
  H  H134  1  0.22379000  0.76570000  0.29620000  1.0
  H  H135  1  0.77621000  0.23430000  0.79620000  1.0
  H  H136  1  0.11666000  0.22731000  0.49146000  1.0
  H  H137  1  0.88334000  0.77269000  0.99146000  1.0
  H  H138  1  0.22732000  0.88332000  0.24146000  1.0
  H  H139  1  0.77268000  0.11668000  0.74146000  1.0
  H  H140  1  0.05752000  0.36125000  0.67368000  1.0
  H  H141  1  0.94248000  0.63876000  0.17368000  1.0
  H  H142  1  0.36126000  0.94245000  0.42368000  1.0
  H  H143  1  0.63874000  0.05755000  0.92368000  1.0
  H  H144  1  0.15245000  0.25342000  0.66226000  1.0
  H  H145  1  0.84755000  0.74658000  0.16226000  1.0
  H  H146  1  0.25344000  0.84752000  0.41226000  1.0
  H  H147  1  0.74656000  0.15248000  0.91226000  1.0
  C  C148  1  0.40671000  0.81689000  0.98569000  1.0
  C  C149  1  0.59328000  0.18311000  0.48569000  1.0
  C  C150  1  0.81687000  0.59330000  0.73569000  1.0
  C  C151  1  0.18313000  0.40670000  0.23569000  1.0
  C  C152  1  0.45479000  0.75496000  0.92171000  1.0
  C  C153  1  0.54521000  0.24504000  0.42171000  1.0
  C  C154  1  0.75496000  0.54522000  0.67171000  1.0
  C  C155  1  0.24504000  0.45478000  0.17171000  1.0
  C  C156  1  0.39126000  0.79666000  0.85652000  1.0
  C  C157  1  0.60874000  0.20334000  0.35652000  1.0
  C  C158  1  0.79666000  0.60873000  0.60652000  1.0
  C  C159  1  0.20334000  0.39127000  0.10652000  1.0
  C  C160  1  0.29371000  0.85630000  0.88685000  1.0
  C  C161  1  0.70629000  0.14369000  0.38685000  1.0
  C  C162  1  0.85630000  0.70628000  0.63684000  1.0
  C  C163  1  0.14370000  0.29372000  0.13684000  1.0
  C  C164  1  0.25535000  0.94771000  0.00415000  1.0
  C  C165  1  0.74465000  0.05229000  0.50415000  1.0
  C  C166  1  0.94769000  0.74466000  0.75414000  1.0
  C  C167  1  0.05231000  0.25534000  0.25414000  1.0
  C  C168  1  0.48931000  0.85949000  0.03896000  1.0
  C  C169  1  0.51069000  0.14051000  0.53896000  1.0
  C  C170  1  0.85947000  0.51071000  0.78896000  1.0
  C  C171  1  0.14053000  0.48930000  0.28896000  1.0
  C  C172  1  0.17698000  0.49413000  0.92622000  1.0
  C  C173  1  0.82302000  0.50587000  0.42622000  1.0
  C  C174  1  0.49413000  0.82303000  0.67622000  1.0
  C  C175  1  0.50587000  0.17697000  0.17622000  1.0
  C  C176  1  0.23072000  0.53435000  0.85782000  1.0
  C  C177  1  0.76927000  0.46565000  0.35782000  1.0
  C  C178  1  0.53435000  0.76929000  0.60782000  1.0
  C  C179  1  0.46565000  0.23071000  0.10782000  1.0
  C  C180  1  0.23337000  0.43371000  0.80913000  1.0
  C  C181  1  0.76663000  0.56629000  0.30913000  1.0
  C  C182  1  0.43370000  0.76663000  0.55913000  1.0
  C  C183  1  0.56630000  0.23337000  0.05913000  1.0
  C  C184  1  0.14993000  0.35416000  0.84024000  1.0
  C  C185  1  0.85007000  0.64584000  0.34024000  1.0
  C  C186  1  0.35415000  0.85007000  0.59025000  1.0
  C  C187  1  0.64585000  0.14993000  0.09025000  1.0
  C  C188  1  0.04506000  0.34682000  0.95699000  1.0
  C  C189  1  0.95494000  0.65318000  0.45699000  1.0
  C  C190  1  0.34681000  0.95494000  0.70700000  1.0
  C  C191  1  0.65319000  0.04506000  0.20700000  1.0
  C  C192  1  0.12798000  0.58207000  0.97377000  1.0
  C  C193  1  0.87202000  0.41793000  0.47377000  1.0
  C  C194  1  0.58206000  0.87204000  0.72377000  1.0
  C  C195  1  0.41794000  0.12797000  0.22377000  1.0
  C  C196  1  0.20800000  0.43416000  0.58786000  1.0
  C  C197  1  0.79200000  0.56584000  0.08786000  1.0
  C  C198  1  0.43419000  0.79199000  0.33786000  1.0
  C  C199  1  0.56581000  0.20801000  0.83786000  1.0
  C  C200  1  0.26864000  0.45329000  0.51715000  1.0
  C  C201  1  0.73136000  0.54671000  0.01715000  1.0
  C  C202  1  0.45332000  0.73136000  0.26714000  1.0
  C  C203  1  0.54668000  0.26864000  0.76714000  1.0
  C  C204  1  0.23624000  0.35700000  0.46894000  1.0
  C  C205  1  0.76376000  0.64300000  0.96894000  1.0
  C  C206  1  0.35701000  0.76374000  0.21894000  1.0
  C  C207  1  0.64299000  0.23625000  0.71894000  1.0
  C  C208  1  0.17821000  0.27687000  0.51749000  1.0
  C  C209  1  0.82179000  0.72313000  0.01749000  1.0
  C  C210  1  0.27689000  0.82177000  0.26749000  1.0
  C  C211  1  0.72311000  0.17823000  0.76749000  1.0
  C  C212  1  0.08419000  0.29628000  0.63777000  1.0
  C  C213  1  0.91581000  0.70372000  0.13777000  1.0
  C  C214  1  0.29630000  0.91579000  0.38777000  1.0
  C  C215  1  0.70370000  0.08421000  0.88778000  1.0
  C  C216  1  0.15888000  0.53486000  0.62228000  1.0
  C  C217  1  0.84112000  0.46514000  0.12228000  1.0
  C  C218  1  0.53488000  0.84110000  0.37228000  1.0
  C  C219  1  0.46511000  0.15890000  0.87227000  1.0
  N  N220  1  0.33855000  0.90613000  0.95370000  1.0
  N  N221  1  0.66145000  0.09387000  0.45370000  1.0
  N  N222  1  0.90613000  0.66146000  0.70369000  1.0
  N  N223  1  0.09388000  0.33854000  0.20369000  1.0
  N  N224  1  0.09290000  0.41526000  0.89927000  1.0
  N  N225  1  0.90710000  0.58474000  0.39927000  1.0
  N  N226  1  0.41524000  0.90711000  0.64927000  1.0
  N  N227  1  0.58476000  0.09290000  0.14927000  1.0
  N  N228  1  0.12396000  0.34922000  0.57152000  1.0
  N  N229  1  0.87604000  0.65077000  0.07152000  1.0
  N  N230  1  0.34924000  0.87603000  0.32152000  1.0
  N  N231  1  0.65076000  0.12397000  0.82152000  1.0
  O  O232  1  0.14125000  0.06343000  0.90461000  1.0
  O  O233  1  0.85875000  0.93657000  0.40461000  1.0
  O  O234  1  0.06344000  0.85871000  0.65460000  1.0
  O  O235  1  0.93656000  0.14129000  0.15459000  1.0
  O  O236  1  0.10493000  0.08862000  0.03836000  1.0
  O  O237  1  0.89507000  0.91138000  0.53836000  1.0
  O  O238  1  0.08861000  0.89508000  0.78834000  1.0
  O  O239  1  0.91139000  0.10492000  0.28834000  1.0
  O  O240  1  0.27173000  0.16811000  0.98546000  1.0
  O  O241  1  0.72827000  0.83189000  0.48546000  1.0
  O  O242  1  0.16808000  0.72824000  0.73547000  1.0
  O  O243  1  0.83192000  0.27176000  0.23547000  1.0
  O  O244  1  0.55013000  0.78533000  0.06447000  1.0
  O  O245  1  0.44988000  0.21468000  0.56447000  1.0
  O  O246  1  0.78530000  0.44990000  0.81447000  1.0
  O  O247  1  0.21471000  0.55010000  0.31447000  1.0
  O  O248  1  0.49016000  0.95897000  0.05399000  1.0
  O  O249  1  0.50984000  0.04103000  0.55399000  1.0
  O  O250  1  0.95895000  0.50983000  0.80398000  1.0
  O  O251  1  0.04106000  0.49017000  0.30398000  1.0
  O  O252  1  0.95269000  0.20919000  0.86292000  1.0
  O  O253  1  0.04731000  0.79081000  0.36293000  1.0
  O  O254  1  0.20916000  0.04731000  0.61295000  1.0
  O  O255  1  0.79084000  0.95269000  0.11294000  1.0
  O  O256  1  0.89857000  0.19715000  0.99569000  1.0
  O  O257  1  0.10143000  0.80285000  0.49569000  1.0
  O  O258  1  0.19714000  0.10143000  0.74571000  1.0
  O  O259  1  0.80286000  0.89857000  0.24570000  1.0
  O  O260  1  0.82930000  0.34850000  0.92166000  1.0
  O  O261  1  0.17070000  0.65150000  0.42166000  1.0
  O  O262  1  0.34847000  0.17071000  0.67167000  1.0
  O  O263  1  0.65153000  0.82929000  0.17167000  1.0
  O  O264  1  0.02621000  0.58772000  0.97713000  1.0
  O  O265  1  0.97379000  0.41228000  0.47713000  1.0
  O  O266  1  0.58769000  0.97381000  0.72713000  1.0
  O  O267  1  0.41231000  0.02619000  0.22713000  1.0
  O  O268  1  0.19671000  0.64122000  0.00629000  1.0
  O  O269  1  0.80329000  0.35878000  0.50628000  1.0
  O  O270  1  0.64122000  0.80331000  0.75629000  1.0
  O  O271  1  0.35878000  0.19669000  0.25629000  1.0
  O  O272  1  0.96639000  0.14579000  0.70157000  1.0
  O  O273  1  0.03361000  0.85420000  0.20157000  1.0
  O  O274  1  0.14583000  0.03360000  0.45159000  1.0
  O  O275  1  0.85417000  0.96640000  0.95159000  1.0
  O  O276  1  0.98482000  0.12930000  0.56540000  1.0
  O  O277  1  0.01517000  0.87070000  0.06540000  1.0
  O  O278  1  0.12930000  0.01516000  0.31543000  1.0
  O  O279  1  0.87070000  0.98484000  0.81543000  1.0
  O  O280  1  0.86560000  0.27472000  0.62164000  1.0
  O  O281  1  0.13440000  0.72528000  0.12164000  1.0
  O  O282  1  0.27473000  0.13438000  0.37164000  1.0
  O  O283  1  0.72527000  0.86562000  0.87164000  1.0
  O  O284  1  0.22991000  0.60290000  0.64385000  1.0
  O  O285  1  0.77009000  0.39710000  0.14384000  1.0
  O  O286  1  0.60293000  0.77008000  0.39383000  1.0
  O  O287  1  0.39707000  0.22992000  0.89383000  1.0
  O  O288  1  0.05750000  0.54254000  0.62829000  1.0
  O  O289  1  0.94250000  0.45746000  0.12829000  1.0
  O  O290  1  0.54256000  0.94249000  0.37829000  1.0
  O  O291  1  0.45745000  0.05751000  0.87829000  1.0
