# generated using pymatgen
data_AlH12C16(NO3)5
_symmetry_space_group_name_H-M   'P 1'
_cell_length_a   7.06908000
_cell_length_b   20.44250000
_cell_length_c   23.39150000
_cell_angle_alpha   90.00000000
_cell_angle_beta   90.00090000
_cell_angle_gamma   89.99950000
_symmetry_Int_Tables_number   1
_chemical_formula_structural   AlH12C16(NO3)5
_chemical_formula_sum   'Al4 H48 C64 N20 O60'
_cell_volume   3380.29789614
_cell_formula_units_Z   4
loop_
 _symmetry_equiv_pos_site_id
 _symmetry_equiv_pos_as_xyz
  1  'x, y, z'
loop_
 _atom_site_type_symbol
 _atom_site_label
 _atom_site_symmetry_multiplicity
 _atom_site_fract_x
 _atom_site_fract_y
 _atom_site_fract_z
 _atom_site_occupancy
  Al  Al0  1  0.02234000  0.75050000  0.50006000  1.0
  Al  Al1  1  0.47767000  0.24950000  0.00006000  1.0
  Al  Al2  1  0.52234000  0.74950000  0.49993000  1.0
  Al  Al3  1  0.97767000  0.25050000  0.99993000  1.0
  H  H4  1  0.58546000  0.60983000  0.76896000  1.0
  H  H5  1  0.91453000  0.39018000  0.26897000  1.0
  H  H6  1  0.08547000  0.89018000  0.23103000  1.0
  H  H7  1  0.41453000  0.10982000  0.73103000  1.0
  H  H8  1  0.43299000  0.47686000  0.78257000  1.0
  H  H9  1  0.06700000  0.52314000  0.28257000  1.0
  H  H10  1  0.93300000  0.02315000  0.21742000  1.0
  H  H11  1  0.56700000  0.97685000  0.71742000  1.0
  H  H12  1  0.92312000  0.47075000  0.67927000  1.0
  H  H13  1  0.57686000  0.52925000  0.17927000  1.0
  H  H14  1  0.42313000  0.02926000  0.32073000  1.0
  H  H15  1  0.07687000  0.97075000  0.82073000  1.0
  H  H16  1  0.05126000  0.54341000  0.72789000  1.0
  H  H17  1  0.44872000  0.45659000  0.22789000  1.0
  H  H18  1  0.55127000  0.95660000  0.27211000  1.0
  H  H19  1  0.94873000  0.04341000  0.77211000  1.0
  H  H20  1  0.57180000  0.41224000  0.73001000  1.0
  H  H21  1  0.92819000  0.58776000  0.23002000  1.0
  H  H22  1  0.07180000  0.08776000  0.26998000  1.0
  H  H23  1  0.42820000  0.91223000  0.76998000  1.0
  H  H24  1  0.12562000  0.44080000  0.76241000  1.0
  H  H25  1  0.20536000  0.48676000  0.82295000  1.0
  H  H26  1  0.06515000  0.41683000  0.83358000  1.0
  H  H27  1  0.37438000  0.55920000  0.26241000  1.0
  H  H28  1  0.29463000  0.51323000  0.32295000  1.0
  H  H29  1  0.43484000  0.58317000  0.33358000  1.0
  H  H30  1  0.62562000  0.05920000  0.23759000  1.0
  H  H31  1  0.70537000  0.01323000  0.17706000  1.0
  H  H32  1  0.56517000  0.08317000  0.16642000  1.0
  H  H33  1  0.87438000  0.94080000  0.73759000  1.0
  H  H34  1  0.79463000  0.98677000  0.67705000  1.0
  H  H35  1  0.93482000  0.91683000  0.66642000  1.0
  H  H36  1  0.70719000  0.41307000  0.61758000  1.0
  H  H37  1  0.51397000  0.46450000  0.63601000  1.0
  H  H38  1  0.71138000  0.49663000  0.59791000  1.0
  H  H39  1  0.79279000  0.58694000  0.11759000  1.0
  H  H40  1  0.98601000  0.53551000  0.13602000  1.0
  H  H41  1  0.78861000  0.50337000  0.09792000  1.0
  H  H42  1  0.20720000  0.08693000  0.38242000  1.0
  H  H43  1  0.01398000  0.03551000  0.36398000  1.0
  H  H44  1  0.21137000  0.00337000  0.40208000  1.0
  H  H45  1  0.29279000  0.91306000  0.88241000  1.0
  H  H46  1  0.48603000  0.96448000  0.86398000  1.0
  H  H47  1  0.28864000  0.99663000  0.90208000  1.0
  H  H48  1  0.27033000  0.66323000  0.49936000  1.0
  H  H49  1  0.22970000  0.33677000  0.99937000  1.0
  H  H50  1  0.77033000  0.83677000  0.50064000  1.0
  H  H51  1  0.72970000  0.16323000  0.00063000  1.0
  C  C52  1  0.27348000  0.82331000  0.57788000  1.0
  C  C53  1  0.22653000  0.17669000  0.07788000  1.0
  C  C54  1  0.77350000  0.67669000  0.42211000  1.0
  C  C55  1  0.72651000  0.32331000  0.92211000  1.0
  C  C56  1  0.27338000  0.82743000  0.42532000  1.0
  C  C57  1  0.22661000  0.17256000  0.92532000  1.0
  C  C58  1  0.77341000  0.67256000  0.57468000  1.0
  C  C59  1  0.72662000  0.32743000  0.07468000  1.0
  C  C60  1  0.92531000  0.55428000  0.75356000  1.0
  C  C61  1  0.57467000  0.44571000  0.25356000  1.0
  C  C62  1  0.42532000  0.94571000  0.24644000  1.0
  C  C63  1  0.07468000  0.05428000  0.74644000  1.0
  C  C64  1  0.57492000  0.56134000  0.74937000  1.0
  C  C65  1  0.92507000  0.43866000  0.24937000  1.0
  C  C66  1  0.07492000  0.93866000  0.25063000  1.0
  C  C67  1  0.42509000  0.06134000  0.75063000  1.0
  C  C68  1  0.55322000  0.50800000  0.79406000  1.0
  C  C69  1  0.94678000  0.49200000  0.29407000  1.0
  C  C70  1  0.05322000  0.99200000  0.20593000  1.0
  C  C71  1  0.44678000  0.00800000  0.70593000  1.0
  C  C72  1  0.72418000  0.36932000  0.87544000  1.0
  C  C73  1  0.77582000  0.63068000  0.37544000  1.0
  C  C74  1  0.22420000  0.13068000  0.12455000  1.0
  C  C75  1  0.27582000  0.86932000  0.62455000  1.0
  C  C76  1  0.75474000  0.54909000  0.71235000  1.0
  C  C77  1  0.74524000  0.45092000  0.21235000  1.0
  C  C78  1  0.25476000  0.95092000  0.28765000  1.0
  C  C79  1  0.24525000  0.04908000  0.78765000  1.0
  C  C80  1  0.91771000  0.50272000  0.80283000  1.0
  C  C81  1  0.58228000  0.49728000  0.30283000  1.0
  C  C82  1  0.41772000  0.99729000  0.19717000  1.0
  C  C83  1  0.08228000  0.00272000  0.69717000  1.0
  C  C84  1  0.72884000  0.46211000  0.79622000  1.0
  C  C85  1  0.77116000  0.53789000  0.29622000  1.0
  C  C86  1  0.22884000  0.03790000  0.20378000  1.0
  C  C87  1  0.27117000  0.96210000  0.70378000  1.0
  C  C88  1  0.71753000  0.42978000  0.73481000  1.0
  C  C89  1  0.78247000  0.57022000  0.23481000  1.0
  C  C90  1  0.21752000  0.07022000  0.26518000  1.0
  C  C91  1  0.28248000  0.92978000  0.76518000  1.0
  C  C92  1  0.77111000  0.47763000  0.68760000  1.0
  C  C93  1  0.72888000  0.52238000  0.18760000  1.0
  C  C94  1  0.27112000  0.02238000  0.31240000  1.0
  C  C95  1  0.22889000  0.97762000  0.81240000  1.0
  C  C96  1  0.71556000  0.41238000  0.83997000  1.0
  C  C97  1  0.78444000  0.58762000  0.33998000  1.0
  C  C98  1  0.21557000  0.08762000  0.16002000  1.0
  C  C99  1  0.28444000  0.91238000  0.66002000  1.0
  C  C100  1  0.77003000  0.59524000  0.66570000  1.0
  C  C101  1  0.72996000  0.40476000  0.16570000  1.0
  C  C102  1  0.27003000  0.90476000  0.33430000  1.0
  C  C103  1  0.22997000  0.09524000  0.83430000  1.0
  C  C104  1  0.77331000  0.62972000  0.62357000  1.0
  C  C105  1  0.72671000  0.37028000  0.12357000  1.0
  C  C106  1  0.27330000  0.87028000  0.37643000  1.0
  C  C107  1  0.22670000  0.12972000  0.87643000  1.0
  C  C108  1  0.08925000  0.45848000  0.80512000  1.0
  C  C109  1  0.41075000  0.54152000  0.30512000  1.0
  C  C110  1  0.58925000  0.04152000  0.19488000  1.0
  C  C111  1  0.91074000  0.95848000  0.69488000  1.0
  C  C112  1  0.66812000  0.46254000  0.63163000  1.0
  C  C113  1  0.83185000  0.53746000  0.13163000  1.0
  C  C114  1  0.16813000  0.03746000  0.36837000  1.0
  C  C115  1  0.33187000  0.96254000  0.86837000  1.0
  N  N116  1  0.90725000  0.53726000  0.86290000  1.0
  N  N117  1  0.59274000  0.46274000  0.36290000  1.0
  N  N118  1  0.40726000  0.96274000  0.13710000  1.0
  N  N119  1  0.09273000  0.03726000  0.63709000  1.0
  N  N120  1  0.96611000  0.62458000  0.77318000  1.0
  N  N121  1  0.53390000  0.37542000  0.27318000  1.0
  N  N122  1  0.46610000  0.87542000  0.22682000  1.0
  N  N123  1  0.03390000  0.12458000  0.72682000  1.0
  N  N124  1  0.40195000  0.56604000  0.71105000  1.0
  N  N125  1  0.09804000  0.43396000  0.21106000  1.0
  N  N126  1  0.90196000  0.93396000  0.28894000  1.0
  N  N127  1  0.59805000  0.06604000  0.78894000  1.0
  N  N128  1  0.48840000  0.53653000  0.85242000  1.0
  N  N129  1  0.01161000  0.46347000  0.35242000  1.0
  N  N130  1  0.98841000  0.96348000  0.14758000  1.0
  N  N131  1  0.51160000  0.03653000  0.64758000  1.0
  N  N132  1  0.83024000  0.36524000  0.72924000  1.0
  N  N133  1  0.66977000  0.63476000  0.22924000  1.0
  N  N134  1  0.33022000  0.13476000  0.27076000  1.0
  N  N135  1  0.16978000  0.86523000  0.77075000  1.0
  O  O136  1  0.43554000  0.81091000  0.44409000  1.0
  O  O137  1  0.06448000  0.18908000  0.94409000  1.0
  O  O138  1  0.93553000  0.68908000  0.55590000  1.0
  O  O139  1  0.56448000  0.31092000  0.05590000  1.0
  O  O140  1  0.11013000  0.80717000  0.55974000  1.0
  O  O141  1  0.38990000  0.19282000  0.05974000  1.0
  O  O142  1  0.61011000  0.69282000  0.44026000  1.0
  O  O143  1  0.88988000  0.30717000  0.94026000  1.0
  O  O144  1  0.11069000  0.81180000  0.44429000  1.0
  O  O145  1  0.38932000  0.18820000  0.94429000  1.0
  O  O146  1  0.61069000  0.68820000  0.55570000  1.0
  O  O147  1  0.88933000  0.31180000  0.05570000  1.0
  O  O148  1  0.93539000  0.69412000  0.44033000  1.0
  O  O149  1  0.56460000  0.30588000  0.94033000  1.0
  O  O150  1  0.43540000  0.80588000  0.55966000  1.0
  O  O151  1  0.06462000  0.19412000  0.05966000  1.0
  O  O152  1  0.27190000  0.71067000  0.49859000  1.0
  O  O153  1  0.22812000  0.28933000  0.99858000  1.0
  O  O154  1  0.77189000  0.78933000  0.50142000  1.0
  O  O155  1  0.72812000  0.21067000  0.00141000  1.0
  O  O156  1  0.99059000  0.51101000  0.90269000  1.0
  O  O157  1  0.81156000  0.58772000  0.86576000  1.0
  O  O158  1  0.50941000  0.48898000  0.40269000  1.0
  O  O159  1  0.68845000  0.41228000  0.36575000  1.0
  O  O160  1  0.49059000  0.98899000  0.09731000  1.0
  O  O161  1  0.31157000  0.91229000  0.13424000  1.0
  O  O162  1  0.00940000  0.01101000  0.59731000  1.0
  O  O163  1  0.18844000  0.08772000  0.63424000  1.0
  O  O164  1  0.11773000  0.63101000  0.79855000  1.0
  O  O165  1  0.85578000  0.66854000  0.76007000  1.0
  O  O166  1  0.38229000  0.36898000  0.29855000  1.0
  O  O167  1  0.64424000  0.33146000  0.26007000  1.0
  O  O168  1  0.61773000  0.86898000  0.20145000  1.0
  O  O169  1  0.35577000  0.83146000  0.23993000  1.0
  O  O170  1  0.88228000  0.13102000  0.70145000  1.0
  O  O171  1  0.14423000  0.16854000  0.73993000  1.0
  O  O172  1  0.36240000  0.62002000  0.69185000  1.0
  O  O173  1  0.31375000  0.51440000  0.70065000  1.0
  O  O174  1  0.13758000  0.37998000  0.19186000  1.0
  O  O175  1  0.18623000  0.48559000  0.20065000  1.0
  O  O176  1  0.86241000  0.87998000  0.30813000  1.0
  O  O177  1  0.81376000  0.98559000  0.29935000  1.0
  O  O178  1  0.63760000  0.12002000  0.80813000  1.0
  O  O179  1  0.68625000  0.01441000  0.79935000  1.0
  O  O180  1  0.42598000  0.59249000  0.85241000  1.0
  O  O181  1  0.49235000  0.49861000  0.89332000  1.0
  O  O182  1  0.07404000  0.40751000  0.35241000  1.0
  O  O183  1  0.00764000  0.50138000  0.39332000  1.0
  O  O184  1  0.92596000  0.90752000  0.14759000  1.0
  O  O185  1  0.99239000  0.00139000  0.10667000  1.0
  O  O186  1  0.57404000  0.09248000  0.64759000  1.0
  O  O187  1  0.50763000  0.99862000  0.60667000  1.0
  O  O188  1  0.98628000  0.36649000  0.70536000  1.0
  O  O189  1  0.75099000  0.31645000  0.74846000  1.0
  O  O190  1  0.51373000  0.63352000  0.20536000  1.0
  O  O191  1  0.74903000  0.68355000  0.24847000  1.0
  O  O192  1  0.48627000  0.13352000  0.29464000  1.0
  O  O193  1  0.25094000  0.18355000  0.25154000  1.0
  O  O194  1  0.01374000  0.86648000  0.79464000  1.0
  O  O195  1  0.24905000  0.81645000  0.75153000  1.0
