# generated using pymatgen
data_H10PbC12(SO2)2
_symmetry_space_group_name_H-M   'P 1'
_cell_length_a   7.97340000
_cell_length_b   9.81269218
_cell_length_c   10.03080000
_cell_angle_alpha   119.28395928
_cell_angle_beta   105.01100000
_cell_angle_gamma   89.99975004
_symmetry_Int_Tables_number   1
_chemical_formula_structural   H10PbC12(SO2)2
_chemical_formula_sum   'H20 Pb2 C24 S4 O8'
_cell_volume   653.64373064
_cell_formula_units_Z   2
loop_
 _symmetry_equiv_pos_site_id
 _symmetry_equiv_pos_as_xyz
  1  'x, y, z'
loop_
 _atom_site_type_symbol
 _atom_site_label
 _atom_site_symmetry_multiplicity
 _atom_site_fract_x
 _atom_site_fract_y
 _atom_site_fract_z
 _atom_site_occupancy
  H  H0  1  0.48792000  0.74680000  0.09471000  1.0
  H  H1  1  0.01208000  0.65209000  0.90530000  1.0
  H  H2  1  0.51207000  0.25320000  0.90529000  1.0
  H  H3  1  0.98792000  0.34791000  0.09471000  1.0
  H  H4  1  0.81213000  0.13229000  0.65748000  1.0
  H  H5  1  0.68788000  0.47481000  0.34253000  1.0
  H  H6  1  0.18788000  0.86771000  0.34251000  1.0
  H  H7  1  0.31213000  0.52519000  0.65748000  1.0
  H  H8  1  0.99664000  0.03735000  0.67095000  1.0
  H  H9  1  0.50337000  0.36640000  0.32905000  1.0
  H  H10  1  0.00337000  0.96265000  0.32905000  1.0
  H  H11  1  0.49663000  0.63360000  0.67095000  1.0
  H  H12  1  0.55611000  0.99983000  0.38309000  1.0
  H  H13  1  0.94390000  0.61674000  0.61692000  1.0
  H  H14  1  0.44391000  0.00019000  0.61692000  1.0
  H  H15  1  0.05609000  0.38326000  0.38308000  1.0
  H  H16  1  0.96571000  0.72326000  0.44758000  1.0
  H  H17  1  0.53428000  0.27568000  0.55242000  1.0
  H  H18  1  0.03428000  0.27673000  0.55241000  1.0
  H  H19  1  0.46572000  0.72431000  0.44758000  1.0
  Pb  Pb20  1  0.75000000  0.91626000  0.99999000  1.0
  Pb  Pb21  1  0.25000000  0.08374000  0.00000000  1.0
  C  C22  1  0.59318000  0.77173000  0.20110000  1.0
  C  C23  1  0.90682000  0.57063000  0.79892000  1.0
  C  C24  1  0.40682000  0.22828000  0.79890000  1.0
  C  C25  1  0.09317000  0.42937000  0.20109000  1.0
  C  C26  1  0.80070000  0.98506000  0.75519000  1.0
  C  C27  1  0.69931000  0.22987000  0.24481000  1.0
  C  C28  1  0.19930000  0.01494000  0.24481000  1.0
  C  C29  1  0.30070000  0.77013000  0.75519000  1.0
  C  C30  1  0.85266000  0.01809000  0.63717000  1.0
  C  C31  1  0.64734000  0.38092000  0.36283000  1.0
  C  C32  1  0.14734000  0.98191000  0.36282000  1.0
  C  C33  1  0.35266000  0.61908000  0.63717000  1.0
  C  C34  1  0.77838000  0.89335000  0.46428000  1.0
  C  C35  1  0.72162000  0.42907000  0.53572000  1.0
  C  C36  1  0.22162000  0.10665000  0.53572000  1.0
  C  C37  1  0.27837000  0.57093000  0.46428000  1.0
  C  C38  1  0.63083000  0.90150000  0.35323000  1.0
  C  C39  1  0.86918000  0.54826000  0.64677000  1.0
  C  C40  1  0.36918000  0.09850000  0.64676000  1.0
  C  C41  1  0.13082000  0.45173000  0.35323000  1.0
  C  C42  1  0.84969000  0.75675000  0.39246000  1.0
  C  C43  1  0.65031000  0.36429000  0.60754000  1.0
  C  C44  1  0.15031000  0.24325000  0.60754000  1.0
  C  C45  1  0.34969000  0.63571000  0.39246000  1.0
  S  S46  1  0.73859000  0.64033000  0.19350000  1.0
  S  S47  1  0.76140000  0.44683000  0.80650000  1.0
  S  S48  1  0.26140000  0.35967000  0.80650000  1.0
  S  S49  1  0.23859000  0.55316000  0.19349000  1.0
  O  O50  1  0.89884000  0.06254000  0.90265000  1.0
  O  O51  1  0.60116000  0.15990000  0.09735000  1.0
  O  O52  1  0.10116000  0.93745000  0.09735000  1.0
  O  O53  1  0.39884000  0.84010000  0.90265000  1.0
  O  O54  1  0.66630000  0.88854000  0.71251000  1.0
  O  O55  1  0.83370000  0.17602000  0.28748000  1.0
  O  O56  1  0.33369000  0.11146000  0.28747000  1.0
  O  O57  1  0.16631000  0.82398000  0.71252000  1.0
