# generated using pymatgen
data_ZnH20C30(NO3)2
_symmetry_space_group_name_H-M   'P 1'
_cell_length_a   9.43570000
_cell_length_b   10.87890000
_cell_length_c   28.14950000
_cell_angle_alpha   89.22890000
_cell_angle_beta   89.70060000
_cell_angle_gamma   89.37480000
_symmetry_Int_Tables_number   1
_chemical_formula_structural   ZnH20C30(NO3)2
_chemical_formula_sum   'Zn2 H40 C60 N4 O12'
_cell_volume   2889.07625118
_cell_formula_units_Z   2
loop_
 _symmetry_equiv_pos_site_id
 _symmetry_equiv_pos_as_xyz
  1  'x, y, z'
loop_
 _atom_site_type_symbol
 _atom_site_label
 _atom_site_symmetry_multiplicity
 _atom_site_fract_x
 _atom_site_fract_y
 _atom_site_fract_z
 _atom_site_occupancy
  Zn  Zn0  1  0.35619000  0.49761000  0.50018000  1.0
  Zn  Zn1  1  0.64382000  0.50235000  0.49974000  1.0
  H  H2  1  0.27725000  0.46057000  0.34777000  1.0
  H  H3  1  0.71891000  0.55561000  0.65182000  1.0
  H  H4  1  0.35020000  0.07525000  0.56500000  1.0
  H  H5  1  0.64981000  0.92469000  0.43502000  1.0
  H  H6  1  0.25451000  0.93414000  0.48716000  1.0
  H  H7  1  0.74547000  0.06579000  0.51287000  1.0
  H  H8  1  0.09867000  0.42883000  0.57488000  1.0
  H  H9  1  0.90131000  0.57123000  0.42508000  1.0
  H  H10  1  0.89984000  0.29861000  0.51449000  1.0
  H  H11  1  0.10015000  0.70140000  0.48547000  1.0
  H  H12  1  0.10094000  0.36749000  0.43975000  1.0
  H  H13  1  0.89906000  0.63249000  0.56020000  1.0
  H  H14  1  0.27755000  0.45691000  0.25853000  1.0
  H  H15  1  0.71873000  0.56039000  0.74105000  1.0
  H  H16  1  0.44937000  0.19100000  0.12211000  1.0
  H  H17  1  0.50521000  0.81411000  0.87786000  1.0
  H  H18  1  0.27968000  0.45905000  0.65343000  1.0
  H  H19  1  0.72444000  0.52561000  0.34678000  1.0
  H  H20  1  0.27932000  0.45965000  0.74265000  1.0
  H  H21  1  0.72562000  0.52503000  0.25756000  1.0
  H  H22  1  0.49583000  0.19738000  0.87729000  1.0
  H  H23  1  0.55210000  0.80040000  0.12251000  1.0
  H  H24  1  0.49193000  0.19013000  0.96541000  1.0
  H  H25  1  0.54901000  0.80822000  0.03443000  1.0
  H  H26  1  0.45269000  0.19045000  0.03403000  1.0
  H  H27  1  0.50974000  0.81397000  0.96593000  1.0
  H  H28  1  0.60933000  0.87846000  0.68786000  1.0
  H  H29  1  0.78592000  0.88017000  0.66590000  1.0
  H  H30  1  0.71713000  0.00838000  0.69741000  1.0
  H  H31  1  0.72093000  0.05501000  0.60960000  1.0
  H  H32  1  0.54594000  0.05417000  0.63158000  1.0
  H  H33  1  0.51690000  0.83718000  0.60332000  1.0
  H  H34  1  0.69203000  0.83720000  0.58110000  1.0
  H  H35  1  0.21358000  0.11922000  0.33420000  1.0
  H  H36  1  0.38998000  0.12112000  0.31213000  1.0
  H  H37  1  0.28239000  0.99102000  0.30271000  1.0
  H  H38  1  0.45396000  0.94554000  0.36847000  1.0
  H  H39  1  0.27906000  0.94462000  0.39054000  1.0
  H  H40  1  0.30788000  0.16260000  0.41889000  1.0
  H  H41  1  0.48296000  0.16259000  0.39664000  1.0
  C  C42  1  0.50364000  0.26008000  0.50206000  1.0
  C  C43  1  0.49641000  0.73987000  0.49790000  1.0
  C  C44  1  0.50098000  0.49653000  0.10153000  1.0
  C  C45  1  0.50063000  0.50490000  0.89835000  1.0
  C  C46  1  0.48279000  0.38412000  0.12669000  1.0
  C  C47  1  0.50298000  0.61854000  0.87320000  1.0
  C  C48  1  0.46483000  0.27599000  0.10185000  1.0
  C  C49  1  0.50523000  0.72790000  0.89808000  1.0
  C  C50  1  0.51914000  0.60689000  0.12679000  1.0
  C  C51  1  0.49801000  0.39326000  0.87308000  1.0
  C  C52  1  0.50072000  0.49352000  0.35233000  1.0
  C  C53  1  0.49940000  0.50697000  0.64757000  1.0
  C  C54  1  0.49382000  0.38721000  0.97388000  1.0
  C  C55  1  0.51486000  0.61366000  0.02599000  1.0
  C  C56  1  0.50793000  0.61629000  0.97407000  1.0
  C  C57  1  0.48697000  0.38565000  0.02583000  1.0
  C  C58  1  0.50084000  0.50277000  0.94919000  1.0
  C  C59  1  0.50093000  0.49864000  0.05069000  1.0
  C  C60  1  0.49355000  0.27924000  0.94733000  1.0
  C  C61  1  0.53440000  0.72011000  0.05251000  1.0
  C  C62  1  0.49600000  0.28184000  0.89772000  1.0
  C  C63  1  0.53683000  0.71712000  0.10211000  1.0
  C  C64  1  0.50004000  0.49656000  0.40563000  1.0
  C  C65  1  0.49999000  0.50365000  0.59427000  1.0
  C  C66  1  0.46729000  0.27707000  0.05223000  1.0
  C  C67  1  0.50803000  0.72637000  0.94769000  1.0
  C  C68  1  0.41613000  0.04018000  0.53596000  1.0
  C  C69  1  0.58387000  0.95976000  0.46405000  1.0
  C  C70  1  0.54832000  0.95218000  0.54207000  1.0
  C  C71  1  0.45166000  0.04774000  0.45794000  1.0
  C  C72  1  0.49382000  0.87579000  0.49807000  1.0
  C  C73  1  0.50620000  0.12415000  0.50192000  1.0
  C  C74  1  0.36346000  0.96400000  0.49291000  1.0
  C  C75  1  0.63653000  0.03593000  0.50710000  1.0
  C  C76  1  0.95202000  0.38653000  0.50820000  1.0
  C  C77  1  0.04798000  0.61347000  0.49175000  1.0
  C  C78  1  0.04732000  0.45984000  0.54209000  1.0
  C  C79  1  0.95268000  0.54017000  0.45787000  1.0
  C  C80  1  0.04888000  0.42557000  0.46613000  1.0
  C  C81  1  0.95112000  0.57442000  0.53381000  1.0
  C  C82  1  0.48213000  0.37957000  0.17927000  1.0
  C  C83  1  0.50170000  0.62310000  0.82061000  1.0
  C  C84  1  0.51996000  0.60724000  0.17933000  1.0
  C  C85  1  0.49846000  0.39279000  0.82054000  1.0
  C  C86  1  0.62807000  0.50999000  0.27760000  1.0
  C  C87  1  0.37478000  0.48173000  0.72246000  1.0
  C  C88  1  0.62733000  0.51083000  0.32703000  1.0
  C  C89  1  0.37515000  0.48086000  0.67303000  1.0
  C  C90  1  0.37473000  0.47404000  0.32758000  1.0
  C  C91  1  0.62321000  0.53550000  0.67214000  1.0
  C  C92  1  0.37482000  0.47244000  0.27816000  1.0
  C  C93  1  0.62325000  0.53768000  0.72156000  1.0
  C  C94  1  0.50156000  0.49106000  0.25355000  1.0
  C  C95  1  0.49905000  0.51004000  0.74634000  1.0
  C  C96  1  0.59957000  0.89751000  0.58817000  1.0
  C  C97  1  0.63880000  0.99448000  0.62475000  1.0
  C  C98  1  0.69059000  0.93751000  0.67156000  1.0
  C  C99  1  0.40033000  0.10228000  0.41183000  1.0
  C  C100  1  0.36107000  0.00518000  0.37532000  1.0
  C  C101  1  0.30896000  0.06198000  0.32852000  1.0
  N  N102  1  0.50158000  0.49242000  0.20230000  1.0
  N  N103  1  0.49952000  0.50884000  0.79761000  1.0
  N  N104  1  0.14218000  0.49886000  0.50004000  1.0
  N  N105  1  0.85782000  0.50113000  0.49991000  1.0
  O  O106  1  0.38119000  0.31121000  0.50160000  1.0
  O  O107  1  0.61887000  0.68877000  0.49776000  1.0
  O  O108  1  0.62192000  0.31581000  0.50171000  1.0
  O  O109  1  0.37813000  0.68412000  0.49885000  1.0
  O  O110  1  0.37967000  0.49496000  0.42630000  1.0
  O  O111  1  0.62025000  0.50722000  0.57357000  1.0
  O  O112  1  0.61999000  0.50067000  0.42607000  1.0
  O  O113  1  0.38013000  0.49740000  0.57390000  1.0
  O  O114  1  0.46622000  0.28363000  0.20221000  1.0
  O  O115  1  0.50211000  0.72009000  0.79764000  1.0
  O  O116  1  0.49812000  0.29752000  0.79751000  1.0
  O  O117  1  0.53514000  0.70151000  0.20231000  1.0
