# generated using pymatgen
data_LaH14C14N9O11
_symmetry_space_group_name_H-M   'P 1'
_cell_length_a   7.49520000
_cell_length_b   9.10720000
_cell_length_c   15.15560000
_cell_angle_alpha   90.00010000
_cell_angle_beta   90.00010000
_cell_angle_gamma   75.65600000
_symmetry_Int_Tables_number   1
_chemical_formula_structural   LaH14C14N9O11
_chemical_formula_sum   'La2 H28 C28 N18 O22'
_cell_volume   1002.27503744
_cell_formula_units_Z   2
loop_
 _symmetry_equiv_pos_site_id
 _symmetry_equiv_pos_as_xyz
  1  'x, y, z'
loop_
 _atom_site_type_symbol
 _atom_site_label
 _atom_site_symmetry_multiplicity
 _atom_site_fract_x
 _atom_site_fract_y
 _atom_site_fract_z
 _atom_site_occupancy
  La  La0  1  0.38718000  0.13793000  0.25000000  1.0
  La  La1  1  0.61282000  0.86207000  0.75000000  1.0
  H  H2  1  0.25730000  0.78074000  0.57147000  1.0
  H  H3  1  0.74270000  0.21926000  0.07147000  1.0
  H  H4  1  0.74270000  0.21926000  0.42853000  1.0
  H  H5  1  0.25730000  0.78074000  0.92853000  1.0
  H  H6  1  0.19066000  0.06423000  0.49286000  1.0
  H  H7  1  0.80934000  0.93577000  0.99287000  1.0
  H  H8  1  0.80934000  0.93577000  0.50714000  1.0
  H  H9  1  0.19066000  0.06423000  0.00713000  1.0
  H  H10  1  0.03732000  0.11387000  0.58456000  1.0
  H  H11  1  0.96269000  0.88613000  0.08456000  1.0
  H  H12  1  0.96269000  0.88613000  0.41544000  1.0
  H  H13  1  0.03731000  0.11387000  0.91544000  1.0
  H  H14  1  0.07026000  0.32733000  0.67118000  1.0
  H  H15  1  0.92975000  0.67266000  0.17118000  1.0
  H  H16  1  0.92974000  0.67267000  0.32882000  1.0
  H  H17  1  0.07026000  0.32733000  0.82882000  1.0
  H  H18  1  0.37799000  0.77383000  0.41077000  1.0
  H  H19  1  0.62201000  0.22617000  0.91077000  1.0
  H  H20  1  0.62201000  0.22617000  0.58923000  1.0
  H  H21  1  0.37799000  0.77383000  0.08923000  1.0
  H  H22  1  0.41884000  0.45845000  0.30326000  1.0
  H  H23  1  0.58117000  0.54155000  0.80326000  1.0
  H  H24  1  0.58117000  0.54155000  0.69673000  1.0
  H  H25  1  0.41884000  0.45845000  0.19674000  1.0
  H  H26  1  0.99133000  0.35920000  0.19848000  1.0
  H  H27  1  0.00867000  0.64080000  0.69847000  1.0
  H  H28  1  0.00867000  0.64080000  0.80152000  1.0
  H  H29  1  0.99133000  0.35919000  0.30152000  1.0
  C  C30  1  0.32004000  0.03152000  0.62128000  1.0
  C  C31  1  0.67996000  0.96848000  0.12128000  1.0
  C  C32  1  0.67996000  0.96848000  0.37872000  1.0
  C  C33  1  0.32004000  0.03152000  0.87872000  1.0
  C  C34  1  0.17215000  0.11819000  0.55807000  1.0
  C  C35  1  0.82785000  0.88181000  0.05808000  1.0
  C  C36  1  0.82785000  0.88181000  0.44192000  1.0
  C  C37  1  0.17215000  0.11819000  0.94192000  1.0
  C  C38  1  0.13006000  0.37376000  0.61546000  1.0
  C  C39  1  0.86994000  0.62624000  0.11546000  1.0
  C  C40  1  0.86994000  0.62624000  0.38454000  1.0
  C  C41  1  0.13006000  0.37376000  0.88454000  1.0
  C  C42  1  0.25541000  0.31555000  0.46690000  1.0
  C  C43  1  0.74459000  0.68445000  0.96690000  1.0
  C  C44  1  0.74459000  0.68445000  0.53310000  1.0
  C  C45  1  0.25541000  0.31555000  0.03310000  1.0
  C  C46  1  0.27080000  0.46785000  0.46759000  1.0
  C  C47  1  0.72919000  0.53215000  0.96759000  1.0
  C  C48  1  0.72920000  0.53215000  0.53241000  1.0
  C  C49  1  0.27080000  0.46785000  0.03241000  1.0
  C  C50  1  0.21806000  0.55741000  0.54287000  1.0
  C  C51  1  0.78193000  0.44259000  0.04287000  1.0
  C  C52  1  0.78194000  0.44260000  0.45713000  1.0
  C  C53  1  0.21806000  0.55740000  0.95713000  1.0
  C  C54  1  0.33059000  0.68245000  0.44182000  1.0
  C  C55  1  0.66941000  0.31755000  0.94182000  1.0
  C  C56  1  0.66941000  0.31755000  0.55818000  1.0
  C  C57  1  0.33059000  0.68245000  0.05818000  1.0
  N  N58  1  0.18132000  0.27561000  0.54644000  1.0
  N  N59  1  0.81868000  0.72439000  0.04644000  1.0
  N  N60  1  0.81868000  0.72439000  0.45356000  1.0
  N  N61  1  0.18132000  0.27561000  0.95356000  1.0
  N  N62  1  0.14361000  0.51479000  0.61702000  1.0
  N  N63  1  0.85639000  0.48521000  0.11702000  1.0
  N  N64  1  0.85639000  0.48521000  0.38298000  1.0
  N  N65  1  0.14361000  0.51479000  0.88298000  1.0
  N  N66  1  0.25633000  0.69366000  0.52515000  1.0
  N  N67  1  0.74367000  0.30633000  0.02515000  1.0
  N  N68  1  0.74367000  0.30633000  0.47485000  1.0
  N  N69  1  0.25633000  0.69366000  0.97485000  1.0
  N  N70  1  0.34000000  0.54845000  0.40472000  1.0
  N  N71  1  0.65999000  0.45155000  0.90472000  1.0
  N  N72  1  0.66000000  0.45156000  0.59528000  1.0
  N  N73  1  0.34000000  0.54845000  0.09528000  1.0
  N  N74  1  0.10993000  0.93273000  0.25000000  1.0
  N  N75  1  0.89007000  0.06727000  0.75000000  1.0
  O  O76  1  0.31381000  0.89673000  0.64155000  1.0
  O  O77  1  0.68619000  0.10327000  0.14155000  1.0
  O  O78  1  0.68619000  0.10327000  0.35845000  1.0
  O  O79  1  0.31381000  0.89673000  0.85845000  1.0
  O  O80  1  0.43978000  0.09396000  0.65174000  1.0
  O  O81  1  0.56021000  0.90604000  0.15174000  1.0
  O  O82  1  0.56021000  0.90604000  0.34826000  1.0
  O  O83  1  0.43979000  0.09396000  0.84826000  1.0
  O  O84  1  0.30064000  0.21973000  0.40667000  1.0
  O  O85  1  0.69935000  0.78028000  0.90667000  1.0
  O  O86  1  0.69936000  0.78028000  0.59333000  1.0
  O  O87  1  0.30064000  0.21973000  0.09333000  1.0
  O  O88  1  0.16285000  0.98092000  0.32205000  1.0
  O  O89  1  0.83715000  0.01908000  0.82205000  1.0
  O  O90  1  0.83715000  0.01908000  0.67795000  1.0
  O  O91  1  0.16285000  0.98092000  0.17795000  1.0
  O  O92  1  0.01077000  0.84079000  0.25000000  1.0
  O  O93  1  0.98923000  0.15922000  0.75000000  1.0
  O  O94  1  0.06439000  0.30957000  0.25000000  1.0
  O  O95  1  0.93562000  0.69043000  0.75000000  1.0
  O  O96  1  0.45581000  0.39263000  0.25000000  1.0
  O  O97  1  0.54419000  0.60737000  0.75000000  1.0
