# generated using pymatgen
data_Co2H12C16O9
_symmetry_space_group_name_H-M   'P 1'
_cell_length_a   5.86324000
_cell_length_b   10.37520000
_cell_length_c   14.11910000
_cell_angle_alpha   96.77510000
_cell_angle_beta   97.87010000
_cell_angle_gamma   99.93150000
_symmetry_Int_Tables_number   1
_chemical_formula_structural   Co2H12C16O9
_chemical_formula_sum   'Co4 H24 C32 O18'
_cell_volume   829.18730358
_cell_formula_units_Z   2
loop_
 _symmetry_equiv_pos_site_id
 _symmetry_equiv_pos_as_xyz
  1  'x, y, z'
loop_
 _atom_site_type_symbol
 _atom_site_label
 _atom_site_symmetry_multiplicity
 _atom_site_fract_x
 _atom_site_fract_y
 _atom_site_fract_z
 _atom_site_occupancy
  Co  Co0  1  0.62580000  0.30035000  0.44045000  1.0
  Co  Co1  1  0.38182000  0.48420000  0.38780000  1.0
  Co  Co2  1  0.61805000  0.51588000  0.61218000  1.0
  Co  Co3  1  0.37414000  0.69971000  0.55952000  1.0
  H  H4  1  0.27757000  0.09054000  0.28028000  1.0
  H  H5  1  0.15705000  0.44837000  0.53191000  1.0
  H  H6  1  0.92574000  0.42681000  0.31152000  1.0
  H  H7  1  0.27793000  0.33014000  0.05838000  1.0
  H  H8  1  0.07417000  0.57329000  0.68847000  1.0
  H  H9  1  0.72213000  0.66989000  0.94160000  1.0
  H  H10  1  0.88229000  0.19122000  0.18599000  1.0
  H  H11  1  0.93139000  0.08891000  0.02347000  1.0
  H  H12  1  0.82905000  0.70704000  0.25640000  1.0
  H  H13  1  0.08151000  0.51416000  0.25175000  1.0
  H  H14  1  0.50675000  0.94150000  0.19907000  1.0
  H  H15  1  0.72250000  0.90943000  0.71976000  1.0
  H  H16  1  0.67906000  0.77734000  0.10435000  1.0
  H  H17  1  0.11777000  0.80882000  0.81402000  1.0
  H  H18  1  0.71583000  0.98661000  0.86265000  1.0
  H  H19  1  0.72732000  0.03402000  0.45322000  1.0
  H  H20  1  0.32098000  0.22261000  0.89564000  1.0
  H  H21  1  0.06862000  0.91108000  0.97657000  1.0
  H  H22  1  0.84286000  0.55177000  0.46810000  1.0
  H  H23  1  0.49329000  0.05846000  0.80095000  1.0
  H  H24  1  0.17100000  0.29289000  0.74362000  1.0
  H  H25  1  0.27278000  0.96596000  0.54678000  1.0
  H  H26  1  0.91844000  0.48590000  0.74822000  1.0
  H  H27  1  0.28419000  0.01331000  0.13737000  1.0
  C  C28  1  0.13011000  0.02516000  0.29899000  1.0
  C  C29  1  0.76219000  0.19935000  0.12189000  1.0
  C  C30  1  0.81951000  0.99579000  0.39745000  1.0
  C  C31  1  0.08095000  0.21787000  0.41142000  1.0
  C  C32  1  0.45037000  0.67411000  0.76938000  1.0
  C  C33  1  0.12256000  0.18844000  0.71395000  1.0
  C  C34  1  0.18058000  0.00417000  0.60257000  1.0
  C  C35  1  0.21223000  0.85829000  0.96899000  1.0
  C  C36  1  0.54965000  0.32597000  0.23061000  1.0
  C  C37  1  0.42041000  0.27687000  0.04998000  1.0
  C  C38  1  0.78775000  0.14168000  0.03104000  1.0
  C  C39  1  0.00674000  0.07638000  0.36871000  1.0
  C  C40  1  0.65805000  0.08039000  0.85278000  1.0
  C  C41  1  0.23783000  0.80067000  0.87813000  1.0
  C  C42  1  0.42772000  0.23112000  0.61016000  1.0
  C  C43  1  0.62905000  0.14871000  0.94892000  1.0
  C  C44  1  0.57962000  0.72313000  0.95001000  1.0
  C  C45  1  0.91903000  0.78212000  0.58856000  1.0
  C  C46  1  0.86998000  0.97476000  0.70104000  1.0
  C  C47  1  0.37094000  0.85121000  0.05110000  1.0
  C  C48  1  0.44558000  0.21704000  0.95915000  1.0
  C  C49  1  0.99338000  0.92358000  0.63131000  1.0
  C  C50  1  0.42277000  0.73284000  0.86795000  1.0
  C  C51  1  0.24304000  0.13742000  0.64401000  1.0
  C  C52  1  0.57224000  0.76889000  0.38983000  1.0
  C  C53  1  0.57724000  0.26720000  0.13206000  1.0
  C  C54  1  0.93740000  0.10690000  0.74362000  1.0
  C  C55  1  0.06264000  0.89302000  0.25639000  1.0
  C  C56  1  0.87743000  0.81150000  0.28605000  1.0
  C  C57  1  0.34198000  0.91953000  0.14724000  1.0
  C  C58  1  0.55442000  0.78291000  0.04085000  1.0
  C  C59  1  0.75697000  0.86256000  0.35599000  1.0
  O  O60  1  0.48515000  0.34744000  0.65661000  1.0
  O  O61  1  0.68656000  0.29554000  0.30172000  1.0
  O  O62  1  0.59479000  0.59889000  0.75870000  1.0
  O  O63  1  0.69997000  0.49174000  0.47632000  1.0
  O  O64  1  0.50973000  0.19033000  0.53500000  1.0
  O  O65  1  0.49018000  0.80968000  0.46499000  1.0
  O  O66  1  0.16384000  0.83487000  0.18506000  1.0
  O  O67  1  0.29987000  0.50837000  0.52362000  1.0
  O  O68  1  0.03519000  0.72653000  0.53192000  1.0
  O  O69  1  0.96459000  0.27340000  0.46799000  1.0
  O  O70  1  0.51480000  0.65259000  0.34338000  1.0
  O  O71  1  0.31352000  0.70456000  0.69827000  1.0
  O  O72  1  0.73167000  0.71815000  0.61325000  1.0
  O  O73  1  0.95215000  0.49227000  0.68301000  1.0
  O  O74  1  0.04788000  0.50776000  0.31695000  1.0
  O  O75  1  0.26828000  0.28191000  0.38676000  1.0
  O  O76  1  0.83624000  0.16504000  0.81498000  1.0
  O  O77  1  0.40520000  0.40116000  0.24131000  1.0
