# generated using pymatgen
data_BaCdH14C16(NO5)2
_symmetry_space_group_name_H-M   'P 1'
_cell_length_a   8.06831000
_cell_length_b   8.23555000
_cell_length_c   14.32210000
_cell_angle_alpha   106.21200000
_cell_angle_beta   94.44610000
_cell_angle_gamma   99.71620000
_symmetry_Int_Tables_number   1
_chemical_formula_structural   BaCdH14C16(NO5)2
_chemical_formula_sum   'Ba2 Cd2 H28 C32 N4 O20'
_cell_volume   892.86523457
_cell_formula_units_Z   2
loop_
 _symmetry_equiv_pos_site_id
 _symmetry_equiv_pos_as_xyz
  1  'x, y, z'
loop_
 _atom_site_type_symbol
 _atom_site_label
 _atom_site_symmetry_multiplicity
 _atom_site_fract_x
 _atom_site_fract_y
 _atom_site_fract_z
 _atom_site_occupancy
  Ba  Ba0  1  0.37045000  0.26365000  0.72407000  1.0
  Ba  Ba1  1  0.62955000  0.73635000  0.27593000  1.0
  Cd  Cd2  1  0.48970000  0.14137000  0.17988000  1.0
  Cd  Cd3  1  0.51030000  0.85862000  0.82012000  1.0
  H  H4  1  0.15359000  0.99920000  0.82000000  1.0
  H  H5  1  0.84640000  0.00080000  0.18000000  1.0
  H  H6  1  0.01012000  0.10922000  0.83610000  1.0
  H  H7  1  0.98988000  0.89078000  0.16389000  1.0
  H  H8  1  0.97613000  0.15557000  0.57092000  1.0
  H  H9  1  0.02386000  0.84443000  0.42908000  1.0
  H  H10  1  0.96143000  0.32572000  0.66196000  1.0
  H  H11  1  0.03857000  0.67429000  0.33804000  1.0
  H  H12  1  0.67816000  0.10006000  0.57581000  1.0
  H  H13  1  0.32184000  0.89994000  0.42419000  1.0
  H  H14  1  0.66971000  0.01814000  0.66178000  1.0
  H  H15  1  0.33030000  0.98186000  0.33822000  1.0
  H  H16  1  0.02970000  0.11413000  0.07607000  1.0
  H  H17  1  0.97030000  0.88587000  0.92394000  1.0
  H  H18  1  0.43498000  0.20275000  0.99268000  1.0
  H  H19  1  0.56502000  0.79725000  0.00732000  1.0
  H  H20  1  0.27870000  0.05174000  0.00176000  1.0
  H  H21  1  0.72130000  0.94826000  0.99824000  1.0
  H  H22  1  0.16341000  0.16633000  0.44593000  1.0
  H  H23  1  0.83659000  0.83367000  0.55407000  1.0
  H  H24  1  0.43895000  0.50989000  0.06087000  1.0
  H  H25  1  0.56105000  0.49011000  0.93913000  1.0
  H  H26  1  0.96322000  0.63902000  0.14204000  1.0
  H  H27  1  0.03678000  0.36098000  0.85796000  1.0
  H  H28  1  0.38123000  0.67253000  0.43523000  1.0
  H  H29  1  0.61877000  0.32747000  0.56476000  1.0
  H  H30  1  0.10970000  0.61673000  0.67477000  1.0
  H  H31  1  0.89031000  0.38327000  0.32523000  1.0
  C  C32  1  0.07990000  0.24884000  0.08339000  1.0
  C  C33  1  0.92010000  0.75116000  0.91661000  1.0
  C  C34  1  0.12375000  0.37834000  0.56601000  1.0
  C  C35  1  0.87625000  0.62166000  0.43399000  1.0
  C  C36  1  0.18695000  0.30590000  0.47827000  1.0
  C  C37  1  0.81306000  0.69410000  0.52173000  1.0
  C  C38  1  0.24458000  0.29753000  0.06340000  1.0
  C  C39  1  0.75542000  0.70247000  0.93660000  1.0
  C  C40  1  0.30955000  0.47158000  0.07495000  1.0
  C  C41  1  0.69045000  0.52842000  0.92504000  1.0
  C  C42  1  0.04444000  0.54571000  0.12228000  1.0
  C  C43  1  0.95556000  0.45429000  0.87772000  1.0
  C  C44  1  0.30858000  0.59145000  0.47181000  1.0
  C  C45  1  0.69142000  0.40855000  0.52819000  1.0
  C  C46  1  0.27974000  0.41243000  0.43174000  1.0
  C  C47  1  0.72026000  0.58757000  0.56826000  1.0
  C  C48  1  0.24806000  0.66415000  0.55927000  1.0
  C  C49  1  0.75195000  0.33585000  0.44073000  1.0
  C  C50  1  0.15719000  0.55839000  0.60670000  1.0
  C  C51  1  0.84281000  0.44161000  0.39330000  1.0
  C  C52  1  0.21019000  0.59610000  0.10445000  1.0
  C  C53  1  0.78981000  0.40390000  0.89555000  1.0
  C  C54  1  0.35256000  0.33791000  0.34019000  1.0
  C  C55  1  0.64745000  0.66209000  0.65980000  1.0
  C  C56  1  0.28101000  0.78280000  0.11823000  1.0
  C  C57  1  0.71899000  0.21720000  0.88177000  1.0
  C  C58  1  0.28348000  0.85583000  0.60382000  1.0
  C  C59  1  0.71653000  0.14417000  0.39618000  1.0
  C  C60  1  0.80200000  0.32094000  0.13166000  1.0
  C  C61  1  0.19800000  0.67907000  0.86835000  1.0
  C  C62  1  0.98003000  0.37268000  0.11256000  1.0
  C  C63  1  0.01997000  0.62732000  0.88744000  1.0
  N  N64  1  0.04123000  0.27136000  0.61635000  1.0
  N  N65  1  0.95877000  0.72864000  0.38365000  1.0
  N  N66  1  0.34790000  0.17326000  0.03721000  1.0
  N  N67  1  0.65210000  0.82675000  0.96279000  1.0
  O  O68  1  0.43798000  0.43675000  0.29964000  1.0
  O  O69  1  0.56203000  0.56325000  0.70036000  1.0
  O  O70  1  0.32684000  0.17296000  0.30502000  1.0
  O  O71  1  0.67317000  0.82704000  0.69498000  1.0
  O  O72  1  0.18458000  0.88892000  0.12286000  1.0
  O  O73  1  0.81542000  0.11108000  0.87714000  1.0
  O  O74  1  0.12356000  0.10658000  0.81379000  1.0
  O  O75  1  0.87644000  0.89342000  0.18621000  1.0
  O  O76  1  0.66011000  0.12580000  0.64572000  1.0
  O  O77  1  0.33990000  0.87420000  0.35428000  1.0
  O  O78  1  0.44528000  0.82892000  0.12684000  1.0
  O  O79  1  0.55472000  0.17108000  0.87316000  1.0
  O  O80  1  0.32605000  0.91471000  0.69658000  1.0
  O  O81  1  0.67396000  0.08529000  0.30342000  1.0
  O  O82  1  0.26953000  0.95345000  0.54958000  1.0
  O  O83  1  0.73047000  0.04655000  0.45042000  1.0
  O  O84  1  0.74615000  0.15894000  0.11911000  1.0
  O  O85  1  0.25385000  0.84106000  0.88089000  1.0
  O  O86  1  0.71349000  0.43414000  0.15965000  1.0
  O  O87  1  0.28651000  0.56586000  0.84035000  1.0
