# generated using pymatgen
data_Zn2H7C10N2O8F
_symmetry_space_group_name_H-M   'P 1'
_cell_length_a   7.98238000
_cell_length_b   8.90871000
_cell_length_c   11.12960000
_cell_angle_alpha   83.56180000
_cell_angle_beta   77.92970000
_cell_angle_gamma   83.25670000
_symmetry_Int_Tables_number   1
_chemical_formula_structural   Zn2H7C10N2O8F
_chemical_formula_sum   'Zn2 H7 C10 N2 O8 F1'
_cell_volume   765.47244311
_cell_formula_units_Z   1
loop_
 _symmetry_equiv_pos_site_id
 _symmetry_equiv_pos_as_xyz
  1  'x, y, z'
loop_
 _atom_site_type_symbol
 _atom_site_label
 _atom_site_symmetry_multiplicity
 _atom_site_fract_x
 _atom_site_fract_y
 _atom_site_fract_z
 _atom_site_occupancy
  Zn  Zn0  1  0.66068000  0.50120000  0.47021000  1.0
  Zn  Zn1  1  0.31027000  0.49150000  0.52328000  1.0
  H  H2  1  0.28449000  0.48988000  0.92214000  1.0
  H  H3  1  0.67981000  0.44151000  0.87991000  1.0
  H  H4  1  0.29244000  0.46010000  0.14521000  1.0
  H  H5  1  0.66619000  0.54248000  0.06316000  1.0
  H  H6  1  0.24817000  0.00011000  0.53653000  1.0
  H  H7  1  0.64500000  0.98770000  0.48324000  1.0
  H  H8  1  0.92270000  0.46138000  0.61617000  1.0
  C  C9  1  0.40965000  0.78351000  0.51239000  1.0
  C  C10  1  0.51177000  0.03755000  0.50221000  1.0
  C  C11  1  0.54221000  0.51263000  0.25727000  1.0
  C  C12  1  0.48491000  0.20480000  0.50633000  1.0
  C  C13  1  0.54242000  0.46725000  0.72741000  1.0
  C  C14  1  0.40971000  0.47808000  0.94916000  1.0
  C  C15  1  0.55093000  0.45989000  0.85912000  1.0
  C  C16  1  0.41094000  0.48177000  0.07895000  1.0
  C  C17  1  0.54584000  0.51413000  0.12375000  1.0
  C  C18  1  0.38143000  0.95038000  0.51849000  1.0
  N  N19  1  0.01975000  0.49382000  0.53978000  1.0
  N  N20  1  0.94207000  0.52697000  0.45629000  1.0
  O  O21  1  0.56343000  0.72078000  0.49337000  1.0
  O  O22  1  0.27304000  0.71504000  0.52734000  1.0
  O  O23  1  0.68685000  0.52386000  0.28723000  1.0
  O  O24  1  0.40016000  0.49961000  0.33309000  1.0
  O  O25  1  0.62057000  0.27419000  0.48112000  1.0
  O  O26  1  0.33001000  0.26664000  0.53390000  1.0
  O  O27  1  0.68952000  0.46583000  0.65091000  1.0
  O  O28  1  0.39845000  0.47676000  0.69488000  1.0
  F  F29  1  0.05105000  0.57977000  0.34567000  1.0
