# generated using pymatgen
data_CoH25C26N3O4
_symmetry_space_group_name_H-M   'P 1'
_cell_length_a   11.37670000
_cell_length_b   14.29250000
_cell_length_c   15.56298540
_cell_angle_alpha   97.07992896
_cell_angle_beta   111.41911047
_cell_angle_gamma   90.00750000
_symmetry_Int_Tables_number   1
_chemical_formula_structural   CoH25C26N3O4
_chemical_formula_sum   'Co4 H100 C104 N12 O16'
_cell_volume   2335.03365822
_cell_formula_units_Z   4
loop_
 _symmetry_equiv_pos_site_id
 _symmetry_equiv_pos_as_xyz
  1  'x, y, z'
loop_
 _atom_site_type_symbol
 _atom_site_label
 _atom_site_symmetry_multiplicity
 _atom_site_fract_x
 _atom_site_fract_y
 _atom_site_fract_z
 _atom_site_occupancy
  Co  Co0  1  0.97649000  0.26404000  0.56869000  1.0
  Co  Co1  1  0.40817000  0.73582000  0.43148000  1.0
  Co  Co2  1  0.57138000  0.78400000  0.56643000  1.0
  Co  Co3  1  0.00484000  0.21599000  0.43368000  1.0
  H  H4  1  0.09339000  0.45578000  0.90166000  1.0
  H  H5  1  0.19199000  0.54419000  0.09811000  1.0
  H  H6  1  0.12583000  0.37920000  0.75738000  1.0
  H  H7  1  0.36890000  0.62075000  0.24225000  1.0
  H  H8  1  0.74737000  0.29966000  0.62572000  1.0
  H  H9  1  0.12257000  0.70018000  0.37445000  1.0
  H  H10  1  0.69727000  0.37436000  0.76333000  1.0
  H  H11  1  0.93471000  0.62572000  0.23694000  1.0
  H  H12  1  0.53850000  0.37057000  0.90562000  1.0
  H  H13  1  0.63289000  0.62961000  0.09473000  1.0
  H  H14  1  0.31998000  0.37531000  0.90944000  1.0
  H  H15  1  0.41052000  0.62487000  0.09067000  1.0
  H  H16  1  0.79775000  0.95052000  0.90775000  1.0
  H  H17  1  0.89001000  0.04988000  0.09217000  1.0
  H  H18  1  0.61680000  0.88314000  0.76218000  1.0
  H  H19  1  0.85471000  0.11710000  0.23781000  1.0
  H  H20  1  0.85457000  0.81781000  0.61934000  1.0
  H  H21  1  0.23530000  0.18196000  0.38073000  1.0
  H  H22  1  0.04675000  0.88032000  0.75929000  1.0
  H  H23  1  0.28752000  0.11958000  0.24074000  1.0
  H  H24  1  0.65793000  0.13512000  0.07169000  1.0
  H  H25  1  0.58628000  0.86475000  0.92820000  1.0
  H  H26  1  0.43999000  0.14003000  0.07580000  1.0
  H  H27  1  0.36410000  0.85984000  0.92396000  1.0
  H  H28  1  0.68407000  0.61196000  0.24166000  1.0
  H  H29  1  0.44190000  0.38812000  0.75861000  1.0
  H  H30  1  0.58616000  0.54860000  0.28178000  1.0
  H  H31  1  0.30380000  0.45134000  0.71842000  1.0
  H  H32  1  0.70786000  0.41684000  0.28142000  1.0
  H  H33  1  0.42561000  0.58326000  0.71872000  1.0
  H  H34  1  0.81287000  0.48036000  0.24780000  1.0
  H  H35  1  0.56439000  0.51991000  0.75260000  1.0
  H  H36  1  0.94878000  0.53049000  0.40237000  1.0
  H  H37  1  0.54621000  0.46953000  0.59816000  1.0
  H  H38  1  0.91738000  0.66932000  0.37497000  1.0
  H  H39  1  0.54205000  0.33064000  0.62532000  1.0
  H  H40  1  0.79650000  0.75038000  0.34047000  1.0
  H  H41  1  0.45553000  0.24966000  0.65982000  1.0
  H  H42  1  0.88259000  0.74579000  0.46050000  1.0
  H  H43  1  0.42170000  0.25422000  0.53979000  1.0
  H  H44  1  0.98159000  0.62939000  0.54851000  1.0
  H  H45  1  0.43318000  0.37071000  0.45185000  1.0
  H  H46  1  0.85671000  0.64408000  0.59166000  1.0
  H  H47  1  0.26523000  0.35592000  0.40860000  1.0
  H  H48  1  0.93566000  0.53573000  0.59629000  1.0
  H  H49  1  0.33950000  0.46431000  0.40399000  1.0
  H  H50  1  0.62148000  0.47019000  0.40758000  1.0
  H  H51  1  0.21361000  0.52980000  0.59256000  1.0
  H  H52  1  0.73461000  0.43975000  0.51292000  1.0
  H  H53  1  0.22158000  0.56025000  0.48726000  1.0
  H  H54  1  0.65355000  0.54574000  0.51365000  1.0
  H  H55  1  0.13979000  0.45426000  0.48649000  1.0
  H  H56  1  0.10450000  0.75715000  0.52473000  1.0
  H  H57  1  0.57936000  0.24283000  0.47534000  1.0
  H  H58  1  0.06796000  0.79503000  0.62416000  1.0
  H  H59  1  0.44353000  0.20488000  0.37577000  1.0
  H  H60  1  0.93280000  0.89232000  0.51314000  1.0
  H  H61  1  0.41930000  0.10760000  0.48687000  1.0
  H  H62  1  0.04991000  0.90773000  0.46551000  1.0
  H  H63  1  0.58407000  0.09223000  0.53450000  1.0
  H  H64  1  0.06782000  0.98374000  0.66268000  1.0
  H  H65  1  0.40496000  0.01609000  0.33734000  1.0
  H  H66  1  0.23545000  0.84812000  0.76635000  1.0
  H  H67  1  0.46923000  0.15193000  0.23380000  1.0
  H  H68  1  0.28735000  0.74502000  0.71707000  1.0
  H  H69  1  0.57032000  0.25504000  0.28308000  1.0
  H  H70  1  0.39222000  0.84610000  0.76621000  1.0
  H  H71  1  0.62615000  0.15403000  0.23401000  1.0
  H  H72  1  0.41178000  0.01078000  0.75701000  1.0
  H  H73  1  0.65504000  0.98931000  0.24323000  1.0
  H  H74  1  0.30005000  0.10007000  0.72977000  1.0
  H  H75  1  0.57048000  0.89996000  0.27037000  1.0
  H  H76  1  0.27270000  0.00432000  0.78366000  1.0
  H  H77  1  0.48926000  0.99564000  0.21635000  1.0
  H  H78  1  0.39764000  0.99340000  0.59018000  1.0
  H  H79  1  0.80735000  0.00670000  0.41001000  1.0
  H  H80  1  0.24906000  0.97614000  0.49617000  1.0
  H  H81  1  0.75260000  0.02391000  0.50394000  1.0
  H  H82  1  0.28829000  0.08451000  0.57082000  1.0
  H  H83  1  0.71730000  0.91554000  0.42929000  1.0
  H  H84  1  0.16213000  0.68287000  0.88500000  1.0
  H  H85  1  0.27647000  0.31704000  0.11422000  1.0
  H  H86  1  0.95861000  0.62380000  0.75905000  1.0
  H  H87  1  0.19923000  0.37619000  0.24034000  1.0
  H  H88  1  0.75614000  0.64574000  0.78497000  1.0
  H  H89  1  0.97098000  0.35417000  0.21478000  1.0
  H  H90  1  0.75727000  0.72104000  0.93603000  1.0
  H  H91  1  0.82090000  0.27874000  0.06384000  1.0
  H  H92  1  0.76366000  0.78233000  0.05992000  1.0
  H  H93  1  0.70311000  0.21753000  0.93991000  1.0
  H  H94  1  0.77755000  0.86293000  0.21201000  1.0
  H  H95  1  0.56480000  0.13709000  0.78782000  1.0
  H  H96  1  0.98608000  0.92386000  0.33157000  1.0
  H  H97  1  0.65353000  0.07612000  0.66808000  1.0
  H  H98  1  0.18226000  0.89887000  0.29749000  1.0
  H  H99  1  0.88383000  0.10097000  0.70204000  1.0
  H  H100  1  0.28690000  0.84486000  0.19244000  1.0
  H  H101  1  0.09340000  0.15487000  0.80691000  1.0
  H  H102  1  0.27965000  0.76546000  0.03904000  1.0
  H  H103  1  0.23975000  0.23427000  0.96021000  1.0
  C  C104  1  0.86838000  0.46150000  0.92642000  1.0
  C  C105  1  0.94226000  0.53859000  0.07370000  1.0
  C  C106  1  0.73280000  0.50011000  0.00021000  1.0
  C  C107  1  0.89200000  0.42017000  0.84285000  1.0
  C  C108  1  0.04965000  0.57987000  0.15716000  1.0
  C  C109  1  0.01434000  0.42235000  0.84152000  1.0
  C  C110  1  0.17324000  0.57763000  0.15832000  1.0
  C  C111  1  0.03275000  0.37993000  0.76243000  1.0
  C  C112  1  0.27084000  0.61999000  0.23736000  1.0
  C  C113  1  0.82025000  0.33619000  0.68803000  1.0
  C  C114  1  0.13303000  0.66369000  0.31206000  1.0
  C  C115  1  0.79304000  0.37730000  0.76381000  1.0
  C  C116  1  0.02992000  0.62273000  0.23632000  1.0
  C  C117  1  0.60250000  0.50006000  0.00020000  1.0
  C  C118  1  0.51284000  0.42779000  0.94753000  1.0
  C  C119  1  0.56547000  0.57234000  0.05280000  1.0
  C  C120  1  0.39158000  0.43098000  0.95003000  1.0
  C  C121  1  0.44167000  0.56922000  0.05017000  1.0
  C  C122  1  0.04557000  0.96000000  0.92689000  1.0
  C  C123  1  0.11866000  0.04019000  0.07299000  1.0
  C  C124  1  0.25452000  0.00000000  0.99990000  1.0
  C  C125  1  0.93668000  0.91986000  0.84412000  1.0
  C  C126  1  0.09259000  0.08036000  0.15580000  1.0
  C  C127  1  0.81429000  0.92073000  0.84548000  1.0
  C  C128  1  0.96883000  0.07961000  0.15443000  1.0
  C  C129  1  0.71414000  0.88411000  0.76531000  1.0
  C  C130  1  0.94890000  0.11601000  0.23471000  1.0
  C  C131  1  0.84717000  0.84793000  0.68488000  1.0
  C  C132  1  0.16234000  0.15201000  0.31516000  1.0
  C  C133  1  0.95266000  0.88231000  0.76204000  1.0
  C  C134  1  0.19065000  0.11767000  0.23796000  1.0
  C  C135  1  0.38493000  0.99991000  0.99991000  1.0
  C  C136  1  0.59051000  0.07474000  0.03950000  1.0
  C  C137  1  0.55103000  0.92511000  0.96041000  1.0
  C  C138  1  0.46920000  0.07810000  0.04190000  1.0
  C  C139  1  0.42729000  0.92172000  0.95797000  1.0
  C  C140  1  0.74273000  0.62959000  0.39290000  1.0
  C  C141  1  0.34953000  0.37047000  0.60734000  1.0
  C  C142  1  0.68480000  0.56989000  0.29617000  1.0
  C  C143  1  0.38812000  0.43016000  0.70408000  1.0
  C  C144  1  0.76621000  0.48273000  0.29844000  1.0
  C  C145  1  0.46716000  0.51743000  0.70184000  1.0
  C  C146  1  0.86358000  0.49106000  0.39932000  1.0
  C  C147  1  0.46402000  0.50903000  0.60101000  1.0
  C  C148  1  0.80325000  0.55314000  0.45963000  1.0
  C  C149  1  0.34350000  0.44689000  0.54064000  1.0
  C  C150  1  0.64658000  0.68342000  0.42437000  1.0
  C  C151  1  0.22198000  0.31661000  0.57576000  1.0
  C  C152  1  0.84100000  0.70297000  0.39258000  1.0
  C  C153  1  0.44802000  0.29706000  0.60770000  1.0
  C  C154  1  0.91265000  0.39813000  0.43212000  1.0
  C  C155  1  0.48052000  0.60189000  0.56813000  1.0
  C  C156  1  0.90031000  0.59351000  0.55479000  1.0
  C  C157  1  0.34559000  0.40654000  0.44550000  1.0
  C  C158  1  0.69651000  0.49846000  0.47371000  1.0
  C  C159  1  0.22265000  0.50153000  0.52647000  1.0
  C  C160  1  0.24522000  0.85736000  0.63029000  1.0
  C  C161  1  0.61482000  0.14271000  0.36987000  1.0
  C  C162  1  0.10770000  0.81854000  0.57528000  1.0
  C  C163  1  0.53210000  0.18146000  0.42477000  1.0
  C  C164  1  0.03492000  0.90005000  0.53006000  1.0
  C  C165  1  0.50453000  0.09990000  0.46996000  1.0
  C  C166  1  0.09547000  0.98560000  0.60207000  1.0
  C  C167  1  0.49323000  0.01436000  0.39794000  1.0
  C  C168  1  0.24079000  0.97067000  0.63480000  1.0
  C  C169  1  0.60588000  0.02939000  0.36526000  1.0
  C  C170  1  0.33297000  0.82242000  0.57989000  1.0
  C  C171  1  0.75293000  0.17768000  0.42032000  1.0
  C  C172  1  0.29352000  0.82272000  0.72614000  1.0
  C  C173  1  0.56745000  0.17735000  0.27405000  1.0
  C  C174  1  0.05648000  0.07902000  0.56671000  1.0
  C  C175  1  0.48979000  0.92094000  0.43336000  1.0
  C  C176  1  0.31028000  0.02378000  0.73226000  1.0
  C  C177  1  0.57816000  0.97625000  0.26783000  1.0
  C  C178  1  0.29700000  0.00787000  0.56878000  1.0
  C  C179  1  0.72804000  0.99220000  0.43133000  1.0
  C  C180  1  0.07296000  0.69134000  0.89588000  1.0
  C  C181  1  0.17646000  0.30857000  0.10345000  1.0
  C  C182  1  0.95997000  0.65832000  0.82592000  1.0
  C  C183  1  0.13361000  0.34167000  0.17350000  1.0
  C  C184  1  0.84568000  0.66967000  0.84096000  1.0
  C  C185  1  0.00436000  0.33023000  0.15868000  1.0
  C  C186  1  0.84691000  0.71304000  0.92600000  1.0
  C  C187  1  0.92047000  0.28685000  0.07370000  1.0
  C  C188  1  0.96075000  0.74813000  0.99895000  1.0
  C  C189  1  0.96116000  0.25177000  0.00065000  1.0
  C  C190  1  0.96505000  0.79511000  0.08841000  1.0
  C  C191  1  0.87592000  0.20474000  0.91126000  1.0
  C  C192  1  0.85599000  0.80787000  0.11096000  1.0
  C  C193  1  0.74431000  0.19205000  0.88876000  1.0
  C  C194  1  0.86350000  0.85300000  0.19696000  1.0
  C  C195  1  0.66576000  0.14698000  0.80274000  1.0
  C  C196  1  0.98113000  0.88690000  0.26468000  1.0
  C  C197  1  0.71556000  0.11304000  0.73493000  1.0
  C  C198  1  0.08989000  0.87466000  0.24530000  1.0
  C  C199  1  0.84366000  0.12520000  0.75425000  1.0
  C  C200  1  0.08432000  0.82961000  0.15760000  1.0
  C  C201  1  0.92585000  0.17019000  0.84197000  1.0
  C  C202  1  0.19743000  0.81827000  0.13782000  1.0
  C  C203  1  0.05870000  0.18150000  0.86162000  1.0
  C  C204  1  0.19319000  0.77410000  0.05377000  1.0
  C  C205  1  0.13859000  0.22571000  0.94561000  1.0
  C  C206  1  0.07621000  0.73736000  0.98265000  1.0
  C  C207  1  0.09284000  0.26250000  0.01678000  1.0
  N  N208  1  0.74875000  0.45748000  0.92370000  1.0
  N  N209  1  0.82541000  0.54270000  0.07663000  1.0
  N  N210  1  0.96796000  0.50002000  0.00001000  1.0
  N  N211  1  0.93813000  0.33664000  0.68736000  1.0
  N  N212  1  0.25149000  0.66320000  0.31256000  1.0
  N  N213  1  0.35484000  0.50011000  0.00009000  1.0
  N  N214  1  0.16262000  0.95525000  0.92428000  1.0
  N  N215  1  0.23828000  0.04488000  0.07552000  1.0
  N  N216  1  0.01990000  0.00009000  0.99996000  1.0
  N  N217  1  0.72979000  0.84823000  0.68639000  1.0
  N  N218  1  0.04345000  0.15178000  0.31368000  1.0
  N  N219  1  0.63253000  0.99993000  0.99998000  1.0
  O  O220  1  0.68909000  0.73436000  0.50405000  1.0
  O  O221  1  0.18486000  0.26584000  0.49600000  1.0
  O  O222  1  0.52976000  0.67604000  0.37333000  1.0
  O  O223  1  0.15623000  0.32381000  0.62686000  1.0
  O  O224  1  0.91918000  0.38351000  0.51271000  1.0
  O  O225  1  0.40651000  0.61650000  0.48752000  1.0
  O  O226  1  0.94940000  0.33964000  0.37914000  1.0
  O  O227  1  0.57033000  0.66034000  0.62099000  1.0
  O  O228  1  0.45129000  0.82936000  0.62800000  1.0
  O  O229  1  0.82324000  0.17073000  0.37225000  1.0
  O  O230  1  0.28742000  0.78955000  0.49370000  1.0
  O  O231  1  0.79348000  0.21049000  0.50652000  1.0
  O  O232  1  0.03523000  0.14490000  0.62229000  1.0
  O  O233  1  0.41323000  0.85494000  0.37778000  1.0
  O  O234  1  0.04660000  0.08833000  0.48411000  1.0
  O  O235  1  0.56225000  0.91177000  0.51605000  1.0
