# generated using pymatgen
data_Zn4H6C24O19
_symmetry_space_group_name_H-M   'P 1'
_cell_length_a   18.22500000
_cell_length_b   18.30880000
_cell_length_c   18.33170000
_cell_angle_alpha   61.41980000
_cell_angle_beta   61.29420000
_cell_angle_gamma   61.22000000
_symmetry_Int_Tables_number   1
_chemical_formula_structural   Zn4H6C24O19
_chemical_formula_sum   'Zn8 H12 C48 O38'
_cell_volume   4452.74955006
_cell_formula_units_Z   2
loop_
 _symmetry_equiv_pos_site_id
 _symmetry_equiv_pos_as_xyz
  1  'x, y, z'
loop_
 _atom_site_type_symbol
 _atom_site_label
 _atom_site_symmetry_multiplicity
 _atom_site_fract_x
 _atom_site_fract_y
 _atom_site_fract_z
 _atom_site_occupancy
  Zn  Zn0  1  0.05912000  0.05786000  0.85095000  1.0
  Zn  Zn1  1  0.05825000  0.06318000  0.02481000  1.0
  Zn  Zn2  1  0.05765000  0.88774000  0.02295000  1.0
  Zn  Zn3  1  0.88433000  0.05957000  0.02131000  1.0
  Zn  Zn4  1  0.47445000  0.47343000  0.61002000  1.0
  Zn  Zn5  1  0.46704000  0.47452000  0.43679000  1.0
  Zn  Zn6  1  0.64509000  0.47376000  0.43614000  1.0
  Zn  Zn7  1  0.47255000  0.64642000  0.44006000  1.0
  H  H8  1  0.33940000  0.10434000  0.78467000  1.0
  H  H9  1  0.18767000  0.43259000  0.67734000  1.0
  H  H10  1  0.10228000  0.80535000  0.77466000  1.0
  H  H11  1  0.43338000  0.72299000  0.69144000  1.0
  H  H12  1  0.81377000  0.33817000  0.77997000  1.0
  H  H13  1  0.72441000  0.19441000  0.67280000  1.0
  H  H14  1  0.33990000  0.81550000  0.06694000  1.0
  H  H15  1  0.18765000  0.72548000  0.39555000  1.0
  H  H16  1  0.82229000  0.10442000  0.30291000  1.0
  H  H17  1  0.69750000  0.43103000  0.15656000  1.0
  H  H18  1  0.81893000  0.81199000  0.30151000  1.0
  H  H19  1  0.71199000  0.72082000  0.15936000  1.0
  C  C20  1  0.15639000  0.15141000  0.84569000  1.0
  C  C21  1  0.21466000  0.20814000  0.78804000  1.0
  C  C22  1  0.30374000  0.17474000  0.76362000  1.0
  C  C23  1  0.35894000  0.23223000  0.70546000  1.0
  C  C24  1  0.31243000  0.32888000  0.67469000  1.0
  C  C25  1  0.22333000  0.36224000  0.69886000  1.0
  C  C26  1  0.16812000  0.30471000  0.75684000  1.0
  C  C27  1  0.37117000  0.38510000  0.61679000  1.0
  C  C28  1  0.14827000  0.87697000  0.84403000  1.0
  C  C29  1  0.20592000  0.81885000  0.78724000  1.0
  C  C30  1  0.17315000  0.78929000  0.75839000  1.0
  C  C31  1  0.23238000  0.73306000  0.70200000  1.0
  C  C32  1  0.32969000  0.70990000  0.67850000  1.0
  C  C33  1  0.36251000  0.73905000  0.70774000  1.0
  C  C34  1  0.30326000  0.79536000  0.76409000  1.0
  C  C35  1  0.38681000  0.65296000  0.62052000  1.0
  C  C36  1  0.87907000  0.15608000  0.84075000  1.0
  C  C37  1  0.82267000  0.21589000  0.78236000  1.0
  C  C38  1  0.79608000  0.30433000  0.75846000  1.0
  C  C39  1  0.74050000  0.36103000  0.70119000  1.0
  C  C40  1  0.71525000  0.31665000  0.67065000  1.0
  C  C41  1  0.74231000  0.22822000  0.69414000  1.0
  C  C42  1  0.79797000  0.17154000  0.75128000  1.0
  C  C43  1  0.65703000  0.37613000  0.61402000  1.0
  C  C44  1  0.15683000  0.88350000  0.11387000  1.0
  C  C45  1  0.21511000  0.82637000  0.17064000  1.0
  C  C46  1  0.30422000  0.79807000  0.13737000  1.0
  C  C47  1  0.35922000  0.74029000  0.19512000  1.0
  C  C48  1  0.31247000  0.71465000  0.29184000  1.0
  C  C49  1  0.22337000  0.74317000  0.32512000  1.0
  C  C50  1  0.16837000  0.80083000  0.26736000  1.0
  C  C51  1  0.37071000  0.65607000  0.34863000  1.0
  C  C52  1  0.87708000  0.15169000  0.12134000  1.0
  C  C53  1  0.81815000  0.20788000  0.18012000  1.0
  C  C54  1  0.79710000  0.17447000  0.26832000  1.0
  C  C55  1  0.73749000  0.23135000  0.32415000  1.0
  C  C56  1  0.70205000  0.32764000  0.27929000  1.0
  C  C57  1  0.72251000  0.36097000  0.19115000  1.0
  C  C58  1  0.78201000  0.30404000  0.13530000  1.0
  C  C59  1  0.64519000  0.38392000  0.33804000  1.0
  C  C60  1  0.87685000  0.87937000  0.11978000  1.0
  C  C61  1  0.81979000  0.82168000  0.17978000  1.0
  C  C62  1  0.79717000  0.79420000  0.26798000  1.0
  C  C63  1  0.74088000  0.73768000  0.32496000  1.0
  C  C64  1  0.71077000  0.71143000  0.28109000  1.0
  C  C65  1  0.73349000  0.73883000  0.19290000  1.0
  C  C66  1  0.78979000  0.79528000  0.13595000  1.0
  C  C67  1  0.65347000  0.65392000  0.34074000  1.0
  O  O68  1  0.01495000  0.01736000  0.98045000  1.0
  O  O69  1  0.13323000  0.13432000  0.92787000  1.0
  O  O70  1  0.13689000  0.12665000  0.80533000  1.0
  O  O71  1  0.44054000  0.20203000  0.68241000  1.0
  O  O72  1  0.08656000  0.33470000  0.77873000  1.0
  O  O73  1  0.38978000  0.40623000  0.53462000  1.0
  O  O74  1  0.39590000  0.40509000  0.65680000  1.0
  O  O75  1  0.12660000  0.83767000  0.92625000  1.0
  O  O76  1  0.12790000  0.95908000  0.80353000  1.0
  O  O77  1  0.20317000  0.70597000  0.67473000  1.0
  O  O78  1  0.33245000  0.82231000  0.79152000  1.0
  O  O79  1  0.40608000  0.69371000  0.53857000  1.0
  O  O80  1  0.40875000  0.57062000  0.65964000  1.0
  O  O81  1  0.83783000  0.13365000  0.92265000  1.0
  O  O82  1  0.96198000  0.13437000  0.80168000  1.0
  O  O83  1  0.71524000  0.44206000  0.67925000  1.0
  O  O84  1  0.82355000  0.09050000  0.77295000  1.0
  O  O85  1  0.69616000  0.39908000  0.53170000  1.0
  O  O86  1  0.57450000  0.39692000  0.65511000  1.0
  O  O87  1  0.13450000  0.84236000  0.09273000  1.0
  O  O88  1  0.13617000  0.96593000  0.09356000  1.0
  O  O89  1  0.44086000  0.71355000  0.16523000  1.0
  O  O90  1  0.08672000  0.82719000  0.29723000  1.0
  O  O91  1  0.39434000  0.69541000  0.37059000  1.0
  O  O92  1  0.39011000  0.57396000  0.36812000  1.0
  O  O93  1  0.83712000  0.13022000  0.09791000  1.0
  O  O94  1  0.95989000  0.13170000  0.10173000  1.0
  O  O95  1  0.71718000  0.20080000  0.40495000  1.0
  O  O96  1  0.80194000  0.33456000  0.05452000  1.0
  O  O97  1  0.68752000  0.40419000  0.35991000  1.0
  O  O98  1  0.56201000  0.40513000  0.35924000  1.0
  O  O99  1  0.95972000  0.83957000  0.10005000  1.0
  O  O100  1  0.83623000  0.96142000  0.09548000  1.0
  O  O101  1  0.71894000  0.71309000  0.40578000  1.0
  O  O102  1  0.81224000  0.81939000  0.05511000  1.0
  O  O103  1  0.57078000  0.69425000  0.36356000  1.0
  O  O104  1  0.69366000  0.57159000  0.36150000  1.0
  O  O105  1  0.51452000  0.51679000  0.48046000  1.0
