# generated using pymatgen
data_CdH9C10I2N5
_symmetry_space_group_name_H-M   'P 1'
_cell_length_a   7.35123000
_cell_length_b   13.94036824
_cell_length_c   17.51550000
_cell_angle_alpha   89.99769981
_cell_angle_beta   89.99700000
_cell_angle_gamma   77.65687191
_symmetry_Int_Tables_number   1
_chemical_formula_structural   CdH9C10I2N5
_chemical_formula_sum   'Cd4 H36 C40 I8 N20'
_cell_volume   1753.47755591
_cell_formula_units_Z   4
loop_
 _symmetry_equiv_pos_site_id
 _symmetry_equiv_pos_as_xyz
  1  'x, y, z'
loop_
 _atom_site_type_symbol
 _atom_site_label
 _atom_site_symmetry_multiplicity
 _atom_site_fract_x
 _atom_site_fract_y
 _atom_site_fract_z
 _atom_site_occupancy
  Cd  Cd0  1  0.61857000  0.57353000  0.24728000  1.0
  Cd  Cd1  1  0.88144000  0.92647000  0.74728000  1.0
  Cd  Cd2  1  0.38145000  0.42647000  0.75273000  1.0
  Cd  Cd3  1  0.11857000  0.07353000  0.25271000  1.0
  H  H4  1  0.26638000  0.39186000  0.45297000  1.0
  H  H5  1  0.23359000  0.10813000  0.95294000  1.0
  H  H6  1  0.73363000  0.60813000  0.54705000  1.0
  H  H7  1  0.76641000  0.89187000  0.04705000  1.0
  H  H8  1  0.42841000  0.74179000  0.38850000  1.0
  H  H9  1  0.07160000  0.75820000  0.88851000  1.0
  H  H10  1  0.57155000  0.25821000  0.61149000  1.0
  H  H11  1  0.92840000  0.24180000  0.11149000  1.0
  H  H12  1  0.23914000  0.81959000  0.49976000  1.0
  H  H13  1  0.26088000  0.68040000  0.99977000  1.0
  H  H14  1  0.76084000  0.18040000  0.50023000  1.0
  H  H15  1  0.73911000  0.31961000  0.00023000  1.0
  H  H16  1  0.08103000  0.72303000  0.58394000  1.0
  H  H17  1  0.41900000  0.77696000  0.08394000  1.0
  H  H18  1  0.91899000  0.27696000  0.41605000  1.0
  H  H19  1  0.58100000  0.22304000  0.91606000  1.0
  H  H20  1  0.11095000  0.54152000  0.56481000  1.0
  H  H21  1  0.38903000  0.95849000  0.06479000  1.0
  H  H22  1  0.88905000  0.45848000  0.43520000  1.0
  H  H23  1  0.61095000  0.04152000  0.93521000  1.0
  H  H24  1  0.38545000  0.30735000  0.32657000  1.0
  H  H25  1  0.11450000  0.19265000  0.82654000  1.0
  H  H26  1  0.61454000  0.69265000  0.67344000  1.0
  H  H27  1  0.88551000  0.80734000  0.17344000  1.0
  H  H28  1  0.38599000  0.39543000  0.25246000  1.0
  H  H29  1  0.11397000  0.10457000  0.75244000  1.0
  H  H30  1  0.61401000  0.60457000  0.74755000  1.0
  H  H31  1  0.88603000  0.89541000  0.24755000  1.0
  H  H32  1  0.67412000  0.17337000  0.30644000  1.0
  H  H33  1  0.82583000  0.32662000  0.80642000  1.0
  H  H34  1  0.32590000  0.82663000  0.69357000  1.0
  H  H35  1  0.17418000  0.67337000  0.19358000  1.0
  H  H36  1  0.04350000  0.35105000  0.24124000  1.0
  H  H37  1  0.45647000  0.14892000  0.74125000  1.0
  H  H38  1  0.95650000  0.64895000  0.75876000  1.0
  H  H39  1  0.54352000  0.85109000  0.25874000  1.0
  C  C40  1  0.36633000  0.59926000  0.41216000  1.0
  C  C41  1  0.13370000  0.90074000  0.91215000  1.0
  C  C42  1  0.63368000  0.40075000  0.58784000  1.0
  C  C43  1  0.86630000  0.09926000  0.08785000  1.0
  C  C44  1  0.35889000  0.69894000  0.42619000  1.0
  C  C45  1  0.14110000  0.80106000  0.92619000  1.0
  C  C46  1  0.64108000  0.30108000  0.57381000  1.0
  C  C47  1  0.85890000  0.19893000  0.07381000  1.0
  C  C48  1  0.25498000  0.74126000  0.48863000  1.0
  C  C49  1  0.24504000  0.75874000  0.98862000  1.0
  C  C50  1  0.74500000  0.25875000  0.51137000  1.0
  C  C51  1  0.75496000  0.24126000  0.01138000  1.0
  C  C52  1  0.16401000  0.68551000  0.53695000  1.0
  C  C53  1  0.33598000  0.81451000  0.03695000  1.0
  C  C54  1  0.83598000  0.31451000  0.46305000  1.0
  C  C55  1  0.66402000  0.18549000  0.96305000  1.0
  C  C56  1  0.17634000  0.58528000  0.52600000  1.0
  C  C57  1  0.32365000  0.91473000  0.02598000  1.0
  C  C58  1  0.82367000  0.41473000  0.47401000  1.0
  C  C59  1  0.67633000  0.08527000  0.97402000  1.0
  C  C60  1  0.27758000  0.54378000  0.46229000  1.0
  C  C61  1  0.22238000  0.95624000  0.96229000  1.0
  C  C62  1  0.72241000  0.45624000  0.53771000  1.0
  C  C63  1  0.77761000  0.04376000  0.03771000  1.0
  C  C64  1  0.40491000  0.45211000  0.36397000  1.0
  C  C65  1  0.09508000  0.04787000  0.86397000  1.0
  C  C66  1  0.59510000  0.54787000  0.63603000  1.0
  C  C67  1  0.90492000  0.95212000  0.13603000  1.0
  C  C68  1  0.44603000  0.36897000  0.30848000  1.0
  C  C69  1  0.05396000  0.13102000  0.80847000  1.0
  C  C70  1  0.55402000  0.63101000  0.69151000  1.0
  C  C71  1  0.94603000  0.86898000  0.19151000  1.0
  C  C72  1  0.73500000  0.23552000  0.29261000  1.0
  C  C73  1  0.76493000  0.26446000  0.79260000  1.0
  C  C74  1  0.26498000  0.76447000  0.70739000  1.0
  C  C75  1  0.23507000  0.73554000  0.20740000  1.0
  C  C76  1  0.91978000  0.32733000  0.26045000  1.0
  C  C77  1  0.58019000  0.17264000  0.76046000  1.0
  C  C78  1  0.08022000  0.67266000  0.73955000  1.0
  C  C79  1  0.41981000  0.82736000  0.23954000  1.0
  I  I80  1  0.49197000  0.50287000  0.11515000  1.0
  I  I81  1  0.00801000  0.99714000  0.61514000  1.0
  I  I82  1  0.50804000  0.49713000  0.88486000  1.0
  I  I83  1  0.99207000  0.00285000  0.38486000  1.0
  I  I84  1  0.90447000  0.63896000  0.31677000  1.0
  I  I85  1  0.59558000  0.86100000  0.81681000  1.0
  I  I86  1  0.09549000  0.36109000  0.68324000  1.0
  I  I87  1  0.40442000  0.13902000  0.18319000  1.0
  N  N88  1  0.44264000  0.53977000  0.35152000  1.0
  N  N89  1  0.05735000  0.96024000  0.85152000  1.0
  N  N90  1  0.55738000  0.46024000  0.64847000  1.0
  N  N91  1  0.94265000  0.03976000  0.14847000  1.0
  N  N92  1  0.30792000  0.45071000  0.43040000  1.0
  N  N93  1  0.19206000  0.04929000  0.93038000  1.0
  N  N94  1  0.69208000  0.54929000  0.56961000  1.0
  N  N95  1  0.80794000  0.95071000  0.06962000  1.0
  N  N96  1  0.64435000  0.32997000  0.29595000  1.0
  N  N97  1  0.85563000  0.17000000  0.79593000  1.0
  N  N98  1  0.35567000  0.67001000  0.70406000  1.0
  N  N99  1  0.14438000  0.82999000  0.20405000  1.0
  N  N100  1  0.76030000  0.38962000  0.27563000  1.0
  N  N101  1  0.73967000  0.11035000  0.77562000  1.0
  N  N102  1  0.23969000  0.61037000  0.72438000  1.0
  N  N103  1  0.26034000  0.88964000  0.22436000  1.0
  N  N104  1  0.90995000  0.23164000  0.27028000  1.0
  N  N105  1  0.58998000  0.26834000  0.77027000  1.0
  N  N106  1  0.09002000  0.76836000  0.72973000  1.0
  N  N107  1  0.41003000  0.73166000  0.22973000  1.0
