# generated using pymatgen
data_CdH24C36(N2O3)2
_symmetry_space_group_name_H-M   'P 1'
_cell_length_a   11.76300000
_cell_length_b   14.35120000
_cell_length_c   22.61900000
_cell_angle_alpha   90.00110000
_cell_angle_beta   89.99920000
_cell_angle_gamma   89.99940000
_symmetry_Int_Tables_number   1
_chemical_formula_structural   CdH24C36(N2O3)2
_chemical_formula_sum   'Cd4 H96 C144 N16 O24'
_cell_volume   3818.38499142
_cell_formula_units_Z   4
loop_
 _symmetry_equiv_pos_site_id
 _symmetry_equiv_pos_as_xyz
  1  'x, y, z'
loop_
 _atom_site_type_symbol
 _atom_site_label
 _atom_site_symmetry_multiplicity
 _atom_site_fract_x
 _atom_site_fract_y
 _atom_site_fract_z
 _atom_site_occupancy
  Cd  Cd0  1  0.95618000  0.88774000  0.05604000  1.0
  Cd  Cd1  1  0.95618000  0.11226000  0.94396000  1.0
  Cd  Cd2  1  0.04382000  0.38775000  0.44395000  1.0
  Cd  Cd3  1  0.04381000  0.61225000  0.55604000  1.0
  H  H4  1  0.83236000  0.39883000  0.27505000  1.0
  H  H5  1  0.83236000  0.60116000  0.72496000  1.0
  H  H6  1  0.16764000  0.89884000  0.22496000  1.0
  H  H7  1  0.16765000  0.10117000  0.77504000  1.0
  H  H8  1  0.84316000  0.83946000  0.29252000  1.0
  H  H9  1  0.84317000  0.16055000  0.70748000  1.0
  H  H10  1  0.15683000  0.33946000  0.20748000  1.0
  H  H11  1  0.15683000  0.66055000  0.79252000  1.0
  H  H12  1  0.90427000  0.25439000  0.05858000  1.0
  H  H13  1  0.90428000  0.74560000  0.94143000  1.0
  H  H14  1  0.09572000  0.75439000  0.44142000  1.0
  H  H15  1  0.09572000  0.24560000  0.55857000  1.0
  H  H16  1  0.84004000  0.39269000  0.11561000  1.0
  H  H17  1  0.84005000  0.60731000  0.88441000  1.0
  H  H18  1  0.15996000  0.89269000  0.38441000  1.0
  H  H19  1  0.15996000  0.10729000  0.61559000  1.0
  H  H20  1  0.83768000  0.22896000  0.27562000  1.0
  H  H21  1  0.83767000  0.77102000  0.72440000  1.0
  H  H22  1  0.16232000  0.72899000  0.22439000  1.0
  H  H23  1  0.16233000  0.27103000  0.77560000  1.0
  H  H24  1  0.89151000  0.08883000  0.21664000  1.0
  H  H25  1  0.89152000  0.91115000  0.78337000  1.0
  H  H26  1  0.10848000  0.58885000  0.28336000  1.0
  H  H27  1  0.10849000  0.41115000  0.71663000  1.0
  H  H28  1  0.89828000  0.54788000  0.26074000  1.0
  H  H29  1  0.89827000  0.45212000  0.73927000  1.0
  H  H30  1  0.10172000  0.04788000  0.23926000  1.0
  H  H31  1  0.10173000  0.95213000  0.76075000  1.0
  H  H32  1  0.90919000  0.69481000  0.31635000  1.0
  H  H33  1  0.90918000  0.30520000  0.68366000  1.0
  H  H34  1  0.09082000  0.19480000  0.18364000  1.0
  H  H35  1  0.09082000  0.80520000  0.81636000  1.0
  H  H36  1  0.52198000  0.76904000  0.36569000  1.0
  H  H37  1  0.52200000  0.23097000  0.63430000  1.0
  H  H38  1  0.47802000  0.26903000  0.13431000  1.0
  H  H39  1  0.47802000  0.73098000  0.86570000  1.0
  H  H40  1  0.33637000  0.69678000  0.34409000  1.0
  H  H41  1  0.33637000  0.30323000  0.65590000  1.0
  H  H42  1  0.66363000  0.19677000  0.15591000  1.0
  H  H43  1  0.66364000  0.80323000  0.84410000  1.0
  H  H44  1  0.32424000  0.55653000  0.27941000  1.0
  H  H45  1  0.32423000  0.44347000  0.72059000  1.0
  H  H46  1  0.67576000  0.05653000  0.22059000  1.0
  H  H47  1  0.67576000  0.94347000  0.77941000  1.0
  H  H48  1  0.49958000  0.48700000  0.23716000  1.0
  H  H49  1  0.49955000  0.51300000  0.76284000  1.0
  H  H50  1  0.50043000  0.98701000  0.26285000  1.0
  H  H51  1  0.50043000  0.01299000  0.73715000  1.0
  H  H52  1  0.92669000  0.97594000  0.26773000  1.0
  H  H53  1  0.92670000  0.02407000  0.73228000  1.0
  H  H54  1  0.07332000  0.47595000  0.23227000  1.0
  H  H55  1  0.07332000  0.52406000  0.76772000  1.0
  H  H56  1  0.00556000  0.13099000  0.29968000  1.0
  H  H57  1  0.00556000  0.86901000  0.70032000  1.0
  H  H58  1  0.99445000  0.63100000  0.20032000  1.0
  H  H59  1  0.99445000  0.36901000  0.79968000  1.0
  H  H60  1  0.90299000  0.07680000  0.47706000  1.0
  H  H61  1  0.90300000  0.92320000  0.52295000  1.0
  H  H62  1  0.09701000  0.57679000  0.02294000  1.0
  H  H63  1  0.09700000  0.42322000  0.97705000  1.0
  H  H64  1  0.81088000  0.92686000  0.44535000  1.0
  H  H65  1  0.81090000  0.07316000  0.55465000  1.0
  H  H66  1  0.18911000  0.42685000  0.05465000  1.0
  H  H67  1  0.18910000  0.57316000  0.94534000  1.0
  H  H68  1  0.74702000  0.92766000  0.13838000  1.0
  H  H69  1  0.74703000  0.07235000  0.86161000  1.0
  H  H70  1  0.25298000  0.42766000  0.36161000  1.0
  H  H71  1  0.25296000  0.57234000  0.63838000  1.0
  H  H72  1  0.53463000  0.93037000  0.14091000  1.0
  H  H73  1  0.53463000  0.06963000  0.85908000  1.0
  H  H74  1  0.46538000  0.43037000  0.35908000  1.0
  H  H75  1  0.46536000  0.56963000  0.64091000  1.0
  H  H76  1  0.53904000  0.85383000  0.95587000  1.0
  H  H77  1  0.53903000  0.14617000  0.04413000  1.0
  H  H78  1  0.46096000  0.35382000  0.54413000  1.0
  H  H79  1  0.46096000  0.64617000  0.45587000  1.0
  H  H80  1  0.75055000  0.85459000  0.96161000  1.0
  H  H81  1  0.75054000  0.14543000  0.03838000  1.0
  H  H82  1  0.24945000  0.35457000  0.53838000  1.0
  H  H83  1  0.24945000  0.64542000  0.46161000  1.0
  H  H84  1  0.37728000  0.01510000  0.10525000  1.0
  H  H85  1  0.37728000  0.98489000  0.89475000  1.0
  H  H86  1  0.62271000  0.51511000  0.39476000  1.0
  H  H87  1  0.62271000  0.48489000  0.60525000  1.0
  H  H88  1  0.16530000  0.01347000  0.10272000  1.0
  H  H89  1  0.16530000  0.98651000  0.89728000  1.0
  H  H90  1  0.83469000  0.51348000  0.39728000  1.0
  H  H91  1  0.83469000  0.48651000  0.60272000  1.0
  H  H92  1  0.15977000  0.78429000  0.99160000  1.0
  H  H93  1  0.15976000  0.21570000  0.00840000  1.0
  H  H94  1  0.84025000  0.28430000  0.50839000  1.0
  H  H95  1  0.84023000  0.71569000  0.49161000  1.0
  H  H96  1  0.37001000  0.77607000  0.98779000  1.0
  H  H97  1  0.37000000  0.22393000  0.01221000  1.0
  H  H98  1  0.63001000  0.27607000  0.51221000  1.0
  H  H99  1  0.62999000  0.72392000  0.48779000  1.0
  C  C100  1  0.93318000  0.07441000  0.10234000  1.0
  C  C101  1  0.93320000  0.92558000  0.89766000  1.0
  C  C102  1  0.06682000  0.57442000  0.39765000  1.0
  C  C103  1  0.06680000  0.42557000  0.60233000  1.0
  C  C104  1  0.89956000  0.16149000  0.13430000  1.0
  C  C105  1  0.89956000  0.83851000  0.86571000  1.0
  C  C106  1  0.10044000  0.66149000  0.36570000  1.0
  C  C107  1  0.10043000  0.33850000  0.63429000  1.0
  C  C108  1  0.88594000  0.24776000  0.10572000  1.0
  C  C109  1  0.88595000  0.75223000  0.89429000  1.0
  C  C110  1  0.11406000  0.74777000  0.39429000  1.0
  C  C111  1  0.11406000  0.25222000  0.60570000  1.0
  C  C112  1  0.85133000  0.32592000  0.13768000  1.0
  C  C113  1  0.85134000  0.67407000  0.86233000  1.0
  C  C114  1  0.14867000  0.82593000  0.36233000  1.0
  C  C115  1  0.14866000  0.17406000  0.63766000  1.0
  C  C116  1  0.85033000  0.23386000  0.22794000  1.0
  C  C117  1  0.85033000  0.76613000  0.77207000  1.0
  C  C118  1  0.14966000  0.73388000  0.27206000  1.0
  C  C119  1  0.14967000  0.26612000  0.72793000  1.0
  C  C120  1  0.88128000  0.15612000  0.19540000  1.0
  C  C121  1  0.88128000  0.84387000  0.80461000  1.0
  C  C122  1  0.11872000  0.65614000  0.30460000  1.0
  C  C123  1  0.11872000  0.34387000  0.69538000  1.0
  C  C124  1  0.71859000  0.46084000  0.21834000  1.0
  C  C125  1  0.71858000  0.53916000  0.78167000  1.0
  C  C126  1  0.28141000  0.96084000  0.28167000  1.0
  C  C127  1  0.28142000  0.03915000  0.71833000  1.0
  C  C128  1  0.71636000  0.54311000  0.25921000  1.0
  C  C129  1  0.71635000  0.45689000  0.74080000  1.0
  C  C130  1  0.28365000  0.04311000  0.24080000  1.0
  C  C131  1  0.28365000  0.95689000  0.75921000  1.0
  C  C132  1  0.81999000  0.58140000  0.27486000  1.0
  C  C133  1  0.81998000  0.41861000  0.72514000  1.0
  C  C134  1  0.18001000  0.08140000  0.22514000  1.0
  C  C135  1  0.18002000  0.91860000  0.77487000  1.0
  C  C136  1  0.82609000  0.66519000  0.30662000  1.0
  C  C137  1  0.82608000  0.33482000  0.69338000  1.0
  C  C138  1  0.17392000  0.16518000  0.19338000  1.0
  C  C139  1  0.17392000  0.83482000  0.80663000  1.0
  C  C140  1  0.72859000  0.70899000  0.32649000  1.0
  C  C141  1  0.72859000  0.29102000  0.67351000  1.0
  C  C142  1  0.27141000  0.20899000  0.17351000  1.0
  C  C143  1  0.27142000  0.79101000  0.82649000  1.0
  C  C144  1  0.61956000  0.66818000  0.31544000  1.0
  C  C145  1  0.61955000  0.33183000  0.68456000  1.0
  C  C146  1  0.38045000  0.16818000  0.18456000  1.0
  C  C147  1  0.38045000  0.83182000  0.81544000  1.0
  C  C148  1  0.51739000  0.70693000  0.33815000  1.0
  C  C149  1  0.51739000  0.29308000  0.66185000  1.0
  C  C150  1  0.48261000  0.20692000  0.16185000  1.0
  C  C151  1  0.48262000  0.79308000  0.83815000  1.0
  C  C152  1  0.41369000  0.66632000  0.32601000  1.0
  C  C153  1  0.41369000  0.33369000  0.67399000  1.0
  C  C154  1  0.58631000  0.16631000  0.17399000  1.0
  C  C155  1  0.58632000  0.83369000  0.82601000  1.0
  C  C156  1  0.40715000  0.58670000  0.28947000  1.0
  C  C157  1  0.40714000  0.41330000  0.71053000  1.0
  C  C158  1  0.59286000  0.08670000  0.21053000  1.0
  C  C159  1  0.59286000  0.91330000  0.78947000  1.0
  C  C160  1  0.50446000  0.54739000  0.26622000  1.0
  C  C161  1  0.50445000  0.45261000  0.73378000  1.0
  C  C162  1  0.49554000  0.04739000  0.23378000  1.0
  C  C163  1  0.49554000  0.95260000  0.76622000  1.0
  C  C164  1  0.61312000  0.58565000  0.27912000  1.0
  C  C165  1  0.61311000  0.41435000  0.72088000  1.0
  C  C166  1  0.38689000  0.08565000  0.22089000  1.0
  C  C167  1  0.38689000  0.91435000  0.77912000  1.0
  C  C168  1  0.74360000  0.79754000  0.36093000  1.0
  C  C169  1  0.74361000  0.20247000  0.63907000  1.0
  C  C170  1  0.25640000  0.29753000  0.13907000  1.0
  C  C171  1  0.25640000  0.70246000  0.86093000  1.0
  C  C172  1  0.86284000  0.94255000  0.35470000  1.0
  C  C173  1  0.86286000  0.05746000  0.64531000  1.0
  C  C174  1  0.13715000  0.44254000  0.14530000  1.0
  C  C175  1  0.13715000  0.55746000  0.85469000  1.0
  C  C176  1  0.91968000  0.99937000  0.31361000  1.0
  C  C177  1  0.91970000  0.00064000  0.68639000  1.0
  C  C178  1  0.08031000  0.49937000  0.18639000  1.0
  C  C179  1  0.08031000  0.50064000  0.81361000  1.0
  C  C180  1  0.96481000  0.08444000  0.33115000  1.0
  C  C181  1  0.96482000  0.91556000  0.66885000  1.0
  C  C182  1  0.03519000  0.58445000  0.16885000  1.0
  C  C183  1  0.03519000  0.41556000  0.83115000  1.0
  C  C184  1  0.95820000  0.11338000  0.39014000  1.0
  C  C185  1  0.95821000  0.88662000  0.60987000  1.0
  C  C186  1  0.04179000  0.61338000  0.10986000  1.0
  C  C187  1  0.04180000  0.38663000  0.89013000  1.0
  C  C188  1  0.90520000  0.05468000  0.43111000  1.0
  C  C189  1  0.90522000  0.94534000  0.56890000  1.0
  C  C190  1  0.09479000  0.55467000  0.06889000  1.0
  C  C191  1  0.09479000  0.44534000  0.93110000  1.0
  C  C192  1  0.85564000  0.97079000  0.41396000  1.0
  C  C193  1  0.85566000  0.02922000  0.58604000  1.0
  C  C194  1  0.14435000  0.47078000  0.08604000  1.0
  C  C195  1  0.14435000  0.52922000  0.91395000  1.0
  C  C196  1  0.00138000  0.20749000  0.40810000  1.0
  C  C197  1  0.00138000  0.79251000  0.59190000  1.0
  C  C198  1  0.99862000  0.70749000  0.09190000  1.0
  C  C199  1  0.99863000  0.29252000  0.90809000  1.0
  C  C200  1  0.69687000  0.91129000  0.09916000  1.0
  C  C201  1  0.69687000  0.08872000  0.90084000  1.0
  C  C202  1  0.30313000  0.41129000  0.40084000  1.0
  C  C203  1  0.30312000  0.58871000  0.59915000  1.0
  C  C204  1  0.57877000  0.91303000  0.10005000  1.0
  C  C205  1  0.57878000  0.08697000  0.89994000  1.0
  C  C206  1  0.42123000  0.41303000  0.39995000  1.0
  C  C207  1  0.42121000  0.58697000  0.60005000  1.0
  C  C208  1  0.51817000  0.89205000  0.04836000  1.0
  C  C209  1  0.51817000  0.10795000  0.95164000  1.0
  C  C210  1  0.48183000  0.39204000  0.45164000  1.0
  C  C211  1  0.48182000  0.60795000  0.54836000  1.0
  C  C212  1  0.58107000  0.86971000  0.99763000  1.0
  C  C213  1  0.58106000  0.13029000  0.00237000  1.0
  C  C214  1  0.41893000  0.36970000  0.50237000  1.0
  C  C215  1  0.41893000  0.63029000  0.49763000  1.0
  C  C216  1  0.69915000  0.87033000  0.00039000  1.0
  C  C217  1  0.69914000  0.12968000  0.99960000  1.0
  C  C218  1  0.30086000  0.37032000  0.49960000  1.0
  C  C219  1  0.30085000  0.62968000  0.50039000  1.0
  C  C220  1  0.39273000  0.89441000  0.04755000  1.0
  C  C221  1  0.39273000  0.10559000  0.95244000  1.0
  C  C222  1  0.60728000  0.39440000  0.45244000  1.0
  C  C223  1  0.60726000  0.60558000  0.54755000  1.0
  C  C224  1  0.33275000  0.96185000  0.07992000  1.0
  C  C225  1  0.33274000  0.03815000  0.92008000  1.0
  C  C226  1  0.66725000  0.46185000  0.42008000  1.0
  C  C227  1  0.66724000  0.53814000  0.57992000  1.0
  C  C228  1  0.21462000  0.96175000  0.07843000  1.0
  C  C229  1  0.21462000  0.03824000  0.92158000  1.0
  C  C230  1  0.78537000  0.46176000  0.42157000  1.0
  C  C231  1  0.78537000  0.53823000  0.57843000  1.0
  C  C232  1  0.21162000  0.83445000  0.01573000  1.0
  C  C233  1  0.21161000  0.16554000  0.98426000  1.0
  C  C234  1  0.78839000  0.33446000  0.48426000  1.0
  C  C235  1  0.78838000  0.66553000  0.51574000  1.0
  C  C236  1  0.32974000  0.83009000  0.01437000  1.0
  C  C237  1  0.32974000  0.16990000  0.98563000  1.0
  C  C238  1  0.67027000  0.33010000  0.48563000  1.0
  C  C239  1  0.67025000  0.66989000  0.51437000  1.0
  C  C240  1  0.83331000  0.31900000  0.19894000  1.0
  C  C241  1  0.83331000  0.68099000  0.80108000  1.0
  C  C242  1  0.16669000  0.81902000  0.30108000  1.0
  C  C243  1  0.16669000  0.18098000  0.69892000  1.0
  N  N244  1  0.80158000  0.39659000  0.23307000  1.0
  N  N245  1  0.80158000  0.60341000  0.76695000  1.0
  N  N246  1  0.19842000  0.89660000  0.26694000  1.0
  N  N247  1  0.19842000  0.10340000  0.73305000  1.0
  N  N248  1  0.81804000  0.85810000  0.33387000  1.0
  N  N249  1  0.81806000  0.14192000  0.66614000  1.0
  N  N250  1  0.18195000  0.35809000  0.16613000  1.0
  N  N251  1  0.18195000  0.64192000  0.83386000  1.0
  N  N252  1  0.75656000  0.89080000  0.05014000  1.0
  N  N253  1  0.75656000  0.10921000  0.94985000  1.0
  N  N254  1  0.24344000  0.39079000  0.44985000  1.0
  N  N255  1  0.24343000  0.60920000  0.55014000  1.0
  N  N256  1  0.15479000  0.89877000  0.04735000  1.0
  N  N257  1  0.15478000  0.10122000  0.95265000  1.0
  N  N258  1  0.84522000  0.39878000  0.45264000  1.0
  N  N259  1  0.84520000  0.60122000  0.54736000  1.0
  O  O260  1  0.94249000  0.99943000  0.13275000  1.0
  O  O261  1  0.94249000  0.00057000  0.86726000  1.0
  O  O262  1  0.05751000  0.49943000  0.36724000  1.0
  O  O263  1  0.05750000  0.50056000  0.63274000  1.0
  O  O264  1  0.94984000  0.07598000  0.04681000  1.0
  O  O265  1  0.94989000  0.92401000  0.95320000  1.0
  O  O266  1  0.05016000  0.57599000  0.45319000  1.0
  O  O267  1  0.05013000  0.42400000  0.54680000  1.0
  O  O268  1  0.65655000  0.45316000  0.17468000  1.0
  O  O269  1  0.65652000  0.54685000  0.82533000  1.0
  O  O270  1  0.34346000  0.95316000  0.32533000  1.0
  O  O271  1  0.34347000  0.04682000  0.67467000  1.0
  O  O272  1  0.69691000  0.81287000  0.40899000  1.0
  O  O273  1  0.69693000  0.18714000  0.59101000  1.0
  O  O274  1  0.30309000  0.31286000  0.09101000  1.0
  O  O275  1  0.30310000  0.68712000  0.90898000  1.0
  O  O276  1  0.01329000  0.22492000  0.46330000  1.0
  O  O277  1  0.01328000  0.77508000  0.53670000  1.0
  O  O278  1  0.98671000  0.72492000  0.03670000  1.0
  O  O279  1  0.98671000  0.27509000  0.96329000  1.0
  O  O280  1  0.02002000  0.26794000  0.36783000  1.0
  O  O281  1  0.02001000  0.73206000  0.63217000  1.0
  O  O282  1  0.97999000  0.76794000  0.13217000  1.0
  O  O283  1  0.98001000  0.23206000  0.86782000  1.0
