# generated using pymatgen
data_AlH11C18O7
_symmetry_space_group_name_H-M   'P 1'
_cell_length_a   17.13930000
_cell_length_b   20.25270000
_cell_length_c   20.25270000
_cell_angle_alpha   83.29680000
_cell_angle_beta   89.99950000
_cell_angle_gamma   89.99970000
_symmetry_Int_Tables_number   1
_chemical_formula_structural   AlH11C18O7
_chemical_formula_sum   'Al12 H132 C216 O84'
_cell_volume   6982.00196035
_cell_formula_units_Z   12
loop_
 _symmetry_equiv_pos_site_id
 _symmetry_equiv_pos_as_xyz
  1  'x, y, z'
loop_
 _atom_site_type_symbol
 _atom_site_label
 _atom_site_symmetry_multiplicity
 _atom_site_fract_x
 _atom_site_fract_y
 _atom_site_fract_z
 _atom_site_occupancy
  Al  Al0  1  0.83644000  0.08356000  0.02727000  1.0
  Al  Al1  1  0.83645000  0.41645000  0.47274000  1.0
  Al  Al2  1  0.66355000  0.02726000  0.08356000  1.0
  Al  Al3  1  0.66355000  0.47273000  0.41644000  1.0
  Al  Al4  1  0.16355000  0.91644000  0.97273000  1.0
  Al  Al5  1  0.16355000  0.58356000  0.52726000  1.0
  Al  Al6  1  0.33645000  0.97273000  0.91644000  1.0
  Al  Al7  1  0.33644000  0.52727000  0.58356000  1.0
  Al  Al8  1  0.00000000  0.00000000  0.00000000  1.0
  Al  Al9  1  0.00000000  0.50000000  0.50000000  1.0
  Al  Al10  1  0.50000000  0.00000000  0.00000000  1.0
  Al  Al11  1  0.50000000  0.50000000  0.50000000  1.0
  H  H12  1  0.56485000  0.19683000  0.09106000  1.0
  H  H13  1  0.56486000  0.30317000  0.40894000  1.0
  H  H14  1  0.93515000  0.09105000  0.19683000  1.0
  H  H15  1  0.93515000  0.40894000  0.30317000  1.0
  H  H16  1  0.43515000  0.80317000  0.90894000  1.0
  H  H17  1  0.43515000  0.69683000  0.59105000  1.0
  H  H18  1  0.06485000  0.90894000  0.80317000  1.0
  H  H19  1  0.06484000  0.59106000  0.69683000  1.0
  H  H20  1  0.50110000  0.30896000  0.08573000  1.0
  H  H21  1  0.50111000  0.19104000  0.41427000  1.0
  H  H22  1  0.99889000  0.08573000  0.30897000  1.0
  H  H23  1  0.99890000  0.41426000  0.19104000  1.0
  H  H24  1  0.49889000  0.69104000  0.91427000  1.0
  H  H25  1  0.49890000  0.80896000  0.58572000  1.0
  H  H26  1  0.00111000  0.91427000  0.69104000  1.0
  H  H27  1  0.00110000  0.58574000  0.80896000  1.0
  H  H28  1  0.70836000  0.39885000  0.99372000  1.0
  H  H29  1  0.70839000  0.10115000  0.50628000  1.0
  H  H30  1  0.79162000  0.99372000  0.39885000  1.0
  H  H31  1  0.79163000  0.50628000  0.10115000  1.0
  H  H32  1  0.29162000  0.60115000  0.00627000  1.0
  H  H33  1  0.29162000  0.89885000  0.49372000  1.0
  H  H34  1  0.20838000  0.00628000  0.60115000  1.0
  H  H35  1  0.20837000  0.49372000  0.89885000  1.0
  H  H36  1  0.76922000  0.28676000  0.99649000  1.0
  H  H37  1  0.76924000  0.21324000  0.50350000  1.0
  H  H38  1  0.73077000  0.99649000  0.28676000  1.0
  H  H39  1  0.73077000  0.50351000  0.21323000  1.0
  H  H40  1  0.23077000  0.71324000  0.00351000  1.0
  H  H41  1  0.23077000  0.78676000  0.49649000  1.0
  H  H42  1  0.26923000  0.00351000  0.71324000  1.0
  H  H43  1  0.26922000  0.49649000  0.78676000  1.0
  H  H44  1  0.43593000  0.55939000  0.75406000  1.0
  H  H45  1  0.43593000  0.94061000  0.74595000  1.0
  H  H46  1  0.06407000  0.75406000  0.55939000  1.0
  H  H47  1  0.06406000  0.74594000  0.94061000  1.0
  H  H48  1  0.56407000  0.44060000  0.24595000  1.0
  H  H49  1  0.56407000  0.05939000  0.25406000  1.0
  H  H50  1  0.93593000  0.24595000  0.44060000  1.0
  H  H51  1  0.93593000  0.25405000  0.05940000  1.0
  H  H52  1  0.50940000  0.58197000  0.85638000  1.0
  H  H53  1  0.50940000  0.91804000  0.64361000  1.0
  H  H54  1  0.99060000  0.85639000  0.58197000  1.0
  H  H55  1  0.99059000  0.64361000  0.91804000  1.0
  H  H56  1  0.49060000  0.41803000  0.14362000  1.0
  H  H57  1  0.49059000  0.08196000  0.35639000  1.0
  H  H58  1  0.00940000  0.14362000  0.41803000  1.0
  H  H59  1  0.00940000  0.35638000  0.08197000  1.0
  H  H60  1  0.72520000  0.54002000  0.76024000  1.0
  H  H61  1  0.72520000  0.95999000  0.73976000  1.0
  H  H62  1  0.77480000  0.76024000  0.54001000  1.0
  H  H63  1  0.77480000  0.73976000  0.95999000  1.0
  H  H64  1  0.27480000  0.45999000  0.23976000  1.0
  H  H65  1  0.27480000  0.04001000  0.26024000  1.0
  H  H66  1  0.22520000  0.23976000  0.45999000  1.0
  H  H67  1  0.22519000  0.26024000  0.04001000  1.0
  H  H68  1  0.65109000  0.51765000  0.65865000  1.0
  H  H69  1  0.65110000  0.98235000  0.84134000  1.0
  H  H70  1  0.84891000  0.65866000  0.51765000  1.0
  H  H71  1  0.84890000  0.84135000  0.98235000  1.0
  H  H72  1  0.34890000  0.48235000  0.34134000  1.0
  H  H73  1  0.34891000  0.01764000  0.15866000  1.0
  H  H74  1  0.15109000  0.34135000  0.48235000  1.0
  H  H75  1  0.15109000  0.15866000  0.01765000  1.0
  H  H76  1  0.51333000  0.79639000  0.02877000  1.0
  H  H77  1  0.51332000  0.70362000  0.47123000  1.0
  H  H78  1  0.98669000  0.02877000  0.79639000  1.0
  H  H79  1  0.98669000  0.47122000  0.70362000  1.0
  H  H80  1  0.48669000  0.20362000  0.97122000  1.0
  H  H81  1  0.48668000  0.29639000  0.52877000  1.0
  H  H82  1  0.01331000  0.97123000  0.20361000  1.0
  H  H83  1  0.01333000  0.52878000  0.29639000  1.0
  H  H84  1  0.54237000  0.67496000  0.04049000  1.0
  H  H85  1  0.54237000  0.82504000  0.45951000  1.0
  H  H86  1  0.95763000  0.04049000  0.67496000  1.0
  H  H87  1  0.95764000  0.45950000  0.82504000  1.0
  H  H88  1  0.45764000  0.32504000  0.95950000  1.0
  H  H89  1  0.45764000  0.17496000  0.54050000  1.0
  H  H90  1  0.04236000  0.95951000  0.32504000  1.0
  H  H91  1  0.04237000  0.54050000  0.17496000  1.0
  H  H92  1  0.76565000  0.71184000  0.12686000  1.0
  H  H93  1  0.76564000  0.78815000  0.37314000  1.0
  H  H94  1  0.73437000  0.12686000  0.71185000  1.0
  H  H95  1  0.73436000  0.37314000  0.78816000  1.0
  H  H96  1  0.23437000  0.28816000  0.87314000  1.0
  H  H97  1  0.23437000  0.21184000  0.62686000  1.0
  H  H98  1  0.26563000  0.87314000  0.28815000  1.0
  H  H99  1  0.26564000  0.62686000  0.21183000  1.0
  H  H100  1  0.73511000  0.83410000  0.11584000  1.0
  H  H101  1  0.73509000  0.66589000  0.38415000  1.0
  H  H102  1  0.76491000  0.11584000  0.83411000  1.0
  H  H103  1  0.76490000  0.38416000  0.66589000  1.0
  H  H104  1  0.26491000  0.16589000  0.88416000  1.0
  H  H105  1  0.26490000  0.33411000  0.61584000  1.0
  H  H106  1  0.23508000  0.88415000  0.16588000  1.0
  H  H107  1  0.23511000  0.61585000  0.33410000  1.0
  H  H108  1  0.59404000  0.46369000  0.91350000  1.0
  H  H109  1  0.59404000  0.03632000  0.58649000  1.0
  H  H110  1  0.90596000  0.91351000  0.46369000  1.0
  H  H111  1  0.90596000  0.58649000  0.03632000  1.0
  H  H112  1  0.40596000  0.53631000  0.08649000  1.0
  H  H113  1  0.40596000  0.96369000  0.41351000  1.0
  H  H114  1  0.09404000  0.08649000  0.53631000  1.0
  H  H115  1  0.09404000  0.41351000  0.96369000  1.0
  H  H116  1  0.60685000  0.50395000  0.11816000  1.0
  H  H117  1  0.60686000  0.99606000  0.38183000  1.0
  H  H118  1  0.89314000  0.11817000  0.50395000  1.0
  H  H119  1  0.89314000  0.38183000  0.99605000  1.0
  H  H120  1  0.39313000  0.49606000  0.88184000  1.0
  H  H121  1  0.39314000  0.00395000  0.61816000  1.0
  H  H122  1  0.10686000  0.88183000  0.49606000  1.0
  H  H123  1  0.10686000  0.61817000  0.00394000  1.0
  H  H124  1  0.69002000  0.64966000  0.96052000  1.0
  H  H125  1  0.69003000  0.85035000  0.53947000  1.0
  H  H126  1  0.80998000  0.96052000  0.64966000  1.0
  H  H127  1  0.80997000  0.53948000  0.85035000  1.0
  H  H128  1  0.30998000  0.35034000  0.03948000  1.0
  H  H129  1  0.30998000  0.14965000  0.46052000  1.0
  H  H130  1  0.19002000  0.03948000  0.35035000  1.0
  H  H131  1  0.19002000  0.46052000  0.14966000  1.0
  H  H132  1  0.75000000  0.99552000  0.99553000  1.0
  H  H133  1  0.75000000  0.50448000  0.50448000  1.0
  H  H134  1  0.25000000  0.00448000  0.00448000  1.0
  H  H135  1  0.25000000  0.49553000  0.49552000  1.0
  H  H136  1  0.88797000  0.97382000  0.07143000  1.0
  H  H137  1  0.88796000  0.52618000  0.42858000  1.0
  H  H138  1  0.61203000  0.07142000  0.97382000  1.0
  H  H139  1  0.61203000  0.42858000  0.52618000  1.0
  H  H140  1  0.11204000  0.02618000  0.92858000  1.0
  H  H141  1  0.11203000  0.47382000  0.57142000  1.0
  H  H142  1  0.38797000  0.92858000  0.02618000  1.0
  H  H143  1  0.38797000  0.57143000  0.47382000  1.0
  C  C144  1  0.70662000  0.16804000  0.04786000  1.0
  C  C145  1  0.70662000  0.33197000  0.45214000  1.0
  C  C146  1  0.79338000  0.04785000  0.16804000  1.0
  C  C147  1  0.79337000  0.45215000  0.33196000  1.0
  C  C148  1  0.29338000  0.83196000  0.95215000  1.0
  C  C149  1  0.29338000  0.66804000  0.54786000  1.0
  C  C150  1  0.20663000  0.95215000  0.83196000  1.0
  C  C151  1  0.20661000  0.54785000  0.66804000  1.0
  C  C152  1  0.67080000  0.23511000  0.04399000  1.0
  C  C153  1  0.67082000  0.26489000  0.45601000  1.0
  C  C154  1  0.82919000  0.04398000  0.23511000  1.0
  C  C155  1  0.82919000  0.45601000  0.26489000  1.0
  C  C156  1  0.32919000  0.76489000  0.95602000  1.0
  C  C157  1  0.32919000  0.73511000  0.54398000  1.0
  C  C158  1  0.17081000  0.95602000  0.76489000  1.0
  C  C159  1  0.17080000  0.54399000  0.73511000  1.0
  C  C160  1  0.59515000  0.24142000  0.06931000  1.0
  C  C161  1  0.59517000  0.25858000  0.43069000  1.0
  C  C162  1  0.90484000  0.06930000  0.24143000  1.0
  C  C163  1  0.90484000  0.43069000  0.25858000  1.0
  C  C164  1  0.40484000  0.75857000  0.93069000  1.0
  C  C165  1  0.40484000  0.74142000  0.56930000  1.0
  C  C166  1  0.09516000  0.93070000  0.75858000  1.0
  C  C167  1  0.09515000  0.56931000  0.74142000  1.0
  C  C168  1  0.55988000  0.30324000  0.06667000  1.0
  C  C169  1  0.55989000  0.19676000  0.43334000  1.0
  C  C170  1  0.94011000  0.06667000  0.30324000  1.0
  C  C171  1  0.94011000  0.43333000  0.19676000  1.0
  C  C172  1  0.44011000  0.69676000  0.93333000  1.0
  C  C173  1  0.44011000  0.80324000  0.56666000  1.0
  C  C174  1  0.05989000  0.93334000  0.69676000  1.0
  C  C175  1  0.05988000  0.56668000  0.80324000  1.0
  C  C176  1  0.60083000  0.35974000  0.03921000  1.0
  C  C177  1  0.60085000  0.14027000  0.46079000  1.0
  C  C178  1  0.89916000  0.03921000  0.35974000  1.0
  C  C179  1  0.89916000  0.46079000  0.14026000  1.0
  C  C180  1  0.39916000  0.64026000  0.96079000  1.0
  C  C181  1  0.39916000  0.85974000  0.53921000  1.0
  C  C182  1  0.10084000  0.96079000  0.64027000  1.0
  C  C183  1  0.10083000  0.53921000  0.85974000  1.0
  C  C184  1  0.67655000  0.35469000  0.01435000  1.0
  C  C185  1  0.67657000  0.14530000  0.48564000  1.0
  C  C186  1  0.82344000  0.01435000  0.35470000  1.0
  C  C187  1  0.82344000  0.48565000  0.14530000  1.0
  C  C188  1  0.32343000  0.64530000  0.98564000  1.0
  C  C189  1  0.32344000  0.85470000  0.51435000  1.0
  C  C190  1  0.17656000  0.98565000  0.64531000  1.0
  C  C191  1  0.17655000  0.51436000  0.85470000  1.0
  C  C192  1  0.71075000  0.29208000  0.01638000  1.0
  C  C193  1  0.71076000  0.20792000  0.48362000  1.0
  C  C194  1  0.78925000  0.01637000  0.29208000  1.0
  C  C195  1  0.78925000  0.48362000  0.20792000  1.0
  C  C196  1  0.28924000  0.70793000  0.98362000  1.0
  C  C197  1  0.28925000  0.79207000  0.51637000  1.0
  C  C198  1  0.21075000  0.98362000  0.70793000  1.0
  C  C199  1  0.21074000  0.51638000  0.79208000  1.0
  C  C200  1  0.49452000  0.52568000  0.63981000  1.0
  C  C201  1  0.49453000  0.97432000  0.86019000  1.0
  C  C202  1  0.00548000  0.63981000  0.52568000  1.0
  C  C203  1  0.00548000  0.86019000  0.97431000  1.0
  C  C204  1  0.50548000  0.47431000  0.36019000  1.0
  C  C205  1  0.50548000  0.02568000  0.13981000  1.0
  C  C206  1  0.99452000  0.36019000  0.47431000  1.0
  C  C207  1  0.99452000  0.13981000  0.02569000  1.0
  C  C208  1  0.53910000  0.53731000  0.70045000  1.0
  C  C209  1  0.53910000  0.96269000  0.79956000  1.0
  C  C210  1  0.96090000  0.70045000  0.53730000  1.0
  C  C211  1  0.96090000  0.79955000  0.96269000  1.0
  C  C212  1  0.46090000  0.46269000  0.29956000  1.0
  C  C213  1  0.46090000  0.03730000  0.20045000  1.0
  C  C214  1  0.03910000  0.29956000  0.46269000  1.0
  C  C215  1  0.03910000  0.20044000  0.03732000  1.0
  C  C216  1  0.49924000  0.55487000  0.75640000  1.0
  C  C217  1  0.49924000  0.94513000  0.74360000  1.0
  C  C218  1  0.00076000  0.75641000  0.55487000  1.0
  C  C219  1  0.00075000  0.74359000  0.94513000  1.0
  C  C220  1  0.50076000  0.44512000  0.24360000  1.0
  C  C221  1  0.50076000  0.05487000  0.25641000  1.0
  C  C222  1  0.99924000  0.24360000  0.44513000  1.0
  C  C223  1  0.99924000  0.25640000  0.05488000  1.0
  C  C224  1  0.53981000  0.56762000  0.81300000  1.0
  C  C225  1  0.53981000  0.93239000  0.68699000  1.0
  C  C226  1  0.96019000  0.81301000  0.56762000  1.0
  C  C227  1  0.96018000  0.68699000  0.93238000  1.0
  C  C228  1  0.46019000  0.43238000  0.18700000  1.0
  C  C229  1  0.46019000  0.06761000  0.31301000  1.0
  C  C230  1  0.03981000  0.18700000  0.43238000  1.0
  C  C231  1  0.03981000  0.31300000  0.06762000  1.0
  C  C232  1  0.62121000  0.56249000  0.81337000  1.0
  C  C233  1  0.62122000  0.93752000  0.68663000  1.0
  C  C234  1  0.87879000  0.81337000  0.56249000  1.0
  C  C235  1  0.87878000  0.68663000  0.93752000  1.0
  C  C236  1  0.37879000  0.43752000  0.18663000  1.0
  C  C237  1  0.37878000  0.06248000  0.31337000  1.0
  C  C238  1  0.12121000  0.18663000  0.43752000  1.0
  C  C239  1  0.12121000  0.31337000  0.06249000  1.0
  C  C240  1  0.66188000  0.54428000  0.75844000  1.0
  C  C241  1  0.66189000  0.95573000  0.74155000  1.0
  C  C242  1  0.83812000  0.75845000  0.54427000  1.0
  C  C243  1  0.83811000  0.74156000  0.95573000  1.0
  C  C244  1  0.33811000  0.45572000  0.24156000  1.0
  C  C245  1  0.33812000  0.04427000  0.25845000  1.0
  C  C246  1  0.16188000  0.24156000  0.45573000  1.0
  C  C247  1  0.16188000  0.25844000  0.04428000  1.0
  C  C248  1  0.62062000  0.53189000  0.70204000  1.0
  C  C249  1  0.62062000  0.96811000  0.79796000  1.0
  C  C250  1  0.87938000  0.70204000  0.53189000  1.0
  C  C251  1  0.87937000  0.79796000  0.96810000  1.0
  C  C252  1  0.37938000  0.46810000  0.29796000  1.0
  C  C253  1  0.37938000  0.03189000  0.20205000  1.0
  C  C254  1  0.12062000  0.29796000  0.46810000  1.0
  C  C255  1  0.12062000  0.20204000  0.03190000  1.0
  C  C256  1  0.60591000  0.89518000  0.06351000  1.0
  C  C257  1  0.60590000  0.60482000  0.43649000  1.0
  C  C258  1  0.89411000  0.06351000  0.89519000  1.0
  C  C259  1  0.89411000  0.43649000  0.60481000  1.0
  C  C260  1  0.39411000  0.10481000  0.93650000  1.0
  C  C261  1  0.39410000  0.39519000  0.56351000  1.0
  C  C262  1  0.10589000  0.93649000  0.10482000  1.0
  C  C263  1  0.10590000  0.56351000  0.39518000  1.0
  C  C264  1  0.62270000  0.82264000  0.07136000  1.0
  C  C265  1  0.62269000  0.67735000  0.42864000  1.0
  C  C266  1  0.87731000  0.07136000  0.82265000  1.0
  C  C267  1  0.87731000  0.42864000  0.67736000  1.0
  C  C268  1  0.37732000  0.17736000  0.92864000  1.0
  C  C269  1  0.37731000  0.32265000  0.57136000  1.0
  C  C270  1  0.12268000  0.92864000  0.17735000  1.0
  C  C271  1  0.12270000  0.57137000  0.32264000  1.0
  C  C272  1  0.56842000  0.77766000  0.05027000  1.0
  C  C273  1  0.56841000  0.72234000  0.44973000  1.0
  C  C274  1  0.93159000  0.05026000  0.77767000  1.0
  C  C275  1  0.93160000  0.44973000  0.72234000  1.0
  C  C276  1  0.43160000  0.22234000  0.94973000  1.0
  C  C277  1  0.43159000  0.27767000  0.55026000  1.0
  C  C278  1  0.06840000  0.94974000  0.22233000  1.0
  C  C279  1  0.06842000  0.55027000  0.27766000  1.0
  C  C280  1  0.58455000  0.70997000  0.05665000  1.0
  C  C281  1  0.58455000  0.79002000  0.44335000  1.0
  C  C282  1  0.91546000  0.05664000  0.70998000  1.0
  C  C283  1  0.91546000  0.44335000  0.79002000  1.0
  C  C284  1  0.41546000  0.29002000  0.94335000  1.0
  C  C285  1  0.41546000  0.20998000  0.55664000  1.0
  C  C286  1  0.08454000  0.94336000  0.29002000  1.0
  C  C287  1  0.08455000  0.55665000  0.20997000  1.0
  C  C288  1  0.65598000  0.68714000  0.08397000  1.0
  C  C289  1  0.65598000  0.81286000  0.41603000  1.0
  C  C290  1  0.84402000  0.08396000  0.68715000  1.0
  C  C291  1  0.84403000  0.41603000  0.81286000  1.0
  C  C292  1  0.34403000  0.31286000  0.91603000  1.0
  C  C293  1  0.34403000  0.18715000  0.58396000  1.0
  C  C294  1  0.15597000  0.91604000  0.31285000  1.0
  C  C295  1  0.15598000  0.58397000  0.18714000  1.0
  C  C296  1  0.71056000  0.73108000  0.10581000  1.0
  C  C297  1  0.71056000  0.76891000  0.39420000  1.0
  C  C298  1  0.78945000  0.10580000  0.73109000  1.0
  C  C299  1  0.78945000  0.39419000  0.76891000  1.0
  C  C300  1  0.28945000  0.26891000  0.89419000  1.0
  C  C301  1  0.28945000  0.23109000  0.60580000  1.0
  C  C302  1  0.21055000  0.89420000  0.26891000  1.0
  C  C303  1  0.21055000  0.60581000  0.23108000  1.0
  C  C304  1  0.69355000  0.79868000  0.09949000  1.0
  C  C305  1  0.69354000  0.70131000  0.40051000  1.0
  C  C306  1  0.80647000  0.09948000  0.79869000  1.0
  C  C307  1  0.80647000  0.40051000  0.70131000  1.0
  C  C308  1  0.30647000  0.20131000  0.90051000  1.0
  C  C309  1  0.30647000  0.29869000  0.59948000  1.0
  C  C310  1  0.19353000  0.90052000  0.20131000  1.0
  C  C311  1  0.19355000  0.59949000  0.29868000  1.0
  C  C312  1  0.60995000  0.49697000  0.94982000  1.0
  C  C313  1  0.60996000  0.00304000  0.55017000  1.0
  C  C314  1  0.89004000  0.94983000  0.49697000  1.0
  C  C315  1  0.89004000  0.55017000  0.00304000  1.0
  C  C316  1  0.39004000  0.50303000  0.05017000  1.0
  C  C317  1  0.39004000  0.99697000  0.44983000  1.0
  C  C318  1  0.10996000  0.05017000  0.50304000  1.0
  C  C319  1  0.10996000  0.44983000  0.99697000  1.0
  C  C320  1  0.59783000  0.47856000  0.01751000  1.0
  C  C321  1  0.59784000  0.02144000  0.48248000  1.0
  C  C322  1  0.90217000  0.01751000  0.47856000  1.0
  C  C323  1  0.90217000  0.48248000  0.02144000  1.0
  C  C324  1  0.40216000  0.52144000  0.98249000  1.0
  C  C325  1  0.40217000  0.97856000  0.51751000  1.0
  C  C326  1  0.09783000  0.98249000  0.52144000  1.0
  C  C327  1  0.09783000  0.51751000  0.97856000  1.0
  C  C328  1  0.61752000  0.51952000  0.06568000  1.0
  C  C329  1  0.61753000  0.98048000  0.43431000  1.0
  C  C330  1  0.88247000  0.06569000  0.51953000  1.0
  C  C331  1  0.88247000  0.43431000  0.98048000  1.0
  C  C332  1  0.38247000  0.48048000  0.93431000  1.0
  C  C333  1  0.38248000  0.01952000  0.56569000  1.0
  C  C334  1  0.11753000  0.93431000  0.48048000  1.0
  C  C335  1  0.11753000  0.56569000  0.01952000  1.0
  C  C336  1  0.65035000  0.58138000  0.04451000  1.0
  C  C337  1  0.65036000  0.91862000  0.45549000  1.0
  C  C338  1  0.84964000  0.04451000  0.58138000  1.0
  C  C339  1  0.84964000  0.45549000  0.91862000  1.0
  C  C340  1  0.34964000  0.41862000  0.95549000  1.0
  C  C341  1  0.34965000  0.08138000  0.54451000  1.0
  C  C342  1  0.15036000  0.95549000  0.41862000  1.0
  C  C343  1  0.15036000  0.54451000  0.08138000  1.0
  C  C344  1  0.66336000  0.60194000  0.97726000  1.0
  C  C345  1  0.66337000  0.89806000  0.52273000  1.0
  C  C346  1  0.83664000  0.97726000  0.60194000  1.0
  C  C347  1  0.83664000  0.52274000  0.89806000  1.0
  C  C348  1  0.33663000  0.39805000  0.02274000  1.0
  C  C349  1  0.33664000  0.10194000  0.47726000  1.0
  C  C350  1  0.16336000  0.02274000  0.39806000  1.0
  C  C351  1  0.16336000  0.47726000  0.10194000  1.0
  C  C352  1  0.64371000  0.55916000  0.93070000  1.0
  C  C353  1  0.64371000  0.94085000  0.56930000  1.0
  C  C354  1  0.85629000  0.93070000  0.55915000  1.0
  C  C355  1  0.85629000  0.56930000  0.94085000  1.0
  C  C356  1  0.35629000  0.44084000  0.06930000  1.0
  C  C357  1  0.35629000  0.05915000  0.43070000  1.0
  C  C358  1  0.14371000  0.06930000  0.44085000  1.0
  C  C359  1  0.14371000  0.43070000  0.05915000  1.0
  O  O360  1  0.77071000  0.16110000  0.01722000  1.0
  O  O361  1  0.77072000  0.33890000  0.48279000  1.0
  O  O362  1  0.72928000  0.01721000  0.16111000  1.0
  O  O363  1  0.72929000  0.48279000  0.33890000  1.0
  O  O364  1  0.22928000  0.83890000  0.98279000  1.0
  O  O365  1  0.22929000  0.66110000  0.51721000  1.0
  O  O366  1  0.27072000  0.98279000  0.83890000  1.0
  O  O367  1  0.27071000  0.51721000  0.66110000  1.0
  O  O368  1  0.66945000  0.12139000  0.08226000  1.0
  O  O369  1  0.66945000  0.37860000  0.41775000  1.0
  O  O370  1  0.83055000  0.08224000  0.12140000  1.0
  O  O371  1  0.83055000  0.41775000  0.37861000  1.0
  O  O372  1  0.33055000  0.87860000  0.91775000  1.0
  O  O373  1  0.33055000  0.62140000  0.58226000  1.0
  O  O374  1  0.16946000  0.91775000  0.87860000  1.0
  O  O375  1  0.16945000  0.58225000  0.62139000  1.0
  O  O376  1  0.53329000  0.51554000  0.58813000  1.0
  O  O377  1  0.53330000  0.98446000  0.91187000  1.0
  O  O378  1  0.96670000  0.58813000  0.51554000  1.0
  O  O379  1  0.96671000  0.91187000  0.98446000  1.0
  O  O380  1  0.46671000  0.48446000  0.41187000  1.0
  O  O381  1  0.46671000  0.01554000  0.08813000  1.0
  O  O382  1  0.03330000  0.41187000  0.48446000  1.0
  O  O383  1  0.03329000  0.08813000  0.01555000  1.0
  O  O384  1  0.42044000  0.52687000  0.64442000  1.0
  O  O385  1  0.42045000  0.97313000  0.85559000  1.0
  O  O386  1  0.07955000  0.64441000  0.52686000  1.0
  O  O387  1  0.07955000  0.85559000  0.97313000  1.0
  O  O388  1  0.57955000  0.47313000  0.35558000  1.0
  O  O389  1  0.57955000  0.02686000  0.14441000  1.0
  O  O390  1  0.92045000  0.35559000  0.47314000  1.0
  O  O391  1  0.92045000  0.14441000  0.02687000  1.0
  O  O392  1  0.65740000  0.93278000  0.08529000  1.0
  O  O393  1  0.65739000  0.56721000  0.41471000  1.0
  O  O394  1  0.84261000  0.08529000  0.93279000  1.0
  O  O395  1  0.84261000  0.41472000  0.56721000  1.0
  O  O396  1  0.34261000  0.06721000  0.91472000  1.0
  O  O397  1  0.34261000  0.43279000  0.58529000  1.0
  O  O398  1  0.15739000  0.91471000  0.06721000  1.0
  O  O399  1  0.15740000  0.58529000  0.43278000  1.0
  O  O400  1  0.54184000  0.91449000  0.03550000  1.0
  O  O401  1  0.54182000  0.58551000  0.46450000  1.0
  O  O402  1  0.95818000  0.03550000  0.91449000  1.0
  O  O403  1  0.95818000  0.46451000  0.58551000  1.0
  O  O404  1  0.45818000  0.08551000  0.96451000  1.0
  O  O405  1  0.45818000  0.41449000  0.53550000  1.0
  O  O406  1  0.04182000  0.96450000  0.08551000  1.0
  O  O407  1  0.04183000  0.53550000  0.41449000  1.0
  O  O408  1  0.74999000  0.02747000  0.02746000  1.0
  O  O409  1  0.75000000  0.47254000  0.47253000  1.0
  O  O410  1  0.25000000  0.97254000  0.97254000  1.0
  O  O411  1  0.25000000  0.52746000  0.52747000  1.0
  O  O412  1  0.90485000  0.01058000  0.03989000  1.0
  O  O413  1  0.90485000  0.48941000  0.46011000  1.0
  O  O414  1  0.59515000  0.03989000  0.01059000  1.0
  O  O415  1  0.59515000  0.46011000  0.48941000  1.0
  O  O416  1  0.09515000  0.98941000  0.96011000  1.0
  O  O417  1  0.09515000  0.51059000  0.53989000  1.0
  O  O418  1  0.40486000  0.96011000  0.98941000  1.0
  O  O419  1  0.40485000  0.53989000  0.51059000  1.0
  O  O420  1  0.56086000  0.41884000  0.03943000  1.0
  O  O421  1  0.56087000  0.08116000  0.46056000  1.0
  O  O422  1  0.93914000  0.03943000  0.41884000  1.0
  O  O423  1  0.93914000  0.46056000  0.08116000  1.0
  O  O424  1  0.43913000  0.58116000  0.96057000  1.0
  O  O425  1  0.43914000  0.91884000  0.53943000  1.0
  O  O426  1  0.06087000  0.96057000  0.58116000  1.0
  O  O427  1  0.06086000  0.53943000  0.91884000  1.0
  O  O428  1  0.66532000  0.57991000  0.86588000  1.0
  O  O429  1  0.66532000  0.92009000  0.63411000  1.0
  O  O430  1  0.83468000  0.86589000  0.57991000  1.0
  O  O431  1  0.83467000  0.63411000  0.92010000  1.0
  O  O432  1  0.33468000  0.42009000  0.13412000  1.0
  O  O433  1  0.33467000  0.07990000  0.36589000  1.0
  O  O434  1  0.16532000  0.13412000  0.42009000  1.0
  O  O435  1  0.16532000  0.36588000  0.07991000  1.0
  O  O436  1  0.67397000  0.62002000  0.09301000  1.0
  O  O437  1  0.67397000  0.87997000  0.40699000  1.0
  O  O438  1  0.82604000  0.09301000  0.62003000  1.0
  O  O439  1  0.82603000  0.40699000  0.87997000  1.0
  O  O440  1  0.32603000  0.37998000  0.90699000  1.0
  O  O441  1  0.32604000  0.12003000  0.59301000  1.0
  O  O442  1  0.17396000  0.90699000  0.37997000  1.0
  O  O443  1  0.17396000  0.59301000  0.12002000  1.0
