# generated using pymatgen
data_GdH12C11O9
_symmetry_space_group_name_H-M   'P 1'
_cell_length_a   8.77379000
_cell_length_b   8.77379000
_cell_length_c   19.54970000
_cell_angle_alpha   82.92990000
_cell_angle_beta   82.92990000
_cell_angle_gamma   61.66960000
_symmetry_Int_Tables_number   1
_chemical_formula_structural   GdH12C11O9
_chemical_formula_sum   'Gd4 H48 C44 O36'
_cell_volume   1310.99244005
_cell_formula_units_Z   4
loop_
 _symmetry_equiv_pos_site_id
 _symmetry_equiv_pos_as_xyz
  1  'x, y, z'
loop_
 _atom_site_type_symbol
 _atom_site_label
 _atom_site_symmetry_multiplicity
 _atom_site_fract_x
 _atom_site_fract_y
 _atom_site_fract_z
 _atom_site_occupancy
  Gd  Gd0  1  0.73290000  0.38173000  0.54083000  1.0
  Gd  Gd1  1  0.61827000  0.26710000  0.95917000  1.0
  Gd  Gd2  1  0.26710000  0.61827000  0.45917000  1.0
  Gd  Gd3  1  0.38173000  0.73290000  0.04083000  1.0
  H  H4  1  0.85913000  0.07592000  0.64390000  1.0
  H  H5  1  0.92408000  0.14087000  0.85610000  1.0
  H  H6  1  0.14087000  0.92408000  0.35609000  1.0
  H  H7  1  0.07592000  0.85913000  0.14391000  1.0
  H  H8  1  0.00207000  0.99346000  0.58064000  1.0
  H  H9  1  0.00654000  0.99793000  0.91936000  1.0
  H  H10  1  0.99793000  0.00653000  0.41936000  1.0
  H  H11  1  0.99347000  0.00207000  0.08064000  1.0
  H  H12  1  0.73515000  0.11278000  0.77334000  1.0
  H  H13  1  0.88722000  0.26485000  0.72666000  1.0
  H  H14  1  0.26485000  0.88722000  0.22666000  1.0
  H  H15  1  0.11278000  0.73515000  0.27334000  1.0
  H  H16  1  0.08516000  0.31289000  0.46494000  1.0
  H  H17  1  0.68711000  0.91484000  0.03506000  1.0
  H  H18  1  0.91484000  0.68711000  0.53506000  1.0
  H  H19  1  0.31290000  0.08516000  0.96494000  1.0
  H  H20  1  0.10380000  0.34808000  0.53673000  1.0
  H  H21  1  0.65192000  0.89619000  0.96327000  1.0
  H  H22  1  0.89619000  0.65192000  0.46327000  1.0
  H  H23  1  0.34808000  0.10381000  0.03673000  1.0
  H  H24  1  0.79867000  0.83984000  0.64312000  1.0
  H  H25  1  0.16016000  0.20133000  0.85688000  1.0
  H  H26  1  0.20133000  0.16016000  0.35688000  1.0
  H  H27  1  0.83984000  0.79867000  0.14312000  1.0
  H  H28  1  0.71223000  0.47351000  0.78969000  1.0
  H  H29  1  0.52648000  0.28777000  0.71031000  1.0
  H  H30  1  0.28777000  0.52648000  0.21031000  1.0
  H  H31  1  0.47352000  0.71224000  0.28969000  1.0
  H  H32  1  0.73648000  0.90573000  0.86096000  1.0
  H  H33  1  0.09427000  0.26352000  0.63904000  1.0
  H  H34  1  0.26352000  0.09427000  0.13904000  1.0
  H  H35  1  0.90573000  0.73648000  0.36096000  1.0
  H  H36  1  0.55218000  0.22467000  0.33884000  1.0
  H  H37  1  0.77533000  0.44782000  0.16116000  1.0
  H  H38  1  0.44782000  0.77533000  0.66116000  1.0
  H  H39  1  0.22467000  0.55218000  0.83884000  1.0
  H  H40  1  0.76423000  0.05179000  0.34943000  1.0
  H  H41  1  0.94821000  0.23577000  0.15057000  1.0
  H  H42  1  0.23577000  0.94821000  0.65057000  1.0
  H  H43  1  0.05179000  0.76423000  0.84943000  1.0
  H  H44  1  0.69891000  0.41574000  0.28892000  1.0
  H  H45  1  0.58426000  0.30110000  0.21108000  1.0
  H  H46  1  0.30109000  0.58426000  0.71108000  1.0
  H  H47  1  0.41574000  0.69891000  0.78892000  1.0
  H  H48  1  0.89875000  0.22427000  0.28896000  1.0
  H  H49  1  0.77573000  0.10125000  0.21104000  1.0
  H  H50  1  0.10125000  0.77573000  0.71104000  1.0
  H  H51  1  0.22427000  0.89875000  0.78896000  1.0
  C  C52  1  0.76564000  0.54506000  0.65303000  1.0
  C  C53  1  0.45494000  0.23436000  0.84696000  1.0
  C  C54  1  0.23436000  0.45494000  0.34696000  1.0
  C  C55  1  0.54506000  0.76564000  0.15304000  1.0
  C  C56  1  0.78040000  0.79346000  0.69625000  1.0
  C  C57  1  0.20653000  0.21960000  0.80375000  1.0
  C  C58  1  0.21960000  0.20653000  0.30375000  1.0
  C  C59  1  0.79347000  0.78040000  0.19625000  1.0
  C  C60  1  0.67987000  0.61984000  0.90401000  1.0
  C  C61  1  0.38016000  0.32014000  0.59599000  1.0
  C  C62  1  0.32014000  0.38016000  0.09599000  1.0
  C  C63  1  0.61984000  0.67986000  0.40401000  1.0
  C  C64  1  0.73200000  0.58735000  0.77852000  1.0
  C  C65  1  0.41265000  0.26800000  0.72148000  1.0
  C  C66  1  0.26800000  0.41265000  0.22148000  1.0
  C  C67  1  0.58735000  0.73201000  0.27852000  1.0
  C  C68  1  0.74079000  0.83205000  0.81921000  1.0
  C  C69  1  0.16795000  0.25922000  0.68079000  1.0
  C  C70  1  0.25922000  0.16795000  0.18079000  1.0
  C  C71  1  0.83205000  0.74079000  0.31921000  1.0
  C  C72  1  0.72199000  0.68159000  0.83288000  1.0
  C  C73  1  0.31840000  0.27801000  0.66712000  1.0
  C  C74  1  0.27801000  0.31840000  0.16712000  1.0
  C  C75  1  0.68159000  0.72199000  0.33288000  1.0
  C  C76  1  0.76142000  0.64300000  0.71048000  1.0
  C  C77  1  0.35699000  0.23858000  0.78952000  1.0
  C  C78  1  0.23858000  0.35699000  0.28952000  1.0
  C  C79  1  0.64300000  0.76142000  0.21048000  1.0
  C  C80  1  0.68888000  0.25912000  0.41375000  1.0
  C  C81  1  0.74088000  0.31112000  0.08625000  1.0
  C  C82  1  0.31112000  0.74088000  0.58625000  1.0
  C  C83  1  0.25912000  0.68888000  0.91375000  1.0
  C  C84  1  0.77049000  0.88720000  0.75086000  1.0
  C  C85  1  0.11280000  0.22951000  0.74914000  1.0
  C  C86  1  0.22951000  0.11280000  0.24914000  1.0
  C  C87  1  0.88720000  0.77049000  0.25086000  1.0
  C  C88  1  0.68588000  0.19369000  0.34634000  1.0
  C  C89  1  0.80631000  0.31412000  0.15366000  1.0
  C  C90  1  0.31412000  0.80631000  0.65366000  1.0
  C  C91  1  0.19369000  0.68588000  0.84634000  1.0
  C  C92  1  0.75893000  0.27486000  0.28510000  1.0
  C  C93  1  0.72514000  0.24107000  0.21491000  1.0
  C  C94  1  0.24107000  0.72514000  0.71490000  1.0
  C  C95  1  0.27486000  0.75893000  0.78509000  1.0
  O  O96  1  0.74952000  0.40539000  0.66618000  1.0
  O  O97  1  0.59461000  0.25048000  0.83382000  1.0
  O  O98  1  0.25048000  0.59461000  0.33382000  1.0
  O  O99  1  0.40539000  0.74952000  0.16618000  1.0
  O  O100  1  0.72854000  0.45864000  0.91488000  1.0
  O  O101  1  0.54135000  0.27146000  0.58512000  1.0
  O  O102  1  0.27146000  0.54135000  0.08512000  1.0
  O  O103  1  0.45865000  0.72854000  0.41488000  1.0
  O  O104  1  0.83001000  0.19288000  0.44440000  1.0
  O  O105  1  0.80712000  0.16999000  0.05560000  1.0
  O  O106  1  0.16999000  0.80712000  0.55560000  1.0
  O  O107  1  0.19288000  0.83001000  0.94440000  1.0
  O  O108  1  0.55406000  0.38526000  0.43998000  1.0
  O  O109  1  0.61474000  0.44594000  0.06002000  1.0
  O  O110  1  0.44594000  0.61474000  0.56002000  1.0
  O  O111  1  0.38526000  0.55406000  0.93998000  1.0
  O  O112  1  0.59076000  0.73399000  0.94766000  1.0
  O  O113  1  0.26600000  0.40925000  0.55234000  1.0
  O  O114  1  0.40924000  0.26601000  0.05234000  1.0
  O  O115  1  0.73399000  0.59075000  0.44766000  1.0
  O  O116  1  0.90382000  0.10279000  0.59791000  1.0
  O  O117  1  0.89721000  0.09618000  0.90209000  1.0
  O  O118  1  0.09618000  0.89721000  0.40209000  1.0
  O  O119  1  0.10279000  0.90382000  0.09791000  1.0
  O  O120  1  0.79358000  0.03099000  0.73564000  1.0
  O  O121  1  0.96901000  0.20642000  0.76436000  1.0
  O  O122  1  0.20642000  0.96901000  0.26436000  1.0
  O  O123  1  0.03099000  0.79358000  0.23564000  1.0
  O  O124  1  0.04042000  0.30369000  0.51320000  1.0
  O  O125  1  0.69631000  0.95958000  0.98680000  1.0
  O  O126  1  0.95958000  0.69631000  0.48680000  1.0
  O  O127  1  0.30369000  0.04042000  0.01319000  1.0
  O  O128  1  0.78203000  0.59961000  0.59053000  1.0
  O  O129  1  0.40040000  0.21797000  0.90947000  1.0
  O  O130  1  0.21797000  0.40040000  0.40947000  1.0
  O  O131  1  0.59961000  0.78203000  0.09053000  1.0
