# generated using pymatgen
data_AlHC4Cl2O5
_symmetry_space_group_name_H-M   'P 1'
_cell_length_a   6.67685000
_cell_length_b   8.93457000
_cell_length_c   8.93535000
_cell_angle_alpha   61.74150000
_cell_angle_beta   73.69250000
_cell_angle_gamma   73.70180000
_symmetry_Int_Tables_number   1
_chemical_formula_structural   AlHC4Cl2O5
_chemical_formula_sum   'Al2 H2 C8 Cl4 O10'
_cell_volume   443.68991276
_cell_formula_units_Z   2
loop_
 _symmetry_equiv_pos_site_id
 _symmetry_equiv_pos_as_xyz
  1  'x, y, z'
loop_
 _atom_site_type_symbol
 _atom_site_label
 _atom_site_symmetry_multiplicity
 _atom_site_fract_x
 _atom_site_fract_y
 _atom_site_fract_z
 _atom_site_occupancy
  Al  Al0  1  0.50003000  0.50001000  0.49994000  1.0
  Al  Al1  1  0.00008000  0.50002000  0.49992000  1.0
  H  H2  1  0.24978000  0.30728000  0.69327000  1.0
  H  H3  1  0.74985000  0.69322000  0.30729000  1.0
  C  C4  1  0.84361000  0.20450000  0.53986000  1.0
  C  C5  1  0.65637000  0.46007000  0.79542000  1.0
  C  C6  1  0.15645000  0.79549000  0.46005000  1.0
  C  C7  1  0.34362000  0.53984000  0.20451000  1.0
  C  C8  1  0.40815000  0.54389000  0.02717000  1.0
  C  C9  1  0.59190000  0.45607000  0.97285000  1.0
  C  C10  1  0.90818000  0.02706000  0.54390000  1.0
  C  C11  1  0.09198000  0.97283000  0.45603000  1.0
  Cl  Cl12  1  0.22293000  0.67176000  0.89652000  1.0
  Cl  Cl13  1  0.77711000  0.32822000  0.10340000  1.0
  Cl  Cl14  1  0.72301000  0.89655000  0.67172000  1.0
  Cl  Cl15  1  0.27703000  0.10347000  0.32819000  1.0
  O  O16  1  0.65075000  0.27254000  0.53112000  1.0
  O  O17  1  0.84920000  0.46882000  0.72746000  1.0
  O  O18  1  0.01541000  0.73140000  0.45141000  1.0
  O  O19  1  0.48465000  0.54853000  0.26853000  1.0
  O  O20  1  0.34930000  0.72747000  0.46877000  1.0
  O  O21  1  0.15077000  0.53114000  0.27258000  1.0
  O  O22  1  0.98459000  0.26858000  0.54860000  1.0
  O  O23  1  0.51533000  0.45134000  0.73137000  1.0
  O  O24  1  0.24992000  0.41263000  0.58736000  1.0
  O  O25  1  0.75006000  0.58732000  0.41264000  1.0
