# generated using pymatgen
data_Co2H32C48S3(NO)12
_symmetry_space_group_name_H-M   'P 1'
_cell_length_a   13.21190000
_cell_length_b   19.42820000
_cell_length_c   22.80730000
_cell_angle_alpha   90.00000000
_cell_angle_beta   90.00010000
_cell_angle_gamma   89.99990000
_symmetry_Int_Tables_number   1
_chemical_formula_structural   Co2H32C48S3(NO)12
_chemical_formula_sum   'Co8 H128 C192 S12 N48 O48'
_cell_volume   5854.25612029
_cell_formula_units_Z   4
loop_
 _symmetry_equiv_pos_site_id
 _symmetry_equiv_pos_as_xyz
  1  'x, y, z'
loop_
 _atom_site_type_symbol
 _atom_site_label
 _atom_site_symmetry_multiplicity
 _atom_site_fract_x
 _atom_site_fract_y
 _atom_site_fract_z
 _atom_site_occupancy
  Co  Co0  1  0.73848000  0.13552000  0.34908000  1.0
  Co  Co1  1  0.76152000  0.63552000  0.15092000  1.0
  Co  Co2  1  0.73848000  0.36447000  0.65091000  1.0
  Co  Co3  1  0.76152000  0.86447000  0.84908000  1.0
  Co  Co4  1  0.26152000  0.86448000  0.65092000  1.0
  Co  Co5  1  0.23848000  0.36448000  0.84908000  1.0
  Co  Co6  1  0.26152000  0.63553000  0.34908000  1.0
  Co  Co7  1  0.23848000  0.13552000  0.15092000  1.0
  H  H8  1  0.67345000  0.38102000  0.36212000  1.0
  H  H9  1  0.82654000  0.88102000  0.13789000  1.0
  H  H10  1  0.67345000  0.11898000  0.63788000  1.0
  H  H11  1  0.82655000  0.61898000  0.86212000  1.0
  H  H12  1  0.32655000  0.61898000  0.63788000  1.0
  H  H13  1  0.17346000  0.11899000  0.86212000  1.0
  H  H14  1  0.32655000  0.88102000  0.36212000  1.0
  H  H15  1  0.17346000  0.38101000  0.13789000  1.0
  H  H16  1  0.69668000  0.49822000  0.30314000  1.0
  H  H17  1  0.80331000  0.99822000  0.19686000  1.0
  H  H18  1  0.69668000  0.00178000  0.69686000  1.0
  H  H19  1  0.80332000  0.50177000  0.80314000  1.0
  H  H20  1  0.30332000  0.50177000  0.69686000  1.0
  H  H21  1  0.19668000  0.00178000  0.80314000  1.0
  H  H22  1  0.30332000  0.99823000  0.30314000  1.0
  H  H23  1  0.19669000  0.49822000  0.19686000  1.0
  H  H24  1  0.56045000  0.25538000  0.33955000  1.0
  H  H25  1  0.93955000  0.75538000  0.16045000  1.0
  H  H26  1  0.56045000  0.24463000  0.66045000  1.0
  H  H27  1  0.93956000  0.74462000  0.83956000  1.0
  H  H28  1  0.43955000  0.74462000  0.66045000  1.0
  H  H29  1  0.06045000  0.24462000  0.83955000  1.0
  H  H30  1  0.43955000  0.75538000  0.33955000  1.0
  H  H31  1  0.06045000  0.25537000  0.16045000  1.0
  H  H32  1  0.35884000  0.22867000  0.36149000  1.0
  H  H33  1  0.14116000  0.72867000  0.13851000  1.0
  H  H34  1  0.35884000  0.27133000  0.63851000  1.0
  H  H35  1  0.14116000  0.77133000  0.86149000  1.0
  H  H36  1  0.64116000  0.77133000  0.63851000  1.0
  H  H37  1  0.85884000  0.27133000  0.86149000  1.0
  H  H38  1  0.64116000  0.72867000  0.36149000  1.0
  H  H39  1  0.85884000  0.22867000  0.13851000  1.0
  H  H40  1  0.53004000  0.04413000  0.37880000  1.0
  H  H41  1  0.96996000  0.54413000  0.12120000  1.0
  H  H42  1  0.53004000  0.45588000  0.62119000  1.0
  H  H43  1  0.96996000  0.95587000  0.87880000  1.0
  H  H44  1  0.46996000  0.95587000  0.62120000  1.0
  H  H45  1  0.03003000  0.45587000  0.87881000  1.0
  H  H46  1  0.46996000  0.54413000  0.37880000  1.0
  H  H47  1  0.03004000  0.04412000  0.12120000  1.0
  H  H48  1  0.10829000  0.12604000  0.26089000  1.0
  H  H49  1  0.39171000  0.62604000  0.23911000  1.0
  H  H50  1  0.10829000  0.37396000  0.73911000  1.0
  H  H51  1  0.39171000  0.87396000  0.76089000  1.0
  H  H52  1  0.89171000  0.87396000  0.73911000  1.0
  H  H53  1  0.60829000  0.37396000  0.76089000  1.0
  H  H54  1  0.89171000  0.62604000  0.26089000  1.0
  H  H55  1  0.60830000  0.12604000  0.23911000  1.0
  H  H56  1  0.90449000  0.16094000  0.24862000  1.0
  H  H57  1  0.59550000  0.66094000  0.25138000  1.0
  H  H58  1  0.90450000  0.33906000  0.75138000  1.0
  H  H59  1  0.59550000  0.83906000  0.74862000  1.0
  H  H60  1  0.09551000  0.83906000  0.75138000  1.0
  H  H61  1  0.40450000  0.33907000  0.74862000  1.0
  H  H62  1  0.09550000  0.66094000  0.24862000  1.0
  H  H63  1  0.40450000  0.16093000  0.25138000  1.0
  H  H64  1  0.95000000  0.08176000  0.41833000  1.0
  H  H65  1  0.55000000  0.58175000  0.08167000  1.0
  H  H66  1  0.95000000  0.41825000  0.58167000  1.0
  H  H67  1  0.55000000  0.91825000  0.91833000  1.0
  H  H68  1  0.05000000  0.91824000  0.58167000  1.0
  H  H69  1  0.44999000  0.41824000  0.91833000  1.0
  H  H70  1  0.05000000  0.58175000  0.41833000  1.0
  H  H71  1  0.45000000  0.08176000  0.08167000  1.0
  H  H72  1  0.15454000  0.86526000  0.42915000  1.0
  H  H73  1  0.34546000  0.36525000  0.07085000  1.0
  H  H74  1  0.15454000  0.63475000  0.57085000  1.0
  H  H75  1  0.34546000  0.13475000  0.92915000  1.0
  H  H76  1  0.84546000  0.13474000  0.57085000  1.0
  H  H77  1  0.65454000  0.63474000  0.92915000  1.0
  H  H78  1  0.84546000  0.36525000  0.42914000  1.0
  H  H79  1  0.65454000  0.86525000  0.07085000  1.0
  H  H80  1  0.16993000  0.79618000  0.53649000  1.0
  H  H81  1  0.33007000  0.29618000  0.96351000  1.0
  H  H82  1  0.16993000  0.70382000  0.46351000  1.0
  H  H83  1  0.33007000  0.20382000  0.03649000  1.0
  H  H84  1  0.83006000  0.20382000  0.46351000  1.0
  H  H85  1  0.66993000  0.70382000  0.03649000  1.0
  H  H86  1  0.83007000  0.29618000  0.53649000  1.0
  H  H87  1  0.66993000  0.79618000  0.96351000  1.0
  H  H88  1  0.31437000  0.98809000  0.55232000  1.0
  H  H89  1  0.18562000  0.48809000  0.94768000  1.0
  H  H90  1  0.31437000  0.51191000  0.44768000  1.0
  H  H91  1  0.18562000  0.01191000  0.05232000  1.0
  H  H92  1  0.68563000  0.01190000  0.44768000  1.0
  H  H93  1  0.81437000  0.51191000  0.05232000  1.0
  H  H94  1  0.68563000  0.48809000  0.55232000  1.0
  H  H95  1  0.81437000  0.98809000  0.94768000  1.0
  H  H96  1  0.39868000  0.01668000  0.44736000  1.0
  H  H97  1  0.10131000  0.51668000  0.05264000  1.0
  H  H98  1  0.39868000  0.48333000  0.55264000  1.0
  H  H99  1  0.10132000  0.98333000  0.94736000  1.0
  H  H100  1  0.60132000  0.98332000  0.55265000  1.0
  H  H101  1  0.89868000  0.48332000  0.94736000  1.0
  H  H102  1  0.60132000  0.51668000  0.44736000  1.0
  H  H103  1  0.89868000  0.01667000  0.05264000  1.0
  H  H104  1  0.23626000  0.15304000  0.32979000  1.0
  H  H105  1  0.26374000  0.65304000  0.17021000  1.0
  H  H106  1  0.23626000  0.34696000  0.67021000  1.0
  H  H107  1  0.26374000  0.84696000  0.82979000  1.0
  H  H108  1  0.76374000  0.84696000  0.67022000  1.0
  H  H109  1  0.73626000  0.34696000  0.82979000  1.0
  H  H110  1  0.76374000  0.65304000  0.32979000  1.0
  H  H111  1  0.73627000  0.15304000  0.17021000  1.0
  H  H112  1  0.07833000  0.98971000  0.41977000  1.0
  H  H113  1  0.42166000  0.48971000  0.08023000  1.0
  H  H114  1  0.07833000  0.51029000  0.58023000  1.0
  H  H115  1  0.42166000  0.01030000  0.91977000  1.0
  H  H116  1  0.92167000  0.01029000  0.58023000  1.0
  H  H117  1  0.57833000  0.51030000  0.91977000  1.0
  H  H118  1  0.92167000  0.48970000  0.41976000  1.0
  H  H119  1  0.57833000  0.98970000  0.08023000  1.0
  H  H120  1  0.63320000  0.18958000  0.52706000  1.0
  H  H121  1  0.86680000  0.68959000  0.97294000  1.0
  H  H122  1  0.63320000  0.31041000  0.47294000  1.0
  H  H123  1  0.86680000  0.81042000  0.02705000  1.0
  H  H124  1  0.36681000  0.81041000  0.47294000  1.0
  H  H125  1  0.13320000  0.31041000  0.02706000  1.0
  H  H126  1  0.36681000  0.68959000  0.52705000  1.0
  H  H127  1  0.13319000  0.18958000  0.97295000  1.0
  H  H128  1  0.34033000  0.08805000  0.60649000  1.0
  H  H129  1  0.15967000  0.58805000  0.89352000  1.0
  H  H130  1  0.34033000  0.41195000  0.39352000  1.0
  H  H131  1  0.15967000  0.91195000  0.10648000  1.0
  H  H132  1  0.65968000  0.91195000  0.39351000  1.0
  H  H133  1  0.84033000  0.41195000  0.10649000  1.0
  H  H134  1  0.65967000  0.58806000  0.60649000  1.0
  H  H135  1  0.84033000  0.08806000  0.89352000  1.0
  C  C136  1  0.74696000  0.25694000  0.30724000  1.0
  C  C137  1  0.75304000  0.75694000  0.19276000  1.0
  C  C138  1  0.74696000  0.24306000  0.69276000  1.0
  C  C139  1  0.75304000  0.74305000  0.80725000  1.0
  C  C140  1  0.25304000  0.74306000  0.69276000  1.0
  C  C141  1  0.24696000  0.24306000  0.80724000  1.0
  C  C142  1  0.25304000  0.75695000  0.30724000  1.0
  C  C143  1  0.24696000  0.25694000  0.19276000  1.0
  C  C144  1  0.74774000  0.32966000  0.28883000  1.0
  C  C145  1  0.75226000  0.82965000  0.21118000  1.0
  C  C146  1  0.74774000  0.17034000  0.71117000  1.0
  C  C147  1  0.75226000  0.67034000  0.78883000  1.0
  C  C148  1  0.25226000  0.67034000  0.71117000  1.0
  C  C149  1  0.24774000  0.17035000  0.78882000  1.0
  C  C150  1  0.25226000  0.82966000  0.28883000  1.0
  C  C151  1  0.24774000  0.32965000  0.21118000  1.0
  C  C152  1  0.71011000  0.38579000  0.31954000  1.0
  C  C153  1  0.78988000  0.88579000  0.18046000  1.0
  C  C154  1  0.71011000  0.11421000  0.68046000  1.0
  C  C155  1  0.78989000  0.61421000  0.81954000  1.0
  C  C156  1  0.28989000  0.61421000  0.68046000  1.0
  C  C157  1  0.21011000  0.11421000  0.81954000  1.0
  C  C158  1  0.28989000  0.88579000  0.31954000  1.0
  C  C159  1  0.21011000  0.38579000  0.18046000  1.0
  C  C160  1  0.72167000  0.44789000  0.28829000  1.0
  C  C161  1  0.77832000  0.94789000  0.21172000  1.0
  C  C162  1  0.72167000  0.05211000  0.71171000  1.0
  C  C163  1  0.77833000  0.55210000  0.78829000  1.0
  C  C164  1  0.27833000  0.55211000  0.71172000  1.0
  C  C165  1  0.22167000  0.05211000  0.78828000  1.0
  C  C166  1  0.27833000  0.94790000  0.28828000  1.0
  C  C167  1  0.22168000  0.44789000  0.21172000  1.0
  C  C168  1  0.76882000  0.43892000  0.23452000  1.0
  C  C169  1  0.73117000  0.93892000  0.26548000  1.0
  C  C170  1  0.76881000  0.06109000  0.76548000  1.0
  C  C171  1  0.73118000  0.56108000  0.73452000  1.0
  C  C172  1  0.23119000  0.56108000  0.76548000  1.0
  C  C173  1  0.26881000  0.06109000  0.73452000  1.0
  C  C174  1  0.23118000  0.93892000  0.23452000  1.0
  C  C175  1  0.26882000  0.43892000  0.26548000  1.0
  C  C176  1  0.79417000  0.49285000  0.19126000  1.0
  C  C177  1  0.70582000  0.99284000  0.30874000  1.0
  C  C178  1  0.79417000  0.00715000  0.80874000  1.0
  C  C179  1  0.70583000  0.50715000  0.69126000  1.0
  C  C180  1  0.20583000  0.50715000  0.80874000  1.0
  C  C181  1  0.29417000  0.00716000  0.69126000  1.0
  C  C182  1  0.20583000  0.99285000  0.19126000  1.0
  C  C183  1  0.29417000  0.49285000  0.30874000  1.0
  C  C184  1  0.52425000  0.20713000  0.35049000  1.0
  C  C185  1  0.97575000  0.70713000  0.14950000  1.0
  C  C186  1  0.52425000  0.29288000  0.64951000  1.0
  C  C187  1  0.97576000  0.79287000  0.85049000  1.0
  C  C188  1  0.47575000  0.79287000  0.64950000  1.0
  C  C189  1  0.02424000  0.29287000  0.85050000  1.0
  C  C190  1  0.47576000  0.70713000  0.35049000  1.0
  C  C191  1  0.02425000  0.20712000  0.14951000  1.0
  C  C192  1  0.42395000  0.19488000  0.36105000  1.0
  C  C193  1  0.07605000  0.69488000  0.13894000  1.0
  C  C194  1  0.42395000  0.30512000  0.63895000  1.0
  C  C195  1  0.07605000  0.80512000  0.86106000  1.0
  C  C196  1  0.57605000  0.80512000  0.63895000  1.0
  C  C197  1  0.92395000  0.30512000  0.86106000  1.0
  C  C198  1  0.57605000  0.69488000  0.36105000  1.0
  C  C199  1  0.92395000  0.19488000  0.13894000  1.0
  C  C200  1  0.51268000  0.09820000  0.37192000  1.0
  C  C201  1  0.98731000  0.59820000  0.12808000  1.0
  C  C202  1  0.51269000  0.40180000  0.62808000  1.0
  C  C203  1  0.98731000  0.90180000  0.87192000  1.0
  C  C204  1  0.48732000  0.90180000  0.62808000  1.0
  C  C205  1  0.01268000  0.40180000  0.87192000  1.0
  C  C206  1  0.48732000  0.59820000  0.37192000  1.0
  C  C207  1  0.01269000  0.09820000  0.12808000  1.0
  C  C208  1  0.04504000  0.12300000  0.29099000  1.0
  C  C209  1  0.45496000  0.62300000  0.20900000  1.0
  C  C210  1  0.04504000  0.37700000  0.70901000  1.0
  C  C211  1  0.45496000  0.87700000  0.79100000  1.0
  C  C212  1  0.95497000  0.87700000  0.70901000  1.0
  C  C213  1  0.54504000  0.37700000  0.79100000  1.0
  C  C214  1  0.95496000  0.62300000  0.29099000  1.0
  C  C215  1  0.54504000  0.12300000  0.20900000  1.0
  C  C216  1  0.94454000  0.13892000  0.28545000  1.0
  C  C217  1  0.55546000  0.63892000  0.21454000  1.0
  C  C218  1  0.94454000  0.36108000  0.71455000  1.0
  C  C219  1  0.55546000  0.86108000  0.78545000  1.0
  C  C220  1  0.05546000  0.86108000  0.71455000  1.0
  C  C221  1  0.44454000  0.36108000  0.78545000  1.0
  C  C222  1  0.05546000  0.63892000  0.28545000  1.0
  C  C223  1  0.44454000  0.13892000  0.21454000  1.0
  C  C224  1  0.96273000  0.09734000  0.37332000  1.0
  C  C225  1  0.53727000  0.59734000  0.12668000  1.0
  C  C226  1  0.96273000  0.40266000  0.62668000  1.0
  C  C227  1  0.53727000  0.90267000  0.87332000  1.0
  C  C228  1  0.03727000  0.90266000  0.62668000  1.0
  C  C229  1  0.46273000  0.40266000  0.87332000  1.0
  C  C230  1  0.03727000  0.59734000  0.37332000  1.0
  C  C231  1  0.46273000  0.09734000  0.12668000  1.0
  C  C232  1  0.18640000  0.88060000  0.47092000  1.0
  C  C233  1  0.31360000  0.38060000  0.02908000  1.0
  C  C234  1  0.18640000  0.61940000  0.52908000  1.0
  C  C235  1  0.31360000  0.11940000  0.97092000  1.0
  C  C236  1  0.81360000  0.11940000  0.52908000  1.0
  C  C237  1  0.68640000  0.61940000  0.97092000  1.0
  C  C238  1  0.81360000  0.38060000  0.47092000  1.0
  C  C239  1  0.68640000  0.88060000  0.02908000  1.0
  C  C240  1  0.19587000  0.84685000  0.52352000  1.0
  C  C241  1  0.30413000  0.34685000  0.97647000  1.0
  C  C242  1  0.19587000  0.65315000  0.47647000  1.0
  C  C243  1  0.30413000  0.15315000  0.02353000  1.0
  C  C244  1  0.80413000  0.15315000  0.47648000  1.0
  C  C245  1  0.69587000  0.65315000  0.02352000  1.0
  C  C246  1  0.80413000  0.34685000  0.52352000  1.0
  C  C247  1  0.69587000  0.84685000  0.97647000  1.0
  C  C248  1  0.27466000  0.94458000  0.53365000  1.0
  C  C249  1  0.22534000  0.44458000  0.96635000  1.0
  C  C250  1  0.27466000  0.55542000  0.46634000  1.0
  C  C251  1  0.22534000  0.05543000  0.03365000  1.0
  C  C252  1  0.72534000  0.05542000  0.46635000  1.0
  C  C253  1  0.77466000  0.55542000  0.03366000  1.0
  C  C254  1  0.72534000  0.44458000  0.53365000  1.0
  C  C255  1  0.77466000  0.94458000  0.96634000  1.0
  C  C256  1  0.23828000  0.99892000  0.43791000  1.0
  C  C257  1  0.26172000  0.49891000  0.06209000  1.0
  C  C258  1  0.23828000  0.50109000  0.56209000  1.0
  C  C259  1  0.26172000  0.00109000  0.93791000  1.0
  C  C260  1  0.76172000  0.00108000  0.56209000  1.0
  C  C261  1  0.73828000  0.50108000  0.93791000  1.0
  C  C262  1  0.76172000  0.49891000  0.43791000  1.0
  C  C263  1  0.73828000  0.99891000  0.06209000  1.0
  C  C264  1  0.32846000  0.03407000  0.42726000  1.0
  C  C265  1  0.17154000  0.53407000  0.07274000  1.0
  C  C266  1  0.32846000  0.46593000  0.57274000  1.0
  C  C267  1  0.17154000  0.96593000  0.92726000  1.0
  C  C268  1  0.67154000  0.96593000  0.57275000  1.0
  C  C269  1  0.82846000  0.46593000  0.92726000  1.0
  C  C270  1  0.67154000  0.53407000  0.42725000  1.0
  C  C271  1  0.82846000  0.03407000  0.07274000  1.0
  C  C272  1  0.32646000  0.08980000  0.38836000  1.0
  C  C273  1  0.17354000  0.58980000  0.11163000  1.0
  C  C274  1  0.32646000  0.41020000  0.61164000  1.0
  C  C275  1  0.17354000  0.91021000  0.88836000  1.0
  C  C276  1  0.67354000  0.91020000  0.61164000  1.0
  C  C277  1  0.82646000  0.41020000  0.88837000  1.0
  C  C278  1  0.67354000  0.58980000  0.38836000  1.0
  C  C279  1  0.82646000  0.08979000  0.11163000  1.0
  C  C280  1  0.23669000  0.11074000  0.36123000  1.0
  C  C281  1  0.26331000  0.61074000  0.13877000  1.0
  C  C282  1  0.23669000  0.38926000  0.63877000  1.0
  C  C283  1  0.26331000  0.88926000  0.86123000  1.0
  C  C284  1  0.76331000  0.88926000  0.63877000  1.0
  C  C285  1  0.73669000  0.38926000  0.86123000  1.0
  C  C286  1  0.76331000  0.61074000  0.36123000  1.0
  C  C287  1  0.73669000  0.11074000  0.13877000  1.0
  C  C288  1  0.14755000  0.01847000  0.41135000  1.0
  C  C289  1  0.35244000  0.51846000  0.08865000  1.0
  C  C290  1  0.14756000  0.48153000  0.58865000  1.0
  C  C291  1  0.35244000  0.98154000  0.91135000  1.0
  C  C292  1  0.85245000  0.98153000  0.58865000  1.0
  C  C293  1  0.64755000  0.48153000  0.91135000  1.0
  C  C294  1  0.85245000  0.51846000  0.41135000  1.0
  C  C295  1  0.64756000  0.01846000  0.08865000  1.0
  C  C296  1  0.14764000  0.07485000  0.37343000  1.0
  C  C297  1  0.35236000  0.57485000  0.12657000  1.0
  C  C298  1  0.14764000  0.42515000  0.62657000  1.0
  C  C299  1  0.35236000  0.92515000  0.87343000  1.0
  C  C300  1  0.85237000  0.92515000  0.62657000  1.0
  C  C301  1  0.64763000  0.42515000  0.87343000  1.0
  C  C302  1  0.85236000  0.57485000  0.37343000  1.0
  C  C303  1  0.64764000  0.07485000  0.12657000  1.0
  C  C304  1  0.56582000  0.21757000  0.51373000  1.0
  C  C305  1  0.93418000  0.71758000  0.98627000  1.0
  C  C306  1  0.56582000  0.28242000  0.48627000  1.0
  C  C307  1  0.93418000  0.78243000  0.01372000  1.0
  C  C308  1  0.43418000  0.78242000  0.48627000  1.0
  C  C309  1  0.06582000  0.28242000  0.01373000  1.0
  C  C310  1  0.43418000  0.71758000  0.51372000  1.0
  C  C311  1  0.06582000  0.21757000  0.98628000  1.0
  C  C312  1  0.46899000  0.19339000  0.52452000  1.0
  C  C313  1  0.03101000  0.69339000  0.97548000  1.0
  C  C314  1  0.46899000  0.30661000  0.47548000  1.0
  C  C315  1  0.03101000  0.80661000  0.02452000  1.0
  C  C316  1  0.53101000  0.80661000  0.47548000  1.0
  C  C317  1  0.96899000  0.30661000  0.02453000  1.0
  C  C318  1  0.53101000  0.69339000  0.52452000  1.0
  C  C319  1  0.96899000  0.19339000  0.97549000  1.0
  C  C320  1  0.44473000  0.13056000  0.55778000  1.0
  C  C321  1  0.05527000  0.63056000  0.94222000  1.0
  C  C322  1  0.44473000  0.36944000  0.44222000  1.0
  C  C323  1  0.05527000  0.86944000  0.05778000  1.0
  C  C324  1  0.55528000  0.86944000  0.44222000  1.0
  C  C325  1  0.94473000  0.36944000  0.05778000  1.0
  C  C326  1  0.55527000  0.63057000  0.55778000  1.0
  C  C327  1  0.94473000  0.13056000  0.94222000  1.0
  S  S328  1  0.79593000  0.35336000  0.22179000  1.0
  S  S329  1  0.70406000  0.85336000  0.27821000  1.0
  S  S330  1  0.79593000  0.14664000  0.77821000  1.0
  S  S331  1  0.70407000  0.64663000  0.72179000  1.0
  S  S332  1  0.20407000  0.64663000  0.77821000  1.0
  S  S333  1  0.29593000  0.14664000  0.72179000  1.0
  S  S334  1  0.20407000  0.85337000  0.22179000  1.0
  S  S335  1  0.29593000  0.35336000  0.27822000  1.0
  S  S336  1  0.37796000  0.25000000  0.50000000  1.0
  S  S337  1  0.12204000  0.75000000  1.00000000  1.0
  S  S338  1  0.62205000  0.75000000  0.50000000  1.0
  S  S339  1  0.87796000  0.25000000  0.00001000  1.0
  N  N340  1  0.57862000  0.14665000  0.35699000  1.0
  N  N341  1  0.92138000  0.64665000  0.14301000  1.0
  N  N342  1  0.57862000  0.35335000  0.64301000  1.0
  N  N343  1  0.92138000  0.85335000  0.85699000  1.0
  N  N344  1  0.42138000  0.85335000  0.64301000  1.0
  N  N345  1  0.07862000  0.35335000  0.85699000  1.0
  N  N346  1  0.42138000  0.64665000  0.35699000  1.0
  N  N347  1  0.07862000  0.14665000  0.14301000  1.0
  N  N348  1  0.41695000  0.12546000  0.37507000  1.0
  N  N349  1  0.08305000  0.62546000  0.12493000  1.0
  N  N350  1  0.41695000  0.37454000  0.62493000  1.0
  N  N351  1  0.08305000  0.87455000  0.87507000  1.0
  N  N352  1  0.58305000  0.87454000  0.62493000  1.0
  N  N353  1  0.91695000  0.37454000  0.87508000  1.0
  N  N354  1  0.58305000  0.62546000  0.37507000  1.0
  N  N355  1  0.91695000  0.12545000  0.12493000  1.0
  N  N356  1  0.24990000  0.88759000  0.56231000  1.0
  N  N357  1  0.25010000  0.38759000  0.93769000  1.0
  N  N358  1  0.24990000  0.61241000  0.43769000  1.0
  N  N359  1  0.25010000  0.11241000  0.06231000  1.0
  N  N360  1  0.75010000  0.11240000  0.43769000  1.0
  N  N361  1  0.74990000  0.61241000  0.06231000  1.0
  N  N362  1  0.75010000  0.38759000  0.56231000  1.0
  N  N363  1  0.74990000  0.88759000  0.93768000  1.0
  N  N364  1  0.23690000  0.94276000  0.47790000  1.0
  N  N365  1  0.26309000  0.44276000  0.02210000  1.0
  N  N366  1  0.23690000  0.55724000  0.52210000  1.0
  N  N367  1  0.26310000  0.05725000  0.97790000  1.0
  N  N368  1  0.76310000  0.05724000  0.52210000  1.0
  N  N369  1  0.73690000  0.55724000  0.97790000  1.0
  N  N370  1  0.76310000  0.44276000  0.47789000  1.0
  N  N371  1  0.73690000  0.94276000  0.02210000  1.0
  N  N372  1  0.89425000  0.12341000  0.33708000  1.0
  N  N373  1  0.60575000  0.62341000  0.16292000  1.0
  N  N374  1  0.89425000  0.37659000  0.66292000  1.0
  N  N375  1  0.60575000  0.87659000  0.83708000  1.0
  N  N376  1  0.10575000  0.87659000  0.66292000  1.0
  N  N377  1  0.39425000  0.37659000  0.83708000  1.0
  N  N378  1  0.10575000  0.62341000  0.33708000  1.0
  N  N379  1  0.39425000  0.12341000  0.16292000  1.0
  N  N380  1  0.05593000  0.09615000  0.34704000  1.0
  N  N381  1  0.44407000  0.59615000  0.15296000  1.0
  N  N382  1  0.05593000  0.40385000  0.65296000  1.0
  N  N383  1  0.44407000  0.90385000  0.84704000  1.0
  N  N384  1  0.94407000  0.90385000  0.65297000  1.0
  N  N385  1  0.55593000  0.40385000  0.84704000  1.0
  N  N386  1  0.94407000  0.59615000  0.34704000  1.0
  N  N387  1  0.55593000  0.09615000  0.15296000  1.0
  O  O388  1  0.74488000  0.24380000  0.36241000  1.0
  O  O389  1  0.75512000  0.74380000  0.13759000  1.0
  O  O390  1  0.74488000  0.25620000  0.63759000  1.0
  O  O391  1  0.75512000  0.75620000  0.86241000  1.0
  O  O392  1  0.25512000  0.75620000  0.63759000  1.0
  O  O393  1  0.24488000  0.25620000  0.86241000  1.0
  O  O394  1  0.25512000  0.74380000  0.36241000  1.0
  O  O395  1  0.24488000  0.24380000  0.13760000  1.0
  O  O396  1  0.74579000  0.20888000  0.26924000  1.0
  O  O397  1  0.75421000  0.70888000  0.23076000  1.0
  O  O398  1  0.74579000  0.29112000  0.73076000  1.0
  O  O399  1  0.75421000  0.79111000  0.76924000  1.0
  O  O400  1  0.25421000  0.79112000  0.73076000  1.0
  O  O401  1  0.24579000  0.29112000  0.76924000  1.0
  O  O402  1  0.25421000  0.70889000  0.26924000  1.0
  O  O403  1  0.24579000  0.20888000  0.23076000  1.0
  O  O404  1  0.77985000  0.55499000  0.20768000  1.0
  O  O405  1  0.72014000  0.05499000  0.29233000  1.0
  O  O406  1  0.77985000  0.94501000  0.79233000  1.0
  O  O407  1  0.72014000  0.44501000  0.70767000  1.0
  O  O408  1  0.22014000  0.44501000  0.79232000  1.0
  O  O409  1  0.27985000  0.94501000  0.70767000  1.0
  O  O410  1  0.22014000  0.05499000  0.20767000  1.0
  O  O411  1  0.27986000  0.55499000  0.29233000  1.0
  O  O412  1  0.82739000  0.47617000  0.14079000  1.0
  O  O413  1  0.67261000  0.97617000  0.35921000  1.0
  O  O414  1  0.82739000  0.02383000  0.85921000  1.0
  O  O415  1  0.67261000  0.52383000  0.64079000  1.0
  O  O416  1  0.17261000  0.52383000  0.85921000  1.0
  O  O417  1  0.32739000  0.02383000  0.64079000  1.0
  O  O418  1  0.17261000  0.97617000  0.14079000  1.0
  O  O419  1  0.32739000  0.47617000  0.35922000  1.0
  O  O420  1  0.50773000  0.08449000  0.56605000  1.0
  O  O421  1  0.99227000  0.58449000  0.93395000  1.0
  O  O422  1  0.50773000  0.41551000  0.43395000  1.0
  O  O423  1  0.99227000  0.91551000  0.06604000  1.0
  O  O424  1  0.49228000  0.91551000  0.43395000  1.0
  O  O425  1  0.00773000  0.41551000  0.06605000  1.0
  O  O426  1  0.49227000  0.58450000  0.56605000  1.0
  O  O427  1  0.00773000  0.08449000  0.93395000  1.0
  O  O428  1  0.35009000  0.12990000  0.57838000  1.0
  O  O429  1  0.14991000  0.62989000  0.92162000  1.0
  O  O430  1  0.35009000  0.37010000  0.42162000  1.0
  O  O431  1  0.14991000  0.87010000  0.07838000  1.0
  O  O432  1  0.64992000  0.87010000  0.42161000  1.0
  O  O433  1  0.85009000  0.37011000  0.07839000  1.0
  O  O434  1  0.64991000  0.62990000  0.57839000  1.0
  O  O435  1  0.85009000  0.12990000  0.92162000  1.0
