# generated using pymatgen
data_Cu4SiH24(C9N2)4
_symmetry_space_group_name_H-M   'P 1'
_cell_length_a   26.13290000
_cell_length_b   26.27310000
_cell_length_c   26.28880000
_cell_angle_alpha   89.94320000
_cell_angle_beta   90.55140000
_cell_angle_gamma   89.80030000
_symmetry_Int_Tables_number   1
_chemical_formula_structural   Cu4SiH24(C9N2)4
_chemical_formula_sum   'Cu12 Si3 H72 C108 N24'
_cell_volume   18048.73257142
_cell_formula_units_Z   3
loop_
 _symmetry_equiv_pos_site_id
 _symmetry_equiv_pos_as_xyz
  1  'x, y, z'
loop_
 _atom_site_type_symbol
 _atom_site_label
 _atom_site_symmetry_multiplicity
 _atom_site_fract_x
 _atom_site_fract_y
 _atom_site_fract_z
 _atom_site_occupancy
  Cu  Cu0  1  0.78075000  0.78427000  0.86816000  1.0
  Cu  Cu1  1  0.85210000  0.77262000  0.77208000  1.0
  Cu  Cu2  1  0.77218000  0.86456000  0.77920000  1.0
  Cu  Cu3  1  0.77748000  0.23004000  0.13933000  1.0
  Cu  Cu4  1  0.86924000  0.22150000  0.21786000  1.0
  Cu  Cu5  1  0.77010000  0.15364000  0.23232000  1.0
  Cu  Cu6  1  0.22702000  0.77383000  0.14191000  1.0
  Cu  Cu7  1  0.13957000  0.77045000  0.22465000  1.0
  Cu  Cu8  1  0.22238000  0.85937000  0.22681000  1.0
  Cu  Cu9  1  0.22681000  0.22547000  0.85327000  1.0
  Cu  Cu10  1  0.13874000  0.22172000  0.76958000  1.0
  Cu  Cu11  1  0.22495000  0.13538000  0.77301000  1.0
  Si  Si12  1  0.99503000  0.99309000  0.49935000  1.0
  Si  Si13  1  0.00459000  0.49955000  0.99396000  1.0
  Si  Si14  1  0.49967000  0.00215000  0.00763000  1.0
  H  H15  1  0.82350000  0.69627000  0.93800000  1.0
  H  H16  1  0.91322000  0.67167000  0.80237000  1.0
  H  H17  1  0.67654000  0.92963000  0.81588000  1.0
  H  H18  1  0.69109000  0.82066000  0.93910000  1.0
  H  H19  1  0.91060000  0.80311000  0.67172000  1.0
  H  H20  1  0.80654000  0.93098000  0.68564000  1.0
  H  H21  1  0.81125000  0.32674000  0.07565000  1.0
  H  H22  1  0.94144000  0.30948000  0.17762000  1.0
  H  H23  1  0.67035000  0.09241000  0.20190000  1.0
  H  H24  1  0.68785000  0.18869000  0.06934000  1.0
  H  H25  1  0.94163000  0.17325000  0.30243000  1.0
  H  H26  1  0.79965000  0.09497000  0.33371000  1.0
  H  H27  1  0.19551000  0.68033000  0.07285000  1.0
  H  H28  1  0.07621000  0.67467000  0.18599000  1.0
  H  H29  1  0.31488000  0.92940000  0.19289000  1.0
  H  H30  1  0.32229000  0.81053000  0.07904000  1.0
  H  H31  1  0.07092000  0.80263000  0.31800000  1.0
  H  H32  1  0.18398000  0.92284000  0.32139000  1.0
  H  H33  1  0.19426000  0.32372000  0.91456000  1.0
  H  H34  1  0.07188000  0.31720000  0.80243000  1.0
  H  H35  1  0.31753000  0.06801000  0.81381000  1.0
  H  H36  1  0.31948000  0.19096000  0.92351000  1.0
  H  H37  1  0.07014000  0.18181000  0.67819000  1.0
  H  H38  1  0.18923000  0.06671000  0.68040000  1.0
  H  H39  1  0.87165000  0.63553000  0.97967000  1.0
  H  H40  1  0.94605000  0.59696000  0.83899000  1.0
  H  H41  1  0.99485000  0.52981000  0.88313000  1.0
  H  H42  1  0.92016000  0.56848000  0.02359000  1.0
  H  H43  1  0.98855000  0.35900000  0.11991000  1.0
  H  H44  1  0.84570000  0.40864000  0.05260000  1.0
  H  H45  1  0.89132000  0.47436000  0.00439000  1.0
  H  H46  1  0.03390000  0.42538000  0.07288000  1.0
  H  H47  1  0.13450000  0.63647000  0.01788000  1.0
  H  H48  1  0.06083000  0.58708000  0.15532000  1.0
  H  H49  1  0.01326000  0.52235000  0.10653000  1.0
  H  H50  1  0.08807000  0.57118000  0.96935000  1.0
  H  H51  1  0.02221000  0.36631000  0.86059000  1.0
  H  H52  1  0.16362000  0.40888000  0.93477000  1.0
  H  H53  1  0.11770000  0.47376000  0.98415000  1.0
  H  H54  1  0.97662000  0.43182000  0.90884000  1.0
  H  H55  1  0.62652000  0.86197000  0.98166000  1.0
  H  H56  1  0.60602000  0.96453000  0.85471000  1.0
  H  H57  1  0.53843000  0.00942000  0.90103000  1.0
  H  H58  1  0.55886000  0.90675000  0.02783000  1.0
  H  H59  1  0.39134000  0.15423000  0.96226000  1.0
  H  H60  1  0.37652000  0.02431000  0.86291000  1.0
  H  H61  1  0.44298000  0.97961000  0.91201000  1.0
  H  H62  1  0.45774000  0.10923000  0.01157000  1.0
  H  H63  1  0.60345000  0.05095000  0.16195000  1.0
  H  H64  1  0.62393000  0.14421000  0.02853000  1.0
  H  H65  1  0.55800000  0.09512000  0.98357000  1.0
  H  H66  1  0.53774000  0.00157000  0.11675000  1.0
  H  H67  1  0.37606000  0.97467000  0.14859000  1.0
  H  H68  1  0.39523000  0.84765000  0.04646000  1.0
  H  H69  1  0.46181000  0.89458000  0.00111000  1.0
  H  H70  1  0.44278000  0.02138000  0.10341000  1.0
  H  H71  1  0.86371000  0.97770000  0.63455000  1.0
  H  H72  1  0.93195000  0.83553000  0.58853000  1.0
  H  H73  1  0.98184000  0.88064000  0.52385000  1.0
  H  H74  1  0.91243000  0.02254000  0.56927000  1.0
  H  H75  1  0.01607000  0.86328000  0.36270000  1.0
  H  H76  1  0.15550000  0.93763000  0.40983000  1.0
  H  H77  1  0.10815000  0.98467000  0.47533000  1.0
  H  H78  1  0.96899000  0.90926000  0.42870000  1.0
  H  H79  1  0.05191000  0.15203000  0.59074000  1.0
  H  H80  1  0.12583000  0.01257000  0.63787000  1.0
  H  H81  1  0.07831000  0.96578000  0.57193000  1.0
  H  H82  1  0.00335000  0.10501000  0.52531000  1.0
  H  H83  1  0.83797000  0.05988000  0.40713000  1.0
  H  H84  1  0.98303000  0.12156000  0.36056000  1.0
  H  H85  1  0.02661000  0.07130000  0.42646000  1.0
  H  H86  1  0.88179000  0.00902000  0.47286000  1.0
  C  C87  1  0.84168000  0.69684000  0.90108000  1.0
  C  C88  1  0.87922000  0.66447000  0.88082000  1.0
  C  C89  1  0.88722000  0.68420000  0.83179000  1.0
  C  C90  1  0.68663000  0.89923000  0.84210000  1.0
  C  C91  1  0.66447000  0.88550000  0.88864000  1.0
  C  C92  1  0.69409000  0.84376000  0.90504000  1.0
  C  C93  1  0.88116000  0.83048000  0.68163000  1.0
  C  C94  1  0.86884000  0.87759000  0.65916000  1.0
  C  C95  1  0.82851000  0.89600000  0.68906000  1.0
  C  C96  1  0.83912000  0.31618000  0.10468000  1.0
  C  C97  1  0.88744000  0.33698000  0.11574000  1.0
  C  C98  1  0.90577000  0.30695000  0.15633000  1.0
  C  C99  1  0.68099000  0.12014000  0.17333000  1.0
  C  C100  1  0.66020000  0.12898000  0.12460000  1.0
  C  C101  1  0.68988000  0.16919000  0.10569000  1.0
  C  C102  1  0.90310000  0.15812000  0.30365000  1.0
  C  C103  1  0.88158000  0.12241000  0.33703000  1.0
  C  C104  1  0.83065000  0.11838000  0.31981000  1.0
  C  C105  1  0.16975000  0.68580000  0.10453000  1.0
  C  C106  1  0.12574000  0.65852000  0.11795000  1.0
  C  C107  1  0.10937000  0.68246000  0.16274000  1.0
  C  C108  1  0.31013000  0.89635000  0.16863000  1.0
  C  C109  1  0.33787000  0.88121000  0.12563000  1.0
  C  C110  1  0.31409000  0.83562000  0.11070000  1.0
  C  C111  1  0.10248000  0.82864000  0.31196000  1.0
  C  C112  1  0.11627000  0.87279000  0.33886000  1.0
  C  C113  1  0.16064000  0.88949000  0.31418000  1.0
  C  C114  1  0.16831000  0.31565000  0.88316000  1.0
  C  C115  1  0.12236000  0.33992000  0.86883000  1.0
  C  C116  1  0.10553000  0.31188000  0.82638000  1.0
  C  C117  1  0.31155000  0.10191000  0.83653000  1.0
  C  C118  1  0.33729000  0.11852000  0.88067000  1.0
  C  C119  1  0.31275000  0.16471000  0.89237000  1.0
  C  C120  1  0.10355000  0.15803000  0.68496000  1.0
  C  C121  1  0.11869000  0.11287000  0.66067000  1.0
  C  C122  1  0.16383000  0.09881000  0.68664000  1.0
  C  C123  1  0.89829000  0.61215000  0.95803000  1.0
  C  C124  1  0.90548000  0.62205000  0.90593000  1.0
  C  C125  1  0.94007000  0.59087000  0.87956000  1.0
  C  C126  1  0.96756000  0.55265000  0.90459000  1.0
  C  C127  1  0.96157000  0.54357000  0.95686000  1.0
  C  C128  1  0.92583000  0.57397000  0.98281000  1.0
  C  C129  1  0.96682000  0.38477000  0.09526000  1.0
  C  C130  1  0.91360000  0.37839000  0.08967000  1.0
  C  C131  1  0.88713000  0.41200000  0.05704000  1.0
  C  C132  1  0.91303000  0.44950000  0.03005000  1.0
  C  C133  1  0.96628000  0.45542000  0.03484000  1.0
  C  C134  1  0.99240000  0.42239000  0.06845000  1.0
  C  C135  1  0.10864000  0.61082000  0.03770000  1.0
  C  C136  1  0.10082000  0.61713000  0.09023000  1.0
  C  C137  1  0.06671000  0.58387000  0.11440000  1.0
  C  C138  1  0.04016000  0.54699000  0.08677000  1.0
  C  C139  1  0.04679000  0.54143000  0.03408000  1.0
  C  C140  1  0.08214000  0.57386000  0.01036000  1.0
  C  C141  1  0.04362000  0.39036000  0.88702000  1.0
  C  C142  1  0.09641000  0.38192000  0.89445000  1.0
  C  C143  1  0.12244000  0.41358000  0.92911000  1.0
  C  C144  1  0.09640000  0.45061000  0.95677000  1.0
  C  C145  1  0.04341000  0.45806000  0.95066000  1.0
  C  C146  1  0.01790000  0.42751000  0.91454000  1.0
  C  C147  1  0.60714000  0.89417000  0.96355000  1.0
  C  C148  1  0.62209000  0.91014000  0.91479000  1.0
  C  C149  1  0.59584000  0.95156000  0.89273000  1.0
  C  C150  1  0.55737000  0.97682000  0.91896000  1.0
  C  C151  1  0.54314000  0.96178000  0.96814000  1.0
  C  C152  1  0.56866000  0.91956000  0.98960000  1.0
  C  C153  1  0.40252000  0.11587000  0.95088000  1.0
  C  C154  1  0.37841000  0.09281000  0.90877000  1.0
  C  C155  1  0.39443000  0.04348000  0.89525000  1.0
  C  C156  1  0.43216000  0.01817000  0.92320000  1.0
  C  C157  1  0.45588000  0.04083000  0.96575000  1.0
  C  C158  1  0.44028000  0.09034000  0.97875000  1.0
  C  C159  1  0.59349000  0.06109000  0.12282000  1.0
  C  C160  1  0.61908000  0.10139000  0.09880000  1.0
  C  C161  1  0.60483000  0.11324000  0.04838000  1.0
  C  C162  1  0.56733000  0.08539000  0.02300000  1.0
  C  C163  1  0.54219000  0.04454000  0.04663000  1.0
  C  C164  1  0.55608000  0.03322000  0.09718000  1.0
  C  C165  1  0.39504000  0.95657000  0.11651000  1.0
  C  C166  1  0.37992000  0.90763000  0.10080000  1.0
  C  C167  1  0.40552000  0.88579000  0.05931000  1.0
  C  C168  1  0.44345000  0.91238000  0.03376000  1.0
  C  C169  1  0.45777000  0.96178000  0.04856000  1.0
  C  C170  1  0.43296000  0.98297000  0.09085000  1.0
  C  C171  1  0.88891000  0.95596000  0.60976000  1.0
  C  C172  1  0.89455000  0.90315000  0.61719000  1.0
  C  C173  1  0.92766000  0.87669000  0.58460000  1.0
  C  C174  1  0.95559000  0.90230000  0.54764000  1.0
  C  C175  1  0.95134000  0.95526000  0.54118000  1.0
  C  C176  1  0.91671000  0.98128000  0.57271000  1.0
  C  C177  1  0.03670000  0.88919000  0.38796000  1.0
  C  C178  1  0.08934000  0.89739000  0.38071000  1.0
  C  C179  1  0.11442000  0.93151000  0.41366000  1.0
  C  C180  1  0.08757000  0.95779000  0.45102000  1.0
  C  C181  1  0.03469000  0.95088000  0.45743000  1.0
  C  C182  1  0.01015000  0.91544000  0.42537000  1.0
  C  C183  1  0.05759000  0.11102000  0.58693000  1.0
  C  C184  1  0.09227000  0.08585000  0.61961000  1.0
  C  C185  1  0.09964000  0.03322000  0.61261000  1.0
  C  C186  1  0.07249000  0.00685000  0.57532000  1.0
  C  C187  1  0.03688000  0.03164000  0.54318000  1.0
  C  C188  1  0.03043000  0.08437000  0.54967000  1.0
  C  C189  1  0.87947000  0.06266000  0.41118000  1.0
  C  C190  1  0.90696000  0.09450000  0.37829000  1.0
  C  C191  1  0.96035000  0.09742000  0.38543000  1.0
  C  C192  1  0.98498000  0.06885000  0.42293000  1.0
  C  C193  1  0.95778000  0.03604000  0.45523000  1.0
  C  C194  1  0.90440000  0.03399000  0.44866000  1.0
  N  N195  1  0.85691000  0.72512000  0.82376000  1.0
  N  N196  1  0.82858000  0.73285000  0.86682000  1.0
  N  N197  1  0.73090000  0.83368000  0.87095000  1.0
  N  N198  1  0.72631000  0.86810000  0.83185000  1.0
  N  N199  1  0.81792000  0.86250000  0.72635000  1.0
  N  N200  1  0.85073000  0.82182000  0.72185000  1.0
  N  N201  1  0.87110000  0.27112000  0.16827000  1.0
  N  N202  1  0.82976000  0.27676000  0.13607000  1.0
  N  N203  1  0.72548000  0.18291000  0.14043000  1.0
  N  N204  1  0.72001000  0.15239000  0.18247000  1.0
  N  N205  1  0.82275000  0.14908000  0.27934000  1.0
  N  N206  1  0.86776000  0.17388000  0.26939000  1.0
  N  N207  1  0.14108000  0.72111000  0.17477000  1.0
  N  N208  1  0.17869000  0.72304000  0.13870000  1.0
  N  N209  1  0.27526000  0.82478000  0.14224000  1.0
  N  N210  1  0.27281000  0.86248000  0.17829000  1.0
  N  N211  1  0.17210000  0.85782000  0.27556000  1.0
  N  N212  1  0.13607000  0.81989000  0.27430000  1.0
  N  N213  1  0.13881000  0.27390000  0.81648000  1.0
  N  N214  1  0.17775000  0.27615000  0.85187000  1.0
  N  N215  1  0.27539000  0.17454000  0.85798000  1.0
  N  N216  1  0.27466000  0.13551000  0.82326000  1.0
  N  N217  1  0.17455000  0.13296000  0.72347000  1.0
  N  N218  1  0.13699000  0.16967000  0.72254000  1.0
