# generated using pymatgen
data_H8WC10N2O3
_symmetry_space_group_name_H-M   'P 1'
_cell_length_a   7.36529000
_cell_length_b   8.53290000
_cell_length_c   8.53290000
_cell_angle_alpha   67.29540000
_cell_angle_beta   79.89860000
_cell_angle_gamma   79.89850000
_symmetry_Int_Tables_number   1
_chemical_formula_structural   H8WC10N2O3
_chemical_formula_sum   'H16 W2 C20 N4 O6'
_cell_volume   483.60757473
_cell_formula_units_Z   2
loop_
 _symmetry_equiv_pos_site_id
 _symmetry_equiv_pos_as_xyz
  1  'x, y, z'
loop_
 _atom_site_type_symbol
 _atom_site_label
 _atom_site_symmetry_multiplicity
 _atom_site_fract_x
 _atom_site_fract_y
 _atom_site_fract_z
 _atom_site_occupancy
  H  H0  1  0.37668000  0.55359000  0.94633000  1.0
  H  H1  1  0.87667000  0.94634000  0.55359000  1.0
  H  H2  1  0.39387000  0.70177000  0.62554000  1.0
  H  H3  1  0.89386000  0.62555000  0.70177000  1.0
  H  H4  1  0.47957000  0.51637000  0.44532000  1.0
  H  H5  1  0.97958000  0.44532000  0.51638000  1.0
  H  H6  1  0.56555000  0.20818000  0.58575000  1.0
  H  H7  1  0.06555000  0.58575000  0.20819000  1.0
  H  H8  1  0.60140000  0.95169000  0.71800000  1.0
  H  H9  1  0.10140000  0.71799000  0.95169000  1.0
  H  H10  1  0.68788000  0.64385000  0.89792000  1.0
  H  H11  1  0.18788000  0.89791000  0.64385000  1.0
  H  H12  1  0.67337000  0.55768000  0.21241000  1.0
  H  H13  1  0.17338000  0.21241000  0.55768000  1.0
  H  H14  1  0.57635000  0.78758000  0.34015000  1.0
  H  H15  1  0.07635000  0.34015000  0.78759000  1.0
  W  W16  1  0.46696000  0.18871000  0.23633000  1.0
  W  W17  1  0.96696000  0.23633000  0.18870000  1.0
  C  C18  1  0.41836000  0.48340000  0.86058000  1.0
  C  C19  1  0.91836000  0.86059000  0.48340000  1.0
  C  C20  1  0.42620000  0.56343000  0.68341000  1.0
  C  C21  1  0.92620000  0.68342000  0.56344000  1.0
  C  C22  1  0.47827000  0.46287000  0.58356000  1.0
  C  C23  1  0.97827000  0.58357000  0.46287000  1.0
  C  C24  1  0.52469000  0.28748000  0.66287000  1.0
  C  C25  1  0.02469000  0.66287000  0.28749000  1.0
  C  C26  1  0.51473000  0.21602000  0.84121000  1.0
  C  C27  1  0.01473000  0.84121000  0.21602000  1.0
  C  C28  1  0.55662000  0.03114000  0.93582000  1.0
  C  C29  1  0.05662000  0.93582000  0.03114000  1.0
  C  C30  1  0.60263000  0.91143000  0.85569000  1.0
  C  C31  1  0.10263000  0.85568000  0.91144000  1.0
  C  C32  1  0.64679000  0.74015000  0.95565000  1.0
  C  C33  1  0.14679000  0.95564000  0.74016000  1.0
  C  C34  1  0.63872000  0.69070000  0.13224000  1.0
  C  C35  1  0.13873000  0.13223000  0.69070000  1.0
  C  C36  1  0.58584000  0.81606000  0.20323000  1.0
  C  C37  1  0.08584000  0.20322000  0.81606000  1.0
  N  N38  1  0.46217000  0.31423000  0.93748000  1.0
  N  N39  1  0.96217000  0.93749000  0.31423000  1.0
  N  N40  1  0.54739000  0.98187000  0.10753000  1.0
  N  N41  1  0.04739000  0.10754000  0.98187000  1.0
  O  O42  1  0.22452000  0.14728000  0.22093000  1.0
  O  O43  1  0.72452000  0.22094000  0.14727000  1.0
  O  O44  1  0.50280000  0.03029000  0.43930000  1.0
  O  O45  1  0.00281000  0.43930000  0.03028000  1.0
  O  O46  1  0.40128000  0.38367000  0.26792000  1.0
  O  O47  1  0.90128000  0.26793000  0.38366000  1.0
