# generated using pymatgen
data_CdH10C11NO5
_symmetry_space_group_name_H-M   'P 1'
_cell_length_a   11.03810000
_cell_length_b   11.14310000
_cell_length_c   12.22377074
_cell_angle_alpha   63.05447603
_cell_angle_beta   77.21797846
_cell_angle_gamma   61.50530000
_symmetry_Int_Tables_number   1
_chemical_formula_structural   CdH10C11NO5
_chemical_formula_sum   'Cd4 H40 C44 N4 O20'
_cell_volume   1177.89842877
_cell_formula_units_Z   4
loop_
 _symmetry_equiv_pos_site_id
 _symmetry_equiv_pos_as_xyz
  1  'x, y, z'
loop_
 _atom_site_type_symbol
 _atom_site_label
 _atom_site_symmetry_multiplicity
 _atom_site_fract_x
 _atom_site_fract_y
 _atom_site_fract_z
 _atom_site_occupancy
  Cd  Cd0  1  0.60054000  0.66212000  0.06513000  1.0
  Cd  Cd1  1  0.99739000  0.79109000  0.36600000  1.0
  Cd  Cd2  1  0.36604000  0.82416000  0.27731000  1.0
  Cd  Cd3  1  0.26100000  0.60297000  0.18608000  1.0
  H  H4  1  0.85718000  0.36187000  0.73327000  1.0
  H  H5  1  0.09015000  0.34426000  0.65184000  1.0
  H  H6  1  0.29905000  0.12969000  0.77281000  1.0
  H  H7  1  0.76693000  0.52532000  0.45130000  1.0
  H  H8  1  0.14601000  0.25222000  0.32441000  1.0
  H  H9  1  0.74076000  0.20339000  0.71288000  1.0
  H  H10  1  0.51973000  0.23967000  0.82857000  1.0
  H  H11  1  0.29672000  0.40895000  0.71365000  1.0
  H  H12  1  0.82684000  0.10325000  0.47220000  1.0
  H  H13  1  0.72202000  0.40229000  0.92967000  1.0
  H  H14  1  0.83271000  0.95024000  0.98495000  1.0
  H  H15  1  0.43754000  0.20893000  0.10316000  1.0
  H  H16  1  0.27247000  0.86036000  0.53313000  1.0
  H  H17  1  0.38218000  0.82567000  0.79062000  1.0
  H  H18  1  0.31745000  0.69504000  0.82191000  1.0
  H  H19  1  0.23868000  0.88009000  0.70529000  1.0
  H  H20  1  0.58385000  0.52247000  0.73785000  1.0
  H  H21  1  0.60860000  0.66349000  0.74929000  1.0
  H  H22  1  0.63635000  0.64618000  0.60501000  1.0
  H  H23  1  0.65983000  0.93829000  0.32750000  1.0
  H  H24  1  0.43785000  0.06787000  0.31566000  1.0
  H  H25  1  0.39187000  0.22529000  0.34996000  1.0
  H  H26  1  0.34436000  0.07889000  0.45269000  1.0
  H  H27  1  0.51755000  0.16668000  0.53931000  1.0
  H  H28  1  0.65394000  0.98225000  0.60320000  1.0
  H  H29  1  0.47778000  0.01145000  0.63115000  1.0
  H  H30  1  0.93559000  0.24642000  0.10632000  1.0
  H  H31  1  0.01258000  0.60951000  0.97420000  1.0
  H  H32  1  0.08236000  0.50310000  0.12417000  1.0
  H  H33  1  0.89966000  0.59001000  0.10453000  1.0
  H  H34  1  0.13982000  0.20440000  0.03749000  1.0
  H  H35  1  0.22160000  0.25991000  0.10412000  1.0
  H  H36  1  0.17809000  0.36099000  0.94512000  1.0
  H  H37  1  0.73015000  0.87537000  0.85880000  1.0
  H  H38  1  0.94717000  0.53312000  0.81441000  1.0
  H  H39  1  0.06202000  0.60867000  0.71208000  1.0
  H  H40  1  0.90603000  0.64969000  0.65595000  1.0
  H  H41  1  0.04272000  0.81258000  0.77226000  1.0
  H  H42  1  0.87456000  0.96413000  0.73896000  1.0
  H  H43  1  0.96982000  0.89591000  0.62383000  1.0
  C  C44  1  0.18359000  0.03000000  0.91939000  1.0
  C  C45  1  0.05162000  0.04078000  0.96564000  1.0
  C  C46  1  0.93300000  0.16099000  0.89828000  1.0
  C  C47  1  0.94889000  0.26898000  0.78542000  1.0
  C  C48  1  0.07945000  0.25857000  0.73895000  1.0
  C  C49  1  0.19604000  0.13924000  0.80583000  1.0
  C  C50  1  0.31227000  0.90742000  0.99056000  1.0
  C  C51  1  0.78177000  0.31575000  0.47084000  1.0
  C  C52  1  0.83099000  0.42262000  0.43760000  1.0
  C  C53  1  0.96254000  0.39918000  0.38595000  1.0
  C  C54  1  0.04423000  0.26960000  0.36542000  1.0
  C  C55  1  0.64606000  0.33854000  0.53496000  1.0
  C  C56  1  0.64338000  0.27160000  0.66355000  1.0
  C  C57  1  0.51922000  0.29335000  0.72872000  1.0
  C  C58  1  0.39529000  0.38684000  0.66511000  1.0
  C  C59  1  0.39489000  0.45580000  0.53662000  1.0
  C  C60  1  0.52074000  0.42843000  0.47112000  1.0
  C  C61  1  0.01637000  0.51241000  0.35243000  1.0
  C  C62  1  0.86411000  0.18657000  0.44941000  1.0
  C  C63  1  0.99565000  0.16319000  0.39655000  1.0
  C  C64  1  0.79375000  0.17530000  0.94902000  1.0
  C  C65  1  0.69674000  0.30859000  0.95968000  1.0
  C  C66  1  0.75907000  0.05519000  0.99196000  1.0
  C  C67  1  0.03483000  0.92669000  0.08861000  1.0
  C  C68  1  0.51979000  0.48807000  0.33310000  1.0
  C  C69  1  0.08566000  0.02263000  0.37684000  1.0
  C  C70  1  0.63109000  0.06660000  0.04784000  1.0
  C  C71  1  0.53656000  0.19978000  0.05901000  1.0
  C  C72  1  0.56801000  0.32130000  0.01428000  1.0
  C  C73  1  0.59215000  0.93845000  0.09693000  1.0
  C  C74  1  0.25975000  0.56423000  0.47291000  1.0
  C  C75  1  0.46660000  0.46073000  0.03178000  1.0
  C  C76  1  0.38359000  0.78562000  0.54606000  1.0
  C  C77  1  0.33660000  0.78818000  0.74852000  1.0
  C  C78  1  0.57375000  0.63743000  0.68897000  1.0
  C  C79  1  0.67180000  0.94691000  0.41052000  1.0
  C  C80  1  0.42471000  0.10415000  0.38891000  1.0
  C  C81  1  0.55073000  0.04783000  0.56360000  1.0
  C  C82  1  0.90717000  0.35736000  0.10350000  1.0
  C  C83  1  0.99970000  0.53344000  0.06743000  1.0
  C  C84  1  0.14509000  0.30040000  0.03664000  1.0
  C  C85  1  0.77360000  0.77664000  0.83709000  1.0
  C  C86  1  0.95430000  0.62981000  0.73574000  1.0
  C  C87  1  0.94664000  0.86430000  0.72234000  1.0
  N  N88  1  0.43025000  0.74176000  0.65582000  1.0
  N  N89  1  0.55379000  0.02552000  0.45446000  1.0
  N  N90  1  0.01051000  0.39858000  0.06672000  1.0
  N  N91  1  0.88553000  0.76016000  0.76552000  1.0
  O  O92  1  0.93095000  0.63492000  0.36087000  1.0
  O  O93  1  0.14257000  0.47549000  0.31944000  1.0
  O  O94  1  0.29969000  0.82618000  0.10510000  1.0
  O  O95  1  0.42691000  0.88887000  0.93644000  1.0
  O  O96  1  0.99045000  0.96973000  0.17590000  1.0
  O  O97  1  0.06122000  0.79953000  0.09467000  1.0
  O  O98  1  0.55480000  0.59632000  0.27237000  1.0
  O  O99  1  0.48329000  0.42988000  0.28701000  1.0
  O  O100  1  0.18815000  0.02270000  0.30370000  1.0
  O  O101  1  0.05663000  0.91185000  0.43848000  1.0
  O  O102  1  0.14960000  0.56770000  0.53025000  1.0
  O  O103  1  0.49991000  0.56594000  0.99993000  1.0
  O  O104  1  0.67000000  0.82631000  0.07156000  1.0
  O  O105  1  0.48096000  0.95727000  0.16045000  1.0
  O  O106  1  0.34892000  0.46473000  0.07828000  1.0
  O  O107  1  0.25878000  0.65818000  0.35897000  1.0
  O  O108  1  0.78753000  0.88641000  0.45888000  1.0
  O  O109  1  0.45783000  0.74663000  0.46309000  1.0
  O  O110  1  0.78911000  0.43049000  0.13526000  1.0
  O  O111  1  0.72193000  0.68509000  0.87950000  1.0
