# generated using pymatgen
data_NiH6C2(NO2)2
_symmetry_space_group_name_H-M   'P 1'
_cell_length_a   6.75297000
_cell_length_b   7.40812592
_cell_length_c   7.57391702
_cell_angle_alpha   71.37322245
_cell_angle_beta   63.56550529
_cell_angle_gamma   62.92839253
_symmetry_Int_Tables_number   1
_chemical_formula_structural   NiH6C2(NO2)2
_chemical_formula_sum   'Ni2 H12 C4 N4 O8'
_cell_volume   298.85151964
_cell_formula_units_Z   2
loop_
 _symmetry_equiv_pos_site_id
 _symmetry_equiv_pos_as_xyz
  1  'x, y, z'
loop_
 _atom_site_type_symbol
 _atom_site_label
 _atom_site_symmetry_multiplicity
 _atom_site_fract_x
 _atom_site_fract_y
 _atom_site_fract_z
 _atom_site_occupancy
  Ni  Ni0  1  0.75476000  0.75006000  0.25002000  1.0
  Ni  Ni1  1  0.24522000  0.24995000  0.74997000  1.0
  H  H2  1  0.84485000  0.39485000  0.19440000  1.0
  H  H3  1  0.43399000  0.10513000  0.30584000  1.0
  H  H4  1  0.15504000  0.60508000  0.80573000  1.0
  H  H5  1  0.56589000  0.89493000  0.69407000  1.0
  H  H6  1  0.70018000  0.55618000  0.05054000  1.0
  H  H7  1  0.30721000  0.94347000  0.44943000  1.0
  H  H8  1  0.29981000  0.44367000  0.94955000  1.0
  H  H9  1  0.69272000  0.05665000  0.55047000  1.0
  H  H10  1  0.55273000  0.49326000  0.28791000  1.0
  H  H11  1  0.33413000  0.00646000  0.21207000  1.0
  H  H12  1  0.44721000  0.50678000  0.71219000  1.0
  H  H13  1  0.66593000  0.99351000  0.78784000  1.0
  C  C14  1  0.11769000  0.47173000  0.40984000  1.0
  C  C15  1  0.99950000  0.02827000  0.09015000  1.0
  C  C16  1  0.88232000  0.52833000  0.59017000  1.0
  C  C17  1  0.00061000  0.97166000  0.90984000  1.0
  N  N18  1  0.70028000  0.52792000  0.19231000  1.0
  N  N19  1  0.42066000  0.97191000  0.30775000  1.0
  N  N20  1  0.29968000  0.47199000  0.80775000  1.0
  N  N21  1  0.57923000  0.02818000  0.69221000  1.0
  O  O22  1  0.10700000  0.53631000  0.23732000  1.0
  O  O23  1  0.88095000  0.96383000  0.26267000  1.0
  O  O24  1  0.89309000  0.46369000  0.76268000  1.0
  O  O25  1  0.11916000  0.03619000  0.73732000  1.0
  O  O26  1  0.30773000  0.36222000  0.44845000  1.0
  O  O27  1  0.11890000  0.13771000  0.05147000  1.0
  O  O28  1  0.69225000  0.63783000  0.55164000  1.0
  O  O29  1  0.88128000  0.86223000  0.94842000  1.0
