# generated using pymatgen
data_Zr3H5C27S5O18F5
_symmetry_space_group_name_H-M   'P 1'
_cell_length_a   16.44940000
_cell_length_b   16.44872938
_cell_length_c   16.46200000
_cell_angle_alpha   119.70696203
_cell_angle_beta   119.70160000
_cell_angle_gamma   88.75190778
_symmetry_Int_Tables_number   1
_chemical_formula_structural   Zr3H5C27S5O18F5
_chemical_formula_sum   'Zr6 H10 C54 S10 O36 F10'
_cell_volume   3209.26199044
_cell_formula_units_Z   2
loop_
 _symmetry_equiv_pos_site_id
 _symmetry_equiv_pos_as_xyz
  1  'x, y, z'
loop_
 _atom_site_type_symbol
 _atom_site_label
 _atom_site_symmetry_multiplicity
 _atom_site_fract_x
 _atom_site_fract_y
 _atom_site_fract_z
 _atom_site_occupancy
  Zr  Zr0  1  0.90297000  0.40359000  0.51555000  1.0
  Zr  Zr1  1  0.10185000  0.60239000  0.48986000  1.0
  Zr  Zr2  1  0.89340000  0.39384000  0.29146000  1.0
  Zr  Zr3  1  0.11165000  0.61205000  0.71404000  1.0
  Zr  Zr4  1  0.89331000  0.61223000  0.50281000  1.0
  Zr  Zr5  1  0.11163000  0.39376000  0.50277000  1.0
  H  H6  1  0.75275000  0.42482000  0.34666000  1.0
  H  H7  1  0.08065000  0.75276000  0.65887000  1.0
  H  H8  1  0.08140000  0.41037000  0.32703000  1.0
  H  H9  1  0.09485000  0.42394000  0.67837000  1.0
  H  H10  1  0.63641000  0.13401000  0.03169000  1.0
  H  H11  1  0.64992000  0.15140000  0.30663000  1.0
  H  H12  1  0.37118000  0.86915000  0.97325000  1.0
  H  H13  1  0.35420000  0.85513000  0.69829000  1.0
  H  H14  1  0.63708000  0.00229000  0.89792000  1.0
  H  H15  1  0.50283000  0.86835000  0.10676000  1.0
  C  C16  1  0.73975000  0.51731000  0.52216000  1.0
  C  C17  1  0.98782000  0.76535000  0.48267000  1.0
  C  C18  1  0.27217000  0.49557000  0.49758000  1.0
  C  C19  1  0.00952000  0.23313000  0.50762000  1.0
  C  C20  1  0.73982000  0.23617000  0.25507000  1.0
  C  C21  1  0.00606000  0.51470000  0.78234000  1.0
  C  C22  1  0.26933000  0.76545000  0.75001000  1.0
  C  C23  1  0.99094000  0.49930000  0.22320000  1.0
  C  C24  1  0.73088000  0.50466000  0.23156000  1.0
  C  C25  1  0.99603000  0.22285000  0.23247000  1.0
  C  C26  1  0.28235000  0.50914000  0.77313000  1.0
  C  C27  1  0.00078000  0.77443000  0.77414000  1.0
  C  C28  1  0.42310000  0.43860000  0.51086000  1.0
  C  C29  1  0.59206000  0.57756000  0.51604000  1.0
  C  C30  1  0.36415000  0.49977000  0.50426000  1.0
  C  C31  1  0.65057000  0.51593000  0.52157000  1.0
  C  C32  1  0.50906000  0.55022000  0.51242000  1.0
  C  C33  1  0.50662000  0.46637000  0.51543000  1.0
  C  C34  1  0.92708000  0.91264000  0.48795000  1.0
  C  C35  1  0.06606000  0.08184000  0.49337000  1.0
  C  C36  1  0.98873000  0.85415000  0.48242000  1.0
  C  C37  1  0.00500000  0.14086000  0.50033000  1.0
  C  C38  1  0.03813000  0.99806000  0.48831000  1.0
  C  C39  1  0.95434000  0.99559000  0.49145000  1.0
  C  C40  1  0.92677000  0.07994000  0.02752000  1.0
  C  C41  1  0.06473000  0.91114000  0.97975000  1.0
  C  C42  1  0.99434000  0.13251000  0.14349000  1.0
  C  C43  1  0.99814000  0.85984000  0.86365000  1.0
  C  C44  1  0.03937000  0.99142000  0.04034000  1.0
  C  C45  1  0.95154000  0.99911000  0.96694000  1.0
  C  C46  1  0.59373000  0.44031000  0.02603000  1.0
  C  C47  1  0.42455000  0.57794000  0.97821000  1.0
  C  C48  1  0.64503000  0.50695000  0.14212000  1.0
  C  C49  1  0.37233000  0.51056000  0.86220000  1.0
  C  C50  1  0.50527000  0.55309000  0.03881000  1.0
  C  C51  1  0.51320000  0.46543000  0.96545000  1.0
  C  C52  1  0.60750000  0.10190000  0.05973000  1.0
  C  C53  1  0.61517000  0.11261000  0.21603000  1.0
  C  C54  1  0.53522000  0.03023000  0.14275000  1.0
  C  C55  1  0.48789000  0.98013000  0.02341000  1.0
  C  C56  1  0.40341000  0.89793000  0.94520000  1.0
  C  C57  1  0.39294000  0.88991000  0.78887000  1.0
  C  C58  1  0.47528000  0.96989000  0.86211000  1.0
  C  C59  1  0.52530000  0.01739000  0.98149000  1.0
  C  C60  1  0.65232000  0.14774000  0.17447000  1.0
  C  C61  1  0.35773000  0.85290000  0.83046000  1.0
  C  C62  1  0.05562000  0.57029000  0.15150000  1.0
  C  C63  1  0.93520000  0.45001000  0.85415000  1.0
  C  C64  1  0.99010000  0.50367000  0.13613000  1.0
  C  C65  1  0.00176000  0.51554000  0.86948000  1.0
  C  C66  1  0.95381000  0.46954000  0.95639000  1.0
  C  C67  1  0.03602000  0.55174000  0.04927000  1.0
  C  C68  1  0.50543000  0.00539000  0.80977000  1.0
  C  C69  1  0.49962000  0.99995000  0.19496000  1.0
  S  S70  1  0.41090000  0.59364000  0.50396000  1.0
  S  S71  1  0.60422000  0.42238000  0.52259000  1.0
  S  S72  1  0.08215000  0.90047000  0.48119000  1.0
  S  S73  1  0.91110000  0.09395000  0.50047000  1.0
  S  S74  1  0.09009000  0.08178000  0.18034000  1.0
  S  S75  1  0.90176000  0.90985000  0.82681000  1.0
  S  S76  1  0.59465000  0.60302000  0.17895000  1.0
  S  S77  1  0.42317000  0.41490000  0.82541000  1.0
  S  S78  1  0.90192000  0.41657000  0.99406000  1.0
  S  S79  1  0.08890000  0.60370000  0.01155000  1.0
  O  O80  1  0.77733000  0.44919000  0.52564000  1.0
  O  O81  1  0.05603000  0.72788000  0.47942000  1.0
  O  O82  1  0.23334000  0.56229000  0.49118000  1.0
  O  O83  1  0.94290000  0.27208000  0.51417000  1.0
  O  O84  1  0.76982000  0.26656000  0.21403000  1.0
  O  O85  1  0.07455000  0.58075000  0.81382000  1.0
  O  O86  1  0.23907000  0.73544000  0.79113000  1.0
  O  O87  1  0.92484000  0.43087000  0.19173000  1.0
  O  O88  1  0.76347000  0.57415000  0.33331000  1.0
  O  O89  1  0.06755000  0.25769000  0.33398000  1.0
  O  O90  1  0.24766000  0.43772000  0.67161000  1.0
  O  O91  1  0.93137000  0.74195000  0.67241000  1.0
  O  O92  1  0.92688000  0.25999000  0.20068000  1.0
  O  O93  1  0.24535000  0.57847000  0.80483000  1.0
  O  O94  1  0.07291000  0.74044000  0.80547000  1.0
  O  O95  1  0.76513000  0.43276000  0.20018000  1.0
  O  O96  1  0.77711000  0.27481000  0.35966000  1.0
  O  O97  1  0.06019000  0.56495000  0.32471000  1.0
  O  O98  1  0.23055000  0.72820000  0.64540000  1.0
  O  O99  1  0.94036000  0.44548000  0.68084000  1.0
  O  O100  1  0.07867000  0.26733000  0.50783000  1.0
  O  O101  1  0.77130000  0.58369000  0.51686000  1.0
  O  O102  1  0.92171000  0.73408000  0.48852000  1.0
  O  O103  1  0.23809000  0.42661000  0.49772000  1.0
  O  O104  1  0.06955000  0.44702000  0.62906000  1.0
  O  O105  1  0.05841000  0.43578000  0.37643000  1.0
  O  O106  1  0.05821000  0.68174000  0.61419000  1.0
  O  O107  1  0.82376000  0.44728000  0.39131000  1.0
  O  O108  1  0.95313000  0.54407000  0.40986000  1.0
  O  O109  1  0.96141000  0.55234000  0.59565000  1.0
  O  O110  1  0.13433000  0.54409000  0.58505000  1.0
  O  O111  1  0.96129000  0.37104000  0.42039000  1.0
  O  O112  1  0.60120000  0.01935000  0.84320000  1.0
  O  O113  1  0.44814000  0.01910000  0.73843000  1.0
  O  O114  1  0.48580000  0.90416000  0.16152000  1.0
  O  O115  1  0.48572000  0.05712000  0.26617000  1.0
  F  F116  1  0.40428000  0.36073000  0.51253000  1.0
  F  F117  1  0.61036000  0.65521000  0.51360000  1.0
  F  F118  1  0.84958000  0.89444000  0.49065000  1.0
  F  F119  1  0.14395000  0.10083000  0.49178000  1.0
  F  F120  1  0.84524000  0.10190000  0.97558000  1.0
  F  F121  1  0.14585000  0.88895000  0.03151000  1.0
  F  F122  1  0.61622000  0.35943000  0.97428000  1.0
  F  F123  1  0.40250000  0.65940000  0.03012000  1.0
  F  F124  1  0.13102000  0.64493000  0.25185000  1.0
  F  F125  1  0.86049000  0.37464000  0.75383000  1.0
