# generated using pymatgen
data_Zn2H16C18(NO3)3
_symmetry_space_group_name_H-M   'P 1'
_cell_length_a   9.62143000
_cell_length_b   9.70908000
_cell_length_c   11.79600000
_cell_angle_alpha   82.47260000
_cell_angle_beta   81.31920000
_cell_angle_gamma   69.04520000
_symmetry_Int_Tables_number   1
_chemical_formula_structural   Zn2H16C18(NO3)3
_chemical_formula_sum   'Zn4 H32 C36 N6 O18'
_cell_volume   1013.71274795
_cell_formula_units_Z   2
loop_
 _symmetry_equiv_pos_site_id
 _symmetry_equiv_pos_as_xyz
  1  'x, y, z'
loop_
 _atom_site_type_symbol
 _atom_site_label
 _atom_site_symmetry_multiplicity
 _atom_site_fract_x
 _atom_site_fract_y
 _atom_site_fract_z
 _atom_site_occupancy
  Zn  Zn0  1  0.28509000  0.39493000  0.65882000  1.0
  Zn  Zn1  1  0.71491000  0.60507000  0.34118000  1.0
  Zn  Zn2  1  0.35269000  0.65171000  0.75308000  1.0
  Zn  Zn3  1  0.64731000  0.34829000  0.24691000  1.0
  H  H4  1  0.06090000  0.39510000  0.50828000  1.0
  H  H5  1  0.93910000  0.60490000  0.49172000  1.0
  H  H6  1  0.05382000  0.29214000  0.32795000  1.0
  H  H7  1  0.94618000  0.70786000  0.67205000  1.0
  H  H8  1  0.52909000  0.05005000  0.33070000  1.0
  H  H9  1  0.47091000  0.94995000  0.66930000  1.0
  H  H10  1  0.51695000  0.17068000  0.50587000  1.0
  H  H11  1  0.48305000  0.82932000  0.49413000  1.0
  H  H12  1  0.57148000  0.60519000  0.91592000  1.0
  H  H13  1  0.42852000  0.39481000  0.08408000  1.0
  H  H14  1  0.58831000  0.72332000  0.08645000  1.0
  H  H15  1  0.41169000  0.27668000  0.91355000  1.0
  H  H16  1  0.16420000  0.06434000  0.01925000  1.0
  H  H17  1  0.83580000  0.93566000  0.98075000  1.0
  H  H18  1  0.16334000  0.93033000  0.85677000  1.0
  H  H19  1  0.83667000  0.06966000  0.14323000  1.0
  H  H20  1  0.49411000  0.92296000  0.20579000  1.0
  H  H21  1  0.50589000  0.07704000  0.79422000  1.0
  H  H22  1  0.17483000  0.14417000  0.17539000  1.0
  H  H23  1  0.82517000  0.85583000  0.82461000  1.0
  H  H24  1  0.76020000  0.11185000  0.58530000  1.0
  H  H25  1  0.23980000  0.88815000  0.41470000  1.0
  H  H26  1  0.93480000  0.13964000  0.56331000  1.0
  H  H27  1  0.06520000  0.86036000  0.43669000  1.0
  H  H28  1  0.82849000  0.37525000  0.65658000  1.0
  H  H29  1  0.17150000  0.62475000  0.34342000  1.0
  H  H30  1  0.78968000  0.23394000  0.74936000  1.0
  H  H31  1  0.21031000  0.76606000  0.25064000  1.0
  H  H32  1  0.13824000  0.48454000  0.05744000  1.0
  H  H33  1  0.86177000  0.51546000  0.94256000  1.0
  H  H34  1  0.13002000  0.35767000  0.96742000  1.0
  H  H35  1  0.86998000  0.64233000  0.03258000  1.0
  C  C36  1  0.16229000  0.31976000  0.46523000  1.0
  C  C37  1  0.83771000  0.68024000  0.53477000  1.0
  C  C38  1  0.15856000  0.26046000  0.36561000  1.0
  C  C39  1  0.84143000  0.73954000  0.63439000  1.0
  C  C40  1  0.29024000  0.15891000  0.31392000  1.0
  C  C41  1  0.70976000  0.84108000  0.68608000  1.0
  C  C42  1  0.42190000  0.12570000  0.36634000  1.0
  C  C43  1  0.57809000  0.87430000  0.63366000  1.0
  C  C44  1  0.41636000  0.19182000  0.46507000  1.0
  C  C45  1  0.58364000  0.80818000  0.53493000  1.0
  C  C46  1  0.48389000  0.70642000  0.94342000  1.0
  C  C47  1  0.51611000  0.29358000  0.05658000  1.0
  C  C48  1  0.49283000  0.77379000  0.03714000  1.0
  C  C49  1  0.50717000  0.22620000  0.96286000  1.0
  C  C50  1  0.37788000  0.90550000  0.06863000  1.0
  C  C51  1  0.62213000  0.09450000  0.93137000  1.0
  C  C52  1  0.25723000  0.96247000  0.00171000  1.0
  C  C53  1  0.74277000  0.03753000  0.99829000  1.0
  C  C54  1  0.25564000  0.88851000  0.90950000  1.0
  C  C55  1  0.74436000  0.11149000  0.09050000  1.0
  C  C56  1  0.38963000  0.97516000  0.16700000  1.0
  C  C57  1  0.61037000  0.02484000  0.83300000  1.0
  C  C58  1  0.28124000  0.09340000  0.21230000  1.0
  C  C59  1  0.71876000  0.90660000  0.78770000  1.0
  C  C60  1  0.59962000  0.39116000  0.67899000  1.0
  C  C61  1  0.40038000  0.60884000  0.32101000  1.0
  C  C62  1  0.77486000  0.28289000  0.45456000  1.0
  C  C63  1  0.22514000  0.71711000  0.54544000  1.0
  C  C64  1  0.81256000  0.19703000  0.56949000  1.0
  C  C65  1  0.18745000  0.80297000  0.43051000  1.0
  C  C66  1  0.76497000  0.29977000  0.66685000  1.0
  C  C67  1  0.23503000  0.70023000  0.33315000  1.0
  C  C68  1  0.13206000  0.56839000  0.88375000  1.0
  C  C69  1  0.86794000  0.43161000  0.11625000  1.0
  C  C70  1  0.08431000  0.47487000  0.98403000  1.0
  C  C71  1  0.91569000  0.52513000  0.01597000  1.0
  N  N72  1  0.28881000  0.28693000  0.51487000  1.0
  N  N73  1  0.71118000  0.71307000  0.48513000  1.0
  N  N74  1  0.36706000  0.76259000  0.88003000  1.0
  N  N75  1  0.63294000  0.23741000  0.11996000  1.0
  N  N76  1  0.10854000  0.26204000  0.78006000  1.0
  N  N77  1  0.89145000  0.73796000  0.21994000  1.0
  O  O78  1  0.50943000  0.33546000  0.65064000  1.0
  O  O79  1  0.49057000  0.66454000  0.34936000  1.0
  O  O80  1  0.56251000  0.51736000  0.71819000  1.0
  O  O81  1  0.43749000  0.48264000  0.28181000  1.0
  O  O82  1  0.79272000  0.40751000  0.43616000  1.0
  O  O83  1  0.20728000  0.59249000  0.56384000  1.0
  O  O84  1  0.72672000  0.22490000  0.38431000  1.0
  O  O85  1  0.27328000  0.77510000  0.61569000  1.0
  O  O86  1  0.26243000  0.49987000  0.82499000  1.0
  O  O87  1  0.73757000  0.50013000  0.17501000  1.0
  O  O88  1  0.05971000  0.70144000  0.86273000  1.0
  O  O89  1  0.94029000  0.29856000  0.13727000  1.0
  O  O90  1  0.25225000  0.20085000  0.77233000  1.0
  O  O91  1  0.74774000  0.79915000  0.22767000  1.0
  O  O92  1  0.05724000  0.39133000  0.72631000  1.0
  O  O93  1  0.94276000  0.60867000  0.27369000  1.0
  O  O94  1  0.02417000  0.20124000  0.83693000  1.0
  O  O95  1  0.97583000  0.79876000  0.16307000  1.0
