# generated using pymatgen
data_AlH4C10SClO6
_symmetry_space_group_name_H-M   'P 1'
_cell_length_a   6.62757000
_cell_length_b   10.97057668
_cell_length_c   12.72520000
_cell_angle_alpha   93.68370282
_cell_angle_beta   104.78140000
_cell_angle_gamma   105.76165642
_symmetry_Int_Tables_number   1
_chemical_formula_structural   AlH4C10SClO6
_chemical_formula_sum   'Al2 H8 C20 S2 Cl2 O12'
_cell_volume   852.05759664
_cell_formula_units_Z   2
loop_
 _symmetry_equiv_pos_site_id
 _symmetry_equiv_pos_as_xyz
  1  'x, y, z'
loop_
 _atom_site_type_symbol
 _atom_site_label
 _atom_site_symmetry_multiplicity
 _atom_site_fract_x
 _atom_site_fract_y
 _atom_site_fract_z
 _atom_site_occupancy
  Al  Al0  1  0.01454000  0.50196000  0.49805000  1.0
  Al  Al1  1  0.51606000  0.50320000  0.50007000  1.0
  H  H2  1  0.36628000  0.59837000  0.62669000  1.0
  H  H3  1  0.66946000  0.34094000  0.45939000  1.0
  H  H4  1  0.48771000  0.75856000  0.36980000  1.0
  H  H5  1  0.75845000  0.22454000  0.35584000  1.0
  H  H6  1  0.38971000  0.11820000  0.55943000  1.0
  H  H7  1  0.26243000  0.88013000  0.54938000  1.0
  H  H8  1  0.15348000  0.77610000  0.27727000  1.0
  H  H9  1  0.40736000  0.20532000  0.26499000  1.0
  C  C10  1  0.86575000  0.72487000  0.47972000  1.0
  C  C11  1  0.86750000  0.52305000  0.69751000  1.0
  C  C12  1  0.15026000  0.27278000  0.49594000  1.0
  C  C13  1  0.16992000  0.48931000  0.30275000  1.0
  C  C14  1  0.13716000  0.56856000  0.89336000  1.0
  C  C15  1  0.90336000  0.44980000  0.10750000  1.0
  C  C16  1  0.93280000  0.52110000  0.81655000  1.0
  C  C17  1  0.10775000  0.49619000  0.18460000  1.0
  C  C18  1  0.91454000  0.47639000  0.00150000  1.0
  C  C19  1  0.12682000  0.54301000  0.99990000  1.0
  C  C20  1  0.92710000  0.86411000  0.47204000  1.0
  C  C21  1  0.77146000  0.92707000  0.42298000  1.0
  C  C22  1  0.14707000  0.93185000  0.51607000  1.0
  C  C23  1  0.54870000  0.86106000  0.36865000  1.0
  C  C24  1  0.40665000  0.92320000  0.31428000  1.0
  C  C25  1  0.07131000  0.13061000  0.47837000  1.0
  C  C26  1  0.21874000  0.06494000  0.52061000  1.0
  C  C27  1  0.84765000  0.06310000  0.42324000  1.0
  C  C28  1  0.69974000  0.12374000  0.36405000  1.0
  C  C29  1  0.48459000  0.05732000  0.31088000  1.0
  S  S30  1  0.72808000  0.44645000  0.87433000  1.0
  S  S31  1  0.31307000  0.57174000  0.12723000  1.0
  Cl  Cl32  1  0.37495000  0.65186000  0.86897000  1.0
  Cl  Cl33  1  0.66445000  0.36588000  0.13015000  1.0
  O  O34  1  0.99843000  0.66524000  0.46334000  1.0
  O  O35  1  0.66233000  0.50041000  0.65260000  1.0
  O  O36  1  0.34023000  0.32682000  0.48615000  1.0
  O  O37  1  0.01841000  0.46180000  0.34942000  1.0
  O  O38  1  0.02354000  0.33185000  0.52100000  1.0
  O  O39  1  0.37421000  0.51315000  0.34972000  1.0
  O  O40  1  0.69135000  0.67418000  0.50568000  1.0
  O  O41  1  0.01673000  0.54505000  0.64888000  1.0
  O  O42  1  0.31783000  0.56606000  0.54875000  1.0
  O  O43  1  0.71093000  0.43218000  0.45470000  1.0
  O  O44  1  0.19182000  0.86375000  0.26099000  1.0
  O  O45  1  0.33815000  0.11293000  0.25358000  1.0
