# generated using pymatgen
data_FeP2H12C6(NO3)2
_symmetry_space_group_name_H-M   'P 1'
_cell_length_a   8.35061000
_cell_length_b   8.59283000
_cell_length_c   8.72260000
_cell_angle_alpha   81.37510000
_cell_angle_beta   70.30430000
_cell_angle_gamma   80.44600000
_symmetry_Int_Tables_number   1
_chemical_formula_structural   FeP2H12C6(NO3)2
_chemical_formula_sum   'Fe2 P4 H24 C12 N4 O12'
_cell_volume   578.11484594
_cell_formula_units_Z   2
loop_
 _symmetry_equiv_pos_site_id
 _symmetry_equiv_pos_as_xyz
  1  'x, y, z'
loop_
 _atom_site_type_symbol
 _atom_site_label
 _atom_site_symmetry_multiplicity
 _atom_site_fract_x
 _atom_site_fract_y
 _atom_site_fract_z
 _atom_site_occupancy
  Fe  Fe0  1  0.42615000  0.24489000  0.55932000  1.0
  Fe  Fe1  1  0.57386000  0.75510000  0.44067000  1.0
  P  P2  1  0.23271000  0.56901000  0.53855000  1.0
  P  P3  1  0.45522000  0.07431000  0.23618000  1.0
  P  P4  1  0.76729000  0.43099000  0.46143000  1.0
  P  P5  1  0.54478000  0.92569000  0.76382000  1.0
  H  H6  1  0.00643000  0.68129000  0.77280000  1.0
  H  H7  1  0.92294000  0.62194000  0.62898000  1.0
  H  H8  1  0.68422000  0.10957000  0.99143000  1.0
  H  H9  1  0.71909000  0.19185000  0.15443000  1.0
  H  H10  1  0.03464000  0.93262000  0.76791000  1.0
  H  H11  1  0.20746000  0.96932000  0.58269000  1.0
  H  H12  1  0.15945000  0.87312000  0.31668000  1.0
  H  H13  1  0.96861000  0.78042000  0.36918000  1.0
  H  H14  1  0.73471000  0.44563000  0.11324000  1.0
  H  H15  1  0.75680000  0.49117000  0.89924000  1.0
  H  H16  1  0.53079000  0.38266000  0.80802000  1.0
  H  H17  1  0.38113000  0.27022000  0.96767000  1.0
  H  H18  1  0.99358000  0.31871000  0.22719000  1.0
  H  H19  1  0.07706000  0.37807000  0.37102000  1.0
  H  H20  1  0.31578000  0.89043000  0.00858000  1.0
  H  H21  1  0.28090000  0.80815000  0.84558000  1.0
  H  H22  1  0.96537000  0.06738000  0.23209000  1.0
  H  H23  1  0.79255000  0.03069000  0.41730000  1.0
  H  H24  1  0.84056000  0.12688000  0.68330000  1.0
  H  H25  1  0.03139000  0.21958000  0.63081000  1.0
  H  H26  1  0.26528000  0.55438000  0.88676000  1.0
  H  H27  1  0.24319000  0.50884000  0.10076000  1.0
  H  H28  1  0.46921000  0.61735000  0.19198000  1.0
  H  H29  1  0.61885000  0.72978000  0.03234000  1.0
  C  C30  1  0.02346000  0.68278000  0.64220000  1.0
  C  C31  1  0.62580000  0.18650000  0.09257000  1.0
  C  C32  1  0.06848000  0.96217000  0.63498000  1.0
  C  C33  1  0.02566000  0.87321000  0.39894000  1.0
  C  C34  1  0.66527000  0.47296000  0.02406000  1.0
  C  C35  1  0.45540000  0.37053000  0.93954000  1.0
  C  C36  1  0.97655000  0.31722000  0.35780000  1.0
  C  C37  1  0.37419000  0.81350000  0.90743000  1.0
  C  C38  1  0.93153000  0.03782000  0.36501000  1.0
  C  C39  1  0.97434000  0.12679000  0.60106000  1.0
  C  C40  1  0.33472000  0.52704000  0.97594000  1.0
  C  C41  1  0.54460000  0.62947000  0.06046000  1.0
  N  N42  1  0.01865000  0.84277000  0.56756000  1.0
  N  N43  1  0.57063000  0.34448000  0.03396000  1.0
  N  N44  1  0.98136000  0.15723000  0.43244000  1.0
  N  N45  1  0.42936000  0.65553000  0.96604000  1.0
  O  O46  1  0.24765000  0.40871000  0.64934000  1.0
  O  O47  1  0.36582000  0.67270000  0.54949000  1.0
  O  O48  1  0.37926000  0.15679000  0.39819000  1.0
  O  O49  1  0.56367000  0.91368000  0.27094000  1.0
  O  O50  1  0.24302000  0.54831000  0.36780000  1.0
  O  O51  1  0.32059000  0.06010000  0.16310000  1.0
  O  O52  1  0.75235000  0.59129000  0.35066000  1.0
  O  O53  1  0.63417000  0.32732000  0.45051000  1.0
  O  O54  1  0.62072000  0.84320000  0.60181000  1.0
  O  O55  1  0.43633000  0.08633000  0.72907000  1.0
  O  O56  1  0.75698000  0.45169000  0.63223000  1.0
  O  O57  1  0.67942000  0.93987000  0.83691000  1.0
