# generated using pymatgen
data_NaH12C14(NO)3
_symmetry_space_group_name_H-M   'P 1'
_cell_length_a   8.14817000
_cell_length_b   10.40960000
_cell_length_c   15.56900000
_cell_angle_alpha   93.30120000
_cell_angle_beta   90.00000000
_cell_angle_gamma   90.00000000
_symmetry_Int_Tables_number   1
_chemical_formula_structural   NaH12C14(NO)3
_chemical_formula_sum   'Na4 H48 C56 N12 O12'
_cell_volume   1318.35866944
_cell_formula_units_Z   4
loop_
 _symmetry_equiv_pos_site_id
 _symmetry_equiv_pos_as_xyz
  1  'x, y, z'
loop_
 _atom_site_type_symbol
 _atom_site_label
 _atom_site_symmetry_multiplicity
 _atom_site_fract_x
 _atom_site_fract_y
 _atom_site_fract_z
 _atom_site_occupancy
  Na  Na0  1  0.34165000  0.31965000  0.67967000  1.0
  Na  Na1  1  0.84165000  0.18035000  0.82033000  1.0
  Na  Na2  1  0.65835000  0.68035000  0.32033000  1.0
  Na  Na3  1  0.15836000  0.81965000  0.17967000  1.0
  H  H4  1  0.03725000  0.48585000  0.32960000  1.0
  H  H5  1  0.53727000  0.01414000  0.17041000  1.0
  H  H6  1  0.96273000  0.51415000  0.67040000  1.0
  H  H7  1  0.46273000  0.98586000  0.82959000  1.0
  H  H8  1  0.02234000  0.25528000  0.36439000  1.0
  H  H9  1  0.52235000  0.24471000  0.13562000  1.0
  H  H10  1  0.97765000  0.74472000  0.63562000  1.0
  H  H11  1  0.47765000  0.75529000  0.86438000  1.0
  H  H12  1  0.26332000  0.12032000  0.54186000  1.0
  H  H13  1  0.76331000  0.37969000  0.95815000  1.0
  H  H14  1  0.73667000  0.87969000  0.45814000  1.0
  H  H15  1  0.23669000  0.62032000  0.04185000  1.0
  H  H16  1  0.04563000  0.12934000  0.54093000  1.0
  H  H17  1  0.54562000  0.37066000  0.95907000  1.0
  H  H18  1  0.95437000  0.87066000  0.45907000  1.0
  H  H19  1  0.45438000  0.62935000  0.04093000  1.0
  H  H20  1  0.15222000  0.08158000  0.44493000  1.0
  H  H21  1  0.65221000  0.41841000  0.05508000  1.0
  H  H22  1  0.84777000  0.91841000  0.55507000  1.0
  H  H23  1  0.34778000  0.58159000  0.94493000  1.0
  H  H24  1  0.14086000  0.70674000  0.36702000  1.0
  H  H25  1  0.64088000  0.79326000  0.13298000  1.0
  H  H26  1  0.85913000  0.29326000  0.63298000  1.0
  H  H27  1  0.35912000  0.20675000  0.86702000  1.0
  H  H28  1  0.47421000  0.89454000  0.59680000  1.0
  H  H29  1  0.97422000  0.60546000  0.90319000  1.0
  H  H30  1  0.52580000  0.10545000  0.40319000  1.0
  H  H31  1  0.02579000  0.39454000  0.09681000  1.0
  H  H32  1  0.61373000  0.80557000  0.72156000  1.0
  H  H33  1  0.11373000  0.69443000  0.77843000  1.0
  H  H34  1  0.38628000  0.19442000  0.27843000  1.0
  H  H35  1  0.88627000  0.30557000  0.22156000  1.0
  H  H36  1  0.50275000  0.52950000  0.81785000  1.0
  H  H37  1  0.00274000  0.97050000  0.68214000  1.0
  H  H38  1  0.49725000  0.47051000  0.18215000  1.0
  H  H39  1  0.99725000  0.02949000  0.31785000  1.0
  H  H40  1  0.68548000  0.62010000  0.80261000  1.0
  H  H41  1  0.18547000  0.87990000  0.69739000  1.0
  H  H42  1  0.31452000  0.37990000  0.19739000  1.0
  H  H43  1  0.81452000  0.12010000  0.30261000  1.0
  H  H44  1  0.65953000  0.46456000  0.75078000  1.0
  H  H45  1  0.15952000  0.03544000  0.74921000  1.0
  H  H46  1  0.34048000  0.53544000  0.24922000  1.0
  H  H47  1  0.84047000  0.96456000  0.25078000  1.0
  H  H48  1  0.30151000  0.85683000  0.46486000  1.0
  H  H49  1  0.80152000  0.64316000  0.03514000  1.0
  H  H50  1  0.69849000  0.14316000  0.53514000  1.0
  H  H51  1  0.19849000  0.35684000  0.96486000  1.0
  C  C52  1  0.25970000  0.49179000  0.51584000  1.0
  C  C53  1  0.75971000  0.00821000  0.98417000  1.0
  C  C54  1  0.74029000  0.50821000  0.48417000  1.0
  C  C55  1  0.24029000  0.99179000  0.01583000  1.0
  C  C56  1  0.18558000  0.54038000  0.44146000  1.0
  C  C57  1  0.68559000  0.95962000  0.05854000  1.0
  C  C58  1  0.81441000  0.45962000  0.55854000  1.0
  C  C59  1  0.31442000  0.04038000  0.94146000  1.0
  C  C60  1  0.09673000  0.45233000  0.38693000  1.0
  C  C61  1  0.59674000  0.04767000  0.11307000  1.0
  C  C62  1  0.90327000  0.54767000  0.61307000  1.0
  C  C63  1  0.40326000  0.95233000  0.88693000  1.0
  C  C64  1  0.08804000  0.32511000  0.40609000  1.0
  C  C65  1  0.58804000  0.17488000  0.09391000  1.0
  C  C66  1  0.91196000  0.67489000  0.59391000  1.0
  C  C67  1  0.41196000  0.82512000  0.90609000  1.0
  C  C68  1  0.16557000  0.28432000  0.48108000  1.0
  C  C69  1  0.66557000  0.21567000  0.01892000  1.0
  C  C70  1  0.83442000  0.71567000  0.51892000  1.0
  C  C71  1  0.33444000  0.78433000  0.98107000  1.0
  C  C72  1  0.15714000  0.14604000  0.50322000  1.0
  C  C73  1  0.65713000  0.35396000  0.99678000  1.0
  C  C74  1  0.84285000  0.85396000  0.49678000  1.0
  C  C75  1  0.34287000  0.64604000  0.00322000  1.0
  C  C76  1  0.20169000  0.67308000  0.42400000  1.0
  C  C77  1  0.70170000  0.82692000  0.07600000  1.0
  C  C78  1  0.79831000  0.32692000  0.57600000  1.0
  C  C79  1  0.29830000  0.17308000  0.92400000  1.0
  C  C80  1  0.35303000  0.57953000  0.57317000  1.0
  C  C81  1  0.85304000  0.92047000  0.92683000  1.0
  C  C82  1  0.64697000  0.42047000  0.42683000  1.0
  C  C83  1  0.14697000  0.07953000  0.07317000  1.0
  C  C84  1  0.36637000  0.71097000  0.55320000  1.0
  C  C85  1  0.86637000  0.78903000  0.94680000  1.0
  C  C86  1  0.63363000  0.28903000  0.44680000  1.0
  C  C87  1  0.13363000  0.21097000  0.05320000  1.0
  C  C88  1  0.46049000  0.79304000  0.60933000  1.0
  C  C89  1  0.96050000  0.70696000  0.89066000  1.0
  C  C90  1  0.53952000  0.20695000  0.39067000  1.0
  C  C91  1  0.03950000  0.29304000  0.10933000  1.0
  C  C92  1  0.53629000  0.74387000  0.67954000  1.0
  C  C93  1  0.03629000  0.75613000  0.82045000  1.0
  C  C94  1  0.46371000  0.25612000  0.32045000  1.0
  C  C95  1  0.96371000  0.24387000  0.17954000  1.0
  C  C96  1  0.51650000  0.61222000  0.69513000  1.0
  C  C97  1  0.01650000  0.88778000  0.80487000  1.0
  C  C98  1  0.48350000  0.38778000  0.30487000  1.0
  C  C99  1  0.98350000  0.11222000  0.19513000  1.0
  C  C100  1  0.59640000  0.55450000  0.77071000  1.0
  C  C101  1  0.09640000  0.94551000  0.72929000  1.0
  C  C102  1  0.40360000  0.44550000  0.22929000  1.0
  C  C103  1  0.90360000  0.05449000  0.27071000  1.0
  C  C104  1  0.28876000  0.75557000  0.47813000  1.0
  C  C105  1  0.78878000  0.74443000  0.02188000  1.0
  C  C106  1  0.71123000  0.24442000  0.52188000  1.0
  C  C107  1  0.21124000  0.25557000  0.97813000  1.0
  N  N108  1  0.24714000  0.36624000  0.53459000  1.0
  N  N109  1  0.74714000  0.13376000  0.96542000  1.0
  N  N110  1  0.75286000  0.63376000  0.46542000  1.0
  N  N111  1  0.25286000  0.86624000  0.03458000  1.0
  N  N112  1  0.42636000  0.53346000  0.64334000  1.0
  N  N113  1  0.92636000  0.96653000  0.85666000  1.0
  N  N114  1  0.57365000  0.46653000  0.35666000  1.0
  N  N115  1  0.07364000  0.03347000  0.14334000  1.0
  N  N116  1  0.07791000  0.37295000  0.79835000  1.0
  N  N117  1  0.57791000  0.12705000  0.70165000  1.0
  N  N118  1  0.92210000  0.62705000  0.20165000  1.0
  N  N119  1  0.42209000  0.87295000  0.29835000  1.0
  O  O120  1  0.20062000  0.44700000  0.80114000  1.0
  O  O121  1  0.70062000  0.05300000  0.69887000  1.0
  O  O122  1  0.79938000  0.55300000  0.19887000  1.0
  O  O123  1  0.29938000  0.94700000  0.30114000  1.0
  O  O124  1  0.07807000  0.27285000  0.74605000  1.0
  O  O125  1  0.57806000  0.22715000  0.75396000  1.0
  O  O126  1  0.92194000  0.72716000  0.25396000  1.0
  O  O127  1  0.42193000  0.77285000  0.24604000  1.0
  O  O128  1  0.95427000  0.39477000  0.84607000  1.0
  O  O129  1  0.45427000  0.10523000  0.65393000  1.0
  O  O130  1  0.04573000  0.60524000  0.15393000  1.0
  O  O131  1  0.54573000  0.89477000  0.34608000  1.0
