# generated using pymatgen
data_ZnH12(C2N)8
_symmetry_space_group_name_H-M   'P 1'
_cell_length_a   9.48521317
_cell_length_b   9.52571000
_cell_length_c   11.93375299
_cell_angle_alpha   85.17845707
_cell_angle_beta   66.58782228
_cell_angle_gamma   60.14443367
_symmetry_Int_Tables_number   1
_chemical_formula_structural   ZnH12(C2N)8
_chemical_formula_sum   'Zn2 H24 C32 N16'
_cell_volume   849.35117298
_cell_formula_units_Z   2
loop_
 _symmetry_equiv_pos_site_id
 _symmetry_equiv_pos_as_xyz
  1  'x, y, z'
loop_
 _atom_site_type_symbol
 _atom_site_label
 _atom_site_symmetry_multiplicity
 _atom_site_fract_x
 _atom_site_fract_y
 _atom_site_fract_z
 _atom_site_occupancy
  Zn  Zn0  1  1.00000000  0.50000000  0.00000000  1.0
  Zn  Zn1  1  0.00000000  1.00000000  0.50000000  1.0
  H  H2  1  0.61549000  0.75375000  0.05780000  1.0
  H  H3  1  0.92705000  0.74625000  0.44217000  1.0
  H  H4  1  0.38450000  0.24625000  0.94221000  1.0
  H  H5  1  0.07295000  0.25375000  0.55783000  1.0
  H  H6  1  0.97747000  0.32736000  0.81089000  1.0
  H  H7  1  0.61576000  0.17272000  0.68899000  1.0
  H  H8  1  0.02253000  0.67264000  0.18911000  1.0
  H  H9  1  0.38424000  0.82728000  0.31101000  1.0
  H  H10  1  0.39078000  0.82950000  0.97115000  1.0
  H  H11  1  0.69153000  0.67043000  0.52893000  1.0
  H  H12  1  0.60922000  0.17050000  0.02885000  1.0
  H  H13  1  0.30847000  0.32957000  0.47107000  1.0
  H  H14  1  0.77058000  0.38631000  0.71028000  1.0
  H  H15  1  0.36730000  0.11367000  0.78973000  1.0
  H  H16  1  0.22942000  0.61369000  0.28972000  1.0
  H  H17  1  0.63270000  0.88633000  0.21027000  1.0
  H  H18  1  0.32584000  0.64950000  0.82674000  1.0
  H  H19  1  0.30225000  0.85048000  0.67320000  1.0
  H  H20  1  0.67416000  0.35050000  0.17326000  1.0
  H  H21  1  0.69775000  0.14952000  0.32680000  1.0
  H  H22  1  0.51038000  0.57329000  0.68284000  1.0
  H  H23  1  0.26666000  0.92656000  0.81716000  1.0
  H  H24  1  0.48962000  0.42671000  0.31716000  1.0
  H  H25  1  0.73334000  0.07344000  0.18284000  1.0
  C  C26  1  0.64373000  0.67615000  0.98057000  1.0
  C  C27  1  0.80051000  0.82383000  0.51943000  1.0
  C  C28  1  0.35627000  0.32385000  0.01943000  1.0
  C  C29  1  0.19949000  0.17617000  0.48057000  1.0
  C  C30  1  0.52031000  0.71806000  0.93092000  1.0
  C  C31  1  0.66940000  0.78188000  0.56915000  1.0
  C  C32  1  0.47969000  0.28194000  0.06908000  1.0
  C  C33  1  0.33060000  0.21812000  0.43085000  1.0
  C  C34  1  0.56429000  0.61686000  0.82943000  1.0
  C  C35  1  0.51074000  0.88305000  0.67064000  1.0
  C  C36  1  0.43571000  0.38314000  0.17057000  1.0
  C  C37  1  0.48926000  0.11694000  0.32936000  1.0
  C  C38  1  0.73051000  0.47218000  0.78696000  1.0
  C  C39  1  0.48976000  0.02780000  0.71306000  1.0
  C  C40  1  0.26949000  0.52782000  0.21304000  1.0
  C  C41  1  0.51025000  0.97219000  0.28694000  1.0
  C  C42  1  0.84639000  0.43818000  0.84227000  1.0
  C  C43  1  0.62692000  0.06184000  0.65769000  1.0
  C  C44  1  0.15361000  0.56182000  0.15773000  1.0
  C  C45  1  0.37308000  0.93816000  0.34231000  1.0
  C  C46  1  0.44096000  0.66197000  0.76630000  1.0
  C  C47  1  0.36940000  0.83789000  0.73367000  1.0
  C  C48  1  0.55904000  0.33803000  0.23370000  1.0
  C  C49  1  0.63060000  0.16211000  0.26633000  1.0
  C  C50  1  0.75617000  0.52261000  0.28885000  1.0
  C  C51  1  0.06746000  0.97725000  0.21107000  1.0
  C  C52  1  0.24383000  0.47739000  0.71115000  1.0
  C  C53  1  0.93253000  0.02276000  0.78893000  1.0
  C  C54  1  0.76458000  0.36697000  0.44680000  1.0
  C  C55  1  0.07821000  0.13296000  0.05319000  1.0
  C  C56  1  0.23542000  0.63303000  0.55320000  1.0
  C  C57  1  0.92179000  0.86704000  0.94681000  1.0
  N  N58  1  0.80571000  0.54006000  0.93587000  1.0
  N  N59  1  0.78167000  0.95996000  0.56410000  1.0
  N  N60  1  0.19429000  0.45994000  0.06413000  1.0
  N  N61  1  0.21833000  0.04003000  0.43590000  1.0
  N  N62  1  0.80306000  0.55931000  0.18957000  1.0
  N  N63  1  0.05177000  0.94061000  0.31037000  1.0
  N  N64  1  0.19694000  0.44069000  0.81043000  1.0
  N  N65  1  0.94822000  0.05940000  0.68963000  1.0
  N  N66  1  0.68840000  0.49693000  0.40056000  1.0
  N  N67  1  0.08575000  0.00295000  0.09935000  1.0
  N  N68  1  0.31160000  0.50307000  0.59944000  1.0
  N  N69  1  0.91424000  0.99706000  0.90065000  1.0
  N  N70  1  0.82114000  0.25659000  0.49991000  1.0
  N  N71  1  0.07761000  0.24336000  0.00015000  1.0
  N  N72  1  0.17886000  0.74341000  0.50009000  1.0
  N  N73  1  0.92239000  0.75664000  0.99985000  1.0
