# generated using pymatgen
data_Cd3P2H48C42Se2(NCl)6
_symmetry_space_group_name_H-M   'P 1'
_cell_length_a   9.11043000
_cell_length_b   11.18860000
_cell_length_c   13.30408097
_cell_angle_alpha   101.01215571
_cell_angle_beta   109.73118667
_cell_angle_gamma   93.93590000
_symmetry_Int_Tables_number   1
_chemical_formula_structural   Cd3P2H48C42Se2(NCl)6
_chemical_formula_sum   'Cd3 P2 H48 C42 Se2 N6 Cl6'
_cell_volume   1239.92255467
_cell_formula_units_Z   1
loop_
 _symmetry_equiv_pos_site_id
 _symmetry_equiv_pos_as_xyz
  1  'x, y, z'
loop_
 _atom_site_type_symbol
 _atom_site_label
 _atom_site_symmetry_multiplicity
 _atom_site_fract_x
 _atom_site_fract_y
 _atom_site_fract_z
 _atom_site_occupancy
  Cd  Cd0  1  0.99115000  0.12038000  0.28993000  1.0
  Cd  Cd1  1  0.00885000  0.87962000  0.71007000  1.0
  Cd  Cd2  1  0.00000000  0.00000000  0.00000000  1.0
  P  P3  1  0.62077000  0.98519000  0.32366000  1.0
  P  P4  1  0.37923000  0.01481000  0.67634000  1.0
  H  H5  1  0.89249000  0.37818000  0.26215000  1.0
  H  H6  1  0.10751000  0.62182000  0.73785000  1.0
  H  H7  1  0.78841000  0.56154000  0.34150000  1.0
  H  H8  1  0.21159000  0.43846000  0.65850000  1.0
  H  H9  1  0.71637000  0.55674000  0.50602000  1.0
  H  H10  1  0.28362000  0.44327000  0.49398000  1.0
  H  H11  1  0.74320000  0.36643000  0.58175000  1.0
  H  H12  1  0.25680000  0.63357000  0.41825000  1.0
  H  H13  1  0.88890000  0.18553000  0.59634000  1.0
  H  H14  1  0.11109000  0.81447000  0.40366000  1.0
  H  H15  1  0.93936000  0.11083000  0.48641000  1.0
  H  H16  1  0.06064000  0.88917000  0.51359000  1.0
  H  H17  1  0.59661000  0.11737000  0.47842000  1.0
  H  H18  1  0.40339000  0.88262000  0.52158000  1.0
  H  H19  1  0.71063000  0.99807000  0.51514000  1.0
  H  H20  1  0.28937000  0.00193000  0.48486000  1.0
  H  H21  1  0.55640000  0.81062000  0.38433000  1.0
  H  H22  1  0.44360000  0.18938000  0.61567000  1.0
  H  H23  1  0.38750000  0.88622000  0.33341000  1.0
  H  H24  1  0.61250000  0.11378000  0.66659000  1.0
  H  H25  1  0.35536000  0.79226000  0.14183000  1.0
  H  H26  1  0.64464000  0.20774000  0.85817000  1.0
  H  H27  1  0.53844000  0.73489000  0.18626000  1.0
  H  H28  1  0.46156000  0.26511000  0.81374000  1.0
  H  H29  1  0.45331000  0.40863000  0.33248000  1.0
  H  H30  1  0.54669000  0.59137000  0.66752000  1.0
  H  H31  1  0.16534000  0.33862000  0.24867000  1.0
  H  H32  1  0.83466000  0.66138000  0.75133000  1.0
  H  H33  1  0.99149000  0.47008000  0.14019000  1.0
  H  H34  1  0.00851000  0.52992000  0.85981000  1.0
  H  H35  1  0.12029000  0.66977000  0.12434000  1.0
  H  H36  1  0.87970000  0.33023000  0.87566000  1.0
  H  H37  1  0.41261000  0.10570000  0.27894000  1.0
  H  H38  1  0.58739000  0.89431000  0.72106000  1.0
  H  H39  1  0.58899000  0.17507000  0.27143000  1.0
  H  H40  1  0.41102000  0.82493000  0.72857000  1.0
  H  H41  1  0.53885000  0.01233000  0.09489000  1.0
  H  H42  1  0.46115000  0.98767000  0.90511000  1.0
  H  H43  1  0.34780000  0.96696000  0.09520000  1.0
  H  H44  1  0.65220000  0.03304000  0.90480000  1.0
  H  H45  1  0.05401000  0.25546000  0.96735000  1.0
  H  H46  1  0.94599000  0.74454000  0.03265000  1.0
  H  H47  1  0.23520000  0.42699000  0.95829000  1.0
  H  H48  1  0.76480000  0.57301000  0.04171000  1.0
  H  H49  1  0.52799000  0.41322000  0.02346000  1.0
  H  H50  1  0.47201000  0.58678000  0.97654000  1.0
  H  H51  1  0.61887000  0.23077000  0.09562000  1.0
  H  H52  1  0.38113000  0.76923000  0.90438000  1.0
  C  C53  1  0.85857000  0.38045000  0.33359000  1.0
  C  C54  1  0.14143000  0.61955000  0.66641000  1.0
  C  C55  1  0.80173000  0.48175000  0.37780000  1.0
  C  C56  1  0.19827000  0.51825000  0.62220000  1.0
  C  C57  1  0.75954000  0.47788000  0.46881000  1.0
  C  C58  1  0.24046000  0.52212000  0.53119000  1.0
  C  C59  1  0.83334000  0.27378000  0.46232000  1.0
  C  C60  1  0.16666000  0.72622000  0.53768000  1.0
  C  C61  1  0.77522000  0.37272000  0.51086000  1.0
  C  C62  1  0.22478000  0.62728000  0.48914000  1.0
  C  C63  1  0.84808000  0.15909000  0.50630000  1.0
  C  C64  1  0.15193000  0.84091000  0.49371000  1.0
  C  C65  1  0.69371000  0.06953000  0.46713000  1.0
  C  C66  1  0.30629000  0.93047000  0.53287000  1.0
  C  C67  1  0.48931000  0.85172000  0.31688000  1.0
  C  C68  1  0.51069000  0.14828000  0.68312000  1.0
  C  C69  1  0.43498000  0.75596000  0.20757000  1.0
  C  C70  1  0.56502000  0.24404000  0.79243000  1.0
  C  C71  1  0.35319000  0.63918000  0.21682000  1.0
  C  C72  1  0.64681000  0.36082000  0.78318000  1.0
  C  C73  1  0.37587000  0.46426000  0.28490000  1.0
  C  C74  1  0.62414000  0.53574000  0.71510000  1.0
  C  C75  1  0.21384000  0.42517000  0.23862000  1.0
  C  C76  1  0.78616000  0.57483000  0.76138000  1.0
  C  C77  1  0.11855000  0.49871000  0.17901000  1.0
  C  C78  1  0.88145000  0.50128000  0.82099000  1.0
  C  C79  1  0.18909000  0.60790000  0.16858000  1.0
  C  C80  1  0.81090000  0.39210000  0.83141000  1.0
  C  C81  1  0.50822000  0.08831000  0.24701000  1.0
  C  C82  1  0.49178000  0.91169000  0.75299000  1.0
  C  C83  1  0.44348000  0.04391000  0.12168000  1.0
  C  C84  1  0.55651000  0.95609000  0.87831000  1.0
  C  C85  1  0.38471000  0.14872000  0.07083000  1.0
  C  C86  1  0.61529000  0.85128000  0.92917000  1.0
  C  C87  1  0.18060000  0.25430000  0.99530000  1.0
  C  C88  1  0.81940000  0.74570000  0.00470000  1.0
  C  C89  1  0.28228000  0.34936000  0.99006000  1.0
  C  C90  1  0.71772000  0.65064000  0.00994000  1.0
  C  C91  1  0.44301000  0.34189000  0.02659000  1.0
  C  C92  1  0.55699000  0.65811000  0.97341000  1.0
  C  C93  1  0.49425000  0.24077000  0.06752000  1.0
  C  C94  1  0.50575000  0.75923000  0.93248000  1.0
  Se  Se95  1  0.80294000  0.91733000  0.26639000  1.0
  Se  Se96  1  0.19706000  0.08267000  0.73361000  1.0
  N  N97  1  0.87449000  0.27869000  0.37444000  1.0
  N  N98  1  0.12551000  0.72131000  0.62556000  1.0
  N  N99  1  0.44560000  0.56836000  0.27456000  1.0
  N  N100  1  0.55440000  0.43164000  0.72544000  1.0
  N  N101  1  0.22882000  0.15539000  0.03371000  1.0
  N  N102  1  0.77118000  0.84461000  0.96629000  1.0
  Cl  Cl103  1  0.26439000  0.20492000  0.41868000  1.0
  Cl  Cl104  1  0.73561000  0.79508000  0.58132000  1.0
  Cl  Cl105  1  0.12211000  0.94020000  0.18765000  1.0
  Cl  Cl106  1  0.87789000  0.05980000  0.81235000  1.0
  Cl  Cl107  1  0.88868000  0.18378000  0.10307000  1.0
  Cl  Cl108  1  0.11132000  0.81622000  0.89693000  1.0
