# generated using pymatgen
data_CdH14C18(NO)4
_symmetry_space_group_name_H-M   'P 1'
_cell_length_a   7.92559000
_cell_length_b   10.66670000
_cell_length_c   11.55660000
_cell_angle_alpha   71.04170000
_cell_angle_beta   82.20130000
_cell_angle_gamma   69.19060000
_symmetry_Int_Tables_number   1
_chemical_formula_structural   CdH14C18(NO)4
_chemical_formula_sum   'Cd2 H28 C36 N8 O8'
_cell_volume   863.49502880
_cell_formula_units_Z   2
loop_
 _symmetry_equiv_pos_site_id
 _symmetry_equiv_pos_as_xyz
  1  'x, y, z'
loop_
 _atom_site_type_symbol
 _atom_site_label
 _atom_site_symmetry_multiplicity
 _atom_site_fract_x
 _atom_site_fract_y
 _atom_site_fract_z
 _atom_site_occupancy
  Cd  Cd0  1  0.19083000  0.45118000  0.37390000  1.0
  Cd  Cd1  1  0.80917000  0.54882000  0.62610000  1.0
  H  H2  1  0.29108000  0.12557000  0.49285000  1.0
  H  H3  1  0.70892000  0.87443000  0.50715000  1.0
  H  H4  1  0.47054000  0.92740000  0.66290000  1.0
  H  H5  1  0.52946000  0.07260000  0.33710000  1.0
  H  H6  1  0.55857000  0.23910000  0.78920000  1.0
  H  H7  1  0.44144000  0.76090000  0.21080000  1.0
  H  H8  1  0.38107000  0.42052000  0.61648000  1.0
  H  H9  1  0.61893000  0.57948000  0.38352000  1.0
  H  H10  1  0.64830000  0.84309000  0.83432000  1.0
  H  H11  1  0.35171000  0.15691000  0.16568000  1.0
  H  H12  1  0.70794000  0.06538000  0.92743000  1.0
  H  H13  1  0.29206000  0.93462000  0.07257000  1.0
  H  H14  1  0.86234000  0.98531000  0.11156000  1.0
  H  H15  1  0.13766000  0.01469000  0.88844000  1.0
  H  H16  1  0.03445000  0.79031000  0.28361000  1.0
  H  H17  1  0.96555000  0.20969000  0.71638000  1.0
  H  H18  1  0.99641000  0.48893000  0.14554000  1.0
  H  H19  1  0.00359000  0.51107000  0.85445000  1.0
  H  H20  1  0.81945000  0.67142000  0.96642000  1.0
  H  H21  1  0.18055000  0.32858000  0.03358000  1.0
  H  H22  1  0.65802000  0.50647000  0.07874000  1.0
  H  H23  1  0.34198000  0.49353000  0.92126000  1.0
  H  H24  1  0.78626000  0.34997000  0.18545000  1.0
  H  H25  1  0.21375000  0.65003000  0.81455000  1.0
  H  H26  1  0.80588000  0.15048000  0.56086000  1.0
  H  H27  1  0.19411000  0.84952000  0.43914000  1.0
  H  H28  1  0.66180000  0.27936000  0.44189000  1.0
  H  H29  1  0.33819000  0.72064000  0.55811000  1.0
  C  C30  1  0.35497000  0.14511000  0.55997000  1.0
  C  C31  1  0.64503000  0.85489000  0.44003000  1.0
  C  C32  1  0.45482000  0.03573000  0.65407000  1.0
  C  C33  1  0.54517000  0.96427000  0.34593000  1.0
  C  C34  1  0.53396000  0.06434000  0.74009000  1.0
  C  C35  1  0.46603000  0.93565000  0.25992000  1.0
  C  C36  1  0.50409000  0.20698000  0.72609000  1.0
  C  C37  1  0.49591000  0.79302000  0.27391000  1.0
  C  C38  1  0.40316000  0.31021000  0.62920000  1.0
  C  C39  1  0.59683000  0.68979000  0.37080000  1.0
  C  C40  1  0.63941000  0.94690000  0.83673000  1.0
  C  C41  1  0.36059000  0.05310000  0.16327000  1.0
  C  C42  1  0.72079000  0.96091000  0.92500000  1.0
  C  C43  1  0.27921000  0.03909000  0.07500000  1.0
  C  C44  1  0.82490000  0.84570000  0.02343000  1.0
  C  C45  1  0.17510000  0.15430000  0.97657000  1.0
  C  C46  1  0.88921000  0.87673000  0.11480000  1.0
  C  C47  1  0.11079000  0.12327000  0.88520000  1.0
  C  C48  1  0.98555000  0.76843000  0.21119000  1.0
  C  C49  1  0.01445000  0.23157000  0.78881000  1.0
  C  C50  1  0.96271000  0.60076000  0.13326000  1.0
  C  C51  1  0.03729000  0.39924000  0.86674000  1.0
  C  C52  1  0.86524000  0.70251000  0.03436000  1.0
  C  C53  1  0.13475000  0.29749000  0.96564000  1.0
  C  C54  1  0.49477000  0.40839000  0.21672000  1.0
  C  C55  1  0.50524000  0.59161000  0.78328000  1.0
  C  C56  1  0.66321000  0.39859000  0.13098000  1.0
  C  C57  1  0.33679000  0.60141000  0.86902000  1.0
  C  C58  1  0.67084000  0.32115000  0.04703000  1.0
  C  C59  1  0.32916000  0.67885000  0.95297000  1.0
  C  C60  1  0.91397000  0.30965000  0.44396000  1.0
  C  C61  1  0.08603000  0.69035000  0.55604000  1.0
  C  C62  1  0.80249000  0.21181000  0.46376000  1.0
  C  C63  1  0.19751000  0.78819000  0.53624000  1.0
  C  C64  1  0.86544000  0.11776000  0.38884000  1.0
  C  C65  1  0.13456000  0.88224000  0.61117000  1.0
  N  N66  1  0.33009000  0.28072000  0.54630000  1.0
  N  N67  1  0.66991000  0.71928000  0.45370000  1.0
  N  N68  1  0.02132000  0.63237000  0.22116000  1.0
  N  N69  1  0.97868000  0.36763000  0.77884000  1.0
  N  N70  1  0.66919000  0.26064000  0.97975000  1.0
  N  N71  1  0.33081000  0.73937000  0.02025000  1.0
  N  N72  1  0.91704000  0.04247000  0.32808000  1.0
  N  N73  1  0.08297000  0.95753000  0.67192000  1.0
  O  O74  1  0.37800000  0.36006000  0.20157000  1.0
  O  O75  1  0.62200000  0.63994000  0.79842000  1.0
  O  O76  1  0.48560000  0.46698000  0.29839000  1.0
  O  O77  1  0.51440000  0.53302000  0.70161000  1.0
  O  O78  1  0.87865000  0.38298000  0.51614000  1.0
  O  O79  1  0.12135000  0.61702000  0.48386000  1.0
  O  O80  1  0.03161000  0.30960000  0.35777000  1.0
  O  O81  1  0.96839000  0.69040000  0.64223000  1.0
