# generated using pymatgen
data_CuH10C13(NO3)2
_symmetry_space_group_name_H-M   'P 1'
_cell_length_a   8.79383000
_cell_length_b   9.65065000
_cell_length_c   9.85856000
_cell_angle_alpha   100.56500000
_cell_angle_beta   115.22400000
_cell_angle_gamma   102.50900000
_symmetry_Int_Tables_number   1
_chemical_formula_structural   CuH10C13(NO3)2
_chemical_formula_sum   'Cu2 H20 C26 N4 O12'
_cell_volume   702.00139438
_cell_formula_units_Z   2
loop_
 _symmetry_equiv_pos_site_id
 _symmetry_equiv_pos_as_xyz
  1  'x, y, z'
loop_
 _atom_site_type_symbol
 _atom_site_label
 _atom_site_symmetry_multiplicity
 _atom_site_fract_x
 _atom_site_fract_y
 _atom_site_fract_z
 _atom_site_occupancy
  Cu  Cu0  1  0.16919000  0.24563000  0.35957000  1.0
  Cu  Cu1  1  0.83080000  0.75437000  0.64042000  1.0
  H  H2  1  0.31567000  0.98650000  0.93833000  1.0
  H  H3  1  0.68433000  0.01349000  0.06167000  1.0
  H  H4  1  0.53053000  0.18069000  0.90399000  1.0
  H  H5  1  0.46948000  0.81929000  0.09601000  1.0
  H  H6  1  0.65705000  0.44218000  0.08627000  1.0
  H  H7  1  0.34297000  0.55780000  0.91374000  1.0
  H  H8  1  0.97221000  0.39753000  0.45800000  1.0
  H  H9  1  0.02782000  0.60247000  0.54203000  1.0
  H  H10  1  0.73521000  0.34119000  0.53399000  1.0
  H  H11  1  0.26483000  0.65882000  0.46605000  1.0
  H  H12  1  0.67436000  0.87283000  0.37467000  1.0
  H  H13  1  0.32562000  0.12718000  0.62531000  1.0
  H  H14  1  0.91728000  0.95231000  0.30891000  1.0
  H  H15  1  0.08269000  0.04770000  0.69106000  1.0
  H  H16  1  0.53141000  0.16781000  0.56956000  1.0
  H  H17  1  0.46860000  0.83223000  0.43046000  1.0
  H  H18  1  0.11379000  0.43217000  0.15884000  1.0
  H  H19  1  0.88621000  0.56782000  0.84114000  1.0
  H  H20  1  0.95423000  0.27971000  0.06754000  1.0
  H  H21  1  0.04577000  0.72029000  0.93245000  1.0
  C  C22  1  0.20609000  0.01442000  0.14967000  1.0
  C  C23  1  0.79389000  0.98558000  0.85031000  1.0
  C  C24  1  0.33410000  0.13593000  0.13421000  1.0
  C  C25  1  0.66589000  0.86407000  0.86579000  1.0
  C  C26  1  0.37704000  0.10168000  0.01453000  1.0
  C  C27  1  0.62298000  0.89830000  0.98548000  1.0
  C  C28  1  0.49378000  0.20891000  0.99527000  1.0
  C  C29  1  0.50622000  0.79108000  0.00473000  1.0
  C  C30  1  0.56535000  0.35457000  0.09696000  1.0
  C  C31  1  0.43467000  0.64541000  0.90305000  1.0
  C  C32  1  0.52077000  0.38901000  0.21504000  1.0
  C  C33  1  0.47924000  0.61097000  0.78496000  1.0
  C  C34  1  0.58677000  0.54482000  0.32870000  1.0
  C  C35  1  0.41324000  0.45517000  0.67129000  1.0
  C  C36  1  0.90357000  0.28378000  0.44400000  1.0
  C  C37  1  0.09645000  0.71623000  0.55602000  1.0
  C  C38  1  0.77222000  0.25089000  0.48653000  1.0
  C  C39  1  0.22780000  0.74914000  0.51350000  1.0
  C  C40  1  0.68602000  0.10144000  0.46509000  1.0
  C  C41  1  0.31398000  0.89857000  0.53492000  1.0
  C  C42  1  0.73735000  0.99128000  0.39724000  1.0
  C  C43  1  0.26264000  0.00874000  0.60276000  1.0
  C  C44  1  0.87202000  0.03351000  0.35997000  1.0
  C  C45  1  0.12796000  0.96650000  0.64002000  1.0
  C  C46  1  0.55005000  0.06958000  0.51210000  1.0
  C  C47  1  0.44993000  0.93041000  0.48791000  1.0
  N  N48  1  0.41011000  0.27988000  0.23371000  1.0
  N  N49  1  0.58989000  0.72011000  0.76629000  1.0
  N  N50  1  0.95624000  0.17786000  0.38481000  1.0
  N  N51  1  0.04376000  0.82215000  0.61521000  1.0
  O  O52  1  0.11689000  0.04926000  0.21751000  1.0
  O  O53  1  0.88310000  0.95074000  0.78248000  1.0
  O  O54  1  0.19071000  0.88333000  0.08796000  1.0
  O  O55  1  0.80926000  0.11667000  0.91203000  1.0
  O  O56  1  0.39238000  0.32209000  0.36072000  1.0
  O  O57  1  0.60761000  0.67791000  0.63928000  1.0
  O  O58  1  0.49869000  0.62849000  0.28562000  1.0
  O  O59  1  0.50132000  0.37151000  0.71437000  1.0
  O  O60  1  0.73310000  0.57222000  0.45546000  1.0
  O  O61  1  0.26689000  0.42777000  0.54454000  1.0
  O  O62  1  0.02608000  0.36109000  0.16993000  1.0
  O  O63  1  0.97392000  0.63890000  0.83005000  1.0
