# generated using pymatgen
data_CdH8C12(SN4)2
_symmetry_space_group_name_H-M   'P 1'
_cell_length_a   5.53180000
_cell_length_b   7.19195000
_cell_length_c   9.51036000
_cell_angle_alpha   94.40310000
_cell_angle_beta   104.18300000
_cell_angle_gamma   95.38010000
_symmetry_Int_Tables_number   1
_chemical_formula_structural   CdH8C12(SN4)2
_chemical_formula_sum   'Cd1 H8 C12 S2 N8'
_cell_volume   363.25968713
_cell_formula_units_Z   1
loop_
 _symmetry_equiv_pos_site_id
 _symmetry_equiv_pos_as_xyz
  1  'x, y, z'
loop_
 _atom_site_type_symbol
 _atom_site_label
 _atom_site_symmetry_multiplicity
 _atom_site_fract_x
 _atom_site_fract_y
 _atom_site_fract_z
 _atom_site_occupancy
  Cd  Cd0  1  0.00000000  0.49999000  0.50000000  1.0
  H  H1  1  0.82411000  0.73399000  0.95934000  1.0
  H  H2  1  0.17589000  0.26603000  0.04067000  1.0
  H  H3  1  0.43962000  0.70656000  0.32031000  1.0
  H  H4  1  0.56037000  0.29342000  0.67969000  1.0
  H  H5  1  0.59644000  0.98687000  0.26808000  1.0
  H  H6  1  0.40357000  0.01313000  0.73192000  1.0
  H  H7  1  0.13779000  0.79800000  0.83281000  1.0
  H  H8  1  0.86221000  0.20200000  0.16719000  1.0
  C  C9  1  0.42997000  0.27240000  0.40829000  1.0
  C  C10  1  0.57001000  0.72759000  0.59171000  1.0
  C  C11  1  0.93477000  0.70108000  0.06339000  1.0
  C  C12  1  0.06522000  0.29894000  0.93661000  1.0
  C  C13  1  0.25098000  0.68982000  0.24987000  1.0
  C  C14  1  0.74902000  0.31017000  0.75012000  1.0
  C  C15  1  0.34699000  0.87943000  0.05762000  1.0
  C  C16  1  0.65301000  0.12057000  0.94237000  1.0
  C  C17  1  0.55325000  0.99157000  0.15048000  1.0
  C  C18  1  0.44676000  0.00843000  0.84953000  1.0
  C  C19  1  0.29422000  0.88711000  0.90703000  1.0
  C  C20  1  0.70579000  0.11290000  0.09297000  1.0
  S  S21  1  0.18214000  0.15685000  0.43726000  1.0
  S  S22  1  0.81786000  0.84315000  0.56274000  1.0
  N  N23  1  0.60958000  0.35784000  0.38778000  1.0
  N  N24  1  0.39042000  0.64215000  0.61221000  1.0
  N  N25  1  0.04985000  0.59717000  0.27405000  1.0
  N  N26  1  0.95014000  0.40282000  0.72594000  1.0
  N  N27  1  0.84811000  0.60393000  0.15594000  1.0
  N  N28  1  0.15188000  0.39608000  0.84405000  1.0
  N  N29  1  0.18770000  0.75955000  0.11783000  1.0
  N  N30  1  0.81230000  0.24045000  0.88217000  1.0
