# generated using pymatgen
data_Ag3PH7C8S2N(O3F2)3
_symmetry_space_group_name_H-M   'P 1'
_cell_length_a   9.33430000
_cell_length_b   13.07320000
_cell_length_c   16.24400000
_cell_angle_alpha   108.91800000
_cell_angle_beta   90.00000000
_cell_angle_gamma   90.00000000
_symmetry_Int_Tables_number   1
_chemical_formula_structural   Ag3PH7C8S2N(O3F2)3
_chemical_formula_sum   'Ag12 P4 H28 C32 S8 N4 O36 F24'
_cell_volume   1875.16818302
_cell_formula_units_Z   4
loop_
 _symmetry_equiv_pos_site_id
 _symmetry_equiv_pos_as_xyz
  1  'x, y, z'
loop_
 _atom_site_type_symbol
 _atom_site_label
 _atom_site_symmetry_multiplicity
 _atom_site_fract_x
 _atom_site_fract_y
 _atom_site_fract_z
 _atom_site_occupancy
  Ag  Ag0  1  0.65502000  0.46967000  0.80903000  1.0
  Ag  Ag1  1  0.15502000  0.53033000  0.69097000  1.0
  Ag  Ag2  1  0.34498000  0.53033000  0.19097000  1.0
  Ag  Ag3  1  0.84498000  0.46967000  0.30903000  1.0
  Ag  Ag4  1  0.12767000  0.56262000  0.02163000  1.0
  Ag  Ag5  1  0.62767000  0.43738000  0.47837000  1.0
  Ag  Ag6  1  0.87233000  0.43737000  0.97837000  1.0
  Ag  Ag7  1  0.37233000  0.56262000  0.52163000  1.0
  Ag  Ag8  1  0.29561000  0.49170000  0.84196000  1.0
  Ag  Ag9  1  0.79561000  0.50830000  0.65804000  1.0
  Ag  Ag10  1  0.70439000  0.50830000  0.15804000  1.0
  Ag  Ag11  1  0.20438000  0.49170000  0.34196000  1.0
  P  P12  1  0.95514000  0.59788000  0.85973000  1.0
  P  P13  1  0.45515000  0.40212000  0.64027000  1.0
  P  P14  1  0.04485000  0.40212000  0.14027000  1.0
  P  P15  1  0.54485000  0.59788000  0.35972000  1.0
  H  H16  1  0.81480000  0.84494000  0.81478000  1.0
  H  H17  1  0.31479000  0.15506000  0.68522000  1.0
  H  H18  1  0.18521000  0.15507000  0.18522000  1.0
  H  H19  1  0.68521000  0.84494000  0.31478000  1.0
  H  H20  1  0.75815000  0.72301000  0.88951000  1.0
  H  H21  1  0.25815000  0.27699000  0.61049000  1.0
  H  H22  1  0.24185000  0.27699000  0.11049000  1.0
  H  H23  1  0.74185000  0.72301000  0.38951000  1.0
  H  H24  1  0.85816000  0.73032000  0.98546000  1.0
  H  H25  1  0.35816000  0.26968000  0.51454000  1.0
  H  H26  1  0.14184000  0.26968000  0.01454000  1.0
  H  H27  1  0.64184000  0.73032000  0.48546000  1.0
  H  H28  1  0.11459000  0.81357000  0.99966000  1.0
  H  H29  1  0.61459000  0.18643000  0.50034000  1.0
  H  H30  1  0.88541000  0.18643000  0.00034000  1.0
  H  H31  1  0.38541000  0.81357000  0.49966000  1.0
  H  H32  1  0.25584000  0.96446000  0.97614000  1.0
  H  H33  1  0.75584000  0.03553000  0.52386000  1.0
  H  H34  1  0.74416000  0.03553000  0.02386000  1.0
  H  H35  1  0.24416000  0.96446000  0.47614000  1.0
  H  H36  1  0.16276000  0.05470000  0.87038000  1.0
  H  H37  1  0.66275000  0.94529000  0.62962000  1.0
  H  H38  1  0.83725000  0.94530000  0.12963000  1.0
  H  H39  1  0.33725000  0.05471000  0.37037000  1.0
  H  H40  1  0.93197000  0.98561000  0.79257000  1.0
  H  H41  1  0.43196000  0.01439000  0.70743000  1.0
  H  H42  1  0.06804000  0.01439000  0.20744000  1.0
  H  H43  1  0.56804000  0.98561000  0.29256000  1.0
  C  C44  1  0.86614000  0.72658000  0.91700000  1.0
  C  C45  1  0.36614000  0.27342000  0.58300000  1.0
  C  C46  1  0.13386000  0.27342000  0.08300000  1.0
  C  C47  1  0.63386000  0.72658000  0.41700000  1.0
  C  C48  1  0.95091000  0.81874000  0.90890000  1.0
  C  C49  1  0.45091000  0.18126000  0.59110000  1.0
  C  C50  1  0.04909000  0.18126000  0.09110000  1.0
  C  C51  1  0.54909000  0.81874000  0.40890000  1.0
  C  C52  1  0.07822000  0.85420000  0.95468000  1.0
  C  C53  1  0.57822000  0.14580000  0.54532000  1.0
  C  C54  1  0.92178000  0.14580000  0.04532000  1.0
  C  C55  1  0.42178000  0.85420000  0.45468000  1.0
  C  C56  1  0.15578000  0.93817000  0.94124000  1.0
  C  C57  1  0.65578000  0.06183000  0.55876000  1.0
  C  C58  1  0.84422000  0.06183000  0.05876000  1.0
  C  C59  1  0.34422000  0.93817000  0.44124000  1.0
  C  C60  1  0.10579000  0.98867000  0.88286000  1.0
  C  C61  1  0.60578000  0.01132000  0.61714000  1.0
  C  C62  1  0.89421000  0.01133000  0.11714000  1.0
  C  C63  1  0.39421000  0.98868000  0.38286000  1.0
  C  C64  1  0.97958000  0.95198000  0.83905000  1.0
  C  C65  1  0.47957000  0.04802000  0.66095000  1.0
  C  C66  1  0.02043000  0.04802000  0.16095000  1.0
  C  C67  1  0.52043000  0.95198000  0.33905000  1.0
  C  C68  1  0.50118000  0.80538000  0.06651000  1.0
  C  C69  1  0.00118000  0.19462000  0.43349000  1.0
  C  C70  1  0.49882000  0.19462000  0.93349000  1.0
  C  C71  1  0.99882000  0.80538000  0.56651000  1.0
  C  C72  1  0.92521000  0.18992000  0.71750000  1.0
  C  C73  1  0.42521000  0.81009000  0.78251000  1.0
  C  C74  1  0.07479000  0.81008000  0.28250000  1.0
  C  C75  1  0.57479000  0.18992000  0.21749000  1.0
  S  S76  1  0.50523000  0.65417000  0.02873000  1.0
  S  S77  1  0.00523000  0.34583000  0.47127000  1.0
  S  S78  1  0.49477000  0.34583000  0.97126000  1.0
  S  S79  1  0.99477000  0.65417000  0.52874000  1.0
  S  S80  1  0.08314000  0.24240000  0.78952000  1.0
  S  S81  1  0.58314000  0.75760000  0.71048000  1.0
  S  S82  1  0.91686000  0.75760000  0.21048000  1.0
  S  S83  1  0.41686000  0.24240000  0.28952000  1.0
  N  N84  1  0.90741000  0.86918000  0.85241000  1.0
  N  N85  1  0.40741000  0.13082000  0.64759000  1.0
  N  N86  1  0.09260000  0.13082000  0.14759000  1.0
  N  N87  1  0.59259000  0.86918000  0.35241000  1.0
  O  O88  1  0.10455000  0.60374000  0.90160000  1.0
  O  O89  1  0.60455000  0.39626000  0.59840000  1.0
  O  O90  1  0.89545000  0.39626000  0.09840000  1.0
  O  O91  1  0.39545000  0.60374000  0.40160000  1.0
  O  O92  1  0.85927000  0.50858000  0.87348000  1.0
  O  O93  1  0.35927000  0.49143000  0.62652000  1.0
  O  O94  1  0.14073000  0.49143000  0.12652000  1.0
  O  O95  1  0.64074000  0.50858000  0.37348000  1.0
  O  O96  1  0.96351000  0.59236000  0.76361000  1.0
  O  O97  1  0.46351000  0.40764000  0.73639000  1.0
  O  O98  1  0.03649000  0.40764000  0.23639000  1.0
  O  O99  1  0.53649000  0.59236000  0.26361000  1.0
  O  O100  1  0.37887000  0.62963000  0.07258000  1.0
  O  O101  1  0.87887000  0.37037000  0.42742000  1.0
  O  O102  1  0.62113000  0.37037000  0.92742000  1.0
  O  O103  1  0.12113000  0.62963000  0.57258000  1.0
  O  O104  1  0.49234000  0.62452000  0.93405000  1.0
  O  O105  1  0.99234000  0.37548000  0.56595000  1.0
  O  O106  1  0.50766000  0.37548000  0.06595000  1.0
  O  O107  1  0.00766000  0.62452000  0.43405000  1.0
  O  O108  1  0.64245000  0.62908000  0.06057000  1.0
  O  O109  1  0.14245000  0.37092000  0.43943000  1.0
  O  O110  1  0.35755000  0.37092000  0.93943000  1.0
  O  O111  1  0.85755000  0.62908000  0.56057000  1.0
  O  O112  1  0.12716000  0.33524000  0.76456000  1.0
  O  O113  1  0.62717000  0.66476000  0.73544000  1.0
  O  O114  1  0.87283000  0.66476000  0.23544000  1.0
  O  O115  1  0.37283000  0.33524000  0.26456000  1.0
  O  O116  1  0.02690000  0.26443000  0.87725000  1.0
  O  O117  1  0.52690000  0.73557000  0.62275000  1.0
  O  O118  1  0.97310000  0.73557000  0.12275000  1.0
  O  O119  1  0.47310000  0.26443000  0.37725000  1.0
  O  O120  1  0.18308000  0.15046000  0.76189000  1.0
  O  O121  1  0.68308000  0.84954000  0.73811000  1.0
  O  O122  1  0.81692000  0.84954000  0.23811000  1.0
  O  O123  1  0.31692000  0.15046000  0.26189000  1.0
  F  F124  1  0.37738000  0.84200000  0.04190000  1.0
  F  F125  1  0.87737000  0.15800000  0.45811000  1.0
  F  F126  1  0.62262000  0.15800000  0.95810000  1.0
  F  F127  1  0.12262000  0.84200000  0.54190000  1.0
  F  F128  1  0.61208000  0.84759000  0.03356000  1.0
  F  F129  1  0.11207000  0.15241000  0.46644000  1.0
  F  F130  1  0.38792000  0.15241000  0.96644000  1.0
  F  F131  1  0.88792000  0.84759000  0.53356000  1.0
  F  F132  1  0.50897000  0.84520000  0.15443000  1.0
  F  F133  1  0.00896000  0.15479000  0.34557000  1.0
  F  F134  1  0.49103000  0.15479000  0.84556000  1.0
  F  F135  1  0.99104000  0.84521000  0.65444000  1.0
  F  F136  1  0.85684000  0.11077000  0.74040000  1.0
  F  F137  1  0.35684000  0.88923000  0.75960000  1.0
  F  F138  1  0.14316000  0.88923000  0.25960000  1.0
  F  F139  1  0.64316000  0.11077000  0.24039000  1.0
  F  F140  1  0.96810000  0.14630000  0.63336000  1.0
  F  F141  1  0.46810000  0.85370000  0.86665000  1.0
  F  F142  1  0.03190000  0.85370000  0.36665000  1.0
  F  F143  1  0.53190000  0.14631000  0.13335000  1.0
  F  F144  1  0.82854000  0.26849000  0.72202000  1.0
  F  F145  1  0.32854000  0.73151000  0.77798000  1.0
  F  F146  1  0.17146000  0.73152000  0.27798000  1.0
  F  F147  1  0.67146000  0.26849000  0.22202000  1.0
