# generated using pymatgen
data_CdH21C26BrN3O4
_symmetry_space_group_name_H-M   'P 1'
_cell_length_a   10.30350000
_cell_length_b   10.84690000
_cell_length_c   13.60064335
_cell_angle_alpha   102.68198203
_cell_angle_beta   106.37794173
_cell_angle_gamma   108.84700000
_symmetry_Int_Tables_number   1
_chemical_formula_structural   CdH21C26BrN3O4
_chemical_formula_sum   'Cd2 H42 C52 Br2 N6 O8'
_cell_volume   1296.87608180
_cell_formula_units_Z   2
loop_
 _symmetry_equiv_pos_site_id
 _symmetry_equiv_pos_as_xyz
  1  'x, y, z'
loop_
 _atom_site_type_symbol
 _atom_site_label
 _atom_site_symmetry_multiplicity
 _atom_site_fract_x
 _atom_site_fract_y
 _atom_site_fract_z
 _atom_site_occupancy
  Cd  Cd0  1  0.19050000  0.06825000  0.32134000  1.0
  Cd  Cd1  1  0.80950000  0.93175000  0.67866000  1.0
  H  H2  1  0.68651000  0.06033000  0.31498000  1.0
  H  H3  1  0.31349000  0.93967000  0.68502000  1.0
  H  H4  1  0.95851000  0.35159000  0.20965000  1.0
  H  H5  1  0.04149000  0.64841000  0.79035000  1.0
  H  H6  1  0.53001000  0.34158000  0.19454000  1.0
  H  H7  1  0.46999000  0.65842000  0.80546000  1.0
  H  H8  1  0.34188000  0.38613000  0.46643000  1.0
  H  H9  1  0.65813000  0.61387000  0.53357000  1.0
  H  H10  1  0.51876000  0.55412000  0.65350000  1.0
  H  H11  1  0.48124000  0.44588000  0.34650000  1.0
  H  H12  1  0.50232000  0.19868000  0.75343000  1.0
  H  H13  1  0.49767000  0.80132000  0.24657000  1.0
  H  H14  1  0.33054000  0.04884000  0.56392000  1.0
  H  H15  1  0.66946000  0.95117000  0.43608000  1.0
  H  H16  1  0.64823000  0.42727000  0.88757000  1.0
  H  H17  1  0.35176000  0.57273000  0.11243000  1.0
  H  H18  1  0.58803000  0.55673000  0.86511000  1.0
  H  H19  1  0.41196000  0.44327000  0.13489000  1.0
  H  H20  1  0.84230000  0.50603000  0.81480000  1.0
  H  H21  1  0.15770000  0.49396000  0.18520000  1.0
  H  H22  1  0.76974000  0.61938000  0.76796000  1.0
  H  H23  1  0.23025000  0.38061000  0.23204000  1.0
  H  H24  1  0.05349000  0.61457000  0.98753000  1.0
  H  H25  1  0.94651000  0.38542000  0.01247000  1.0
  H  H26  1  0.20286000  0.81340000  0.16397000  1.0
  H  H27  1  0.79714000  0.18660000  0.83603000  1.0
  H  H28  1  0.90423000  0.99239000  0.09860000  1.0
  H  H29  1  0.09578000  0.00761000  0.90140000  1.0
  H  H30  1  0.74558000  0.80520000  0.91772000  1.0
  H  H31  1  0.25442000  0.19480000  0.08228000  1.0
  H  H32  1  0.34392000  0.86490000  0.37790000  1.0
  H  H33  1  0.65607000  0.13509000  0.62209000  1.0
  H  H34  1  0.30641000  0.66175000  0.44233000  1.0
  H  H35  1  0.69360000  0.33825000  0.55767000  1.0
  H  H36  1  0.89108000  0.66985000  0.44653000  1.0
  H  H37  1  0.10892000  0.33015000  0.55347000  1.0
  H  H38  1  0.94567000  0.87016000  0.38052000  1.0
  H  H39  1  0.05433000  0.12984000  0.61948000  1.0
  H  H40  1  0.16700000  0.56235000  0.57012000  1.0
  H  H41  1  0.83300000  0.43765000  0.42988000  1.0
  H  H42  1  0.08303000  0.44499000  0.43564000  1.0
  H  H43  1  0.91698000  0.55501000  0.56436000  1.0
  C  C44  1  0.45640000  0.14025000  0.28107000  1.0
  C  C45  1  0.54359000  0.85975000  0.71892000  1.0
  C  C46  1  0.59392000  0.19536000  0.25730000  1.0
  C  C47  1  0.40609000  0.80465000  0.74270000  1.0
  C  C48  1  0.70237000  0.14366000  0.28136000  1.0
  C  C49  1  0.29764000  0.85635000  0.71864000  1.0
  C  C50  1  0.83361000  0.20092000  0.26512000  1.0
  C  C51  1  0.16639000  0.79908000  0.73488000  1.0
  C  C52  1  0.85532000  0.30789000  0.22121000  1.0
  C  C53  1  0.14468000  0.69211000  0.77879000  1.0
  C  C54  1  0.74453000  0.35569000  0.19443000  1.0
  C  C55  1  0.25547000  0.64432000  0.80557000  1.0
  C  C56  1  0.61500000  0.30204000  0.21301000  1.0
  C  C57  1  0.38500000  0.69797000  0.78699000  1.0
  C  C58  1  0.95324000  0.14943000  0.29563000  1.0
  C  C59  1  0.04676000  0.85057000  0.70437000  1.0
  C  C60  1  0.38155000  0.35014000  0.53311000  1.0
  C  C61  1  0.61846000  0.64986000  0.46689000  1.0
  C  C62  1  0.47901000  0.44231000  0.63686000  1.0
  C  C63  1  0.52099000  0.55769000  0.36314000  1.0
  C  C64  1  0.52608000  0.39017000  0.71982000  1.0
  C  C65  1  0.47393000  0.60983000  0.28019000  1.0
  C  C66  1  0.47021000  0.24624000  0.69318000  1.0
  C  C67  1  0.52978000  0.75376000  0.30682000  1.0
  C  C68  1  0.37365000  0.16126000  0.58697000  1.0
  C  C69  1  0.62635000  0.83874000  0.41303000  1.0
  C  C70  1  0.63421000  0.48643000  0.83230000  1.0
  C  C71  1  0.36578000  0.51357000  0.16770000  1.0
  C  C72  1  0.78629000  0.57392000  0.83278000  1.0
  C  C73  1  0.21372000  0.42608000  0.16723000  1.0
  C  C74  1  0.88321000  0.69062000  0.93918000  1.0
  C  C75  1  0.11680000  0.30938000  0.06083000  1.0
  C  C76  1  0.01515000  0.69555000  0.00936000  1.0
  C  C77  1  0.98485000  0.30444000  0.99064000  1.0
  C  C78  1  0.09904000  0.80576000  0.10754000  1.0
  C  C79  1  0.90096000  0.19424000  0.89246000  1.0
  C  C80  1  0.93281000  0.90606000  0.07131000  1.0
  C  C81  1  0.06720000  0.09394000  0.92869000  1.0
  C  C82  1  0.84362000  0.80057000  0.97157000  1.0
  C  C83  1  0.15638000  0.19942000  0.02843000  1.0
  C  C84  1  0.24480000  0.81652000  0.39347000  1.0
  C  C85  1  0.75519000  0.18348000  0.60652000  1.0
  C  C86  1  0.22270000  0.70404000  0.42932000  1.0
  C  C87  1  0.77730000  0.29596000  0.57068000  1.0
  C  C88  1  0.09440000  0.64729000  0.45027000  1.0
  C  C89  1  0.90561000  0.35271000  0.54973000  1.0
  C  C90  1  0.99290000  0.70777000  0.43194000  1.0
  C  C91  1  0.00710000  0.29223000  0.56806000  1.0
  C  C92  1  0.02212000  0.82019000  0.39546000  1.0
  C  C93  1  0.97789000  0.17982000  0.60455000  1.0
  C  C94  1  0.07284000  0.52804000  0.49216000  1.0
  C  C95  1  0.92716000  0.47196000  0.50784000  1.0
  Br  Br96  1  0.77245000  0.50063000  0.13315000  1.0
  Br  Br97  1  0.22756000  0.49938000  0.86686000  1.0
  N  N98  1  0.33010000  0.21152000  0.50781000  1.0
  N  N99  1  0.66990000  0.78848000  0.49219000  1.0
  N  N100  1  0.05827000  0.90889000  0.13898000  1.0
  N  N101  1  0.94173000  0.09111000  0.86102000  1.0
  N  N102  1  0.14614000  0.87423000  0.37686000  1.0
  N  N103  1  0.85386000  0.12577000  0.62314000  1.0
  O  O104  1  0.37507000  0.20857000  0.27455000  1.0
  O  O105  1  0.62493000  0.79144000  0.72545000  1.0
  O  O106  1  0.42793000  0.03190000  0.30663000  1.0
  O  O107  1  0.57206000  0.96810000  0.69336000  1.0
  O  O108  1  0.92343000  0.03747000  0.31563000  1.0
  O  O109  1  0.07656000  0.96252000  0.68436000  1.0
  O  O110  1  0.08056000  0.22307000  0.29766000  1.0
  O  O111  1  0.91945000  0.77693000  0.70234000  1.0
