# generated using pymatgen
data_LiH8C11NO4
_symmetry_space_group_name_H-M   'P 1'
_cell_length_a   4.95598000
_cell_length_b   14.17700000
_cell_length_c   14.44840000
_cell_angle_alpha   112.51400000
_cell_angle_beta   90.00000000
_cell_angle_gamma   89.99990000
_symmetry_Int_Tables_number   1
_chemical_formula_structural   LiH8C11NO4
_chemical_formula_sum   'Li4 H32 C44 N4 O16'
_cell_volume   937.78874474
_cell_formula_units_Z   4
loop_
 _symmetry_equiv_pos_site_id
 _symmetry_equiv_pos_as_xyz
  1  'x, y, z'
loop_
 _atom_site_type_symbol
 _atom_site_label
 _atom_site_symmetry_multiplicity
 _atom_site_fract_x
 _atom_site_fract_y
 _atom_site_fract_z
 _atom_site_occupancy
  Li  Li0  1  0.66832000  0.69928000  0.93675000  1.0
  Li  Li1  1  0.16832000  0.80072000  0.06325000  1.0
  Li  Li2  1  0.33168000  0.30072000  0.06325000  1.0
  Li  Li3  1  0.83168000  0.19928000  0.93675000  1.0
  H  H4  1  0.14383000  0.78414000  0.84951000  1.0
  H  H5  1  0.64383000  0.71586000  0.15050000  1.0
  H  H6  1  0.85617000  0.21586000  0.15049000  1.0
  H  H7  1  0.35617000  0.28414000  0.84951000  1.0
  H  H8  1  0.92709000  0.81195000  0.76512000  1.0
  H  H9  1  0.42709000  0.68805000  0.23488000  1.0
  H  H10  1  0.07291000  0.18805000  0.23488000  1.0
  H  H11  1  0.57291000  0.31195000  0.76512000  1.0
  H  H12  1  0.83287000  0.53070000  0.73153000  1.0
  H  H13  1  0.33287000  0.96930000  0.26847000  1.0
  H  H14  1  0.16713000  0.46930000  0.26847000  1.0
  H  H15  1  0.66713000  0.03070000  0.73153000  1.0
  H  H16  1  0.50936000  0.89067000  0.81299000  1.0
  H  H17  1  0.00936000  0.60933000  0.18701000  1.0
  H  H18  1  0.49064000  0.10933000  0.18701000  1.0
  H  H19  1  0.99064000  0.39067000  0.81299000  1.0
  H  H20  1  0.27771000  0.92143000  0.73506000  1.0
  H  H21  1  0.77771000  0.57857000  0.26494000  1.0
  H  H22  1  0.72229000  0.07857000  0.26494000  1.0
  H  H23  1  0.22229000  0.42143000  0.73506000  1.0
  H  H24  1  0.98983000  0.62440000  0.41107000  1.0
  H  H25  1  0.48983000  0.87560000  0.58893000  1.0
  H  H26  1  0.01017000  0.37560000  0.58893000  1.0
  H  H27  1  0.51017000  0.12440000  0.41107000  1.0
  H  H28  1  0.19109000  0.96360000  0.95759000  1.0
  H  H29  1  0.69109000  0.53640000  0.04241000  1.0
  H  H30  1  0.80891000  0.03640000  0.04241000  1.0
  H  H31  1  0.30891000  0.46360000  0.95759000  1.0
  H  H32  1  0.96425000  0.99914000  0.88322000  1.0
  H  H33  1  0.46425000  0.50086000  0.11679000  1.0
  H  H34  1  0.03575000  0.00087000  0.11678000  1.0
  H  H35  1  0.53575000  0.49914000  0.88321000  1.0
  C  C36  1  0.13788000  0.80356000  0.78306000  1.0
  C  C37  1  0.63788000  0.69644000  0.21694000  1.0
  C  C38  1  0.86213000  0.19644000  0.21695000  1.0
  C  C39  1  0.36212000  0.30356000  0.78305000  1.0
  C  C40  1  0.44911000  0.54358000  0.53992000  1.0
  C  C41  1  0.94911000  0.95642000  0.46008000  1.0
  C  C42  1  0.55089000  0.45642000  0.46008000  1.0
  C  C43  1  0.05089000  0.04358000  0.53992000  1.0
  C  C44  1  0.45720000  0.66205000  0.71946000  1.0
  C  C45  1  0.95719000  0.83795000  0.28054000  1.0
  C  C46  1  0.54280000  0.33794000  0.28054000  1.0
  C  C47  1  0.04280000  0.16205000  0.71946000  1.0
  C  C48  1  0.55595000  0.56959000  0.63739000  1.0
  C  C49  1  0.05595000  0.93041000  0.36261000  1.0
  C  C50  1  0.44405000  0.43041000  0.36261000  1.0
  C  C51  1  0.94405000  0.06959000  0.63739000  1.0
  C  C52  1  0.24391000  0.60286000  0.52043000  1.0
  C  C53  1  0.74390000  0.89715000  0.47957000  1.0
  C  C54  1  0.75610000  0.39714000  0.47957000  1.0
  C  C55  1  0.25610000  0.10286000  0.52043000  1.0
  C  C56  1  0.75556000  0.50967000  0.65540000  1.0
  C  C57  1  0.25556000  0.99033000  0.34460000  1.0
  C  C58  1  0.24444000  0.49033000  0.34460000  1.0
  C  C59  1  0.74444000  0.00967000  0.65540000  1.0
  C  C60  1  0.13072000  0.69187000  0.60342000  1.0
  C  C61  1  0.63072000  0.80813000  0.39658000  1.0
  C  C62  1  0.86928000  0.30813000  0.39658000  1.0
  C  C63  1  0.36928000  0.19187000  0.60342000  1.0
  C  C64  1  0.29461000  0.90182000  0.80149000  1.0
  C  C65  1  0.79461000  0.59818000  0.19851000  1.0
  C  C66  1  0.70539000  0.09818000  0.19851000  1.0
  C  C67  1  0.20539000  0.40182000  0.80150000  1.0
  C  C68  1  0.14537000  0.57653000  0.42380000  1.0
  C  C69  1  0.64537000  0.92347000  0.57620000  1.0
  C  C70  1  0.85463000  0.42347000  0.57620000  1.0
  C  C71  1  0.35463000  0.07653000  0.42380000  1.0
  C  C72  1  0.32356000  0.08931000  0.92678000  1.0
  C  C73  1  0.82356000  0.41069000  0.07322000  1.0
  C  C74  1  0.67644000  0.91069000  0.07322000  1.0
  C  C75  1  0.17644000  0.58931000  0.92678000  1.0
  C  C76  1  0.17952000  0.98702000  0.89324000  1.0
  C  C77  1  0.67952000  0.51298000  0.10676000  1.0
  C  C78  1  0.82048000  0.01298000  0.10676000  1.0
  C  C79  1  0.32048000  0.48702000  0.89325000  1.0
  N  N80  1  0.24514000  0.71528000  0.69872000  1.0
  N  N81  1  0.74513000  0.78472000  0.30128000  1.0
  N  N82  1  0.75486000  0.28472000  0.30128000  1.0
  N  N83  1  0.25487000  0.21528000  0.69872000  1.0
  O  O84  1  0.55551000  0.69281000  0.80458000  1.0
  O  O85  1  0.05550000  0.80719000  0.19542000  1.0
  O  O86  1  0.44449000  0.30719000  0.19542000  1.0
  O  O87  1  0.94450000  0.19281000  0.80458000  1.0
  O  O88  1  0.18645000  0.16845000  0.97999000  1.0
  O  O89  1  0.68645000  0.33155000  0.02001000  1.0
  O  O90  1  0.81355000  0.83155000  0.02000000  1.0
  O  O91  1  0.31355000  0.66845000  0.97999000  1.0
  O  O92  1  0.94331000  0.74348000  0.59179000  1.0
  O  O93  1  0.44330000  0.75651000  0.40821000  1.0
  O  O94  1  0.05669000  0.25651000  0.40821000  1.0
  O  O95  1  0.55670000  0.24349000  0.59179000  1.0
  O  O96  1  0.56910000  0.09195000  0.90397000  1.0
  O  O97  1  0.06910000  0.40805000  0.09603000  1.0
  O  O98  1  0.43091000  0.90804000  0.09603000  1.0
  O  O99  1  0.93090000  0.59195000  0.90397000  1.0
