# generated using pymatgen
data_AlH21C24(NO)6
_symmetry_space_group_name_H-M   'P 1'
_cell_length_a   3.91906000
_cell_length_b   28.67060000
_cell_length_c   28.67065000
_cell_angle_alpha   60.00017307
_cell_angle_beta   89.99690000
_cell_angle_gamma   89.99860000
_symmetry_Int_Tables_number   1
_chemical_formula_structural   AlH21C24(NO)6
_chemical_formula_sum   'Al2 H42 C48 N12 O12'
_cell_volume   2789.89347832
_cell_formula_units_Z   2
loop_
 _symmetry_equiv_pos_site_id
 _symmetry_equiv_pos_as_xyz
  1  'x, y, z'
loop_
 _atom_site_type_symbol
 _atom_site_label
 _atom_site_symmetry_multiplicity
 _atom_site_fract_x
 _atom_site_fract_y
 _atom_site_fract_z
 _atom_site_occupancy
  Al  Al0  1  0.00613000  0.00000000  0.50000000  1.0
  Al  Al1  1  0.00617000  0.66666000  0.16667000  1.0
  H  H2  1  0.20877000  0.41141000  0.34490000  1.0
  H  H3  1  0.76617000  0.42043000  0.21105000  1.0
  H  H4  1  0.76618000  0.24623000  0.45561000  1.0
  H  H5  1  0.20886000  0.25524000  0.32176000  1.0
  H  H6  1  0.51229000  0.33463000  0.27913000  1.0
  H  H7  1  0.51228000  0.33203000  0.38753000  1.0
  H  H8  1  0.20880000  0.84491000  0.24367000  1.0
  H  H9  1  0.76612000  0.71106000  0.36851000  1.0
  H  H10  1  0.76614000  0.95562000  0.29814000  1.0
  H  H11  1  0.20877000  0.82177000  0.42298000  1.0
  H  H12  1  0.51221000  0.77914000  0.38623000  1.0
  H  H13  1  0.51225000  0.88754000  0.28042000  1.0
  H  H14  1  0.20880000  0.74368000  0.91143000  1.0
  H  H15  1  0.76613000  0.86852000  0.92043000  1.0
  H  H16  1  0.76613000  0.79815000  0.74624000  1.0
  H  H17  1  0.20874000  0.92299000  0.75525000  1.0
  H  H18  1  0.51220000  0.88623000  0.83464000  1.0
  H  H19  1  0.51219000  0.78043000  0.83204000  1.0
  H  H20  1  0.89097000  0.56279000  0.14574000  1.0
  H  H21  1  0.99333000  0.50341000  0.14829000  1.0
  H  H22  1  0.11733000  0.55360000  0.28543000  1.0
  H  H23  1  0.00752000  0.49098000  0.33693000  1.0
  H  H24  1  0.11735000  0.11306000  0.38124000  1.0
  H  H25  1  0.00755000  0.17567000  0.32974000  1.0
  H  H26  1  0.89091000  0.10387000  0.52093000  1.0
  H  H27  1  0.99331000  0.16326000  0.51837000  1.0
  H  H28  1  0.89093000  0.64573000  0.29147000  1.0
  H  H29  1  0.99331000  0.64829000  0.34830000  1.0
  H  H30  1  0.11738000  0.78542000  0.16097000  1.0
  H  H31  1  0.00756000  0.83693000  0.17208000  1.0
  H  H32  1  0.11734000  0.88124000  0.50570000  1.0
  H  H33  1  0.00751000  0.82973000  0.49458000  1.0
  H  H34  1  0.89095000  0.02093000  0.37520000  1.0
  H  H35  1  0.99334000  0.01838000  0.31836000  1.0
  H  H36  1  0.89097000  0.79146000  0.06280000  1.0
  H  H37  1  0.99331000  0.84830000  0.00341000  1.0
  H  H38  1  0.11737000  0.66096000  0.05361000  1.0
  H  H39  1  0.00754000  0.67208000  0.99099000  1.0
  H  H40  1  0.11734000  0.00569000  0.61307000  1.0
  H  H41  1  0.00752000  0.99458000  0.67569000  1.0
  H  H42  1  0.89093000  0.87519000  0.60388000  1.0
  H  H43  1  0.99330000  0.81837000  0.66326000  1.0
  C  C44  1  0.50536000  0.95379000  0.58451000  1.0
  C  C45  1  0.50538000  0.08450000  0.46171000  1.0
  C  C46  1  0.50539000  0.96170000  0.45379000  1.0
  C  C47  1  0.50540000  0.58216000  0.20496000  1.0
  C  C48  1  0.50539000  0.70496000  0.21288000  1.0
  C  C49  1  0.50542000  0.71288000  0.08216000  1.0
  C  C50  1  0.50285000  0.52350000  0.23105000  1.0
  C  C51  1  0.33604000  0.49130000  0.28204000  1.0
  C  C52  1  0.34368000  0.43504000  0.30684000  1.0
  C  C53  1  0.49328000  0.40933000  0.28134000  1.0
  C  C54  1  0.64378000  0.44032000  0.23065000  1.0
  C  C55  1  0.66397000  0.49655000  0.20607000  1.0
  C  C56  1  0.49545000  0.35075000  0.30652000  1.0
  C  C57  1  0.49547000  0.31591000  0.36013000  1.0
  C  C58  1  0.64379000  0.22636000  0.43600000  1.0
  C  C59  1  0.49329000  0.25734000  0.38531000  1.0
  C  C60  1  0.34376000  0.23162000  0.35982000  1.0
  C  C61  1  0.33606000  0.17537000  0.38462000  1.0
  C  C62  1  0.50284000  0.14316000  0.43562000  1.0
  C  C63  1  0.66399000  0.17011000  0.46059000  1.0
  C  C64  1  0.50284000  0.73105000  0.24545000  1.0
  C  C65  1  0.33606000  0.78204000  0.22666000  1.0
  C  C66  1  0.34371000  0.80685000  0.25811000  1.0
  C  C67  1  0.49326000  0.78135000  0.30932000  1.0
  C  C68  1  0.64377000  0.73066000  0.32903000  1.0
  C  C69  1  0.66396000  0.70608000  0.29737000  1.0
  C  C70  1  0.49543000  0.80654000  0.34271000  1.0
  C  C71  1  0.49543000  0.86014000  0.32394000  1.0
  C  C72  1  0.64376000  0.93601000  0.33763000  1.0
  C  C73  1  0.49326000  0.88532000  0.35734000  1.0
  C  C74  1  0.34367000  0.85982000  0.40855000  1.0
  C  C75  1  0.33604000  0.88462000  0.44001000  1.0
  C  C76  1  0.50282000  0.93561000  0.42122000  1.0
  C  C77  1  0.66396000  0.96059000  0.36929000  1.0
  C  C78  1  0.50288000  0.74545000  0.02350000  1.0
  C  C79  1  0.33607000  0.72666000  0.99130000  1.0
  C  C80  1  0.34370000  0.75811000  0.93505000  1.0
  C  C81  1  0.49327000  0.80933000  0.90933000  1.0
  C  C82  1  0.64378000  0.82903000  0.94032000  1.0
  C  C83  1  0.66400000  0.79737000  0.99656000  1.0
  C  C84  1  0.49539000  0.84271000  0.85076000  1.0
  C  C85  1  0.49540000  0.82396000  0.81592000  1.0
  C  C86  1  0.64374000  0.83764000  0.72636000  1.0
  C  C87  1  0.49324000  0.85734000  0.75735000  1.0
  C  C88  1  0.34366000  0.90855000  0.73163000  1.0
  C  C89  1  0.33603000  0.94001000  0.67537000  1.0
  C  C90  1  0.50281000  0.92122000  0.64317000  1.0
  C  C91  1  0.66394000  0.86929000  0.67012000  1.0
  N  N92  1  0.82024000  0.52458000  0.15652000  1.0
  N  N93  1  0.18378000  0.51426000  0.30907000  1.0
  N  N94  1  0.18381000  0.15239000  0.35761000  1.0
  N  N95  1  0.82021000  0.14208000  0.51015000  1.0
  N  N96  1  0.82022000  0.65652000  0.31890000  1.0
  N  N97  1  0.18383000  0.80906000  0.17666000  1.0
  N  N98  1  0.18377000  0.85760000  0.49000000  1.0
  N  N99  1  0.82022000  0.01015000  0.34777000  1.0
  N  N100  1  0.82026000  0.81889000  0.02459000  1.0
  N  N101  1  0.18383000  0.67666000  0.01428000  1.0
  N  N102  1  0.18378000  0.99000000  0.65240000  1.0
  N  N103  1  0.82020000  0.84776000  0.64209000  1.0
  O  O104  1  0.73908000  0.99678000  0.44580000  1.0
  O  O105  1  0.73905000  0.94579000  0.55742000  1.0
  O  O106  1  0.73904000  0.05741000  0.49679000  1.0
  O  O107  1  0.27421000  0.94953000  0.49029000  1.0
  O  O108  1  0.27418000  0.06017000  0.44954000  1.0
  O  O109  1  0.27419000  0.99028000  0.56018000  1.0
  O  O110  1  0.73911000  0.72087000  0.10925000  1.0
  O  O111  1  0.73910000  0.60925000  0.16988000  1.0
  O  O112  1  0.73907000  0.66988000  0.22087000  1.0
  O  O113  1  0.27425000  0.67637000  0.10649000  1.0
  O  O114  1  0.27424000  0.71713000  0.17638000  1.0
  O  O115  1  0.27421000  0.60648000  0.21714000  1.0
