# generated using pymatgen
data_CoH20(C3O2)4
_symmetry_space_group_name_H-M   'P 1'
_cell_length_a   7.23678000
_cell_length_b   10.59500000
_cell_length_c   10.59490000
_cell_angle_alpha   76.25410000
_cell_angle_beta   75.87570000
_cell_angle_gamma   75.87570000
_symmetry_Int_Tables_number   1
_chemical_formula_structural   CoH20(C3O2)4
_chemical_formula_sum   'Co2 H40 C24 O16'
_cell_volume   750.15600928
_cell_formula_units_Z   2
loop_
 _symmetry_equiv_pos_site_id
 _symmetry_equiv_pos_as_xyz
  1  'x, y, z'
loop_
 _atom_site_type_symbol
 _atom_site_label
 _atom_site_symmetry_multiplicity
 _atom_site_fract_x
 _atom_site_fract_y
 _atom_site_fract_z
 _atom_site_occupancy
  Co  Co0  1  0.50000000  0.50000000  0.00000000  1.0
  Co  Co1  1  0.00000000  0.00000000  0.50000000  1.0
  H  H2  1  0.22152000  0.28179000  0.98320000  1.0
  H  H3  1  0.27849000  0.01680000  0.71821000  1.0
  H  H4  1  0.77847000  0.71821000  0.01680000  1.0
  H  H5  1  0.72151000  0.98320000  0.28180000  1.0
  H  H6  1  0.25001000  0.24303000  0.75696000  1.0
  H  H7  1  0.74998000  0.75697000  0.24304000  1.0
  H  H8  1  0.25002000  0.86464000  0.13535000  1.0
  H  H9  1  0.74999000  0.13535000  0.86465000  1.0
  H  H10  1  0.25892000  0.33954000  0.16293000  1.0
  H  H11  1  0.24108000  0.83707000  0.66046000  1.0
  H  H12  1  0.74108000  0.66046000  0.83706000  1.0
  H  H13  1  0.75892000  0.16293000  0.33954000  1.0
  H  H14  1  0.07916000  0.61759000  0.13243000  1.0
  H  H15  1  0.42085000  0.86757000  0.38241000  1.0
  H  H16  1  0.92085000  0.38242000  0.86757000  1.0
  H  H17  1  0.57915000  0.13243000  0.61758000  1.0
  H  H18  1  0.03124000  0.49713000  0.28045000  1.0
  H  H19  1  0.46877000  0.71955000  0.50287000  1.0
  H  H20  1  0.96876000  0.50287000  0.71955000  1.0
  H  H21  1  0.53124000  0.28045000  0.49712000  1.0
  H  H22  1  0.96297000  0.48642000  0.13256000  1.0
  H  H23  1  0.53703000  0.86745000  0.51358000  1.0
  H  H24  1  0.03703000  0.51358000  0.86744000  1.0
  H  H25  1  0.46297000  0.13256000  0.48642000  1.0
  H  H26  1  0.33491000  0.60529000  0.81117000  1.0
  H  H27  1  0.16509000  0.18883000  0.39471000  1.0
  H  H28  1  0.66509000  0.39471000  0.18883000  1.0
  H  H29  1  0.83490000  0.81118000  0.60529000  1.0
  H  H30  1  0.40492000  0.45986000  0.65023000  1.0
  H  H31  1  0.09509000  0.34977000  0.54014000  1.0
  H  H32  1  0.59508000  0.54014000  0.34977000  1.0
  H  H33  1  0.90492000  0.65023000  0.45986000  1.0
  H  H34  1  0.61549000  0.50508000  0.67479000  1.0
  H  H35  1  0.88452000  0.32522000  0.49493000  1.0
  H  H36  1  0.38451000  0.49492000  0.32521000  1.0
  H  H37  1  0.11549000  0.67479000  0.50507000  1.0
  H  H38  1  0.55584000  0.34762000  0.75679000  1.0
  H  H39  1  0.94417000  0.24321000  0.65239000  1.0
  H  H40  1  0.44416000  0.65238000  0.24321000  1.0
  H  H41  1  0.05584000  0.75680000  0.34761000  1.0
  C  C42  1  0.19219000  0.09294000  0.21561000  1.0
  C  C43  1  0.30780000  0.78439000  0.90705000  1.0
  C  C44  1  0.80779000  0.90705000  0.78440000  1.0
  C  C45  1  0.69219000  0.21561000  0.09295000  1.0
  C  C46  1  0.22720000  0.07547000  0.07539000  1.0
  C  C47  1  0.27281000  0.92460000  0.92454000  1.0
  C  C48  1  0.77280000  0.92454000  0.92461000  1.0
  C  C49  1  0.72719000  0.07540000  0.07547000  1.0
  C  C50  1  0.23253000  0.18202000  0.96772000  1.0
  C  C51  1  0.26748000  0.03227000  0.81796000  1.0
  C  C52  1  0.76746000  0.81797000  0.03227000  1.0
  C  C53  1  0.73252000  0.96773000  0.18203000  1.0
  C  C54  1  0.25001000  0.15974000  0.84026000  1.0
  C  C55  1  0.74999000  0.84025000  0.15975000  1.0
  C  C56  1  0.25001000  0.94766000  0.05234000  1.0
  C  C57  1  0.75000000  0.05234000  0.94766000  1.0
  C  C58  1  0.07299000  0.51302000  0.17134000  1.0
  C  C59  1  0.42701000  0.82866000  0.48698000  1.0
  C  C60  1  0.92701000  0.48698000  0.82866000  1.0
  C  C61  1  0.57299000  0.17135000  0.51301000  1.0
  C  C62  1  0.49533000  0.45232000  0.72281000  1.0
  C  C63  1  0.00467000  0.27720000  0.54768000  1.0
  C  C64  1  0.50466000  0.54767000  0.27720000  1.0
  C  C65  1  0.99533000  0.72281000  0.45232000  1.0
  O  O66  1  0.13438000  0.99917000  0.30472000  1.0
  O  O67  1  0.36562000  0.69528000  0.00084000  1.0
  O  O68  1  0.86561000  0.00084000  0.69528000  1.0
  O  O69  1  0.63437000  0.30471000  0.99917000  1.0
  O  O70  1  0.21997000  0.19857000  0.24154000  1.0
  O  O71  1  0.28003000  0.75846000  0.80143000  1.0
  O  O72  1  0.78002000  0.80143000  0.75846000  1.0
  O  O73  1  0.71997000  0.24154000  0.19857000  1.0
  O  O74  1  0.26246000  0.43682000  0.13153000  1.0
  O  O75  1  0.23754000  0.86848000  0.56317000  1.0
  O  O76  1  0.73754000  0.56317000  0.86848000  1.0
  O  O77  1  0.76246000  0.13152000  0.43683000  1.0
  O  O78  1  0.37962000  0.50463000  0.83584000  1.0
  O  O79  1  0.12038000  0.16416000  0.49538000  1.0
  O  O80  1  0.62039000  0.49537000  0.16416000  1.0
  O  O81  1  0.87961000  0.83584000  0.50462000  1.0
