# generated using pymatgen
data_H36Pb2C35N4O9
_symmetry_space_group_name_H-M   'P 1'
_cell_length_a   10.51460000
_cell_length_b   13.28080000
_cell_length_c   13.34180000
_cell_angle_alpha   100.89800000
_cell_angle_beta   94.62180000
_cell_angle_gamma   96.24870000
_symmetry_Int_Tables_number   1
_chemical_formula_structural   H36Pb2C35N4O9
_chemical_formula_sum   'H72 Pb4 C70 N8 O18'
_cell_volume   1808.81875254
_cell_formula_units_Z   2
loop_
 _symmetry_equiv_pos_site_id
 _symmetry_equiv_pos_as_xyz
  1  'x, y, z'
loop_
 _atom_site_type_symbol
 _atom_site_label
 _atom_site_symmetry_multiplicity
 _atom_site_fract_x
 _atom_site_fract_y
 _atom_site_fract_z
 _atom_site_occupancy
  H  H0  1  0.48126000  0.91650000  0.66358000  1.0
  H  H1  1  0.51874000  0.08350000  0.33642000  1.0
  H  H2  1  0.30056000  0.88179000  0.93335000  1.0
  H  H3  1  0.69944000  0.11820000  0.06665000  1.0
  H  H4  1  0.84346000  0.11818000  0.55213000  1.0
  H  H5  1  0.15654000  0.88182000  0.44787000  1.0
  H  H6  1  0.36556000  0.86763000  0.26956000  1.0
  H  H7  1  0.63444000  0.13236000  0.73044000  1.0
  H  H8  1  0.68120000  0.40176000  0.57120000  1.0
  H  H9  1  0.31881000  0.59824000  0.42879000  1.0
  H  H10  1  0.32360000  0.87736000  0.08671000  1.0
  H  H11  1  0.67640000  0.12264000  0.91329000  1.0
  H  H12  1  0.71135000  0.87954000  0.92978000  1.0
  H  H13  1  0.28865000  0.12046000  0.07022000  1.0
  H  H14  1  0.74050000  0.81064000  0.23522000  1.0
  H  H15  1  0.25950000  0.18936000  0.76478000  1.0
  H  H16  1  0.09442000  0.40336000  0.62375000  1.0
  H  H17  1  0.90558000  0.59664000  0.37626000  1.0
  H  H18  1  0.75538000  0.74247000  0.59099000  1.0
  H  H19  1  0.24462000  0.25753000  0.40902000  1.0
  H  H20  1  0.11291000  0.55489000  0.67240000  1.0
  H  H21  1  0.88709000  0.44511000  0.32760000  1.0
  H  H22  1  0.13935000  0.74306000  0.68860000  1.0
  H  H23  1  0.86065000  0.25694000  0.31141000  1.0
  H  H24  1  0.71395000  0.55324000  0.56140000  1.0
  H  H25  1  0.28605000  0.44676000  0.43860000  1.0
  H  H26  1  0.71876000  0.82474000  0.05406000  1.0
  H  H27  1  0.28124000  0.17526000  0.94594000  1.0
  H  H28  1  0.97001000  0.08495000  0.93038000  1.0
  H  H29  1  0.03001000  0.91506000  0.06962000  1.0
  H  H30  1  0.93339000  0.17413000  0.07858000  1.0
  H  H31  1  0.06661000  0.82587000  0.92142000  1.0
  H  H32  1  0.84224000  0.27788000  0.06608000  1.0
  H  H33  1  0.15775000  0.72212000  0.93391000  1.0
  H  H34  1  0.00957000  0.30406000  0.10871000  1.0
  H  H35  1  0.99042000  0.69595000  0.89129000  1.0
  H  H36  1  0.07199000  0.38058000  0.93178000  1.0
  H  H37  1  0.92801000  0.61943000  0.06822000  1.0
  H  H38  1  0.90338000  0.38427000  0.93854000  1.0
  H  H39  1  0.09662000  0.61573000  0.06145000  1.0
  H  H40  1  0.96057000  0.31582000  0.82508000  1.0
  H  H41  1  0.03943000  0.68418000  0.17492000  1.0
  H  H42  1  0.59122000  0.61637000  0.26925000  1.0
  H  H43  1  0.40878000  0.38363000  0.73074000  1.0
  H  H44  1  0.48699000  0.55707000  0.34429000  1.0
  H  H45  1  0.51301000  0.44293000  0.65571000  1.0
  H  H46  1  0.44320000  0.34687000  0.19720000  1.0
  H  H47  1  0.55679000  0.65313000  0.80281000  1.0
  H  H48  1  0.32791000  0.41541000  0.26089000  1.0
  H  H49  1  0.67208000  0.58460000  0.73910000  1.0
  H  H50  1  0.20245000  0.41111000  0.09328000  1.0
  H  H51  1  0.79755000  0.58889000  0.90671000  1.0
  H  H52  1  0.22942000  0.28572000  0.10992000  1.0
  H  H53  1  0.77058000  0.71428000  0.89007000  1.0
  H  H54  1  0.32041000  0.34778000  0.02644000  1.0
  H  H55  1  0.67959000  0.65221000  0.97356000  1.0
  H  H56  1  0.70855000  0.51208000  0.36269000  1.0
  H  H57  1  0.29144000  0.48793000  0.63731000  1.0
  H  H58  1  0.69629000  0.45360000  0.22937000  1.0
  H  H59  1  0.30371000  0.54640000  0.77063000  1.0
  H  H60  1  0.60076000  0.39795000  0.31440000  1.0
  H  H61  1  0.39923000  0.60206000  0.68560000  1.0
  H  H62  1  0.28061000  0.57127000  0.18733000  1.0
  H  H63  1  0.71939000  0.42873000  0.81266000  1.0
  H  H64  1  0.42402000  0.65535000  0.19935000  1.0
  H  H65  1  0.57597000  0.34465000  0.80064000  1.0
  H  H66  1  0.31249000  0.65019000  0.03096000  1.0
  H  H67  1  0.68751000  0.34980000  0.96903000  1.0
  H  H68  1  0.30455000  0.51333000  0.99607000  1.0
  H  H69  1  0.69545000  0.48667000  0.00392000  1.0
  H  H70  1  0.45449000  0.59076000  0.01330000  1.0
  H  H71  1  0.54551000  0.40923000  0.98670000  1.0
  Pb  Pb72  1  0.99103000  0.95983000  0.66690000  1.0
  Pb  Pb73  1  0.00897000  0.04016000  0.33311000  1.0
  Pb  Pb74  1  0.35140000  0.09558000  0.54767000  1.0
  Pb  Pb75  1  0.64860000  0.90442000  0.45234000  1.0
  C  C76  1  0.25391000  0.92408000  0.74805000  1.0
  C  C77  1  0.74609000  0.07592000  0.25196000  1.0
  C  C78  1  0.48856000  0.90348000  0.74186000  1.0
  C  C79  1  0.51144000  0.09652000  0.25814000  1.0
  C  C80  1  0.73081000  0.91337000  0.74473000  1.0
  C  C81  1  0.26919000  0.08663000  0.25528000  1.0
  C  C82  1  0.09720000  0.19977000  0.58433000  1.0
  C  C83  1  0.90280000  0.80023000  0.41568000  1.0
  C  C84  1  0.74954000  0.25548000  0.56191000  1.0
  C  C85  1  0.25046000  0.74452000  0.43809000  1.0
  C  C86  1  0.37928000  0.90078000  0.79504000  1.0
  C  C87  1  0.62072000  0.09922000  0.20497000  1.0
  C  C88  1  0.61583000  0.19776000  0.54003000  1.0
  C  C89  1  0.38418000  0.80224000  0.45997000  1.0
  C  C90  1  0.60776000  0.89550000  0.79214000  1.0
  C  C91  1  0.39224000  0.10450000  0.20786000  1.0
  C  C92  1  0.38813000  0.88267000  0.89516000  1.0
  C  C93  1  0.61187000  0.11732000  0.10484000  1.0
  C  C94  1  0.98069000  0.25660000  0.58898000  1.0
  C  C95  1  0.01931000  0.74341000  0.41102000  1.0
  C  C96  1  0.85675000  0.20227000  0.56719000  1.0
  C  C97  1  0.14325000  0.79773000  0.43281000  1.0
  C  C98  1  0.44018000  0.85588000  0.21778000  1.0
  C  C99  1  0.55982000  0.14411000  0.78222000  1.0
  C  C100  1  0.76707000  0.36347000  0.57755000  1.0
  C  C101  1  0.23293000  0.63653000  0.42244000  1.0
  C  C102  1  0.41792000  0.86159000  0.11494000  1.0
  C  C103  1  0.58208000  0.13841000  0.88506000  1.0
  C  C104  1  0.50605000  0.87022000  0.94535000  1.0
  C  C105  1  0.49395000  0.12978000  0.05465000  1.0
  C  C106  1  0.61554000  0.88014000  0.89285000  1.0
  C  C107  1  0.38446000  0.11986000  0.10715000  1.0
  C  C108  1  0.89046000  0.41985000  0.60098000  1.0
  C  C109  1  0.10954000  0.58015000  0.39902000  1.0
  C  C110  1  0.64971000  0.82616000  0.19942000  1.0
  C  C111  1  0.35029000  0.17383000  0.80058000  1.0
  C  C112  1  0.99633000  0.36445000  0.60768000  1.0
  C  C113  1  0.00367000  0.63555000  0.39232000  1.0
  C  C114  1  0.51867000  0.85406000  0.05205000  1.0
  C  C115  1  0.48133000  0.14593000  0.94795000  1.0
  C  C116  1  0.83295000  0.69804000  0.60729000  1.0
  C  C117  1  0.16704000  0.30196000  0.39272000  1.0
  C  C118  1  0.02990000  0.59177000  0.65214000  1.0
  C  C119  1  0.97010000  0.40823000  0.34786000  1.0
  C  C120  1  0.04561000  0.69837000  0.66230000  1.0
  C  C121  1  0.95439000  0.30163000  0.33771000  1.0
  C  C122  1  0.90959000  0.53387000  0.61535000  1.0
  C  C123  1  0.09041000  0.46613000  0.38465000  1.0
  C  C124  1  0.80996000  0.59087000  0.59222000  1.0
  C  C125  1  0.19004000  0.40913000  0.40778000  1.0
  C  C126  1  0.63601000  0.83342000  0.09715000  1.0
  C  C127  1  0.36399000  0.16658000  0.90285000  1.0
  C  C128  1  0.98368000  0.15166000  0.89206000  1.0
  C  C129  1  0.01635000  0.84834000  0.10795000  1.0
  C  C130  1  0.93602000  0.24970000  0.05641000  1.0
  C  C131  1  0.06398000  0.75030000  0.94359000  1.0
  C  C132  1  0.97595000  0.33626000  0.90901000  1.0
  C  C133  1  0.02405000  0.66374000  0.09098000  1.0
  C  C134  1  0.54135000  0.54123000  0.27594000  1.0
  C  C135  1  0.45865000  0.45877000  0.72406000  1.0
  C  C136  1  0.37748000  0.40457000  0.18966000  1.0
  C  C137  1  0.62251000  0.59544000  0.81033000  1.0
  C  C138  1  0.27707000  0.36015000  0.09922000  1.0
  C  C139  1  0.72293000  0.63985000  0.90077000  1.0
  C  C140  1  0.64186000  0.47122000  0.29625000  1.0
  C  C141  1  0.35814000  0.52879000  0.70375000  1.0
  C  C142  1  0.37587000  0.58008000  0.15731000  1.0
  C  C143  1  0.62412000  0.41992000  0.84268000  1.0
  C  C144  1  0.36046000  0.58328000  0.04315000  1.0
  C  C145  1  0.63954000  0.41671000  0.95684000  1.0
  N  N146  1  0.94901000  0.75205000  0.64116000  1.0
  N  N147  1  0.05099000  0.24796000  0.35885000  1.0
  N  N148  1  0.55452000  0.83968000  0.26033000  1.0
  N  N149  1  0.44548000  0.16031000  0.73967000  1.0
  N  N150  1  0.96476000  0.24207000  0.95046000  1.0
  N  N151  1  0.03524000  0.75794000  0.04954000  1.0
  N  N152  1  0.45413000  0.50101000  0.18194000  1.0
  N  N153  1  0.54586000  0.49899000  0.81806000  1.0
  O  O154  1  0.60169000  0.10099000  0.54322000  1.0
  O  O155  1  0.39831000  0.89901000  0.45679000  1.0
  O  O156  1  0.07801000  0.10228000  0.54596000  1.0
  O  O157  1  0.92200000  0.89772000  0.45405000  1.0
  O  O158  1  0.24885000  0.94542000  0.65865000  1.0
  O  O159  1  0.75115000  0.05458000  0.34136000  1.0
  O  O160  1  0.72532000  0.92023000  0.65011000  1.0
  O  O161  1  0.27467000  0.07977000  0.34989000  1.0
  O  O162  1  0.20790000  0.24949000  0.61403000  1.0
  O  O163  1  0.79211000  0.75052000  0.38597000  1.0
  O  O164  1  0.83594000  0.92354000  0.80218000  1.0
  O  O165  1  0.16406000  0.07646000  0.19782000  1.0
  O  O166  1  0.15737000  0.92143000  0.80041000  1.0
  O  O167  1  0.84263000  0.07857000  0.19959000  1.0
  O  O168  1  0.52171000  0.24671000  0.52311000  1.0
  O  O169  1  0.47830000  0.75329000  0.47688000  1.0
  O  O170  1  0.01297000  0.14225000  0.80207000  1.0
  O  O171  1  0.98705000  0.85775000  0.19793000  1.0
