# generated using pymatgen
data_PrCuH14C16N2O13
_symmetry_space_group_name_H-M   'P 1'
_cell_length_a   8.13922000
_cell_length_b   11.00560000
_cell_length_c   12.24800000
_cell_angle_alpha   108.47000000
_cell_angle_beta   101.40000000
_cell_angle_gamma   98.37810000
_symmetry_Int_Tables_number   1
_chemical_formula_structural   PrCuH14C16N2O13
_chemical_formula_sum   'Pr2 Cu2 H28 C32 N4 O26'
_cell_volume   994.15961182
_cell_formula_units_Z   2
loop_
 _symmetry_equiv_pos_site_id
 _symmetry_equiv_pos_as_xyz
  1  'x, y, z'
loop_
 _atom_site_type_symbol
 _atom_site_label
 _atom_site_symmetry_multiplicity
 _atom_site_fract_x
 _atom_site_fract_y
 _atom_site_fract_z
 _atom_site_occupancy
  Pr  Pr0  1  0.95363000  0.23684000  0.42351000  1.0
  Pr  Pr1  1  0.04637000  0.76316000  0.57649000  1.0
  Cu  Cu2  1  0.00814000  0.73916000  0.04268000  1.0
  Cu  Cu3  1  0.99186000  0.26084000  0.95732000  1.0
  H  H4  1  0.96564000  0.15651000  0.65746000  1.0
  H  H5  1  0.03436000  0.84349000  0.34254000  1.0
  H  H6  1  0.11902000  0.11843000  0.60729000  1.0
  H  H7  1  0.88098000  0.88156000  0.39271000  1.0
  H  H8  1  0.25065000  0.47359000  0.57680000  1.0
  H  H9  1  0.74935000  0.52641000  0.42320000  1.0
  H  H10  1  0.22691000  0.37591000  0.64172000  1.0
  H  H11  1  0.77309000  0.62409000  0.35828000  1.0
  H  H12  1  0.62563000  0.28802000  0.28727000  1.0
  H  H13  1  0.37436000  0.71198000  0.71273000  1.0
  H  H14  1  0.76485000  0.38303000  0.25913000  1.0
  H  H15  1  0.23516000  0.61697000  0.74088000  1.0
  H  H16  1  0.45948000  0.03267000  0.21107000  1.0
  H  H17  1  0.54053000  0.96733000  0.78894000  1.0
  H  H18  1  0.55927000  0.13173000  0.07154000  1.0
  H  H19  1  0.44073000  0.86828000  0.92846000  1.0
  H  H20  1  0.35015000  0.22704000  0.95735000  1.0
  H  H21  1  0.64985000  0.77296000  0.04266000  1.0
  H  H22  1  0.44169000  0.49967000  0.30452000  1.0
  H  H23  1  0.55831000  0.50034000  0.69548000  1.0
  H  H24  1  0.55989000  0.59073000  0.16538000  1.0
  H  H25  1  0.44011000  0.40927000  0.83462000  1.0
  H  H26  1  0.36683000  0.68734000  0.04286000  1.0
  H  H27  1  0.63317000  0.31266000  0.95714000  1.0
  H  H28  1  0.59266000  0.88481000  0.47392000  1.0
  H  H29  1  0.40734000  0.11519000  0.52609000  1.0
  H  H30  1  0.42816000  0.90706000  0.36930000  1.0
  H  H31  1  0.57183000  0.09294000  0.63070000  1.0
  C  C32  1  0.10480000  0.13667000  0.11505000  1.0
  C  C33  1  0.89520000  0.86333000  0.88495000  1.0
  C  C34  1  0.20932000  0.07935000  0.17976000  1.0
  C  C35  1  0.79068000  0.92065000  0.82025000  1.0
  C  C36  1  0.37437000  0.07672000  0.16251000  1.0
  C  C37  1  0.62563000  0.92328000  0.83750000  1.0
  C  C38  1  0.43036000  0.13124000  0.08438000  1.0
  C  C39  1  0.56964000  0.86876000  0.91563000  1.0
  C  C40  1  0.31772000  0.18479000  0.02167000  1.0
  C  C41  1  0.68228000  0.81521000  0.97834000  1.0
  C  C42  1  0.92471000  0.14934000  0.12208000  1.0
  C  C43  1  0.07529000  0.85066000  0.87792000  1.0
  C  C44  1  0.15449000  0.02209000  0.26763000  1.0
  C  C45  1  0.84551000  0.97791000  0.73237000  1.0
  C  C46  1  0.08961000  0.58329000  0.17444000  1.0
  C  C47  1  0.91039000  0.41671000  0.82556000  1.0
  C  C48  1  0.18947000  0.53493000  0.25032000  1.0
  C  C49  1  0.81053000  0.46507000  0.74967000  1.0
  C  C50  1  0.36085000  0.53721000  0.24661000  1.0
  C  C51  1  0.63915000  0.46279000  0.75339000  1.0
  C  C52  1  0.42775000  0.58991000  0.17103000  1.0
  C  C53  1  0.57225000  0.41009000  0.82897000  1.0
  C  C54  1  0.32260000  0.64250000  0.10243000  1.0
  C  C55  1  0.67739000  0.35750000  0.89756000  1.0
  C  C56  1  0.90020000  0.57804000  0.15980000  1.0
  C  C57  1  0.09980000  0.42195000  0.84020000  1.0
  C  C58  1  0.12102000  0.48793000  0.33906000  1.0
  C  C59  1  0.87898000  0.51207000  0.66094000  1.0
  C  C60  1  0.66419000  0.04527000  0.41754000  1.0
  C  C61  1  0.33581000  0.95473000  0.58246000  1.0
  C  C62  1  0.53480000  0.95980000  0.45002000  1.0
  C  C63  1  0.46520000  0.04019000  0.54998000  1.0
  N  N64  1  0.15993000  0.18616000  0.03742000  1.0
  N  N65  1  0.84007000  0.81384000  0.96258000  1.0
  N  N66  1  0.15839000  0.63859000  0.10486000  1.0
  N  N67  1  0.84161000  0.36141000  0.89514000  1.0
  O  O68  1  0.04028000  0.18113000  0.60912000  1.0
  O  O69  1  0.95972000  0.81887000  0.39088000  1.0
  O  O70  1  0.84560000  0.19745000  0.04921000  1.0
  O  O71  1  0.15440000  0.80255000  0.95079000  1.0
  O  O72  1  0.24287000  0.37988000  0.56541000  1.0
  O  O73  1  0.75713000  0.62012000  0.43459000  1.0
  O  O74  1  0.85951000  0.11304000  0.19446000  1.0
  O  O75  1  0.14049000  0.88696000  0.80555000  1.0
  O  O76  1  0.73691000  0.34985000  0.32115000  1.0
  O  O77  1  0.26309000  0.65015000  0.67885000  1.0
  O  O78  1  0.12189000  0.89813000  0.23701000  1.0
  O  O79  1  0.87811000  0.10187000  0.76299000  1.0
  O  O80  1  0.15670000  0.10270000  0.36828000  1.0
  O  O81  1  0.84330000  0.89730000  0.63172000  1.0
  O  O82  1  0.83728000  0.64631000  0.10067000  1.0
  O  O83  1  0.16272000  0.35369000  0.89933000  1.0
  O  O84  1  0.81153000  0.50828000  0.19994000  1.0
  O  O85  1  0.18847000  0.49172000  0.80006000  1.0
  O  O86  1  0.09914000  0.36609000  0.32067000  1.0
  O  O87  1  0.90086000  0.63392000  0.67933000  1.0
  O  O88  1  0.09783000  0.57420000  0.42737000  1.0
  O  O89  1  0.90218000  0.42581000  0.57263000  1.0
  O  O90  1  0.65364000  0.16379000  0.43123000  1.0
  O  O91  1  0.34636000  0.83621000  0.56877000  1.0
  O  O92  1  0.78489000  0.99994000  0.37662000  1.0
  O  O93  1  0.21511000  0.00006000  0.62338000  1.0
