# generated using pymatgen
data_AgH9C4INO
_symmetry_space_group_name_H-M   'P 1'
_cell_length_a   4.41770000
_cell_length_b   9.05077000
_cell_length_c   9.30163145
_cell_angle_alpha   95.70024316
_cell_angle_beta   103.55812693
_cell_angle_gamma   90.01970000
_symmetry_Int_Tables_number   1
_chemical_formula_structural   AgH9C4INO
_chemical_formula_sum   'Ag2 H18 C8 I2 N2 O2'
_cell_volume   359.65319918
_cell_formula_units_Z   2
loop_
 _symmetry_equiv_pos_site_id
 _symmetry_equiv_pos_as_xyz
  1  'x, y, z'
loop_
 _atom_site_type_symbol
 _atom_site_label
 _atom_site_symmetry_multiplicity
 _atom_site_fract_x
 _atom_site_fract_y
 _atom_site_fract_z
 _atom_site_occupancy
  Ag  Ag0  1  0.27929000  0.88338000  0.52217000  1.0
  Ag  Ag1  1  0.75591000  0.11520000  0.47712000  1.0
  H  H2  1  0.23654000  0.94391000  0.86761000  1.0
  H  H3  1  0.37429000  0.05675000  0.13011000  1.0
  H  H4  1  0.85781000  0.89503000  0.75985000  1.0
  H  H5  1  0.10055000  0.10413000  0.23753000  1.0
  H  H6  1  0.88934000  0.84034000  0.02043000  1.0
  H  H7  1  0.87865000  0.16208000  0.97706000  1.0
  H  H8  1  0.22608000  0.73214000  0.01947000  1.0
  H  H9  1  0.21757000  0.27098000  0.98139000  1.0
  H  H10  1  0.16641000  0.50150000  0.86834000  1.0
  H  H11  1  0.30424000  0.50008000  0.13462000  1.0
  H  H12  1  0.78549000  0.44447000  0.76116000  1.0
  H  H13  1  0.02735000  0.55503000  0.24135000  1.0
  H  H14  1  0.79304000  0.64338000  0.59546000  1.0
  H  H15  1  0.19598000  0.35357000  0.40420000  1.0
  H  H16  1  0.13207000  0.53594000  0.60393000  1.0
  H  H17  1  0.52748000  0.46205000  0.39869000  1.0
  H  H18  1  0.42364000  0.71882000  0.77577000  1.0
  H  H19  1  0.65115000  0.28157000  0.22444000  1.0
  C  C20  1  0.07412000  0.84942000  0.82346000  1.0
  C  C21  1  0.25507000  0.15069000  0.17495000  1.0
  C  C22  1  0.00734000  0.76894000  0.94893000  1.0
  C  C23  1  0.06633000  0.23278000  0.05027000  1.0
  C  C24  1  0.94737000  0.54010000  0.79961000  1.0
  C  C25  1  0.15187000  0.46007000  0.20216000  1.0
  C  C26  1  0.01290000  0.61364000  0.66943000  1.0
  C  C27  1  0.34435000  0.38493000  0.33150000  1.0
  I  I28  1  0.66782000  0.81522000  0.32624000  1.0
  I  I29  1  0.33886000  0.18368000  0.67289000  1.0
  N  N30  1  0.20739000  0.75055000  0.71907000  1.0
  N  N31  1  0.49077000  0.24887000  0.28064000  1.0
  O  O32  1  0.80366000  0.64205000  0.89093000  1.0
  O  O33  1  0.91882000  0.35873000  0.10918000  1.0
