# generated using pymatgen
data_ZnH8C6(BrN)2
_symmetry_space_group_name_H-M   'P 1'
_cell_length_a   6.41845000
_cell_length_b   8.61245794
_cell_length_c   9.89136000
_cell_angle_alpha   113.20992836
_cell_angle_beta   90.02940000
_cell_angle_gamma   111.84810162
_symmetry_Int_Tables_number   1
_chemical_formula_structural   ZnH8C6(BrN)2
_chemical_formula_sum   'Zn2 H16 C12 Br4 N4'
_cell_volume   459.43906857
_cell_formula_units_Z   2
loop_
 _symmetry_equiv_pos_site_id
 _symmetry_equiv_pos_as_xyz
  1  'x, y, z'
loop_
 _atom_site_type_symbol
 _atom_site_label
 _atom_site_symmetry_multiplicity
 _atom_site_fract_x
 _atom_site_fract_y
 _atom_site_fract_z
 _atom_site_occupancy
  Zn  Zn0  1  0.11644000  0.00027000  0.24999000  1.0
  Zn  Zn1  1  0.88358000  0.99974000  0.75001000  1.0
  H  H2  1  0.42601000  0.26650000  0.52892000  1.0
  H  H3  1  0.16002000  0.73361000  0.97152000  1.0
  H  H4  1  0.57394000  0.73347000  0.47108000  1.0
  H  H5  1  0.84001000  0.26642000  0.02849000  1.0
  H  H6  1  0.06429000  0.64509000  0.22311000  1.0
  H  H7  1  0.41959000  0.35517000  0.27681000  1.0
  H  H8  1  0.93569000  0.35488000  0.77688000  1.0
  H  H9  1  0.58046000  0.64486000  0.72319000  1.0
  H  H10  1  0.21033000  0.54000000  0.28756000  1.0
  H  H11  1  0.67051000  0.46021000  0.21245000  1.0
  H  H12  1  0.78965000  0.45998000  0.71242000  1.0
  H  H13  1  0.32955000  0.53981000  0.78759000  1.0
  H  H14  1  0.31969000  0.63307000  0.15899000  1.0
  H  H15  1  0.68691000  0.36701000  0.34097000  1.0
  H  H16  1  0.68030000  0.36693000  0.84102000  1.0
  H  H17  1  0.31306000  0.63298000  0.65905000  1.0
  C  C18  1  0.36962000  0.83458000  0.38216000  1.0
  C  C19  1  0.53516000  0.16552000  0.11778000  1.0
  C  C20  1  0.63034000  0.16538000  0.61782000  1.0
  C  C21  1  0.46485000  0.83451000  0.88226000  1.0
  C  C22  1  0.46130000  0.14754000  0.51657000  1.0
  C  C23  1  0.31402000  0.85255000  0.98364000  1.0
  C  C24  1  0.53866000  0.85246000  0.48344000  1.0
  C  C25  1  0.68600000  0.14748000  0.01636000  1.0
  C  C26  1  0.23239000  0.65333000  0.25626000  1.0
  C  C27  1  0.57935000  0.34683000  0.24368000  1.0
  C  C28  1  0.76756000  0.34662000  0.74371000  1.0
  C  C29  1  0.42070000  0.65321000  0.75635000  1.0
  Br  Br30  1  0.04088000  0.26263000  0.39264000  1.0
  Br  Br31  1  0.77829000  0.73850000  0.10702000  1.0
  Br  Br32  1  0.95913000  0.73739000  0.60730000  1.0
  Br  Br33  1  0.22173000  0.26148000  0.89298000  1.0
  N  N34  1  0.33478000  0.98683000  0.40103000  1.0
  N  N35  1  0.34833000  0.01333000  0.09911000  1.0
  N  N36  1  0.66520000  0.01316000  0.59898000  1.0
  N  N37  1  0.65168000  0.98667000  0.90088000  1.0
