# generated using pymatgen
data_CuH8C10N3ClO2
_symmetry_space_group_name_H-M   'P 1'
_cell_length_a   6.87817000
_cell_length_b   9.09109000
_cell_length_c   16.90950000
_cell_angle_alpha   103.19700000
_cell_angle_beta   89.99920000
_cell_angle_gamma   89.99960000
_symmetry_Int_Tables_number   1
_chemical_formula_structural   CuH8C10N3ClO2
_chemical_formula_sum   'Cu4 H32 C40 N12 Cl4 O8'
_cell_volume   1029.42833020
_cell_formula_units_Z   4
loop_
 _symmetry_equiv_pos_site_id
 _symmetry_equiv_pos_as_xyz
  1  'x, y, z'
loop_
 _atom_site_type_symbol
 _atom_site_label
 _atom_site_symmetry_multiplicity
 _atom_site_fract_x
 _atom_site_fract_y
 _atom_site_fract_z
 _atom_site_occupancy
  Cu  Cu0  1  0.82418000  0.34842000  0.12575000  1.0
  Cu  Cu1  1  0.32417000  0.65156000  0.37424000  1.0
  Cu  Cu2  1  0.17581000  0.65159000  0.87425000  1.0
  Cu  Cu3  1  0.67581000  0.34842000  0.62575000  1.0
  H  H4  1  0.85881000  0.87470000  0.07608000  1.0
  H  H5  1  0.35881000  0.12529000  0.42393000  1.0
  H  H6  1  0.14118000  0.12532000  0.92393000  1.0
  H  H7  1  0.64118000  0.87470000  0.57609000  1.0
  H  H8  1  0.75760000  0.68466000  0.92897000  1.0
  H  H9  1  0.25761000  0.31534000  0.57105000  1.0
  H  H10  1  0.24241000  0.31536000  0.07105000  1.0
  H  H11  1  0.74240000  0.68466000  0.42897000  1.0
  H  H12  1  0.64372000  0.40117000  0.84441000  1.0
  H  H13  1  0.14372000  0.59886000  0.65559000  1.0
  H  H14  1  0.35632000  0.59886000  0.15559000  1.0
  H  H15  1  0.85627000  0.40117000  0.34441000  1.0
  H  H16  1  0.57936000  0.12997000  0.78394000  1.0
  H  H17  1  0.07933000  0.87006000  0.71605000  1.0
  H  H18  1  0.42069000  0.87006000  0.21605000  1.0
  H  H19  1  0.92061000  0.12997000  0.28393000  1.0
  H  H20  1  0.59434000  0.94221000  0.87397000  1.0
  H  H21  1  0.09432000  0.05779000  0.62601000  1.0
  H  H22  1  0.40569000  0.05779000  0.12602000  1.0
  H  H23  1  0.90564000  0.94222000  0.37396000  1.0
  H  H24  1  0.70290000  0.03701000  0.01870000  1.0
  H  H25  1  0.20289000  0.96296000  0.48128000  1.0
  H  H26  1  0.29710000  0.96301000  0.98130000  1.0
  H  H27  1  0.79709000  0.03700000  0.51869000  1.0
  H  H28  1  0.71031000  0.74739000  0.23642000  1.0
  H  H29  1  0.21029000  0.25258000  0.26359000  1.0
  H  H30  1  0.28970000  0.25264000  0.76359000  1.0
  H  H31  1  0.78971000  0.74736000  0.73642000  1.0
  H  H32  1  0.93206000  0.83322000  0.21617000  1.0
  H  H33  1  0.43205000  0.16674000  0.28384000  1.0
  H  H34  1  0.06796000  0.16678000  0.78384000  1.0
  H  H35  1  0.56795000  0.83322000  0.71617000  1.0
  C  C36  1  0.82262000  0.75505000  0.06071000  1.0
  C  C37  1  0.32261000  0.24494000  0.43929000  1.0
  C  C38  1  0.17741000  0.24496000  0.93929000  1.0
  C  C39  1  0.67739000  0.75505000  0.56072000  1.0
  C  C40  1  0.77226000  0.65675000  0.98770000  1.0
  C  C41  1  0.27227000  0.34325000  0.51231000  1.0
  C  C42  1  0.22776000  0.34326000  0.01231000  1.0
  C  C43  1  0.72774000  0.65675000  0.48770000  1.0
  C  C44  1  0.74812000  0.51518000  0.00711000  1.0
  C  C45  1  0.24814000  0.48482000  0.49289000  1.0
  C  C46  1  0.25187000  0.48484000  0.99290000  1.0
  C  C47  1  0.75188000  0.51517000  0.50711000  1.0
  C  C48  1  0.70783000  0.36128000  0.96308000  1.0
  C  C49  1  0.20785000  0.63873000  0.53692000  1.0
  C  C50  1  0.29218000  0.63875000  0.03692000  1.0
  C  C51  1  0.79217000  0.36127000  0.46308000  1.0
  C  C52  1  0.65679000  0.31756000  0.88124000  1.0
  C  C53  1  0.15678000  0.68246000  0.61876000  1.0
  C  C54  1  0.34324000  0.68247000  0.11876000  1.0
  C  C55  1  0.84320000  0.31756000  0.38124000  1.0
  C  C56  1  0.61750000  0.16537000  0.84819000  1.0
  C  C57  1  0.11747000  0.83464000  0.65180000  1.0
  C  C58  1  0.38255000  0.83466000  0.15181000  1.0
  C  C59  1  0.88247000  0.16537000  0.34818000  1.0
  C  C60  1  0.62794000  0.06145000  0.89730000  1.0
  C  C61  1  0.12793000  0.93855000  0.60269000  1.0
  C  C62  1  0.37209000  0.93856000  0.10270000  1.0
  C  C63  1  0.87203000  0.06145000  0.39729000  1.0
  C  C64  1  0.68513000  0.11286000  0.97794000  1.0
  C  C65  1  0.18511000  0.88713000  0.52205000  1.0
  C  C66  1  0.31488000  0.88716000  0.02206000  1.0
  C  C67  1  0.81486000  0.11285000  0.47793000  1.0
  C  C68  1  0.85300000  0.72606000  0.20603000  1.0
  C  C69  1  0.35298000  0.27390000  0.29397000  1.0
  C  C70  1  0.14701000  0.27395000  0.79397000  1.0
  C  C71  1  0.64701000  0.72606000  0.70604000  1.0
  C  C72  1  0.96070000  0.61944000  0.24979000  1.0
  C  C73  1  0.46068000  0.38052000  0.25020000  1.0
  C  C74  1  0.03928000  0.38056000  0.75022000  1.0
  C  C75  1  0.53929000  0.61944000  0.74979000  1.0
  N  N76  1  0.77874000  0.52974000  0.08736000  1.0
  N  N77  1  0.27876000  0.47025000  0.41264000  1.0
  N  N78  1  0.22124000  0.47028000  0.91265000  1.0
  N  N79  1  0.72126000  0.52973000  0.58736000  1.0
  N  N80  1  0.82602000  0.67365000  0.11902000  1.0
  N  N81  1  0.32600000  0.32633000  0.38098000  1.0
  N  N82  1  0.17400000  0.32637000  0.88098000  1.0
  N  N83  1  0.67400000  0.67365000  0.61903000  1.0
  N  N84  1  0.72496000  0.25810000  0.00982000  1.0
  N  N85  1  0.22496000  0.74189000  0.49017000  1.0
  N  N86  1  0.27504000  0.74192000  0.99018000  1.0
  N  N87  1  0.77505000  0.25810000  0.50982000  1.0
  Cl  Cl88  1  0.96485000  0.13454000  0.14121000  1.0
  Cl  Cl89  1  0.46485000  0.86544000  0.35877000  1.0
  Cl  Cl90  1  0.03516000  0.86547000  0.85878000  1.0
  Cl  Cl91  1  0.53516000  0.13454000  0.64122000  1.0
  O  O92  1  0.96829000  0.47586000  0.22172000  1.0
  O  O93  1  0.46827000  0.52409000  0.27826000  1.0
  O  O94  1  0.03168000  0.52413000  0.77828000  1.0
  O  O95  1  0.53171000  0.47587000  0.72172000  1.0
  O  O96  1  0.03153000  0.68582000  0.31698000  1.0
  O  O97  1  0.53152000  0.31414000  0.18301000  1.0
  O  O98  1  0.96844000  0.31417000  0.68302000  1.0
  O  O99  1  0.46846000  0.68582000  0.81699000  1.0
