# generated using pymatgen
data_CsH3C7N2O7
_symmetry_space_group_name_H-M   'P 1'
_cell_length_a   7.41435000
_cell_length_b   7.83150000
_cell_length_c   17.59620000
_cell_angle_alpha   96.75800000
_cell_angle_beta   89.99960000
_cell_angle_gamma   89.99920000
_symmetry_Int_Tables_number   1
_chemical_formula_structural   CsH3C7N2O7
_chemical_formula_sum   'Cs4 H12 C28 N8 O28'
_cell_volume   1014.63287862
_cell_formula_units_Z   4
loop_
 _symmetry_equiv_pos_site_id
 _symmetry_equiv_pos_as_xyz
  1  'x, y, z'
loop_
 _atom_site_type_symbol
 _atom_site_label
 _atom_site_symmetry_multiplicity
 _atom_site_fract_x
 _atom_site_fract_y
 _atom_site_fract_z
 _atom_site_occupancy
  Cs  Cs0  1  0.83080000  0.61326000  0.20202000  1.0
  Cs  Cs1  1  0.33080000  0.38674000  0.29798000  1.0
  Cs  Cs2  1  0.16920000  0.38674000  0.79798000  1.0
  Cs  Cs3  1  0.66920000  0.61326000  0.70202000  1.0
  H  H4  1  0.41677000  0.68460000  0.96459000  1.0
  H  H5  1  0.91677000  0.31540000  0.53541000  1.0
  H  H6  1  0.58322000  0.31539000  0.03541000  1.0
  H  H7  1  0.08323000  0.68461000  0.46459000  1.0
  H  H8  1  0.19090000  0.98225000  0.16405000  1.0
  H  H9  1  0.69090000  0.01774000  0.33595000  1.0
  H  H10  1  0.80910000  0.01776000  0.83594000  1.0
  H  H11  1  0.30910000  0.98225000  0.66406000  1.0
  H  H12  1  0.09292000  0.33167000  0.00011000  1.0
  H  H13  1  0.59292000  0.66834000  0.49990000  1.0
  H  H14  1  0.90708000  0.66834000  0.99988000  1.0
  H  H15  1  0.40708000  0.33167000  0.50011000  1.0
  C  C16  1  0.09791000  0.25993000  0.10003000  1.0
  C  C17  1  0.59791000  0.74007000  0.39998000  1.0
  C  C18  1  0.90211000  0.74008000  0.89997000  1.0
  C  C19  1  0.40210000  0.25992000  0.60003000  1.0
  C  C20  1  0.18279000  0.10128000  0.06034000  1.0
  C  C21  1  0.68280000  0.89872000  0.43966000  1.0
  C  C22  1  0.81722000  0.89872000  0.93965000  1.0
  C  C23  1  0.31721000  0.10128000  0.56034000  1.0
  C  C24  1  0.21746000  0.08758000  0.97844000  1.0
  C  C25  1  0.71748000  0.91242000  0.52156000  1.0
  C  C26  1  0.78254000  0.91241000  0.02156000  1.0
  C  C27  1  0.28254000  0.08758000  0.47844000  1.0
  C  C28  1  0.30473000  0.92961000  0.94602000  1.0
  C  C29  1  0.80474000  0.07039000  0.55398000  1.0
  C  C30  1  0.69525000  0.07038000  0.05398000  1.0
  C  C31  1  0.19526000  0.92961000  0.44602000  1.0
  C  C32  1  0.34927000  0.80039000  0.99060000  1.0
  C  C33  1  0.84927000  0.19962000  0.50940000  1.0
  C  C34  1  0.65071000  0.19960000  0.00940000  1.0
  C  C35  1  0.15072000  0.80039000  0.49060000  1.0
  C  C36  1  0.30645000  0.81999000  0.06811000  1.0
  C  C37  1  0.80645000  0.18001000  0.43189000  1.0
  C  C38  1  0.69354000  0.18001000  0.93188000  1.0
  C  C39  1  0.19355000  0.81999000  0.56811000  1.0
  C  C40  1  0.22255000  0.96922000  0.10310000  1.0
  C  C41  1  0.72256000  0.03077000  0.39690000  1.0
  C  C42  1  0.77745000  0.03078000  0.89689000  1.0
  C  C43  1  0.27745000  0.96922000  0.60310000  1.0
  N  N44  1  0.35183000  0.89903000  0.86551000  1.0
  N  N45  1  0.85183000  0.10098000  0.63449000  1.0
  N  N46  1  0.64816000  0.10096000  0.13448000  1.0
  N  N47  1  0.14818000  0.89904000  0.36551000  1.0
  N  N48  1  0.35042000  0.68397000  0.11373000  1.0
  N  N49  1  0.85041000  0.31602000  0.38627000  1.0
  N  N50  1  0.64958000  0.31603000  0.88627000  1.0
  N  N51  1  0.14958000  0.68397000  0.61372000  1.0
  O  O52  1  0.05436000  0.38115000  0.05607000  1.0
  O  O53  1  0.55437000  0.61885000  0.44393000  1.0
  O  O54  1  0.94565000  0.61885000  0.94392000  1.0
  O  O55  1  0.44563000  0.38115000  0.55608000  1.0
  O  O56  1  0.06778000  0.27895000  0.16963000  1.0
  O  O57  1  0.56779000  0.72106000  0.33038000  1.0
  O  O58  1  0.93222000  0.72106000  0.83036000  1.0
  O  O59  1  0.43223000  0.27894000  0.66963000  1.0
  O  O60  1  0.16880000  0.20827000  0.93992000  1.0
  O  O61  1  0.66881000  0.79173000  0.56008000  1.0
  O  O62  1  0.83119000  0.79172000  0.06007000  1.0
  O  O63  1  0.33119000  0.20827000  0.43993000  1.0
  O  O64  1  0.34855000  0.02030000  0.82578000  1.0
  O  O65  1  0.84855000  0.97971000  0.67422000  1.0
  O  O66  1  0.65145000  0.97968000  0.17421000  1.0
  O  O67  1  0.15146000  0.02031000  0.32578000  1.0
  O  O68  1  0.39899000  0.75011000  0.83956000  1.0
  O  O69  1  0.89899000  0.24990000  0.66044000  1.0
  O  O70  1  0.60101000  0.24988000  0.16044000  1.0
  O  O71  1  0.10101000  0.75011000  0.33956000  1.0
  O  O72  1  0.46186000  0.57294000  0.08797000  1.0
  O  O73  1  0.96185000  0.42705000  0.41203000  1.0
  O  O74  1  0.53814000  0.42706000  0.91203000  1.0
  O  O75  1  0.03814000  0.57294000  0.58797000  1.0
  O  O76  1  0.27510000  0.68478000  0.17725000  1.0
  O  O77  1  0.77510000  0.31521000  0.32275000  1.0
  O  O78  1  0.72490000  0.31523000  0.82275000  1.0
  O  O79  1  0.22490000  0.68478000  0.67725000  1.0
