# generated using pymatgen
data_CuH9C8S2IN
_symmetry_space_group_name_H-M   'P 1'
_cell_length_a   5.48995000
_cell_length_b   12.53920000
_cell_length_c   15.60610000
_cell_angle_alpha   93.39150000
_cell_angle_beta   89.99910000
_cell_angle_gamma   89.99920000
_symmetry_Int_Tables_number   1
_chemical_formula_structural   CuH9C8S2IN
_chemical_formula_sum   'Cu4 H36 C32 S8 I4 N4'
_cell_volume   1072.43584229
_cell_formula_units_Z   4
loop_
 _symmetry_equiv_pos_site_id
 _symmetry_equiv_pos_as_xyz
  1  'x, y, z'
loop_
 _atom_site_type_symbol
 _atom_site_label
 _atom_site_symmetry_multiplicity
 _atom_site_fract_x
 _atom_site_fract_y
 _atom_site_fract_z
 _atom_site_occupancy
  Cu  Cu0  1  0.76942000  0.01062000  0.50549000  1.0
  Cu  Cu1  1  0.26942000  0.98939000  0.99450000  1.0
  Cu  Cu2  1  0.23057000  0.98938000  0.49451000  1.0
  Cu  Cu3  1  0.73057000  0.01061000  0.00549000  1.0
  H  H4  1  0.28776000  0.76548000  0.44415000  1.0
  H  H5  1  0.78778000  0.23452000  0.05585000  1.0
  H  H6  1  0.71223000  0.23453000  0.55585000  1.0
  H  H7  1  0.21224000  0.76548000  0.94414000  1.0
  H  H8  1  0.10515000  0.86527000  0.23784000  1.0
  H  H9  1  0.60513000  0.13471000  0.26217000  1.0
  H  H10  1  0.89483000  0.13473000  0.76216000  1.0
  H  H11  1  0.39486000  0.86529000  0.73784000  1.0
  H  H12  1  0.99254000  0.94637000  0.32793000  1.0
  H  H13  1  0.49252000  0.05361000  0.17207000  1.0
  H  H14  1  0.00745000  0.05363000  0.67207000  1.0
  H  H15  1  0.50747000  0.94638000  0.82793000  1.0
  H  H16  1  0.81144000  0.92615000  0.23158000  1.0
  H  H17  1  0.31141000  0.07383000  0.26842000  1.0
  H  H18  1  0.18855000  0.07385000  0.76841000  1.0
  H  H19  1  0.68857000  0.92617000  0.73158000  1.0
  H  H20  1  0.14006000  0.59992000  0.32456000  1.0
  H  H21  1  0.64005000  0.40006000  0.17543000  1.0
  H  H22  1  0.85993000  0.40008000  0.67544000  1.0
  H  H23  1  0.35997000  0.59994000  0.82456000  1.0
  H  H24  1  0.20468000  0.40384000  0.30409000  1.0
  H  H25  1  0.70465000  0.59614000  0.19590000  1.0
  H  H26  1  0.79533000  0.59616000  0.69591000  1.0
  H  H27  1  0.29537000  0.40386000  0.80410000  1.0
  H  H28  1  0.57951000  0.32107000  0.36201000  1.0
  H  H29  1  0.07947000  0.67892000  0.13799000  1.0
  H  H30  1  0.42050000  0.67893000  0.63800000  1.0
  H  H31  1  0.92054000  0.32108000  0.86201000  1.0
  H  H32  1  0.88606000  0.43487000  0.44008000  1.0
  H  H33  1  0.38606000  0.56513000  0.05991000  1.0
  H  H34  1  0.11393000  0.56514000  0.55992000  1.0
  H  H35  1  0.61397000  0.43487000  0.94009000  1.0
  H  H36  1  0.81452000  0.63170000  0.46415000  1.0
  H  H37  1  0.31454000  0.36829000  0.03585000  1.0
  H  H38  1  0.18547000  0.36830000  0.53585000  1.0
  H  H39  1  0.68549000  0.63171000  0.96415000  1.0
  C  C40  1  0.57364000  0.81454000  0.37509000  1.0
  C  C41  1  0.07365000  0.18545000  0.12492000  1.0
  C  C42  1  0.42634000  0.18546000  0.62492000  1.0
  C  C43  1  0.92637000  0.81455000  0.87508000  1.0
  C  C44  1  0.94175000  0.89024000  0.27439000  1.0
  C  C45  1  0.44174000  0.10973000  0.22562000  1.0
  C  C46  1  0.05822000  0.10976000  0.72561000  1.0
  C  C47  1  0.55825000  0.89026000  0.77438000  1.0
  C  C48  1  0.47558000  0.62662000  0.39468000  1.0
  C  C49  1  0.97560000  0.37337000  0.10532000  1.0
  C  C50  1  0.52440000  0.37338000  0.60532000  1.0
  C  C51  1  0.02441000  0.62664000  0.89468000  1.0
  C  C52  1  0.30234000  0.56325000  0.35017000  1.0
  C  C53  1  0.80235000  0.43673000  0.14983000  1.0
  C  C54  1  0.69766000  0.43675000  0.64983000  1.0
  C  C55  1  0.19767000  0.56326000  0.85017000  1.0
  C  C56  1  0.33995000  0.45331000  0.33860000  1.0
  C  C57  1  0.83991000  0.54668000  0.16139000  1.0
  C  C58  1  0.66006000  0.54669000  0.66139000  1.0
  C  C59  1  0.16011000  0.45332000  0.83861000  1.0
  C  C60  1  0.55048000  0.40717000  0.37030000  1.0
  C  C61  1  0.05045000  0.59282000  0.12969000  1.0
  C  C62  1  0.44952000  0.59283000  0.62970000  1.0
  C  C63  1  0.94958000  0.40718000  0.87031000  1.0
  C  C64  1  0.72282000  0.47107000  0.41468000  1.0
  C  C65  1  0.22281000  0.52892000  0.08532000  1.0
  C  C66  1  0.27717000  0.52893000  0.58533000  1.0
  C  C67  1  0.77721000  0.47108000  0.91468000  1.0
  C  C68  1  0.68552000  0.58080000  0.42770000  1.0
  C  C69  1  0.18553000  0.41919000  0.07230000  1.0
  C  C70  1  0.31447000  0.41920000  0.57231000  1.0
  C  C71  1  0.81449000  0.58080000  0.92770000  1.0
  S  S72  1  0.51165000  0.94698000  0.39142000  1.0
  S  S73  1  0.01164000  0.05301000  0.10858000  1.0
  S  S74  1  0.48833000  0.05303000  0.60858000  1.0
  S  S75  1  0.98836000  0.94699000  0.89141000  1.0
  S  S76  1  0.82016000  0.76956000  0.31315000  1.0
  S  S77  1  0.32017000  0.23042000  0.18686000  1.0
  S  S78  1  0.17981000  0.23044000  0.68686000  1.0
  S  S79  1  0.67984000  0.76958000  0.81314000  1.0
  I  I80  1  0.98506000  0.83736000  0.56546000  1.0
  I  I81  1  0.48506000  0.16264000  0.93454000  1.0
  I  I82  1  0.01494000  0.16264000  0.43454000  1.0
  I  I83  1  0.51494000  0.83735000  0.06545000  1.0
  N  N84  1  0.43464000  0.73906000  0.40750000  1.0
  N  N85  1  0.93465000  0.26092000  0.09250000  1.0
  N  N86  1  0.56534000  0.26094000  0.59250000  1.0
  N  N87  1  0.06537000  0.73908000  0.90749000  1.0
