# generated using pymatgen
data_ZnH6C8BrN7
_symmetry_space_group_name_H-M   'P 1'
_cell_length_a   7.29657000
_cell_length_b   8.51438000
_cell_length_c   17.08430000
_cell_angle_alpha   90.00000000
_cell_angle_beta   93.72090000
_cell_angle_gamma   89.99990000
_symmetry_Int_Tables_number   1
_chemical_formula_structural   ZnH6C8BrN7
_chemical_formula_sum   'Zn4 H24 C32 Br4 N28'
_cell_volume   1059.13792071
_cell_formula_units_Z   4
loop_
 _symmetry_equiv_pos_site_id
 _symmetry_equiv_pos_as_xyz
  1  'x, y, z'
loop_
 _atom_site_type_symbol
 _atom_site_label
 _atom_site_symmetry_multiplicity
 _atom_site_fract_x
 _atom_site_fract_y
 _atom_site_fract_z
 _atom_site_occupancy
  Zn  Zn0  1  0.76129000  0.80375000  0.80325000  1.0
  Zn  Zn1  1  0.23871000  0.30375000  0.69675000  1.0
  Zn  Zn2  1  0.23871000  0.19625000  0.19675000  1.0
  Zn  Zn3  1  0.76129000  0.69625000  0.30325000  1.0
  H  H4  1  0.56560000  0.76085000  0.13853000  1.0
  H  H5  1  0.43440000  0.26085000  0.36147000  1.0
  H  H6  1  0.43440000  0.23915000  0.86147000  1.0
  H  H7  1  0.56560000  0.73915000  0.63853000  1.0
  H  H8  1  0.57171000  0.93746000  0.08332000  1.0
  H  H9  1  0.42829000  0.43746000  0.41668000  1.0
  H  H10  1  0.42830000  0.06254000  0.91668000  1.0
  H  H11  1  0.57170000  0.56254000  0.58332000  1.0
  H  H12  1  0.74108000  0.21234000  0.08527000  1.0
  H  H13  1  0.25892000  0.71234000  0.41473000  1.0
  H  H14  1  0.25892000  0.78766000  0.91473000  1.0
  H  H15  1  0.74108000  0.28766000  0.58527000  1.0
  H  H16  1  0.66960000  0.47555000  0.13778000  1.0
  H  H17  1  0.33040000  0.97555000  0.36222000  1.0
  H  H18  1  0.33040000  0.52445000  0.86223000  1.0
  H  H19  1  0.66960000  0.02445000  0.63778000  1.0
  H  H20  1  0.84775000  0.40434000  0.85811000  1.0
  H  H21  1  0.15225000  0.90434000  0.64189000  1.0
  H  H22  1  0.15225000  0.59566000  0.14189000  1.0
  H  H23  1  0.84775000  0.09566000  0.35811000  1.0
  H  H24  1  0.82967000  0.17562000  0.95014000  1.0
  H  H25  1  0.17033000  0.67562000  0.54986000  1.0
  H  H26  1  0.17033000  0.82438000  0.04986000  1.0
  H  H27  1  0.82967000  0.32438000  0.45014000  1.0
  C  C28  1  0.65197000  0.83415000  0.10293000  1.0
  C  C29  1  0.34803000  0.33415000  0.39707000  1.0
  C  C30  1  0.34803000  0.16585000  0.89707000  1.0
  C  C31  1  0.65197000  0.66585000  0.60293000  1.0
  C  C32  1  0.76855000  0.56863000  0.94746000  1.0
  C  C33  1  0.23145000  0.06863000  0.55254000  1.0
  C  C34  1  0.23145000  0.43137000  0.05254000  1.0
  C  C35  1  0.76855000  0.93138000  0.44746000  1.0
  C  C36  1  0.72204000  0.58751000  0.02597000  1.0
  C  C37  1  0.27796000  0.08751000  0.47403000  1.0
  C  C38  1  0.27796000  0.41249000  0.97403000  1.0
  C  C39  1  0.72204000  0.91249000  0.52597000  1.0
  C  C40  1  0.74680000  0.31466000  0.04740000  1.0
  C  C41  1  0.25320000  0.81466000  0.45260000  1.0
  C  C42  1  0.25320000  0.68534000  0.95260000  1.0
  C  C43  1  0.74680000  0.18534000  0.54740000  1.0
  C  C44  1  0.70823000  0.46109000  0.07766000  1.0
  C  C45  1  0.29177000  0.96109000  0.42234000  1.0
  C  C46  1  0.29177000  0.53891000  0.92234000  1.0
  C  C47  1  0.70823000  0.03891000  0.57766000  1.0
  C  C48  1  0.80910000  0.41940000  0.91805000  1.0
  C  C49  1  0.19090000  0.91940000  0.58195000  1.0
  C  C50  1  0.19090000  0.58060000  0.08195000  1.0
  C  C51  1  0.80910000  0.08060000  0.41805000  1.0
  C  C52  1  0.79764000  0.29400000  0.96942000  1.0
  C  C53  1  0.20236000  0.79400000  0.53058000  1.0
  C  C54  1  0.20236000  0.70600000  0.03058000  1.0
  C  C55  1  0.79764000  0.20600000  0.46942000  1.0
  C  C56  1  0.82023000  0.88628000  0.15062000  1.0
  C  C57  1  0.17977000  0.38628000  0.34938000  1.0
  C  C58  1  0.17977000  0.11372000  0.84938000  1.0
  C  C59  1  0.82023000  0.61372000  0.65062000  1.0
  Br  Br60  1  0.45842000  0.87311000  0.76205000  1.0
  Br  Br61  1  0.54158000  0.37311000  0.73795000  1.0
  Br  Br62  1  0.54158000  0.12689000  0.23795000  1.0
  Br  Br63  1  0.45842000  0.62689000  0.26205000  1.0
  N  N64  1  0.71780000  0.82132000  0.96597000  1.0
  N  N65  1  0.28220000  0.32132000  0.53403000  1.0
  N  N66  1  0.28220000  0.17868000  0.03403000  1.0
  N  N67  1  0.71780000  0.67868000  0.46597000  1.0
  N  N68  1  0.76195000  0.71612000  0.91388000  1.0
  N  N69  1  0.23805000  0.21613000  0.58612000  1.0
  N  N70  1  0.23804000  0.28387000  0.08612000  1.0
  N  N71  1  0.76195000  0.78388000  0.41388000  1.0
  N  N72  1  0.69445000  0.74596000  0.03333000  1.0
  N  N73  1  0.30555000  0.24596000  0.46667000  1.0
  N  N74  1  0.30555000  0.25403000  0.96667000  1.0
  N  N75  1  0.69445000  0.75404000  0.53333000  1.0
  N  N76  1  0.87135000  0.84097000  0.22496000  1.0
  N  N77  1  0.12865000  0.34097000  0.27504000  1.0
  N  N78  1  0.12865000  0.15902000  0.77504000  1.0
  N  N79  1  0.87135000  0.65903000  0.72496000  1.0
  N  N80  1  0.93614000  0.99439000  0.12652000  1.0
  N  N81  1  0.06386000  0.49439000  0.37348000  1.0
  N  N82  1  0.06386000  0.00561000  0.87348000  1.0
  N  N83  1  0.93614000  0.50561000  0.62652000  1.0
  N  N84  1  0.02095000  0.92423000  0.24786000  1.0
  N  N85  1  0.97904000  0.42423000  0.25214000  1.0
  N  N86  1  0.97904000  0.07577000  0.75214000  1.0
  N  N87  1  0.02095000  0.57577000  0.74786000  1.0
  N  N88  1  0.05720000  0.01495000  0.18820000  1.0
  N  N89  1  0.94280000  0.51495000  0.31180000  1.0
  N  N90  1  0.94280000  0.98505000  0.81180000  1.0
  N  N91  1  0.05720000  0.48505000  0.68820000  1.0
