# generated using pymatgen
data_H32Ru2C32N4ClO4
_symmetry_space_group_name_H-M   'P 1'
_cell_length_a   7.36782000
_cell_length_b   10.66120000
_cell_length_c   10.66094676
_cell_angle_alpha   83.14972835
_cell_angle_beta   69.79241254
_cell_angle_gamma   69.78140000
_symmetry_Int_Tables_number   1
_chemical_formula_structural   H32Ru2C32N4ClO4
_chemical_formula_sum   'H32 Ru2 C32 N4 Cl1 O4'
_cell_volume   737.44545376
_cell_formula_units_Z   1
loop_
 _symmetry_equiv_pos_site_id
 _symmetry_equiv_pos_as_xyz
  1  'x, y, z'
loop_
 _atom_site_type_symbol
 _atom_site_label
 _atom_site_symmetry_multiplicity
 _atom_site_fract_x
 _atom_site_fract_y
 _atom_site_fract_z
 _atom_site_occupancy
  H  H0  1  0.28211000  0.85179000  0.16112000  1.0
  H  H1  1  0.55696000  0.16114000  0.14821000  1.0
  H  H2  1  0.86621000  0.83889000  0.85182000  1.0
  H  H3  1  0.29490000  0.14822000  0.83881000  1.0
  H  H4  1  0.20000000  0.09054000  0.09015000  1.0
  H  H5  1  0.71006000  0.09009000  0.90950000  1.0
  H  H6  1  0.70954000  0.90989000  0.09057000  1.0
  H  H7  1  0.38053000  0.90948000  0.90983000  1.0
  H  H8  1  0.99813000  0.26999000  0.26405000  1.0
  H  H9  1  0.73782000  0.26395000  0.73003000  1.0
  H  H10  1  0.73190000  0.73597000  0.26997000  1.0
  H  H11  1  0.53208000  0.73001000  0.73594000  1.0
  H  H12  1  0.86883000  0.21059000  0.49958000  1.0
  H  H13  1  0.63148000  0.49952000  0.78943000  1.0
  H  H14  1  0.92055000  0.50040000  0.21055000  1.0
  H  H15  1  0.57904000  0.78936000  0.50035000  1.0
  H  H16  1  0.90954000  0.74884000  0.41424000  1.0
  H  H17  1  0.67614000  0.41431000  0.25121000  1.0
  H  H18  1  0.34176000  0.58571000  0.74885000  1.0
  H  H19  1  0.07256000  0.25125000  0.58575000  1.0
  H  H20  1  0.81592000  0.04487000  0.67155000  1.0
  H  H21  1  0.51241000  0.67155000  0.95521000  1.0
  H  H22  1  0.13924000  0.32846000  0.04474000  1.0
  H  H23  1  0.53237000  0.95524000  0.32835000  1.0
  H  H24  1  0.07372000  0.94629000  0.65601000  1.0
  H  H25  1  0.27021000  0.65597000  0.05382000  1.0
  H  H26  1  0.97993000  0.34404000  0.94621000  1.0
  H  H27  1  0.67602000  0.05378000  0.34402000  1.0
  H  H28  1  0.90595000  0.87241000  0.63230000  1.0
  H  H29  1  0.46173000  0.63227000  0.12767000  1.0
  H  H30  1  0.22160000  0.36771000  0.87228000  1.0
  H  H31  1  0.41067000  0.12768000  0.36771000  1.0
  Ru  Ru32  1  0.40731000  0.49999000  0.50004000  1.0
  Ru  Ru33  1  0.09271000  0.50000000  0.50004000  1.0
  C  C34  1  0.12947000  0.89725000  0.37068000  1.0
  C  C35  1  0.49978000  0.37070000  0.10276000  1.0
  C  C36  1  0.97330000  0.62934000  0.89725000  1.0
  C  C37  1  0.39749000  0.10271000  0.62928000  1.0
  C  C38  1  0.19471000  0.93109000  0.23524000  1.0
  C  C39  1  0.57008000  0.23524000  0.06891000  1.0
  C  C40  1  0.87427000  0.76479000  0.93113000  1.0
  C  C41  1  0.36107000  0.06887000  0.76470000  1.0
  C  C42  1  0.14830000  0.06483000  0.19568000  1.0
  C  C43  1  0.65605000  0.19565000  0.93519000  1.0
  C  C44  1  0.78688000  0.80434000  0.06485000  1.0
  C  C45  1  0.40881000  0.93516000  0.80428000  1.0
  C  C46  1  0.03401000  0.16481000  0.29212000  1.0
  C  C47  1  0.67382000  0.29206000  0.83520000  1.0
  C  C48  1  0.80113000  0.70788000  0.16481000  1.0
  C  C49  1  0.49099000  0.83516000  0.70782000  1.0
  C  C50  1  0.96637000  0.13101000  0.42675000  1.0
  C  C51  1  0.60681000  0.42671000  0.86901000  1.0
  C  C52  1  0.90257000  0.57324000  0.13098000  1.0
  C  C53  1  0.52416000  0.86896000  0.57319000  1.0
  C  C54  1  0.01469000  0.99755000  0.46907000  1.0
  C  C55  1  0.51619000  0.46906000  0.00247000  1.0
  C  C56  1  0.98776000  0.53094000  0.99752000  1.0
  C  C57  1  0.48137000  0.00241000  0.53087000  1.0
  C  C58  1  0.17667000  0.75340000  0.41079000  1.0
  C  C59  1  0.41251000  0.41079000  0.24661000  1.0
  C  C60  1  0.06999000  0.58923000  0.75343000  1.0
  C  C61  1  0.34091000  0.24656000  0.58922000  1.0
  C  C62  1  0.94858000  0.96350000  0.61517000  1.0
  C  C63  1  0.43618000  0.61516000  0.03658000  1.0
  C  C64  1  0.08791000  0.38485000  0.96339000  1.0
  C  C65  1  0.52728000  0.03656000  0.38480000  1.0
  N  N66  1  0.04311000  0.69148000  0.42942000  1.0
  N  N67  1  0.52740000  0.42942000  0.30855000  1.0
  N  N68  1  0.26548000  0.57058000  0.69151000  1.0
  N  N69  1  0.16401000  0.30854000  0.57064000  1.0
  Cl  Cl70  1  0.74999000  0.50002000  0.50002000  1.0
  O  O71  1  0.35133000  0.69218000  0.42890000  1.0
  O  O72  1  0.21977000  0.42881000  0.30786000  1.0
  O  O73  1  0.95652000  0.57116000  0.69220000  1.0
  O  O74  1  0.47241000  0.30779000  0.57120000  1.0
