# generated using pymatgen
data_CoH12C14S3(N2Cl)2
_symmetry_space_group_name_H-M   'P 1'
_cell_length_a   8.44892000
_cell_length_b   9.03814000
_cell_length_c   11.96830000
_cell_angle_alpha   104.97000000
_cell_angle_beta   95.11430000
_cell_angle_gamma   101.86300000
_symmetry_Int_Tables_number   1
_chemical_formula_structural   CoH12C14S3(N2Cl)2
_chemical_formula_sum   'Co2 H24 C28 S6 N8 Cl4'
_cell_volume   854.21889061
_cell_formula_units_Z   2
loop_
 _symmetry_equiv_pos_site_id
 _symmetry_equiv_pos_as_xyz
  1  'x, y, z'
loop_
 _atom_site_type_symbol
 _atom_site_label
 _atom_site_symmetry_multiplicity
 _atom_site_fract_x
 _atom_site_fract_y
 _atom_site_fract_z
 _atom_site_occupancy
  Co  Co0  1  0.19312000  0.64639000  0.83863000  1.0
  Co  Co1  1  0.80688000  0.35361000  0.16137000  1.0
  H  H2  1  0.05866000  0.65342000  0.60725000  1.0
  H  H3  1  0.94133000  0.34658000  0.39275000  1.0
  H  H4  1  0.78491000  0.56235000  0.47862000  1.0
  H  H5  1  0.21509000  0.43764000  0.52138000  1.0
  H  H6  1  0.54486000  0.42121000  0.55150000  1.0
  H  H7  1  0.45514000  0.57878000  0.44850000  1.0
  H  H8  1  0.86457000  0.48428000  0.86928000  1.0
  H  H9  1  0.13543000  0.51573000  0.13072000  1.0
  H  H10  1  0.43254000  0.40079000  0.74067000  1.0
  H  H11  1  0.56746000  0.59921000  0.25933000  1.0
  H  H12  1  0.57136000  0.40760000  0.86377000  1.0
  H  H13  1  0.42865000  0.59241000  0.13623000  1.0
  H  H14  1  0.36847000  0.98257000  0.89909000  1.0
  H  H15  1  0.63152000  0.01743000  0.10091000  1.0
  H  H16  1  0.38784000  0.22695000  0.06266000  1.0
  H  H17  1  0.61216000  0.77305000  0.93734000  1.0
  H  H18  1  0.21726000  0.20992000  0.22244000  1.0
  H  H19  1  0.78274000  0.79008000  0.77756000  1.0
  H  H20  1  0.01848000  0.71968000  0.03975000  1.0
  H  H21  1  0.98152000  0.28032000  0.96025000  1.0
  H  H22  1  0.85935000  0.88803000  0.18237000  1.0
  H  H23  1  0.14065000  0.11198000  0.81764000  1.0
  H  H24  1  0.98041000  0.06543000  0.28381000  1.0
  H  H25  1  0.01959000  0.93457000  0.71619000  1.0
  C  C26  1  0.95024000  0.59312000  0.63482000  1.0
  C  C27  1  0.04976000  0.40688000  0.36518000  1.0
  C  C28  1  0.79880000  0.54157000  0.56412000  1.0
  C  C29  1  0.20120000  0.45842000  0.43588000  1.0
  C  C30  1  0.66512000  0.46553000  0.60484000  1.0
  C  C31  1  0.33488000  0.53447000  0.39516000  1.0
  C  C32  1  0.68591000  0.44374000  0.71646000  1.0
  C  C33  1  0.31409000  0.55625000  0.28354000  1.0
  C  C34  1  0.84235000  0.49825000  0.78181000  1.0
  C  C35  1  0.15765000  0.50175000  0.21819000  1.0
  C  C36  1  0.54559000  0.36958000  0.76775000  1.0
  C  C37  1  0.45441000  0.63042000  0.23225000  1.0
  C  C38  1  0.36954000  0.09943000  0.60120000  1.0
  C  C39  1  0.63046000  0.90057000  0.39880000  1.0
  C  C40  1  0.29539000  0.98200000  0.96967000  1.0
  C  C41  1  0.70461000  0.01800000  0.03033000  1.0
  C  C42  1  0.30452000  0.11660000  0.06029000  1.0
  C  C43  1  0.69548000  0.88340000  0.93971000  1.0
  C  C44  1  0.20801000  0.10762000  0.14815000  1.0
  C  C45  1  0.79199000  0.89239000  0.85185000  1.0
  C  C46  1  0.09991000  0.96462000  0.14086000  1.0
  C  C47  1  0.90009000  0.03538000  0.85914000  1.0
  C  C48  1  0.09920000  0.83422000  0.04758000  1.0
  C  C49  1  0.90080000  0.16578000  0.95242000  1.0
  C  C50  1  0.98360000  0.94975000  0.22735000  1.0
  C  C51  1  0.01640000  0.05025000  0.77265000  1.0
  C  C52  1  0.17258000  0.96482000  0.42997000  1.0
  C  C53  1  0.82743000  0.03518000  0.57003000  1.0
  S  S54  1  0.50243000  0.15429000  0.73248000  1.0
  S  S55  1  0.49756000  0.84570000  0.26753000  1.0
  S  S56  1  0.02594000  0.82838000  0.32117000  1.0
  S  S57  1  0.97407000  0.17162000  0.67883000  1.0
  S  S58  1  0.26516000  0.90213000  0.53978000  1.0
  S  S59  1  0.73484000  0.09786000  0.46022000  1.0
  N  N60  1  0.97218000  0.57164000  0.74222000  1.0
  N  N61  1  0.02782000  0.42837000  0.25779000  1.0
  N  N62  1  0.19563000  0.84162000  0.96435000  1.0
  N  N63  1  0.80437000  0.15838000  0.03565000  1.0
  N  N64  1  0.33482000  0.19320000  0.53992000  1.0
  N  N65  1  0.66518000  0.80680000  0.46008000  1.0
  N  N66  1  0.22162000  0.11645000  0.44199000  1.0
  N  N67  1  0.77839000  0.88355000  0.55801000  1.0
  Cl  Cl68  1  0.37486000  0.70192000  0.72527000  1.0
  Cl  Cl69  1  0.62514000  0.29808000  0.27473000  1.0
  Cl  Cl70  1  0.23486000  0.46534000  0.92536000  1.0
  Cl  Cl71  1  0.76514000  0.53466000  0.07463000  1.0
