# generated using pymatgen
data_CuH3C9N2
_symmetry_space_group_name_H-M   'P 1'
_cell_length_a   35.68750000
_cell_length_b   36.05800000
_cell_length_c   36.04580000
_cell_angle_alpha   89.99230000
_cell_angle_beta   89.99690000
_cell_angle_gamma   89.96710000
_symmetry_Int_Tables_number   1
_chemical_formula_structural   CuH3C9N2
_chemical_formula_sum   'Cu12 H36 C108 N24'
_cell_volume   46384.44371674
_cell_formula_units_Z   12
loop_
 _symmetry_equiv_pos_site_id
 _symmetry_equiv_pos_as_xyz
  1  'x, y, z'
loop_
 _atom_site_type_symbol
 _atom_site_label
 _atom_site_symmetry_multiplicity
 _atom_site_fract_x
 _atom_site_fract_y
 _atom_site_fract_z
 _atom_site_occupancy
  Cu  Cu0  1  0.37504000  0.59101000  0.65944000  1.0
  Cu  Cu1  1  0.33858000  0.62656000  0.58757000  1.0
  Cu  Cu2  1  0.41156000  0.66315000  0.62393000  1.0
  Cu  Cu3  1  0.62570000  0.90913000  0.16004000  1.0
  Cu  Cu4  1  0.66142000  0.87418000  0.08732000  1.0
  Cu  Cu5  1  0.58847000  0.83803000  0.12378000  1.0
  Cu  Cu6  1  0.87477000  0.40934000  0.84024000  1.0
  Cu  Cu7  1  0.83806000  0.37373000  0.91217000  1.0
  Cu  Cu8  1  0.91120000  0.33712000  0.87571000  1.0
  Cu  Cu9  1  0.12411000  0.08936000  0.34132000  1.0
  Cu  Cu10  1  0.16146000  0.12569000  0.41271000  1.0
  Cu  Cu11  1  0.08833000  0.16184000  0.37630000  1.0
  H  H12  1  0.32048000  0.52283000  0.67303000  1.0
  H  H13  1  0.27000000  0.57080000  0.57464000  1.0
  H  H14  1  0.47997000  0.67607000  0.67943000  1.0
  H  H15  1  0.42981000  0.57758000  0.72739000  1.0
  H  H16  1  0.32563000  0.68163000  0.51979000  1.0
  H  H17  1  0.42456000  0.73089000  0.56920000  1.0
  H  H18  1  0.68074000  0.97666000  0.17380000  1.0
  H  H19  1  0.72951000  0.92993000  0.07397000  1.0
  H  H20  1  0.51944000  0.82574000  0.17900000  1.0
  H  H21  1  0.57139000  0.92259000  0.22836000  1.0
  H  H22  1  0.67419000  0.81968000  0.01933000  1.0
  H  H23  1  0.57510000  0.77051000  0.06857000  1.0
  H  H24  1  0.82004000  0.47757000  0.82679000  1.0
  H  H25  1  0.76951000  0.42948000  0.92504000  1.0
  H  H26  1  0.97982000  0.32422000  0.82018000  1.0
  H  H27  1  0.92975000  0.42282000  0.77229000  1.0
  H  H28  1  0.82499000  0.31868000  0.97982000  1.0
  H  H29  1  0.92397000  0.26925000  0.93055000  1.0
  H  H30  1  0.17873000  0.02130000  0.32807000  1.0
  H  H31  1  0.23049000  0.07077000  0.42500000  1.0
  H  H32  1  0.01996000  0.17502000  0.32027000  1.0
  H  H33  1  0.06907000  0.07539000  0.27358000  1.0
  H  H34  1  0.17485000  0.18069000  0.48016000  1.0
  H  H35  1  0.07561000  0.22988000  0.43111000  1.0
  H  H36  1  0.82580000  0.12399000  0.07588000  1.0
  H  H37  1  0.92392000  0.17350000  0.12549000  1.0
  H  H38  1  0.87479000  0.07541000  0.17404000  1.0
  H  H39  1  0.17449000  0.37560000  0.57612000  1.0
  H  H40  1  0.07639000  0.32593000  0.62560000  1.0
  H  H41  1  0.12520000  0.42413000  0.67419000  1.0
  H  H42  1  0.32627000  0.87606000  0.42387000  1.0
  H  H43  1  0.42454000  0.82667000  0.37432000  1.0
  H  H44  1  0.37520000  0.92467000  0.32571000  1.0
  H  H45  1  0.62484000  0.57631000  0.82561000  1.0
  H  H46  1  0.57588000  0.67457000  0.87398000  1.0
  H  H47  1  0.67394000  0.62494000  0.92370000  1.0
  C  C48  1  0.31291000  0.53934000  0.64900000  1.0
  C  C49  1  0.28296000  0.53440000  0.62393000  1.0
  C  C50  1  0.28710000  0.56393000  0.59855000  1.0
  C  C51  1  0.46293000  0.65213000  0.68629000  1.0
  C  C52  1  0.46715000  0.62672000  0.71576000  1.0
  C  C53  1  0.43727000  0.60161000  0.71088000  1.0
  C  C54  1  0.34972000  0.68882000  0.53664000  1.0
  C  C55  1  0.37509000  0.71849000  0.53227000  1.0
  C  C56  1  0.40046000  0.71406000  0.56194000  1.0
  C  C57  1  0.68786000  0.96045000  0.14945000  1.0
  C  C58  1  0.71734000  0.96566000  0.12393000  1.0
  C  C59  1  0.71282000  0.93649000  0.09825000  1.0
  C  C60  1  0.53693000  0.84925000  0.18619000  1.0
  C  C61  1  0.53310000  0.87436000  0.21596000  1.0
  C  C62  1  0.56352000  0.89892000  0.21152000  1.0
  C  C63  1  0.65007000  0.81245000  0.03615000  1.0
  C  C64  1  0.62458000  0.78290000  0.03166000  1.0
  C  C65  1  0.59924000  0.78729000  0.06138000  1.0
  C  C66  1  0.81250000  0.46100000  0.85077000  1.0
  C  C67  1  0.78250000  0.46591000  0.87581000  1.0
  C  C68  1  0.78664000  0.43636000  0.90116000  1.0
  C  C69  1  0.96279000  0.34818000  0.81333000  1.0
  C  C70  1  0.96710000  0.37362000  0.78388000  1.0
  C  C71  1  0.93718000  0.39875000  0.78878000  1.0
  C  C72  1  0.84912000  0.31144000  0.96300000  1.0
  C  C73  1  0.87445000  0.28171000  0.96742000  1.0
  C  C74  1  0.89987000  0.28613000  0.93777000  1.0
  C  C75  1  0.18653000  0.03816000  0.35175000  1.0
  C  C76  1  0.21693000  0.03379000  0.37635000  1.0
  C  C77  1  0.21301000  0.06352000  0.40147000  1.0
  C  C78  1  0.03672000  0.15080000  0.31375000  1.0
  C  C79  1  0.03224000  0.12512000  0.28453000  1.0
  C  C80  1  0.06184000  0.09970000  0.28979000  1.0
  C  C81  1  0.15063000  0.18789000  0.46344000  1.0
  C  C82  1  0.12525000  0.21757000  0.46788000  1.0
  C  C83  1  0.09975000  0.21307000  0.43830000  1.0
  C  C84  1  0.84712000  0.09652000  0.12494000  1.0
  C  C85  1  0.84724000  0.12417000  0.09737000  1.0
  C  C86  1  0.87488000  0.15200000  0.09743000  1.0
  C  C87  1  0.90251000  0.15203000  0.12534000  1.0
  C  C88  1  0.90265000  0.12449000  0.15306000  1.0
  C  C89  1  0.87485000  0.09679000  0.15271000  1.0
  C  C90  1  0.15312000  0.40317000  0.62515000  1.0
  C  C91  1  0.15304000  0.37545000  0.59761000  1.0
  C  C92  1  0.12545000  0.34754000  0.59763000  1.0
  C  C93  1  0.09776000  0.34746000  0.62549000  1.0
  C  C94  1  0.09753000  0.37501000  0.65317000  1.0
  C  C95  1  0.12528000  0.40278000  0.65285000  1.0
  C  C96  1  0.34751000  0.90356000  0.37480000  1.0
  C  C97  1  0.34770000  0.87592000  0.40237000  1.0
  C  C98  1  0.37541000  0.84813000  0.40233000  1.0
  C  C99  1  0.40305000  0.84811000  0.37446000  1.0
  C  C100  1  0.40310000  0.87565000  0.34678000  1.0
  C  C101  1  0.37526000  0.90332000  0.34706000  1.0
  C  C102  1  0.65270000  0.59730000  0.87468000  1.0
  C  C103  1  0.62492000  0.59766000  0.84695000  1.0
  C  C104  1  0.59717000  0.62545000  0.84658000  1.0
  C  C105  1  0.59729000  0.65305000  0.87418000  1.0
  C  C106  1  0.62493000  0.65296000  0.90206000  1.0
  C  C107  1  0.65255000  0.62505000  0.90218000  1.0
  C  C108  1  0.74474000  0.99338000  0.12411000  1.0
  C  C109  1  0.76876000  0.01771000  0.12432000  1.0
  C  C110  1  0.79519000  0.04439000  0.12453000  1.0
  C  C111  1  0.81930000  0.06862000  0.12473000  1.0
  C  C112  1  0.25551000  0.50660000  0.62423000  1.0
  C  C113  1  0.23147000  0.48223000  0.62453000  1.0
  C  C114  1  0.20503000  0.45547000  0.62478000  1.0
  C  C115  1  0.18093000  0.43118000  0.62496000  1.0
  C  C116  1  0.24459000  0.00627000  0.37592000  1.0
  C  C117  1  0.26883000  0.98213000  0.37554000  1.0
  C  C118  1  0.29542000  0.95558000  0.37522000  1.0
  C  C119  1  0.31963000  0.93142000  0.37500000  1.0
  C  C120  1  0.75500000  0.49370000  0.87550000  1.0
  C  C121  1  0.73096000  0.51808000  0.87521000  1.0
  C  C122  1  0.70455000  0.54490000  0.87500000  1.0
  C  C123  1  0.68050000  0.56926000  0.87490000  1.0
  C  C124  1  0.00482000  0.12488000  0.25670000  1.0
  C  C125  1  0.98083000  0.12466000  0.23228000  1.0
  C  C126  1  0.95446000  0.12456000  0.20545000  1.0
  C  C127  1  0.93046000  0.12459000  0.18106000  1.0
  C  C128  1  0.49465000  0.62645000  0.74345000  1.0
  C  C129  1  0.51873000  0.62618000  0.76775000  1.0
  C  C130  1  0.54522000  0.62590000  0.79441000  1.0
  C  C131  1  0.56935000  0.62566000  0.81865000  1.0
  C  C132  1  0.99469000  0.37390000  0.75620000  1.0
  C  C133  1  0.01884000  0.37419000  0.73194000  1.0
  C  C134  1  0.04543000  0.37449000  0.70531000  1.0
  C  C135  1  0.06961000  0.37477000  0.68109000  1.0
  C  C136  1  0.50554000  0.87483000  0.24358000  1.0
  C  C137  1  0.48144000  0.87523000  0.26786000  1.0
  C  C138  1  0.45497000  0.87547000  0.29454000  1.0
  C  C139  1  0.43091000  0.87555000  0.31884000  1.0
  C  C140  1  0.87444000  0.25419000  0.99486000  1.0
  C  C141  1  0.87449000  0.23009000  0.01893000  1.0
  C  C142  1  0.87464000  0.20368000  0.04545000  1.0
  C  C143  1  0.87484000  0.17971000  0.06962000  1.0
  C  C144  1  0.37513000  0.74598000  0.50483000  1.0
  C  C145  1  0.37523000  0.77005000  0.48076000  1.0
  C  C146  1  0.37535000  0.79645000  0.45426000  1.0
  C  C147  1  0.37545000  0.82044000  0.43012000  1.0
  C  C148  1  0.62454000  0.75551000  0.00414000  1.0
  C  C149  1  0.62458000  0.73146000  0.98005000  1.0
  C  C150  1  0.62469000  0.70495000  0.95367000  1.0
  C  C151  1  0.62487000  0.68077000  0.92974000  1.0
  C  C152  1  0.12536000  0.24510000  0.49531000  1.0
  C  C153  1  0.12546000  0.26917000  0.51940000  1.0
  C  C154  1  0.12550000  0.29565000  0.54585000  1.0
  C  C155  1  0.12550000  0.31977000  0.56987000  1.0
  N  N156  1  0.31703000  0.58457000  0.60792000  1.0
  N  N157  1  0.33300000  0.56929000  0.63918000  1.0
  N  N158  1  0.41709000  0.61145000  0.68097000  1.0
  N  N159  1  0.43299000  0.64272000  0.66573000  1.0
  N  N160  1  0.39080000  0.68421000  0.58213000  1.0
  N  N161  1  0.35936000  0.66854000  0.56647000  1.0
  N  N162  1  0.68306000  0.91577000  0.10789000  1.0
  N  N163  1  0.66762000  0.93063000  0.13957000  1.0
  N  N164  1  0.58358000  0.88904000  0.18156000  1.0
  N  N165  1  0.56714000  0.85830000  0.16584000  1.0
  N  N166  1  0.60902000  0.81700000  0.08172000  1.0
  N  N167  1  0.64049000  0.83258000  0.06607000  1.0
  N  N168  1  0.81661000  0.41574000  0.89181000  1.0
  N  N169  1  0.83263000  0.43104000  0.86059000  1.0
  N  N170  1  0.91693000  0.38890000  0.81864000  1.0
  N  N171  1  0.93280000  0.35758000  0.83388000  1.0
  N  N172  1  0.89028000  0.31601000  0.91755000  1.0
  N  N173  1  0.85882000  0.33172000  0.93320000  1.0
  N  N174  1  0.18274000  0.08378000  0.39237000  1.0
  N  N175  1  0.16635000  0.06805000  0.36160000  1.0
  N  N176  1  0.08207000  0.10963000  0.31964000  1.0
  N  N177  1  0.06652000  0.14128000  0.33452000  1.0
  N  N178  1  0.10933000  0.18318000  0.41809000  1.0
  N  N179  1  0.14085000  0.16759000  0.43370000  1.0
