# generated using pymatgen
data_ZnH11C17N2ClO4
_symmetry_space_group_name_H-M   'P 1'
_cell_length_a   7.58738000
_cell_length_b   11.54440000
_cell_length_c   24.40080000
_cell_angle_alpha   99.58800000
_cell_angle_beta   90.03080000
_cell_angle_gamma   109.17800000
_symmetry_Int_Tables_number   1
_chemical_formula_structural   ZnH11C17N2ClO4
_chemical_formula_sum   'Zn4 H44 C68 N8 Cl4 O16'
_cell_volume   1986.98806198
_cell_formula_units_Z   4
loop_
 _symmetry_equiv_pos_site_id
 _symmetry_equiv_pos_as_xyz
  1  'x, y, z'
loop_
 _atom_site_type_symbol
 _atom_site_label
 _atom_site_symmetry_multiplicity
 _atom_site_fract_x
 _atom_site_fract_y
 _atom_site_fract_z
 _atom_site_occupancy
  Zn  Zn0  1  0.69463000  0.73277000  0.37060000  1.0
  Zn  Zn1  1  0.96175000  0.26725000  0.12931000  1.0
  Zn  Zn2  1  0.30537000  0.26723000  0.62940000  1.0
  Zn  Zn3  1  0.03825000  0.73274000  0.87069000  1.0
  H  H4  1  0.63961000  0.37873000  0.42809000  1.0
  H  H5  1  0.26008000  0.62126000  0.07180000  1.0
  H  H6  1  0.36040000  0.62128000  0.57191000  1.0
  H  H7  1  0.73992000  0.37874000  0.92820000  1.0
  H  H8  1  0.82783000  0.67082000  0.57054000  1.0
  H  H9  1  0.15782000  0.32922000  0.92940000  1.0
  H  H10  1  0.17217000  0.32918000  0.42946000  1.0
  H  H11  1  0.84219000  0.67078000  0.07060000  1.0
  H  H12  1  0.81321000  0.29797000  0.58241000  1.0
  H  H13  1  0.51612000  0.70215000  0.91777000  1.0
  H  H14  1  0.18680000  0.70203000  0.41760000  1.0
  H  H15  1  0.48387000  0.29784000  0.08223000  1.0
  H  H16  1  0.68359000  0.60256000  0.65983000  1.0
  H  H17  1  0.08171000  0.39740000  0.84023000  1.0
  H  H18  1  0.31642000  0.39745000  0.34017000  1.0
  H  H19  1  0.91828000  0.60260000  0.15977000  1.0
  H  H20  1  0.26786000  0.54864000  0.71948000  1.0
  H  H21  1  0.71969000  0.45151000  0.78061000  1.0
  H  H22  1  0.73214000  0.45136000  0.28051000  1.0
  H  H23  1  0.28030000  0.54849000  0.21939000  1.0
  H  H24  1  0.12691000  0.46968000  0.62309000  1.0
  H  H25  1  0.65803000  0.53035000  0.87699000  1.0
  H  H26  1  0.87309000  0.53032000  0.37691000  1.0
  H  H27  1  0.34197000  0.46964000  0.12301000  1.0
  H  H28  1  0.94263000  0.19097000  0.49801000  1.0
  H  H29  1  0.75166000  0.80926000  0.00228000  1.0
  H  H30  1  0.05738000  0.80903000  0.50199000  1.0
  H  H31  1  0.24834000  0.19074000  0.99772000  1.0
  H  H32  1  0.40788000  0.18850000  0.45432000  1.0
  H  H33  1  0.21914000  0.81160000  0.04566000  1.0
  H  H34  1  0.59212000  0.81150000  0.54568000  1.0
  H  H35  1  0.78086000  0.18840000  0.95434000  1.0
  H  H36  1  0.87364000  0.97281000  0.44880000  1.0
  H  H37  1  0.90053000  0.02742000  0.05152000  1.0
  H  H38  1  0.12636000  0.02719000  0.55120000  1.0
  H  H39  1  0.09946000  0.97258000  0.94847000  1.0
  H  H40  1  0.31991000  0.96983000  0.40163000  1.0
  H  H41  1  0.34960000  0.03018000  0.09839000  1.0
  H  H42  1  0.68009000  0.03017000  0.59837000  1.0
  H  H43  1  0.65040000  0.96982000  0.90161000  1.0
  H  H44  1  0.80904000  0.68881000  0.75887000  1.0
  H  H45  1  0.12072000  0.31137000  0.74119000  1.0
  H  H46  1  0.19097000  0.31120000  0.24113000  1.0
  H  H47  1  0.87927000  0.68861000  0.25882000  1.0
  C  C48  1  0.69147000  0.40933000  0.47154000  1.0
  C  C49  1  0.28187000  0.59071000  0.02839000  1.0
  C  C50  1  0.30854000  0.59067000  0.52846000  1.0
  C  C51  1  0.71812000  0.40929000  0.97160000  1.0
  C  C52  1  0.72898000  0.53382000  0.49625000  1.0
  C  C53  1  0.19526000  0.46618000  0.00368000  1.0
  C  C54  1  0.27102000  0.46619000  0.50375000  1.0
  C  C55  1  0.80473000  0.53382000  0.99632000  1.0
  C  C56  1  0.72334000  0.32586000  0.50243000  1.0
  C  C57  1  0.39754000  0.67423000  0.99760000  1.0
  C  C58  1  0.27667000  0.67414000  0.49757000  1.0
  C  C59  1  0.60246000  0.32577000  0.00239000  1.0
  C  C60  1  0.79614000  0.57315000  0.55187000  1.0
  C  C61  1  0.22350000  0.42689000  0.94811000  1.0
  C  C62  1  0.20386000  0.42685000  0.44813000  1.0
  C  C63  1  0.77649000  0.57311000  0.05189000  1.0
  C  C64  1  0.71035000  0.62932000  0.46351000  1.0
  C  C65  1  0.08093000  0.37060000  0.03632000  1.0
  C  C66  1  0.28965000  0.37069000  0.53650000  1.0
  C  C67  1  0.91907000  0.62940000  0.96367000  1.0
  C  C68  1  0.82722000  0.48854000  0.58188000  1.0
  C  C69  1  0.33935000  0.51156000  0.91818000  1.0
  C  C70  1  0.17279000  0.51146000  0.41812000  1.0
  C  C71  1  0.66064000  0.48844000  0.08182000  1.0
  C  C72  1  0.59000000  0.95118000  0.41974000  1.0
  C  C73  1  0.63842000  0.04895000  0.08041000  1.0
  C  C74  1  0.41000000  0.04883000  0.58026000  1.0
  C  C75  1  0.36158000  0.95105000  0.91959000  1.0
  C  C76  1  0.79263000  0.36397000  0.55790000  1.0
  C  C77  1  0.42936000  0.63612000  0.94221000  1.0
  C  C78  1  0.20738000  0.63603000  0.44211000  1.0
  C  C79  1  0.57063000  0.36388000  0.05779000  1.0
  C  C80  1  0.81252000  0.59509000  0.67591000  1.0
  C  C81  1  0.21809000  0.40498000  0.82413000  1.0
  C  C82  1  0.18749000  0.40492000  0.32409000  1.0
  C  C83  1  0.78191000  0.59501000  0.17587000  1.0
  C  C84  1  0.13738000  0.56070000  0.70805000  1.0
  C  C85  1  0.57718000  0.43943000  0.79202000  1.0
  C  C86  1  0.86263000  0.43929000  0.29195000  1.0
  C  C87  1  0.42281000  0.56057000  0.20798000  1.0
  C  C88  1  0.06128000  0.51674000  0.65489000  1.0
  C  C89  1  0.54523000  0.48335000  0.84518000  1.0
  C  C90  1  0.93872000  0.48326000  0.34511000  1.0
  C  C91  1  0.45477000  0.51664000  0.15482000  1.0
  C  C92  1  0.04522000  0.61908000  0.74956000  1.0
  C  C93  1  0.42663000  0.38108000  0.75050000  1.0
  C  C94  1  0.95480000  0.38093000  0.25044000  1.0
  C  C95  1  0.57336000  0.61891000  0.24950000  1.0
  C  C96  1  0.80753000  0.13778000  0.47611000  1.0
  C  C97  1  0.66961000  0.86237000  0.02411000  1.0
  C  C98  1  0.19247000  0.86222000  0.52390000  1.0
  C  C99  1  0.33039000  0.13763000  0.97589000  1.0
  C  C100  1  0.50591000  0.13700000  0.44937000  1.0
  C  C101  1  0.36868000  0.86306000  0.05068000  1.0
  C  C102  1  0.49410000  0.86300000  0.55063000  1.0
  C  C103  1  0.63131000  0.13694000  0.94932000  1.0
  C  C104  1  0.76817000  0.01788000  0.44865000  1.0
  C  C105  1  0.74998000  0.98229000  0.05158000  1.0
  C  C106  1  0.23183000  0.98213000  0.55135000  1.0
  C  C107  1  0.25001000  0.01772000  0.94842000  1.0
  C  C108  1  0.45940000  0.01715000  0.42172000  1.0
  C  C109  1  0.44185000  0.98291000  0.07833000  1.0
  C  C110  1  0.54061000  0.98285000  0.57828000  1.0
  C  C111  1  0.55815000  0.01709000  0.92167000  1.0
  C  C112  1  0.88179000  0.64030000  0.72987000  1.0
  C  C113  1  0.24207000  0.35986000  0.77016000  1.0
  C  C114  1  0.11822000  0.35970000  0.27013000  1.0
  C  C115  1  0.75792000  0.64012000  0.22984000  1.0
  N  N116  1  0.67878000  0.19786000  0.47625000  1.0
  N  N117  1  0.48076000  0.80223000  0.02384000  1.0
  N  N118  1  0.32123000  0.80214000  0.52375000  1.0
  N  N119  1  0.51924000  0.19778000  0.97616000  1.0
  N  N120  1  0.89886000  0.53197000  0.63874000  1.0
  N  N121  1  0.36762000  0.46807000  0.86134000  1.0
  N  N122  1  0.10114000  0.46804000  0.36126000  1.0
  N  N123  1  0.63238000  0.53192000  0.13866000  1.0
  Cl  Cl124  1  0.00080000  0.81591000  0.36144000  1.0
  Cl  Cl125  1  0.18488000  0.18416000  0.13849000  1.0
  Cl  Cl126  1  0.99920000  0.18409000  0.63856000  1.0
  Cl  Cl127  1  0.81511000  0.81583000  0.86151000  1.0
  O  O128  1  0.10778000  0.64583000  0.80057000  1.0
  O  O129  1  0.46228000  0.35424000  0.69949000  1.0
  O  O130  1  0.89223000  0.35417000  0.19943000  1.0
  O  O131  1  0.53771000  0.64576000  0.30051000  1.0
  O  O132  1  0.65038000  0.58863000  0.41187000  1.0
  O  O133  1  0.06133000  0.41124000  0.08793000  1.0
  O  O134  1  0.34964000  0.41138000  0.58813000  1.0
  O  O135  1  0.93867000  0.58876000  0.91207000  1.0
  O  O136  1  0.75874000  0.74119000  0.48682000  1.0
  O  O137  1  0.01769000  0.25872000  0.01300000  1.0
  O  O138  1  0.24124000  0.25881000  0.51318000  1.0
  O  O139  1  0.98232000  0.74128000  0.98700000  1.0
  O  O140  1  0.54147000  0.83816000  0.39350000  1.0
  O  O141  1  0.70292000  0.16202000  0.10660000  1.0
  O  O142  1  0.45854000  0.16184000  0.60650000  1.0
  O  O143  1  0.29708000  0.83798000  0.89340000  1.0
