# generated using pymatgen
data_ZnH12C18(NO3)2
_symmetry_space_group_name_H-M   'P 1'
_cell_length_a   17.60140000
_cell_length_b   17.60140000
_cell_length_c   22.89190000
_cell_angle_alpha   90.00000000
_cell_angle_beta   90.00000000
_cell_angle_gamma   90.00000000
_symmetry_Int_Tables_number   1
_chemical_formula_structural   ZnH12C18(NO3)2
_chemical_formula_sum   'Zn8 H96 C144 N16 O48'
_cell_volume   7092.12310170
_cell_formula_units_Z   8
loop_
 _symmetry_equiv_pos_site_id
 _symmetry_equiv_pos_as_xyz
  1  'x, y, z'
loop_
 _atom_site_type_symbol
 _atom_site_label
 _atom_site_symmetry_multiplicity
 _atom_site_fract_x
 _atom_site_fract_y
 _atom_site_fract_z
 _atom_site_occupancy
  Zn  Zn0  1  0.43287000  0.91770000  0.20282000  1.0
  Zn  Zn1  1  0.56713000  0.08230000  0.20282000  1.0
  Zn  Zn2  1  0.93287000  0.58230000  0.29718000  1.0
  Zn  Zn3  1  0.06713000  0.41770000  0.29718000  1.0
  Zn  Zn4  1  0.41770000  0.93287000  0.70282000  1.0
  Zn  Zn5  1  0.58230000  0.06713000  0.70282000  1.0
  Zn  Zn6  1  0.08230000  0.43287000  0.79718000  1.0
  Zn  Zn7  1  0.91770000  0.56713000  0.79718000  1.0
  H  H8  1  0.35877000  0.03282000  0.49116000  1.0
  H  H9  1  0.64123000  0.96718000  0.49116000  1.0
  H  H10  1  0.85877000  0.46718000  0.00884000  1.0
  H  H11  1  0.14123000  0.53282000  0.00884000  1.0
  H  H12  1  0.53282000  0.85877000  0.99116000  1.0
  H  H13  1  0.46718000  0.14123000  0.99116000  1.0
  H  H14  1  0.96718000  0.35877000  0.50884000  1.0
  H  H15  1  0.03282000  0.64123000  0.50884000  1.0
  H  H16  1  0.44991000  0.21661000  0.22343000  1.0
  H  H17  1  0.55009000  0.78339000  0.22343000  1.0
  H  H18  1  0.94991000  0.28339000  0.27657000  1.0
  H  H19  1  0.05009000  0.71661000  0.27657000  1.0
  H  H20  1  0.71661000  0.94991000  0.72343000  1.0
  H  H21  1  0.28339000  0.05009000  0.72343000  1.0
  H  H22  1  0.78339000  0.44991000  0.77657000  1.0
  H  H23  1  0.21661000  0.55009000  0.77657000  1.0
  H  H24  1  0.29010000  0.32269000  0.26779000  1.0
  H  H25  1  0.70990000  0.67731000  0.26779000  1.0
  H  H26  1  0.79010000  0.17731000  0.23221000  1.0
  H  H27  1  0.20990000  0.82269000  0.23221000  1.0
  H  H28  1  0.82269000  0.79010000  0.76779000  1.0
  H  H29  1  0.17731000  0.20990000  0.76779000  1.0
  H  H30  1  0.67731000  0.29010000  0.73221000  1.0
  H  H31  1  0.32269000  0.70990000  0.73221000  1.0
  H  H32  1  0.53849000  0.87036000  0.30969000  1.0
  H  H33  1  0.46151000  0.12964000  0.30969000  1.0
  H  H34  1  0.03849000  0.62964000  0.19031000  1.0
  H  H35  1  0.96151000  0.37036000  0.19031000  1.0
  H  H36  1  0.37036000  0.03850000  0.80969000  1.0
  H  H37  1  0.62964000  0.96150000  0.80969000  1.0
  H  H38  1  0.12964000  0.53850000  0.69032000  1.0
  H  H39  1  0.87036000  0.46151000  0.69031000  1.0
  H  H40  1  0.08944000  0.16837000  0.26168000  1.0
  H  H41  1  0.91056000  0.83163000  0.26168000  1.0
  H  H42  1  0.58944000  0.33163000  0.23832000  1.0
  H  H43  1  0.41056000  0.66837000  0.23832000  1.0
  H  H44  1  0.66837000  0.58944000  0.76168000  1.0
  H  H45  1  0.33163000  0.41056000  0.76168000  1.0
  H  H46  1  0.83163000  0.08944000  0.73832000  1.0
  H  H47  1  0.16837000  0.91056000  0.73832000  1.0
  H  H48  1  0.47127000  0.82840000  0.60883000  1.0
  H  H49  1  0.52873000  0.17160000  0.60883000  1.0
  H  H50  1  0.97127000  0.67160000  0.89117000  1.0
  H  H51  1  0.02873000  0.32840000  0.89117000  1.0
  H  H52  1  0.32840000  0.97127000  0.10883000  1.0
  H  H53  1  0.67160000  0.02873000  0.10883000  1.0
  H  H54  1  0.17160000  0.47127000  0.39117000  1.0
  H  H55  1  0.82840000  0.52873000  0.39117000  1.0
  H  H56  1  0.32726000  0.97230000  0.29730000  1.0
  H  H57  1  0.67274000  0.02770000  0.29730000  1.0
  H  H58  1  0.82726000  0.52770000  0.20270000  1.0
  H  H59  1  0.17274000  0.47230000  0.20270000  1.0
  H  H60  1  0.47230000  0.82726000  0.79730000  1.0
  H  H61  1  0.52770000  0.17274000  0.79730000  1.0
  H  H62  1  0.02770000  0.32726000  0.70270000  1.0
  H  H63  1  0.97230000  0.67274000  0.70270000  1.0
  H  H64  1  0.35975000  0.03450000  0.60043000  1.0
  H  H65  1  0.64025000  0.96550000  0.60043000  1.0
  H  H66  1  0.85975000  0.46550000  0.89957000  1.0
  H  H67  1  0.14025000  0.53450000  0.89957000  1.0
  H  H68  1  0.53450000  0.85975000  0.10043000  1.0
  H  H69  1  0.46550000  0.14025000  0.10043000  1.0
  H  H70  1  0.96550000  0.35975000  0.39957000  1.0
  H  H71  1  0.03450000  0.64025000  0.39957000  1.0
  H  H72  1  0.47452000  0.81626000  0.50003000  1.0
  H  H73  1  0.52548000  0.18373000  0.50003000  1.0
  H  H74  1  0.97452000  0.68374000  0.99997000  1.0
  H  H75  1  0.02548000  0.31626000  0.99997000  1.0
  H  H76  1  0.31626000  0.97452000  0.00003000  1.0
  H  H77  1  0.68373000  0.02548000  0.00003000  1.0
  H  H78  1  0.18374000  0.47452000  0.49997000  1.0
  H  H79  1  0.81626000  0.52548000  0.49997000  1.0
  H  H80  1  0.53340000  0.86932000  0.41809000  1.0
  H  H81  1  0.46660000  0.13068000  0.41809000  1.0
  H  H82  1  0.03341000  0.63068000  0.08191000  1.0
  H  H83  1  0.96659000  0.36932000  0.08191000  1.0
  H  H84  1  0.36932000  0.03341000  0.91809000  1.0
  H  H85  1  0.63068000  0.96659000  0.91809000  1.0
  H  H86  1  0.13068000  0.53341000  0.58191000  1.0
  H  H87  1  0.86932000  0.46659000  0.58191000  1.0
  H  H88  1  0.24634000  0.05071000  0.22088000  1.0
  H  H89  1  0.75366000  0.94930000  0.22088000  1.0
  H  H90  1  0.74634000  0.44930000  0.27912000  1.0
  H  H91  1  0.25366000  0.55070000  0.27912000  1.0
  H  H92  1  0.55071000  0.74634000  0.72088000  1.0
  H  H93  1  0.44929000  0.25366000  0.72088000  1.0
  H  H94  1  0.94930000  0.24634000  0.77912000  1.0
  H  H95  1  0.05071000  0.75366000  0.77912000  1.0
  H  H96  1  0.31134000  0.97370000  0.40553000  1.0
  H  H97  1  0.68865000  0.02630000  0.40553000  1.0
  H  H98  1  0.81135000  0.52630000  0.09447000  1.0
  H  H99  1  0.18865000  0.47370000  0.09447000  1.0
  H  H100  1  0.47370000  0.81135000  0.90553000  1.0
  H  H101  1  0.52630000  0.18865000  0.90553000  1.0
  H  H102  1  0.02629000  0.31135000  0.59447000  1.0
  H  H103  1  0.97370000  0.68865000  0.59447000  1.0
  C  C104  1  0.41786000  0.92456000  0.48596000  1.0
  C  C105  1  0.58214000  0.07544000  0.48596000  1.0
  C  C106  1  0.91786000  0.57544000  0.01404000  1.0
  C  C107  1  0.08214000  0.42456000  0.01404000  1.0
  C  C108  1  0.42456000  0.91786000  0.98596000  1.0
  C  C109  1  0.57544000  0.08214000  0.98596000  1.0
  C  C110  1  0.07544000  0.41786000  0.51404000  1.0
  C  C111  1  0.92456000  0.58214000  0.51404000  1.0
  C  C112  1  0.42194000  0.92241000  0.42157000  1.0
  C  C113  1  0.57806000  0.07759000  0.42157000  1.0
  C  C114  1  0.92194000  0.57759000  0.07843000  1.0
  C  C115  1  0.07806000  0.42241000  0.07843000  1.0
  C  C116  1  0.42241000  0.92194000  0.92157000  1.0
  C  C117  1  0.57759000  0.07806000  0.92157000  1.0
  C  C118  1  0.07759000  0.42194000  0.57843000  1.0
  C  C119  1  0.92241000  0.57806000  0.57843000  1.0
  C  C120  1  0.39235000  0.08920000  0.20976000  1.0
  C  C121  1  0.60765000  0.91080000  0.20976000  1.0
  C  C122  1  0.89235000  0.41080000  0.29024000  1.0
  C  C123  1  0.10765000  0.58920000  0.29024000  1.0
  C  C124  1  0.58920000  0.89235000  0.70976000  1.0
  C  C125  1  0.41080000  0.10765000  0.70976000  1.0
  C  C126  1  0.91080000  0.39235000  0.79024000  1.0
  C  C127  1  0.08920000  0.60765000  0.79024000  1.0
  C  C128  1  0.38403000  0.98580000  0.51531000  1.0
  C  C129  1  0.61597000  0.01420000  0.51531000  1.0
  C  C130  1  0.88403000  0.51420000  0.98469000  1.0
  C  C131  1  0.11597000  0.48580000  0.98469000  1.0
  C  C132  1  0.48580000  0.88403000  0.01531000  1.0
  C  C133  1  0.51420000  0.11597000  0.01531000  1.0
  C  C134  1  0.01420000  0.38403000  0.48469000  1.0
  C  C135  1  0.98580000  0.61597000  0.48469000  1.0
  C  C136  1  0.32962000  0.14044000  0.22696000  1.0
  C  C137  1  0.67037000  0.85956000  0.22696000  1.0
  C  C138  1  0.82962000  0.35956000  0.27304000  1.0
  C  C139  1  0.17037000  0.64044000  0.27304000  1.0
  C  C140  1  0.64044000  0.82962000  0.72696000  1.0
  C  C141  1  0.35956000  0.17037000  0.72696000  1.0
  C  C142  1  0.85956000  0.32962000  0.77304000  1.0
  C  C143  1  0.14044000  0.67037000  0.77304000  1.0
  C  C144  1  0.28096000  0.26297000  0.25751000  1.0
  C  C145  1  0.71904000  0.73703000  0.25751000  1.0
  C  C146  1  0.78096000  0.23703000  0.24249000  1.0
  C  C147  1  0.21904000  0.76297000  0.24249000  1.0
  C  C148  1  0.76297000  0.78096000  0.75751000  1.0
  C  C149  1  0.23703000  0.21904000  0.75751000  1.0
  C  C150  1  0.73703000  0.28096000  0.74249000  1.0
  C  C151  1  0.26297000  0.71904000  0.74249000  1.0
  C  C152  1  0.34270000  0.21851000  0.24002000  1.0
  C  C153  1  0.65730000  0.78149000  0.24002000  1.0
  C  C154  1  0.84270000  0.28150000  0.25998000  1.0
  C  C155  1  0.15730000  0.71850000  0.25998000  1.0
  C  C156  1  0.71851000  0.84270000  0.74002000  1.0
  C  C157  1  0.28149000  0.15730000  0.74002000  1.0
  C  C158  1  0.78149000  0.34270000  0.75998000  1.0
  C  C159  1  0.21851000  0.65730000  0.75998000  1.0
  C  C160  1  0.20777000  0.23309000  0.26164000  1.0
  C  C161  1  0.79223000  0.76691000  0.26164000  1.0
  C  C162  1  0.70777000  0.26691000  0.23836000  1.0
  C  C163  1  0.29223000  0.73309000  0.23836000  1.0
  C  C164  1  0.73309000  0.70777000  0.76164000  1.0
  C  C165  1  0.26691000  0.29223000  0.76164000  1.0
  C  C166  1  0.76691000  0.20777000  0.73836000  1.0
  C  C167  1  0.23309000  0.79223000  0.73836000  1.0
  C  C168  1  0.48954000  0.89359000  0.33262000  1.0
  C  C169  1  0.51046000  0.10641000  0.33262000  1.0
  C  C170  1  0.98954000  0.60641000  0.16738000  1.0
  C  C171  1  0.01046000  0.39359000  0.16738000  1.0
  C  C172  1  0.39359000  0.98954000  0.83262000  1.0
  C  C173  1  0.60641000  0.01046000  0.83262000  1.0
  C  C174  1  0.10641000  0.48954000  0.66739000  1.0
  C  C175  1  0.89359000  0.51046000  0.66738000  1.0
  C  C176  1  0.44735000  0.87230000  0.58073000  1.0
  C  C177  1  0.55265000  0.12770000  0.58073000  1.0
  C  C178  1  0.94735000  0.62770000  0.91927000  1.0
  C  C179  1  0.05265000  0.37230000  0.91927000  1.0
  C  C180  1  0.37230000  0.94735000  0.08073000  1.0
  C  C181  1  0.62770000  0.05265000  0.08073000  1.0
  C  C182  1  0.12770000  0.44735000  0.41927000  1.0
  C  C183  1  0.87230000  0.55265000  0.41927000  1.0
  C  C184  1  0.37162000  0.95044000  0.32594000  1.0
  C  C185  1  0.62838000  0.04956000  0.32594000  1.0
  C  C186  1  0.87162000  0.54956000  0.17406000  1.0
  C  C187  1  0.12838000  0.45044000  0.17406000  1.0
  C  C188  1  0.45044000  0.87162000  0.82594000  1.0
  C  C189  1  0.54956000  0.12838000  0.82594000  1.0
  C  C190  1  0.04956000  0.37162000  0.67406000  1.0
  C  C191  1  0.95044000  0.62838000  0.67406000  1.0
  C  C192  1  0.38479000  0.98758000  0.57603000  1.0
  C  C193  1  0.61521000  0.01242000  0.57603000  1.0
  C  C194  1  0.88479000  0.51242000  0.92397000  1.0
  C  C195  1  0.11521000  0.48758000  0.92397000  1.0
  C  C196  1  0.48758000  0.88479000  0.07603000  1.0
  C  C197  1  0.51242000  0.11521000  0.07603000  1.0
  C  C198  1  0.01242000  0.38479000  0.42397000  1.0
  C  C199  1  0.98758000  0.61521000  0.42397000  1.0
  C  C200  1  0.44934000  0.86637000  0.52023000  1.0
  C  C201  1  0.55066000  0.13363000  0.52023000  1.0
  C  C202  1  0.94934000  0.63363000  0.97977000  1.0
  C  C203  1  0.05066000  0.36637000  0.97977000  1.0
  C  C204  1  0.36637000  0.94934000  0.02023000  1.0
  C  C205  1  0.63363000  0.05066000  0.02023000  1.0
  C  C206  1  0.13363000  0.44935000  0.47977000  1.0
  C  C207  1  0.86637000  0.55066000  0.47977000  1.0
  C  C208  1  0.19416000  0.15532000  0.24796000  1.0
  C  C209  1  0.80584000  0.84468000  0.24796000  1.0
  C  C210  1  0.69416000  0.34468000  0.25204000  1.0
  C  C211  1  0.30584000  0.65532000  0.25204000  1.0
  C  C212  1  0.65532000  0.69416000  0.74796000  1.0
  C  C213  1  0.34468000  0.30584000  0.74796000  1.0
  C  C214  1  0.84468000  0.19416000  0.75204000  1.0
  C  C215  1  0.15532000  0.80584000  0.75204000  1.0
  C  C216  1  0.48584000  0.89230000  0.39325000  1.0
  C  C217  1  0.51416000  0.10770000  0.39325000  1.0
  C  C218  1  0.98584000  0.60770000  0.10675000  1.0
  C  C219  1  0.01416000  0.39230000  0.10675000  1.0
  C  C220  1  0.39230000  0.98584000  0.89325000  1.0
  C  C221  1  0.60770000  0.01416000  0.89325000  1.0
  C  C222  1  0.10770000  0.48584000  0.60675000  1.0
  C  C223  1  0.89230000  0.51416000  0.60675000  1.0
  C  C224  1  0.25569000  0.11038000  0.23133000  1.0
  C  C225  1  0.74431000  0.88962000  0.23133000  1.0
  C  C226  1  0.75569000  0.38962000  0.26867000  1.0
  C  C227  1  0.24431000  0.61038000  0.26867000  1.0
  C  C228  1  0.61038000  0.75569000  0.73133000  1.0
  C  C229  1  0.38962000  0.24431000  0.73133000  1.0
  C  C230  1  0.88962000  0.25569000  0.76867000  1.0
  C  C231  1  0.11038000  0.74431000  0.76867000  1.0
  C  C232  1  0.36348000  0.95144000  0.38636000  1.0
  C  C233  1  0.63652000  0.04856000  0.38636000  1.0
  C  C234  1  0.86348000  0.54856000  0.11364000  1.0
  C  C235  1  0.13652000  0.45144000  0.11364000  1.0
  C  C236  1  0.45144000  0.86348000  0.88636000  1.0
  C  C237  1  0.54856000  0.13652000  0.88636000  1.0
  C  C238  1  0.04856000  0.36348000  0.61364000  1.0
  C  C239  1  0.95144000  0.63652000  0.61364000  1.0
  C  C240  1  0.14358000  0.28342000  0.27877000  1.0
  C  C241  1  0.85642000  0.71658000  0.27877000  1.0
  C  C242  1  0.64358000  0.21658000  0.22123000  1.0
  C  C243  1  0.35642000  0.78342000  0.22123000  1.0
  C  C244  1  0.78342000  0.64358000  0.77877000  1.0
  C  C245  1  0.21658000  0.35642000  0.77877000  1.0
  C  C246  1  0.71658000  0.14358000  0.72123000  1.0
  C  C247  1  0.28342000  0.85642000  0.72123000  1.0
  N  N248  1  0.43402000  0.92294000  0.29927000  1.0
  N  N249  1  0.56598000  0.07706000  0.29927000  1.0
  N  N250  1  0.93402000  0.57706000  0.20073000  1.0
  N  N251  1  0.06598000  0.42294000  0.20073000  1.0
  N  N252  1  0.42294000  0.93402000  0.79927000  1.0
  N  N253  1  0.57706000  0.06598000  0.79927000  1.0
  N  N254  1  0.07706000  0.43402000  0.70073000  1.0
  N  N255  1  0.92294000  0.56598000  0.70073000  1.0
  N  N256  1  0.41664000  0.93240000  0.60831000  1.0
  N  N257  1  0.58337000  0.06760000  0.60831000  1.0
  N  N258  1  0.91663000  0.56760000  0.89169000  1.0
  N  N259  1  0.08337000  0.43240000  0.89169000  1.0
  N  N260  1  0.43240000  0.91663000  0.10831000  1.0
  N  N261  1  0.56760000  0.08337000  0.10831000  1.0
  N  N262  1  0.06760000  0.41663000  0.39169000  1.0
  N  N263  1  0.93240000  0.58337000  0.39169000  1.0
  O  O264  1  0.37823000  0.01921000  0.20179000  1.0
  O  O265  1  0.62177000  0.98079000  0.20180000  1.0
  O  O266  1  0.87823000  0.48079000  0.29820000  1.0
  O  O267  1  0.12177000  0.51921000  0.29820000  1.0
  O  O268  1  0.51921000  0.87823000  0.70180000  1.0
  O  O269  1  0.48079000  0.12177000  0.70180000  1.0
  O  O270  1  0.98079000  0.37823000  0.79820000  1.0
  O  O271  1  0.01921000  0.62177000  0.79820000  1.0
  O  O272  1  0.41126000  0.25348000  0.23730000  1.0
  O  O273  1  0.58874000  0.74652000  0.23730000  1.0
  O  O274  1  0.91126000  0.24652000  0.26270000  1.0
  O  O275  1  0.08874000  0.75348000  0.26270000  1.0
  O  O276  1  0.75348000  0.91126000  0.73730000  1.0
  O  O277  1  0.24652000  0.08874000  0.73730000  1.0
  O  O278  1  0.74652000  0.41126000  0.76270000  1.0
  O  O279  1  0.25348000  0.58874000  0.76270000  1.0
  O  O280  1  0.12389000  0.12455000  0.25052000  1.0
  O  O281  1  0.87611000  0.87545000  0.25052000  1.0
  O  O282  1  0.62389000  0.37545000  0.24948000  1.0
  O  O283  1  0.37611000  0.62455000  0.24948000  1.0
  O  O284  1  0.62456000  0.62389000  0.75052000  1.0
  O  O285  1  0.37545000  0.37611000  0.75052000  1.0
  O  O286  1  0.87545000  0.12389000  0.74948000  1.0
  O  O287  1  0.12455000  0.87611000  0.74948000  1.0
  O  O288  1  0.45878000  0.11943000  0.20402000  1.0
  O  O289  1  0.54122000  0.88057000  0.20402000  1.0
  O  O290  1  0.95878000  0.38057000  0.29598000  1.0
  O  O291  1  0.04122000  0.61943000  0.29598000  1.0
  O  O292  1  0.61943000  0.95878000  0.70402000  1.0
  O  O293  1  0.38057000  0.04122000  0.70402000  1.0
  O  O294  1  0.88057000  0.45878000  0.79598000  1.0
  O  O295  1  0.11943000  0.54122000  0.79598000  1.0
  O  O296  1  0.15972000  0.35277000  0.29196000  1.0
  O  O297  1  0.84028000  0.64723000  0.29196000  1.0
  O  O298  1  0.65972000  0.14723000  0.20804000  1.0
  O  O299  1  0.34028000  0.85277000  0.20804000  1.0
  O  O300  1  0.85277000  0.65972000  0.79196000  1.0
  O  O301  1  0.14723000  0.34028000  0.79196000  1.0
  O  O302  1  0.64723000  0.15972000  0.70804000  1.0
  O  O303  1  0.35277000  0.84028000  0.70804000  1.0
  O  O304  1  0.07633000  0.25712000  0.27866000  1.0
  O  O305  1  0.92367000  0.74288000  0.27866000  1.0
  O  O306  1  0.57633000  0.24288000  0.22134000  1.0
  O  O307  1  0.42367000  0.75712000  0.22134000  1.0
  O  O308  1  0.75712000  0.57633000  0.77866000  1.0
  O  O309  1  0.24288000  0.42367000  0.77866000  1.0
  O  O310  1  0.74288000  0.07633000  0.72134000  1.0
  O  O311  1  0.25712000  0.92367000  0.72134000  1.0
