# generated using pymatgen
data_Zn4H4C40O17F16
_symmetry_space_group_name_H-M   'P 1'
_cell_length_a   23.88490265
_cell_length_b   23.88510000
_cell_length_c   23.88350000
_cell_angle_alpha   66.29050000
_cell_angle_beta   72.60270022
_cell_angle_gamma   107.39393949
_symmetry_Int_Tables_number   1
_chemical_formula_structural   Zn4H4C40O17F16
_chemical_formula_sum   'Zn8 H8 C80 O34 F32'
_cell_volume   10445.17870134
_cell_formula_units_Z   2
loop_
 _symmetry_equiv_pos_site_id
 _symmetry_equiv_pos_as_xyz
  1  'x, y, z'
loop_
 _atom_site_type_symbol
 _atom_site_label
 _atom_site_symmetry_multiplicity
 _atom_site_fract_x
 _atom_site_fract_y
 _atom_site_fract_z
 _atom_site_occupancy
  Zn  Zn0  1  0.05698000  0.09971000  0.45726000  1.0
  Zn  Zn1  1  0.05698000  0.95726000  0.48575000  1.0
  Zn  Zn2  1  0.94301000  0.95725000  0.59973000  1.0
  Zn  Zn3  1  0.94303000  0.98577000  0.45725000  1.0
  Zn  Zn4  1  0.94302000  0.40028000  0.04274000  1.0
  Zn  Zn5  1  0.05699000  0.54275000  0.90027000  1.0
  Zn  Zn6  1  0.94302000  0.54274000  0.01424000  1.0
  Zn  Zn7  1  0.05697000  0.51424000  0.04275000  1.0
  H  H8  1  0.91945000  0.08230000  0.33715000  1.0
  H  H9  1  0.08055000  0.41770000  0.16285000  1.0
  H  H10  1  0.91945000  0.25660000  0.16285000  1.0
  H  H11  1  0.08055000  0.24340000  0.33715000  1.0
  H  H12  1  0.91945000  0.83714000  0.74341000  1.0
  H  H13  1  0.08055000  0.66285000  0.75659000  1.0
  H  H14  1  0.91945000  0.66284000  0.91771000  1.0
  H  H15  1  0.08055000  0.83716000  0.58229000  1.0
  C  C16  1  0.18087000  0.09043000  0.40957000  1.0
  C  C17  1  0.00000000  0.86015000  0.63985000  1.0
  C  C18  1  0.99998000  0.09042000  0.59045000  1.0
  C  C19  1  0.81913000  0.90958000  0.59042000  1.0
  C  C20  1  0.00001000  0.13986000  0.36014000  1.0
  C  C21  1  0.99999000  0.90956000  0.40957000  1.0
  C  C22  1  1.00000000  0.40957000  0.90956000  1.0
  C  C23  1  1.00000000  0.63985000  0.86015000  1.0
  C  C24  1  0.81913000  0.40957000  0.09044000  1.0
  C  C25  1  0.99999000  0.59044000  0.09044000  1.0
  C  C26  1  0.00000000  0.36015000  0.13985000  1.0
  C  C27  1  0.18087000  0.59044000  0.90958000  1.0
  C  C28  1  1.00000000  0.19582000  0.30418000  1.0
  C  C29  1  0.00000000  0.30418000  0.19582000  1.0
  C  C30  1  0.95626000  0.17938000  0.27688000  1.0
  C  C31  1  0.04374000  0.32061000  0.22312000  1.0
  C  C32  1  0.95626000  0.23314000  0.22313000  1.0
  C  C33  1  0.04374000  0.26686000  0.27687000  1.0
  C  C34  1  0.00000000  0.80418000  0.69582000  1.0
  C  C35  1  0.00000000  0.69582000  0.80418000  1.0
  C  C36  1  0.95626000  0.77687000  0.76687000  1.0
  C  C37  1  0.04374000  0.72313000  0.73313000  1.0
  C  C38  1  0.95626000  0.72312000  0.82062000  1.0
  C  C39  1  0.04374000  0.77688000  0.67937000  1.0
  C  C40  1  0.00000000  0.37213000  0.87211000  1.0
  C  C41  1  0.95730000  0.29976000  0.90721000  1.0
  C  C42  1  0.95741000  0.26512000  0.87229000  1.0
  C  C43  1  0.99999000  0.30032000  0.80031000  1.0
  C  C44  1  0.04259000  0.37231000  0.76509000  1.0
  C  C45  1  0.04270000  0.40723000  0.79973000  1.0
  C  C46  1  0.99999000  0.26523000  0.76521000  1.0
  C  C47  1  0.99998000  0.23478000  0.73478000  1.0
  C  C48  1  0.99998000  0.19969000  0.69969000  1.0
  C  C49  1  0.95740000  0.12770000  0.73490000  1.0
  C  C50  1  0.95728000  0.09277000  0.70027000  1.0
  C  C51  1  0.99997000  0.12787000  0.62790000  1.0
  C  C52  1  0.04266000  0.20025000  0.59278000  1.0
  C  C53  1  0.04255000  0.23489000  0.62769000  1.0
  C  C54  1  0.00001000  0.62791000  0.12786000  1.0
  C  C55  1  0.04272000  0.63552000  0.15752000  1.0
  C  C56  1  0.04260000  0.67032000  0.19228000  1.0
  C  C57  1  0.00000000  0.69971000  0.19968000  1.0
  C  C58  1  0.95741000  0.69232000  0.17027000  1.0
  C  C59  1  0.95730000  0.65757000  0.13547000  1.0
  C  C60  1  1.00000000  0.73480000  0.23477000  1.0
  C  C61  1  0.99999000  0.76522000  0.26522000  1.0
  C  C62  1  0.99998000  0.80029000  0.30033000  1.0
  C  C63  1  0.04256000  0.80766000  0.32974000  1.0
  C  C64  1  0.04266000  0.84241000  0.36456000  1.0
  C  C65  1  0.99998000  0.87210000  0.37213000  1.0
  C  C66  1  0.95728000  0.86450000  0.34246000  1.0
  C  C67  1  0.95740000  0.82971000  0.30770000  1.0
  C  C68  1  0.74423000  0.37212000  0.12789000  1.0
  C  C69  1  0.70697000  0.29976000  0.15757000  1.0
  C  C70  1  0.63741000  0.26511000  0.19232000  1.0
  C  C71  1  0.60062000  0.30032000  0.19969000  1.0
  C  C72  1  0.63740000  0.37230000  0.17028000  1.0
  C  C73  1  0.70697000  0.40723000  0.13546000  1.0
  C  C74  1  0.53044000  0.26522000  0.23479000  1.0
  C  C75  1  0.46957000  0.23478000  0.26524000  1.0
  C  C76  1  0.39938000  0.19968000  0.30034000  1.0
  C  C77  1  0.36260000  0.12769000  0.32973000  1.0
  C  C78  1  0.29304000  0.09277000  0.36454000  1.0
  C  C79  1  0.25577000  0.12787000  0.37214000  1.0
  C  C80  1  0.29303000  0.20023000  0.34249000  1.0
  C  C81  1  0.36260000  0.23489000  0.30773000  1.0
  C  C82  1  0.25577000  0.62790000  0.87213000  1.0
  C  C83  1  0.29304000  0.65759000  0.79975000  1.0
  C  C84  1  0.36260000  0.69234000  0.76511000  1.0
  C  C85  1  0.39938000  0.69971000  0.80032000  1.0
  C  C86  1  0.36259000  0.67029000  0.87232000  1.0
  C  C87  1  0.29303000  0.63548000  0.90724000  1.0
  C  C88  1  0.46956000  0.73480000  0.76523000  1.0
  C  C89  1  0.53044000  0.76525000  0.73477000  1.0
  C  C90  1  0.60062000  0.80033000  0.69967000  1.0
  C  C91  1  0.63741000  0.82973000  0.62768000  1.0
  C  C92  1  0.70697000  0.86454000  0.59276000  1.0
  C  C93  1  0.74423000  0.87213000  0.62787000  1.0
  C  C94  1  0.70696000  0.84246000  0.70024000  1.0
  C  C95  1  0.63740000  0.80771000  0.73489000  1.0
  O  O96  1  0.00000000  0.00000000  0.50000000  1.0
  O  O97  1  0.15210000  0.12699000  0.41271000  1.0
  O  O98  1  0.04001000  0.88401000  0.57598000  1.0
  O  O99  1  0.96027000  0.02510000  0.62700000  1.0
  O  O100  1  0.15210000  0.02510000  0.43518000  1.0
  O  O101  1  0.03971000  0.12698000  0.52511000  1.0
  O  O102  1  0.95998000  0.88400000  0.65602000  1.0
  O  O103  1  0.84790000  0.91271000  0.62699000  1.0
  O  O104  1  0.96000000  0.07599000  0.38400000  1.0
  O  O105  1  0.84790000  0.93520000  0.52509000  1.0
  O  O106  1  0.04002000  0.15601000  0.38400000  1.0
  O  O107  1  0.03971000  0.91272000  0.43518000  1.0
  O  O108  1  0.96028000  0.93518000  0.41272000  1.0
  O  O109  1  0.00000000  0.50000000  0.00000000  1.0
  O  O110  1  0.96029000  0.37302000  0.97489000  1.0
  O  O111  1  0.04002000  0.61600000  0.84399000  1.0
  O  O112  1  0.84790000  0.47490000  0.06483000  1.0
  O  O113  1  0.03972000  0.47491000  0.87299000  1.0
  O  O114  1  0.84790000  0.37301000  0.08729000  1.0
  O  O115  1  0.95999000  0.61599000  0.92402000  1.0
  O  O116  1  0.96029000  0.58730000  0.06480000  1.0
  O  O117  1  0.04001000  0.42402000  0.11599000  1.0
  O  O118  1  0.03969000  0.56480000  0.08730000  1.0
  O  O119  1  0.95998000  0.34399000  0.11600000  1.0
  O  O120  1  0.15210000  0.58728000  0.87302000  1.0
  O  O121  1  0.15209000  0.56482000  0.97492000  1.0
  O  O122  1  0.91333000  0.11356000  0.29978000  1.0
  O  O123  1  0.08667000  0.38644000  0.20022000  1.0
  O  O124  1  0.91333000  0.21311000  0.20023000  1.0
  O  O125  1  0.08667000  0.28689000  0.29977000  1.0
  O  O126  1  0.91333000  0.79976000  0.78691000  1.0
  O  O127  1  0.08667000  0.70024000  0.71309000  1.0
  O  O128  1  0.91334000  0.70022000  0.88645000  1.0
  O  O129  1  0.08667000  0.79979000  0.61354000  1.0
  F  F130  1  0.91437000  0.26064000  0.97590000  1.0
  F  F131  1  0.08563000  0.47591000  0.76060000  1.0
  F  F132  1  0.08433000  0.40837000  0.69614000  1.0
  F  F133  1  0.91566000  0.19618000  0.90837000  1.0
  F  F134  1  0.91566000  0.09162000  0.80386000  1.0
  F  F135  1  0.08428000  0.30384000  0.59161000  1.0
  F  F136  1  0.08556000  0.23937000  0.52408000  1.0
  F  F137  1  0.91437000  0.02409000  0.73940000  1.0
  F  F138  1  0.08565000  0.60977000  0.15370000  1.0
  F  F139  1  0.91438000  0.65377000  0.10970000  1.0
  F  F140  1  0.91567000  0.71952000  0.17595000  1.0
  F  F141  1  0.08435000  0.67601000  0.21947000  1.0
  F  F142  1  0.08428000  0.78044000  0.32409000  1.0
  F  F143  1  0.91567000  0.82404000  0.28049000  1.0
  F  F144  1  0.91436000  0.89027000  0.34626000  1.0
  F  F145  1  0.08557000  0.84619000  0.39034000  1.0
  F  F146  1  0.73653000  0.26063000  0.15379000  1.0
  F  F147  1  0.73653000  0.47592000  0.10969000  1.0
  F  F148  1  0.60453000  0.40838000  0.17594000  1.0
  F  F149  1  0.60453000  0.19617000  0.21954000  1.0
  F  F150  1  0.39547000  0.09162000  0.32407000  1.0
  F  F151  1  0.39547000  0.30381000  0.28054000  1.0
  F  F152  1  0.26347000  0.23935000  0.34631000  1.0
  F  F153  1  0.26348000  0.02409000  0.39030000  1.0
  F  F154  1  0.26348000  0.65381000  0.76062000  1.0
  F  F155  1  0.26346000  0.60969000  0.97594000  1.0
  F  F156  1  0.39546000  0.67595000  0.90839000  1.0
  F  F157  1  0.39548000  0.71957000  0.69616000  1.0
  F  F158  1  0.60454000  0.82406000  0.59161000  1.0
  F  F159  1  0.60452000  0.78051000  0.80383000  1.0
  F  F160  1  0.73652000  0.84627000  0.73937000  1.0
  F  F161  1  0.73654000  0.89031000  0.52407000  1.0
