# generated using pymatgen
data_ZnMoH9C10N3O4
_symmetry_space_group_name_H-M   'P 1'
_cell_length_a   6.37389000
_cell_length_b   9.50250000
_cell_length_c   22.19630000
_cell_angle_alpha   90.00030000
_cell_angle_beta   90.00010000
_cell_angle_gamma   72.03400000
_symmetry_Int_Tables_number   1
_chemical_formula_structural   ZnMoH9C10N3O4
_chemical_formula_sum   'Zn4 Mo4 H36 C40 N12 O16'
_cell_volume   1278.83056102
_cell_formula_units_Z   4
loop_
 _symmetry_equiv_pos_site_id
 _symmetry_equiv_pos_as_xyz
  1  'x, y, z'
loop_
 _atom_site_type_symbol
 _atom_site_label
 _atom_site_symmetry_multiplicity
 _atom_site_fract_x
 _atom_site_fract_y
 _atom_site_fract_z
 _atom_site_occupancy
  Zn  Zn0  1  0.15960000  0.35623000  0.53166000  1.0
  Zn  Zn1  1  0.34040000  0.64377000  0.03166000  1.0
  Zn  Zn2  1  0.84040000  0.64377000  0.46834000  1.0
  Zn  Zn3  1  0.65960000  0.35623000  0.96834000  1.0
  Mo  Mo4  1  0.40948000  0.48412000  0.41733000  1.0
  Mo  Mo5  1  0.09052000  0.51588000  0.91733000  1.0
  Mo  Mo6  1  0.59052000  0.51588000  0.58267000  1.0
  Mo  Mo7  1  0.90948000  0.48412000  0.08267000  1.0
  H  H8  1  0.34238000  0.88780000  0.57159000  1.0
  H  H9  1  0.15763000  0.11220000  0.07159000  1.0
  H  H10  1  0.65762000  0.11220000  0.42841000  1.0
  H  H11  1  0.84238000  0.88780000  0.92841000  1.0
  H  H12  1  0.11593000  0.43424000  0.65767000  1.0
  H  H13  1  0.38407000  0.56576000  0.15767000  1.0
  H  H14  1  0.88407000  0.56576000  0.34233000  1.0
  H  H15  1  0.61593000  0.43424000  0.84233000  1.0
  H  H16  1  0.19153000  0.31804000  0.75969000  1.0
  H  H17  1  0.30846000  0.68197000  0.25969000  1.0
  H  H18  1  0.80846000  0.68197000  0.24031000  1.0
  H  H19  1  0.69153000  0.31803000  0.74031000  1.0
  H  H20  1  0.32193000  0.03906000  0.76517000  1.0
  H  H21  1  0.17807000  0.96095000  0.26516000  1.0
  H  H22  1  0.67807000  0.96094000  0.23483000  1.0
  H  H23  1  0.82193000  0.03906000  0.73484000  1.0
  H  H24  1  0.36639000  0.89157000  0.66968000  1.0
  H  H25  1  0.13361000  0.10843000  0.16968000  1.0
  H  H26  1  0.63360000  0.10843000  0.33032000  1.0
  H  H27  1  0.86640000  0.89157000  0.83032000  1.0
  H  H28  1  0.33181000  0.80020000  0.48215000  1.0
  H  H29  1  0.16818000  0.19980000  0.98215000  1.0
  H  H30  1  0.66818000  0.19980000  0.51785000  1.0
  H  H31  1  0.83182000  0.80020000  0.01785000  1.0
  H  H32  1  0.25360000  0.83954000  0.37304000  1.0
  H  H33  1  0.24639000  0.16046000  0.87304000  1.0
  H  H34  1  0.74640000  0.16046000  0.62696000  1.0
  H  H35  1  0.75361000  0.83954000  0.12696000  1.0
  H  H36  1  0.10086000  0.10605000  0.33467000  1.0
  H  H37  1  0.39914000  0.89394000  0.83467000  1.0
  H  H38  1  0.89915000  0.89394000  0.66533000  1.0
  H  H39  1  0.60086000  0.10606000  0.16533000  1.0
  H  H40  1  0.05674000  0.30975000  0.40803000  1.0
  H  H41  1  0.44327000  0.69025000  0.90804000  1.0
  H  H42  1  0.94327000  0.69025000  0.59196000  1.0
  H  H43  1  0.55673000  0.30975000  0.09197000  1.0
  C  C44  1  0.17188000  0.31441000  0.66298000  1.0
  C  C45  1  0.32812000  0.68559000  0.16298000  1.0
  C  C46  1  0.82812000  0.68559000  0.33702000  1.0
  C  C47  1  0.67188000  0.31441000  0.83702000  1.0
  C  C48  1  0.21404000  0.24983000  0.71926000  1.0
  C  C49  1  0.28596000  0.75017000  0.21926000  1.0
  C  C50  1  0.78596000  0.75017000  0.28073000  1.0
  C  C51  1  0.71404000  0.24983000  0.78074000  1.0
  C  C52  1  0.28585000  0.09487000  0.72183000  1.0
  C  C53  1  0.21415000  0.90513000  0.22183000  1.0
  C  C54  1  0.71414000  0.90513000  0.27817000  1.0
  C  C55  1  0.78586000  0.09487000  0.77817000  1.0
  C  C56  1  0.31066000  0.01222000  0.66953000  1.0
  C  C57  1  0.18934000  0.98779000  0.16953000  1.0
  C  C58  1  0.68934000  0.98778000  0.33047000  1.0
  C  C59  1  0.81066000  0.01221000  0.83047000  1.0
  C  C60  1  0.26250000  0.08703000  0.61376000  1.0
  C  C61  1  0.23750000  0.91297000  0.11376000  1.0
  C  C62  1  0.73750000  0.91297000  0.38623000  1.0
  C  C63  1  0.76250000  0.08703000  0.88624000  1.0
  C  C64  1  0.23901000  0.03371000  0.50283000  1.0
  C  C65  1  0.26099000  0.96629000  0.00283000  1.0
  C  C66  1  0.76098000  0.96629000  0.49717000  1.0
  C  C67  1  0.73902000  0.03371000  0.99717000  1.0
  C  C68  1  0.26966000  0.91155000  0.46376000  1.0
  C  C69  1  0.23034000  0.08845000  0.96376000  1.0
  C  C70  1  0.73033000  0.08845000  0.53624000  1.0
  C  C71  1  0.76967000  0.91155000  0.03624000  1.0
  C  C72  1  0.22597000  0.93460000  0.40306000  1.0
  C  C73  1  0.27403000  0.06540000  0.90306000  1.0
  C  C74  1  0.77402000  0.06540000  0.59694000  1.0
  C  C75  1  0.72598000  0.93460000  0.09694000  1.0
  C  C76  1  0.14456000  0.08025000  0.38165000  1.0
  C  C77  1  0.35544000  0.91974000  0.88165000  1.0
  C  C78  1  0.85544000  0.91974000  0.61835000  1.0
  C  C79  1  0.64456000  0.08026000  0.11835000  1.0
  C  C80  1  0.11803000  0.19458000  0.42205000  1.0
  C  C81  1  0.38197000  0.80541000  0.92205000  1.0
  C  C82  1  0.88197000  0.80542000  0.57795000  1.0
  C  C83  1  0.61803000  0.19459000  0.07795000  1.0
  N  N84  1  0.19562000  0.23597000  0.61115000  1.0
  N  N85  1  0.30437000  0.76403000  0.11115000  1.0
  N  N86  1  0.80437000  0.76403000  0.38885000  1.0
  N  N87  1  0.69563000  0.23597000  0.88885000  1.0
  N  N88  1  0.28750000  0.00120000  0.56258000  1.0
  N  N89  1  0.21250000  0.99880000  0.06258000  1.0
  N  N90  1  0.71250000  0.99880000  0.43742000  1.0
  N  N91  1  0.78750000  0.00120000  0.93742000  1.0
  N  N92  1  0.16801000  0.17396000  0.48149000  1.0
  N  N93  1  0.33199000  0.82604000  0.98149000  1.0
  N  N94  1  0.83199000  0.82604000  0.51851000  1.0
  N  N95  1  0.66801000  0.17396000  0.01851000  1.0
  O  O96  1  0.13849000  0.50037000  0.45210000  1.0
  O  O97  1  0.36150000  0.49963000  0.95210000  1.0
  O  O98  1  0.86150000  0.49963000  0.54790000  1.0
  O  O99  1  0.63850000  0.50037000  0.04790000  1.0
  O  O100  1  0.35673000  0.55697000  0.34550000  1.0
  O  O101  1  0.14327000  0.44303000  0.84550000  1.0
  O  O102  1  0.64327000  0.44303000  0.65450000  1.0
  O  O103  1  0.85673000  0.55697000  0.15450000  1.0
  O  O104  1  0.56440000  0.29650000  0.41069000  1.0
  O  O105  1  0.93560000  0.70350000  0.91070000  1.0
  O  O106  1  0.43560000  0.70350000  0.58931000  1.0
  O  O107  1  0.06441000  0.29649000  0.08931000  1.0
  O  O108  1  0.56568000  0.58745000  0.45484000  1.0
  O  O109  1  0.93432000  0.41255000  0.95484000  1.0
  O  O110  1  0.43432000  0.41256000  0.54516000  1.0
  O  O111  1  0.06568000  0.58744000  0.04516000  1.0
