# generated using pymatgen
data_AlH12C27S3N7O15
_symmetry_space_group_name_H-M   'P 1'
_cell_length_a   4.27713000
_cell_length_b   17.94980000
_cell_length_c   17.97158948
_cell_angle_alpha   60.12010369
_cell_angle_beta   87.25958227
_cell_angle_gamma   89.04920000
_symmetry_Int_Tables_number   1
_chemical_formula_structural   AlH12C27S3N7O15
_chemical_formula_sum   'Al1 H12 C27 S3 N7 O15'
_cell_volume   1194.92723708
_cell_formula_units_Z   1
loop_
 _symmetry_equiv_pos_site_id
 _symmetry_equiv_pos_as_xyz
  1  'x, y, z'
loop_
 _atom_site_type_symbol
 _atom_site_label
 _atom_site_symmetry_multiplicity
 _atom_site_fract_x
 _atom_site_fract_y
 _atom_site_fract_z
 _atom_site_occupancy
  Al  Al0  1  0.06480000  0.49932000  0.50065000  1.0
  H  H1  1  0.42213000  0.11135000  0.58512000  1.0
  H  H2  1  0.45500000  0.80404000  0.11584000  1.0
  H  H3  1  0.39232000  0.58002000  0.80750000  1.0
  H  H4  1  0.53456000  0.57214000  0.10125000  1.0
  H  H5  1  0.52002000  0.71915000  0.27453000  1.0
  H  H6  1  0.46151000  0.50647000  0.72068000  1.0
  H  H7  1  0.47655000  0.82601000  0.57601000  1.0
  H  H8  1  0.48563000  0.09990000  0.82901000  1.0
  H  H9  1  0.49118000  0.27105000  0.50963000  1.0
  H  H10  1  0.04722000  0.33350000  0.74998000  1.0
  H  H11  1  0.06771000  0.74940000  0.41848000  1.0
  H  H12  1  0.10179000  0.41664000  0.33196000  1.0
  C  C13  1  0.55626000  0.37128000  0.57823000  1.0
  C  C14  1  0.58287000  0.54993000  0.37274000  1.0
  C  C15  1  0.54661000  0.57697000  0.55139000  1.0
  C  C16  1  0.44500000  0.14452000  0.62149000  1.0
  C  C17  1  0.44291000  0.09613000  0.71159000  1.0
  C  C18  1  0.48122000  0.73451000  0.14823000  1.0
  C  C19  1  0.48146000  0.69300000  0.09945000  1.0
  C  C20  1  0.42147000  0.70734000  0.69690000  1.0
  C  C21  1  0.41924000  0.61718000  0.73770000  1.0
  C  C22  1  0.52261000  0.60377000  0.13965000  1.0
  C  C23  1  0.56049000  0.55701000  0.22779000  1.0
  C  C24  1  0.55677000  0.59802000  0.27716000  1.0
  C  C25  1  0.51871000  0.68729000  0.23632000  1.0
  C  C26  1  0.45891000  0.57644000  0.68937000  1.0
  C  C27  1  0.50214000  0.62473000  0.59975000  1.0
  C  C28  1  0.50402000  0.71497000  0.55929000  1.0
  C  C29  1  0.46312000  0.75620000  0.60722000  1.0
  C  C30  1  0.47750000  0.13768000  0.75931000  1.0
  C  C31  1  0.51349000  0.22655000  0.71705000  1.0
  C  C32  1  0.51830000  0.27537000  0.62683000  1.0
  C  C33  1  0.48399000  0.23328000  0.57963000  1.0
  C  C34  1  0.40056000  0.87942000  0.74682000  1.0
  C  C35  1  0.43828000  0.87485000  0.88411000  1.0
  C  C36  1  0.42364000  0.00153000  0.75656000  1.0
  C  C37  1  0.40487000  0.75152000  0.74756000  1.0
  C  C38  1  0.42462000  0.74137000  0.87934000  1.0
  C  C39  1  0.45487000  0.74282000  0.00549000  1.0
  S  S40  1  0.59425000  0.27171000  0.78329000  1.0
  S  S41  1  0.61066000  0.78250000  0.44771000  1.0
  S  S42  1  0.65951000  0.44622000  0.27068000  1.0
  N  N43  1  0.42173000  0.83187000  0.83674000  1.0
  N  N44  1  0.44161000  0.96040000  0.84257000  1.0
  N  N45  1  0.39703000  0.96500000  0.70746000  1.0
  N  N46  1  0.38897000  0.83782000  0.70294000  1.0
  N  N47  1  0.41647000  0.70178000  0.83334000  1.0
  N  N48  1  0.45402000  0.82892000  0.96930000  1.0
  N  N49  1  0.43985000  0.69748000  0.96451000  1.0
  O  O50  1  0.33058000  0.58473000  0.50164000  1.0
  O  O51  1  0.32742000  0.41369000  0.58581000  1.0
  O  O52  1  0.35465000  0.49952000  0.41545000  1.0
  O  O53  1  0.79019000  0.53112000  0.56728000  1.0
  O  O54  1  0.82105000  0.56618000  0.40181000  1.0
  O  O55  1  0.80729000  0.40054000  0.53241000  1.0
  O  O56  1  0.31699000  0.31362000  0.79601000  1.0
  O  O57  1  0.73332000  0.20636000  0.85927000  1.0
  O  O58  1  0.82265000  0.34602000  0.72419000  1.0
  O  O59  1  0.34632000  0.79583000  0.39388000  1.0
  O  O60  1  0.75815000  0.85819000  0.43782000  1.0
  O  O61  1  0.83763000  0.72417000  0.43034000  1.0
  O  O62  1  0.38517000  0.39065000  0.31239000  1.0
  O  O63  1  0.82214000  0.43741000  0.20393000  1.0
  O  O64  1  0.87001000  0.43045000  0.34473000  1.0
