# generated using pymatgen
data_Zn2H17C32N3O10
_symmetry_space_group_name_H-M   'P 1'
_cell_length_a   10.94650000
_cell_length_b   11.83440000
_cell_length_c   13.14460000
_cell_angle_alpha   86.82670000
_cell_angle_beta   89.98790000
_cell_angle_gamma   85.12010000
_symmetry_Int_Tables_number   1
_chemical_formula_structural   Zn2H17C32N3O10
_chemical_formula_sum   'Zn2 H17 C32 N3 O10'
_cell_volume   1694.02939787
_cell_formula_units_Z   1
loop_
 _symmetry_equiv_pos_site_id
 _symmetry_equiv_pos_as_xyz
  1  'x, y, z'
loop_
 _atom_site_type_symbol
 _atom_site_label
 _atom_site_symmetry_multiplicity
 _atom_site_fract_x
 _atom_site_fract_y
 _atom_site_fract_z
 _atom_site_occupancy
  Zn  Zn0  1  0.48903000  0.61771000  0.50312000  1.0
  Zn  Zn1  1  0.51642000  0.37982000  0.49789000  1.0
  H  H2  1  0.13788000  0.39684000  0.38795000  1.0
  H  H3  1  0.20800000  0.57049000  0.70013000  1.0
  H  H4  1  0.07533000  0.64871000  0.83626000  1.0
  H  H5  1  0.84721000  0.66052000  0.81745000  1.0
  H  H6  1  0.75290000  0.59417000  0.66418000  1.0
  H  H7  1  0.90960000  0.40273000  0.37140000  1.0
  H  H8  1  0.54626000  0.36254000  0.17744000  1.0
  H  H9  1  0.60434000  0.27892000  0.01142000  1.0
  H  H10  1  0.38669000  0.72352000  0.99170000  1.0
  H  H11  1  0.61147000  0.29904000  0.82119000  1.0
  H  H12  1  0.44808000  0.64114000  0.82498000  1.0
  H  H13  1  0.63167000  0.80535000  0.42724000  1.0
  H  H14  1  0.30655000  0.78695000  0.58607000  1.0
  H  H15  1  0.71840000  0.99997000  0.38637000  1.0
  H  H16  1  0.28082000  0.99830000  0.60447000  1.0
  H  H17  1  0.69532000  0.21080000  0.40904000  1.0
  H  H18  1  0.36905000  0.19259000  0.56575000  1.0
  C  C19  1  0.52910000  0.48269000  0.69878000  1.0
  C  C20  1  0.26784000  0.48880000  0.52598000  1.0
  C  C21  1  0.46872000  0.51897000  0.30425000  1.0
  C  C22  1  0.73903000  0.49990000  0.48860000  1.0
  C  C23  1  0.10845000  0.57618000  0.69182000  1.0
  C  C24  1  0.03446000  0.61987000  0.76761000  1.0
  C  C25  1  0.90543000  0.62622000  0.75714000  1.0
  C  C26  1  0.85226000  0.58840000  0.67168000  1.0
  C  C27  1  0.92555000  0.54133000  0.59247000  1.0
  C  C28  1  0.05677000  0.53559000  0.60297000  1.0
  C  C29  1  0.13135000  0.48542000  0.52576000  1.0
  C  C30  1  0.07890000  0.43639000  0.44522000  1.0
  C  C31  1  0.95064000  0.44045000  0.43560000  1.0
  C  C32  1  0.87463000  0.49441000  0.50542000  1.0
  C  C33  1  0.46008000  0.52883000  0.19006000  1.0
  C  C34  1  0.52912000  0.47167000  0.81304000  1.0
  C  C35  1  0.56954000  0.35793000  0.97061000  1.0
  C  C36  1  0.57396000  0.36867000  0.86577000  1.0
  C  C37  1  0.48134000  0.56243000  0.86685000  1.0
  C  C38  1  0.47412000  0.55330000  0.97426000  1.0
  C  C39  1  0.51862000  0.44880000  0.02760000  1.0
  C  C40  1  0.51050000  0.44024000  0.13523000  1.0
  C  C41  1  0.41474000  0.63056000  0.13511000  1.0
  C  C42  1  0.42247000  0.64399000  0.03087000  1.0
  C  C43  1  0.64040000  0.03898000  0.42707000  1.0
  C  C44  1  0.62836000  0.15423000  0.43835000  1.0
  C  C45  1  0.44491000  0.14556000  0.52821000  1.0
  C  C46  1  0.44941000  0.02620000  0.52188000  1.0
  C  C47  1  0.55042000  0.97172000  0.46971000  1.0
  C  C48  1  0.55578000  0.85216000  0.46486000  1.0
  C  C49  1  0.37288000  0.84351000  0.55559000  1.0
  C  C50  1  0.35945000  0.95906000  0.56474000  1.0
  N  N51  1  0.47075000  0.79163000  0.50678000  1.0
  N  N52  1  0.53139000  0.20601000  0.48842000  1.0
  N  N53  1  0.34770000  0.72350000  0.18799000  1.0
  O  O54  1  0.50018000  0.58167000  0.65823000  1.0
  O  O55  1  0.55629000  0.39307000  0.65132000  1.0
  O  O56  1  0.30753000  0.58659000  0.51473000  1.0
  O  O57  1  0.33276000  0.39414000  0.53357000  1.0
  O  O58  1  0.48359000  0.61020000  0.34765000  1.0
  O  O59  1  0.46599000  0.42026000  0.34689000  1.0
  O  O60  1  0.67764000  0.59475000  0.49960000  1.0
  O  O61  1  0.69450000  0.40866000  0.46448000  1.0
  O  O62  1  0.37876000  0.82098000  0.16993000  1.0
  O  O63  1  0.26165000  0.69785000  0.24323000  1.0
