# generated using pymatgen
data_Zn3H24C30(N7O3)2
_symmetry_space_group_name_H-M   'P 1'
_cell_length_a   12.88300000
_cell_length_b   12.88300000
_cell_length_c   12.88300000
_cell_angle_alpha   108.30900000
_cell_angle_beta   108.30900000
_cell_angle_gamma   108.30900000
_symmetry_Int_Tables_number   1
_chemical_formula_structural   Zn3H24C30(N7O3)2
_chemical_formula_sum   'Zn3 H24 C30 N14 O6'
_cell_volume   1713.16537853
_cell_formula_units_Z   1
loop_
 _symmetry_equiv_pos_site_id
 _symmetry_equiv_pos_as_xyz
  1  'x, y, z'
loop_
 _atom_site_type_symbol
 _atom_site_label
 _atom_site_symmetry_multiplicity
 _atom_site_fract_x
 _atom_site_fract_y
 _atom_site_fract_z
 _atom_site_occupancy
  Zn  Zn0  1  0.78610000  0.78609000  0.78609000  1.0
  Zn  Zn1  1  0.04563000  0.04563000  0.04563000  1.0
  Zn  Zn2  1  0.53825000  0.53825000  0.53825000  1.0
  H  H3  1  0.39899000  0.96085000  0.96085000  1.0
  H  H4  1  0.96085000  0.96085000  0.39898000  1.0
  H  H5  1  0.96085000  0.39899000  0.96085000  1.0
  H  H6  1  0.09832000  0.63792000  0.63792000  1.0
  H  H7  1  0.63792000  0.63792000  0.09832000  1.0
  H  H8  1  0.63792000  0.09832000  0.63792000  1.0
  H  H9  1  0.54909000  0.90338000  0.90338000  1.0
  H  H10  1  0.90338000  0.90338000  0.54909000  1.0
  H  H11  1  0.90338000  0.54909000  0.90338000  1.0
  H  H12  1  0.24863000  0.58136000  0.58135000  1.0
  H  H13  1  0.58136000  0.58136000  0.24863000  1.0
  H  H14  1  0.58136000  0.24863000  0.58136000  1.0
  H  H15  1  0.10707000  0.30794000  0.19145000  1.0
  H  H16  1  0.30794000  0.19145000  0.10707000  1.0
  H  H17  1  0.19145000  0.10707000  0.30794000  1.0
  H  H18  1  0.10707000  0.19145000  0.30794000  1.0
  H  H19  1  0.30794000  0.10707000  0.19145000  1.0
  H  H20  1  0.19145000  0.30794000  0.10707000  1.0
  H  H21  1  0.28153000  0.48112000  0.36651000  1.0
  H  H22  1  0.48112000  0.36651000  0.28153000  1.0
  H  H23  1  0.36651000  0.28153000  0.48112000  1.0
  H  H24  1  0.28153000  0.36651000  0.48112000  1.0
  H  H25  1  0.48112000  0.28153000  0.36651000  1.0
  H  H26  1  0.36651000  0.48112000  0.28153000  1.0
  C  C27  1  0.15158000  0.83595000  0.83595000  1.0
  C  C28  1  0.83595000  0.83595000  0.15158000  1.0
  C  C29  1  0.83595000  0.15158000  0.83595000  1.0
  C  C30  1  0.36669000  0.87770000  0.87770000  1.0
  C  C31  1  0.87770000  0.87770000  0.36668000  1.0
  C  C32  1  0.87770000  0.36669000  0.87770000  1.0
  C  C33  1  0.19707000  0.69561000  0.69561000  1.0
  C  C34  1  0.69560000  0.69561000  0.19707000  1.0
  C  C35  1  0.69560000  0.19707000  0.69560000  1.0
  C  C36  1  0.23930000  0.80286000  0.80286000  1.0
  C  C37  1  0.80286000  0.80286000  0.23930000  1.0
  C  C38  1  0.80286000  0.23930000  0.80286000  1.0
  C  C39  1  0.45020000  0.84611000  0.84611000  1.0
  C  C40  1  0.84611000  0.84611000  0.45020000  1.0
  C  C41  1  0.84611000  0.45020000  0.84611000  1.0
  C  C42  1  0.28078000  0.66443000  0.66443000  1.0
  C  C43  1  0.66443000  0.66443000  0.28078000  1.0
  C  C44  1  0.66443000  0.28078000  0.66443000  1.0
  C  C45  1  0.40803000  0.73906000  0.73906000  1.0
  C  C46  1  0.73906000  0.73906000  0.40803000  1.0
  C  C47  1  0.73906000  0.40803000  0.73906000  1.0
  C  C48  1  0.49607000  0.70332000  0.70332000  1.0
  C  C49  1  0.70333000  0.70332000  0.49606000  1.0
  C  C50  1  0.70333000  0.49607000  0.70333000  1.0
  C  C51  1  0.19357000  0.31025000  0.19357000  1.0
  C  C52  1  0.31025000  0.19357000  0.19357000  1.0
  C  C53  1  0.19357000  0.19357000  0.31025000  1.0
  C  C54  1  0.30741000  0.42332000  0.30741000  1.0
  C  C55  1  0.42332000  0.30742000  0.30741000  1.0
  C  C56  1  0.30741000  0.30741000  0.42332000  1.0
  N  N57  1  0.19470000  0.19470000  0.19470000  1.0
  N  N58  1  0.98412000  0.83209000  0.83209000  1.0
  N  N59  1  0.83209000  0.83209000  0.98412000  1.0
  N  N60  1  0.83209000  0.98412000  0.83209000  1.0
  N  N61  1  0.02723000  0.77001000  0.77001000  1.0
  N  N62  1  0.77001000  0.77001000  0.02723000  1.0
  N  N63  1  0.77001000  0.02723000  0.77001000  1.0
  N  N64  1  0.38248000  0.38248000  0.38248000  1.0
  N  N65  1  0.07912000  0.93213000  0.93213000  1.0
  N  N66  1  0.93213000  0.93213000  0.07912000  1.0
  N  N67  1  0.93213000  0.07912000  0.93213000  1.0
  N  N68  1  0.18531000  0.93752000  0.93752000  1.0
  N  N69  1  0.93752000  0.93753000  0.18531000  1.0
  N  N70  1  0.93752000  0.18531000  0.93752000  1.0
  O  O71  1  0.61039000  0.76920000  0.76920000  1.0
  O  O72  1  0.76921000  0.76920000  0.61039000  1.0
  O  O73  1  0.76921000  0.61039000  0.76921000  1.0
  O  O74  1  0.44397000  0.60245000  0.60245000  1.0
  O  O75  1  0.60245000  0.60246000  0.44397000  1.0
  O  O76  1  0.60246000  0.44397000  0.60246000  1.0
