# generated using pymatgen
data_CdH12C14(SN2)2
_symmetry_space_group_name_H-M   'P 1'
_cell_length_a   5.69710000
_cell_length_b   6.37220000
_cell_length_c   11.15866232
_cell_angle_alpha   79.21970132
_cell_angle_beta   80.16871841
_cell_angle_gamma   80.08580000
_symmetry_Int_Tables_number   1
_chemical_formula_structural   CdH12C14(SN2)2
_chemical_formula_sum   'Cd1 H12 C14 S2 N4'
_cell_volume   387.96333088
_cell_formula_units_Z   1
loop_
 _symmetry_equiv_pos_site_id
 _symmetry_equiv_pos_as_xyz
  1  'x, y, z'
loop_
 _atom_site_type_symbol
 _atom_site_label
 _atom_site_symmetry_multiplicity
 _atom_site_fract_x
 _atom_site_fract_y
 _atom_site_fract_z
 _atom_site_occupancy
  Cd  Cd0  1  0.00007000  0.49999000  0.99999000  1.0
  H  H1  1  0.95759000  0.84800000  0.13247000  1.0
  H  H2  1  0.04238000  0.15198000  0.86752000  1.0
  H  H3  1  0.80219000  0.65597000  0.20592000  1.0
  H  H4  1  0.19781000  0.34399000  0.79405000  1.0
  H  H5  1  0.55591000  0.82932000  0.36546000  1.0
  H  H6  1  0.44408000  0.17067000  0.63454000  1.0
  H  H7  1  0.30672000  0.91463000  0.20051000  1.0
  H  H8  1  0.69331000  0.08534000  0.79947000  1.0
  H  H9  1  0.25503000  0.23554000  0.49818000  1.0
  H  H10  1  0.74486000  0.76450000  0.50186000  1.0
  H  H11  1  0.99860000  0.32913000  0.33696000  1.0
  H  H12  1  0.00132000  0.67090000  0.66307000  1.0
  C  C13  1  0.48353000  0.75067000  0.90655000  1.0
  C  C14  1  0.51659000  0.24932000  0.09344000  1.0
  C  C15  1  0.42789000  0.52462000  0.44845000  1.0
  C  C16  1  0.57205000  0.47539000  0.55157000  1.0
  C  C17  1  0.13092000  0.63020000  0.25888000  1.0
  C  C18  1  0.86906000  0.36981000  0.74112000  1.0
  C  C19  1  0.43773000  0.71449000  0.36057000  1.0
  C  C20  1  0.56223000  0.28551000  0.63943000  1.0
  C  C21  1  0.29434000  0.76617000  0.26673000  1.0
  C  C22  1  0.70566000  0.23382000  0.73326000  1.0
  C  C23  1  0.27092000  0.38562000  0.43412000  1.0
  C  C24  1  0.72899000  0.61442000  0.56590000  1.0
  C  C25  1  0.12462000  0.43691000  0.34212000  1.0
  C  C26  1  0.87532000  0.56312000  0.65790000  1.0
  S  S27  1  0.25019000  0.79023000  0.83400000  1.0
  S  S28  1  0.74995000  0.20973000  0.16599000  1.0
  N  N29  1  0.97267000  0.68656000  0.16851000  1.0
  N  N30  1  0.02734000  0.31342000  0.83148000  1.0
  N  N31  1  0.65176000  0.72680000  0.95955000  1.0
  N  N32  1  0.34836000  0.27319000  0.04045000  1.0
