# generated using pymatgen
data_Zn3H6C27(ClO6)2
_symmetry_space_group_name_H-M   'P 1'
_cell_length_a   21.68460000
_cell_length_b   23.10860000
_cell_length_c   23.10635919
_cell_angle_alpha   77.28095700
_cell_angle_beta   62.02179039
_cell_angle_gamma   62.01160000
_symmetry_Int_Tables_number   1
_chemical_formula_structural   Zn3H6C27(ClO6)2
_chemical_formula_sum   'Zn6 H12 C54 Cl4 O24'
_cell_volume   9029.44268728
_cell_formula_units_Z   2
loop_
 _symmetry_equiv_pos_site_id
 _symmetry_equiv_pos_as_xyz
  1  'x, y, z'
loop_
 _atom_site_type_symbol
 _atom_site_label
 _atom_site_symmetry_multiplicity
 _atom_site_fract_x
 _atom_site_fract_y
 _atom_site_fract_z
 _atom_site_occupancy
  Zn  Zn0  1  0.95477000  0.04523000  0.04523000  1.0
  Zn  Zn1  1  0.06032000  0.49988000  0.49982000  1.0
  Zn  Zn2  1  0.93998000  0.49982000  0.49988000  1.0
  Zn  Zn3  1  0.04463000  0.95536000  0.95537000  1.0
  Zn  Zn4  1  0.50002000  0.04503000  0.95490000  1.0
  Zn  Zn5  1  0.50005000  0.95490000  0.04503000  1.0
  H  H6  1  0.82637000  0.89171000  0.03024000  1.0
  H  H7  1  0.12904000  0.08147000  0.08137000  1.0
  H  H8  1  0.70811000  0.08141000  0.08143000  1.0
  H  H9  1  0.85575000  0.88357000  0.88358000  1.0
  H  H10  1  0.76979000  0.87270000  0.93443000  1.0
  H  H11  1  0.76980000  0.93443000  0.87269000  1.0
  H  H12  1  0.37710000  0.88352000  0.88364000  1.0
  H  H13  1  0.42310000  0.93436000  0.87274000  1.0
  H  H14  1  0.42307000  0.87266000  0.93450000  1.0
  H  H15  1  0.25171000  0.03018000  0.89170000  1.0
  H  H16  1  0.25164000  0.89176000  0.03028000  1.0
  H  H17  1  0.82635000  0.03023000  0.89175000  1.0
  C  C18  1  0.00012000  0.90953000  0.09025000  1.0
  C  C19  1  0.00003000  0.22899000  0.77089000  1.0
  C  C20  1  0.18585000  0.00139000  0.00135000  1.0
  C  C21  1  0.00034000  0.85953000  0.13980000  1.0
  C  C22  1  0.00032000  0.13980000  0.85954000  1.0
  C  C23  1  0.79262000  0.90946000  0.90946000  1.0
  C  C24  1  0.38846000  0.90941000  0.90951000  1.0
  C  C25  1  0.00009000  0.77089000  0.22899000  1.0
  C  C26  1  0.99997000  0.72815000  0.27184000  1.0
  C  C27  1  0.00004000  0.27184000  0.72815000  1.0
  C  C28  1  0.99984000  0.68182000  0.31824000  1.0
  C  C29  1  0.00008000  0.31824000  0.68183000  1.0
  C  C30  1  0.00011000  0.09025000  0.90953000  1.0
  C  C31  1  0.99988000  0.63930000  0.36081000  1.0
  C  C32  1  0.00000000  0.36081000  0.63930000  1.0
  C  C33  1  0.59049000  0.90951000  0.90951000  1.0
  C  C34  1  0.61729000  0.00111000  0.00115000  1.0
  C  C35  1  0.38045000  0.00115000  0.00111000  1.0
  C  C36  1  0.40980000  0.09021000  0.09020000  1.0
  C  C37  1  0.08966000  0.41034000  0.41034000  1.0
  C  C38  1  0.99995000  0.58960000  0.41048000  1.0
  C  C39  1  0.99996000  0.41048000  0.58960000  1.0
  C  C40  1  0.88065000  0.00056000  0.00061000  1.0
  C  C41  1  0.11817000  0.00061000  0.00057000  1.0
  C  C42  1  0.91059000  0.58942000  0.58941000  1.0
  C  C43  1  0.64030000  0.85970000  0.85970000  1.0
  C  C44  1  0.68284000  0.81716000  0.81716000  1.0
  C  C45  1  0.72919000  0.77080000  0.77081000  1.0
  C  C46  1  0.00022000  0.81711000  0.18249000  1.0
  C  C47  1  0.77199000  0.72801000  0.72801000  1.0
  C  C48  1  0.81834000  0.68166000  0.68166000  1.0
  C  C49  1  0.86089000  0.63912000  0.63911000  1.0
  C  C50  1  0.35998000  0.14002000  0.14002000  1.0
  C  C51  1  0.31743000  0.18257000  0.18257000  1.0
  C  C52  1  0.00018000  0.18249000  0.81711000  1.0
  C  C53  1  0.27106000  0.22894000  0.22894000  1.0
  C  C54  1  0.79144000  0.94055000  0.01748000  1.0
  C  C55  1  0.25055000  0.01744000  0.94054000  1.0
  C  C56  1  0.25049000  0.94059000  0.01751000  1.0
  C  C57  1  0.79143000  0.01747000  0.94058000  1.0
  C  C58  1  0.22825000  0.27175000  0.27175000  1.0
  C  C59  1  0.18189000  0.31811000  0.31811000  1.0
  C  C60  1  0.13933000  0.36067000  0.36067000  1.0
  C  C61  1  0.77083000  0.95741000  0.95742000  1.0
  C  C62  1  0.31433000  0.95739000  0.95744000  1.0
  C  C63  1  0.68358000  0.00312000  0.00312000  1.0
  C  C64  1  0.31017000  0.00312000  0.00312000  1.0
  C  C65  1  0.70621000  0.98575000  0.06232000  1.0
  C  C66  1  0.24574000  0.06231000  0.98571000  1.0
  C  C67  1  0.24571000  0.98579000  0.06232000  1.0
  C  C68  1  0.70620000  0.06232000  0.98576000  1.0
  C  C69  1  0.72624000  0.04591000  0.04593000  1.0
  C  C70  1  0.18192000  0.04595000  0.04588000  1.0
  C  C71  1  0.81141000  0.00136000  0.00139000  1.0
  Cl  Cl72  1  0.65263000  0.96593000  0.14133000  1.0
  Cl  Cl73  1  0.24015000  0.14131000  0.96585000  1.0
  Cl  Cl74  1  0.24008000  0.96599000  0.14134000  1.0
  Cl  Cl75  1  0.65265000  0.14132000  0.96591000  1.0
  O  O76  1  0.96039000  0.96873000  0.11056000  1.0
  O  O77  1  0.03972000  0.03074000  0.88976000  1.0
  O  O78  1  0.03979000  0.88976000  0.03074000  1.0
  O  O79  1  0.86856000  0.03992000  0.03994000  1.0
  O  O80  1  0.05158000  0.03994000  0.03992000  1.0
  O  O81  1  0.94647000  0.96082000  0.96087000  1.0
  O  O82  1  0.13184000  0.96086000  0.96082000  1.0
  O  O83  1  0.96033000  0.11056000  0.96873000  1.0
  O  O84  1  0.57093000  0.96876000  0.88934000  1.0
  O  O85  1  0.57097000  0.88934000  0.96876000  1.0
  O  O86  1  0.59220000  0.03926000  0.96020000  1.0
  O  O87  1  0.40834000  0.96020000  0.03926000  1.0
  O  O88  1  0.40833000  0.03927000  0.96013000  1.0
  O  O89  1  0.59227000  0.96013000  0.03927000  1.0
  O  O90  1  0.42938000  0.11024000  0.03088000  1.0
  O  O91  1  0.42950000  0.03088000  0.11024000  1.0
  O  O92  1  0.01705000  0.43013000  0.43014000  1.0
  O  O93  1  0.12268000  0.43014000  0.43013000  1.0
  O  O94  1  0.94715000  0.56987000  0.43022000  1.0
  O  O95  1  0.05276000  0.43022000  0.56987000  1.0
  O  O96  1  0.05282000  0.56992000  0.43015000  1.0
  O  O97  1  0.94711000  0.43015000  0.56992000  1.0
  O  O98  1  0.87747000  0.56970000  0.56971000  1.0
  O  O99  1  0.98312000  0.56971000  0.56970000  1.0
