# generated using pymatgen
data_NiH4C2(NO2)2
_symmetry_space_group_name_H-M   'P 1'
_cell_length_a   10.54240000
_cell_length_b   11.65300000
_cell_length_c   11.65232182
_cell_angle_alpha   78.19822162
_cell_angle_beta   63.10807419
_cell_angle_gamma   63.10160000
_symmetry_Int_Tables_number   1
_chemical_formula_structural   NiH4C2(NO2)2
_chemical_formula_sum   'Ni8 H32 C16 N16 O32'
_cell_volume   1138.56919663
_cell_formula_units_Z   8
loop_
 _symmetry_equiv_pos_site_id
 _symmetry_equiv_pos_as_xyz
  1  'x, y, z'
loop_
 _atom_site_type_symbol
 _atom_site_label
 _atom_site_symmetry_multiplicity
 _atom_site_fract_x
 _atom_site_fract_y
 _atom_site_fract_z
 _atom_site_occupancy
  Ni  Ni0  1  0.46780000  0.24999000  0.06429000  1.0
  Ni  Ni1  1  0.28209000  0.25003000  0.43578000  1.0
  Ni  Ni2  1  0.03210000  0.93578000  0.75003000  1.0
  Ni  Ni3  1  0.21792000  0.56428000  0.75000000  1.0
  Ni  Ni4  1  0.53221000  0.75000000  0.93571000  1.0
  Ni  Ni5  1  0.71792000  0.74997000  0.56422000  1.0
  Ni  Ni6  1  0.96790000  0.06422000  0.24996000  1.0
  Ni  Ni7  1  0.78209000  0.43571000  0.25000000  1.0
  H  H8  1  0.35568000  0.47959000  0.15041000  1.0
  H  H9  1  0.45108000  0.38300000  0.23372000  1.0
  H  H10  1  0.48570000  0.02040000  0.34962000  1.0
  H  H11  1  0.56779000  0.11698000  0.26632000  1.0
  H  H12  1  0.00610000  0.84964000  0.97963000  1.0
  H  H13  1  0.18480000  0.76633000  0.88304000  1.0
  H  H14  1  0.33533000  0.65039000  0.52039000  1.0
  H  H15  1  0.33416000  0.73371000  0.61696000  1.0
  H  H16  1  0.01432000  0.65041000  0.97960000  1.0
  H  H17  1  0.93219000  0.73371000  0.88301000  1.0
  H  H18  1  0.14428000  0.84962000  0.52040000  1.0
  H  H19  1  0.04890000  0.76632000  0.61698000  1.0
  H  H20  1  0.16463000  0.47963000  0.34964000  1.0
  H  H21  1  0.16583000  0.38304000  0.26633000  1.0
  H  H22  1  0.49389000  0.02039000  0.15039000  1.0
  H  H23  1  0.31517000  0.11696000  0.23371000  1.0
  H  H24  1  0.64433000  0.52040000  0.84959000  1.0
  H  H25  1  0.54892000  0.61700000  0.76628000  1.0
  H  H26  1  0.51430000  0.97960000  0.65038000  1.0
  H  H27  1  0.43221000  0.88302000  0.73367000  1.0
  H  H28  1  0.99390000  0.15036000  0.02037000  1.0
  H  H29  1  0.81519000  0.23367000  0.11696000  1.0
  H  H30  1  0.66467000  0.34961000  0.47961000  1.0
  H  H31  1  0.66584000  0.26629000  0.38304000  1.0
  H  H32  1  0.98567000  0.34959000  0.02041000  1.0
  H  H33  1  0.06780000  0.26628000  0.11700000  1.0
  H  H34  1  0.85572000  0.15038000  0.47960000  1.0
  H  H35  1  0.95109000  0.23368000  0.38302000  1.0
  H  H36  1  0.83537000  0.52036000  0.65036000  1.0
  H  H37  1  0.83418000  0.61696000  0.73367000  1.0
  H  H38  1  0.50611000  0.97961000  0.84961000  1.0
  H  H39  1  0.68483000  0.88304000  0.76629000  1.0
  C  C40  1  0.39619000  0.44419000  0.88978000  1.0
  C  C41  1  0.23005000  0.05591000  0.61037000  1.0
  C  C42  1  0.78583000  0.11030000  0.94424000  1.0
  C  C43  1  0.34049000  0.38976000  0.55576000  1.0
  C  C44  1  0.26984000  0.38976000  0.94419000  1.0
  C  C45  1  0.10368000  0.11037000  0.55590000  1.0
  C  C46  1  0.15963000  0.44424000  0.61030000  1.0
  C  C47  1  0.71400000  0.05576000  0.88975000  1.0
  C  C48  1  0.60380000  0.55581000  0.11023000  1.0
  C  C49  1  0.76995000  0.94411000  0.38963000  1.0
  C  C50  1  0.21416000  0.88970000  0.05576000  1.0
  C  C51  1  0.65951000  0.61024000  0.44424000  1.0
  C  C52  1  0.73016000  0.61023000  0.05581000  1.0
  C  C53  1  0.89632000  0.88963000  0.44409000  1.0
  C  C54  1  0.84037000  0.55576000  0.38970000  1.0
  C  C55  1  0.28600000  0.94425000  0.11024000  1.0
  N  N56  1  0.37466000  0.39213000  0.19697000  1.0
  N  N57  1  0.46374000  0.10787000  0.30308000  1.0
  N  N58  1  0.07163000  0.80309000  0.89216000  1.0
  N  N59  1  0.26684000  0.69696000  0.60787000  1.0
  N  N60  1  0.03624000  0.69697000  0.89213000  1.0
  N  N61  1  0.12531000  0.80309000  0.60787000  1.0
  N  N62  1  0.23312000  0.39216000  0.30309000  1.0
  N  N63  1  0.42833000  0.10786000  0.19696000  1.0
  N  N64  1  0.62535000  0.60787000  0.80303000  1.0
  N  N65  1  0.53627000  0.89212000  0.69691000  1.0
  N  N66  1  0.92836000  0.19691000  0.10784000  1.0
  N  N67  1  0.73315000  0.30304000  0.39214000  1.0
  N  N68  1  0.96376000  0.30303000  0.10787000  1.0
  N  N69  1  0.87469000  0.19692000  0.39213000  1.0
  N  N70  1  0.76688000  0.60784000  0.69691000  1.0
  N  N71  1  0.57168000  0.89214000  0.80304000  1.0
  O  O72  1  0.50918000  0.38888000  0.92266000  1.0
  O  O73  1  0.37545000  0.54328000  0.81799000  1.0
  O  O74  1  0.32066000  0.11115000  0.57743000  1.0
  O  O75  1  0.23654000  0.95688000  0.68222000  1.0
  O  O76  1  0.93169000  0.07747000  0.88891000  1.0
  O  O77  1  0.69328000  0.18208000  0.04333000  1.0
  O  O78  1  0.39820000  0.42263000  0.61104000  1.0
  O  O79  1  0.41875000  0.31798000  0.45667000  1.0
  O  O80  1  0.17928000  0.42265000  0.88889000  1.0
  O  O81  1  0.26327000  0.31797000  0.04329000  1.0
  O  O82  1  0.99076000  0.07743000  0.61115000  1.0
  O  O83  1  0.12438000  0.18221000  0.45686000  1.0
  O  O84  1  0.10193000  0.38892000  0.57746000  1.0
  O  O85  1  0.08132000  0.54333000  0.68208000  1.0
  O  O86  1  0.56813000  0.11104000  0.92263000  1.0
  O  O87  1  0.80661000  0.95667000  0.81796000  1.0
  O  O88  1  0.49083000  0.61111000  0.07734000  1.0
  O  O89  1  0.62454000  0.45671000  0.18202000  1.0
  O  O90  1  0.67934000  0.88886000  0.42257000  1.0
  O  O91  1  0.76344000  0.04314000  0.31779000  1.0
  O  O92  1  0.06830000  0.92254000  0.11108000  1.0
  O  O93  1  0.30671000  0.81792000  0.95668000  1.0
  O  O94  1  0.60180000  0.57737000  0.38896000  1.0
  O  O95  1  0.58125000  0.68203000  0.54333000  1.0
  O  O96  1  0.82072000  0.57735000  0.11112000  1.0
  O  O97  1  0.73672000  0.68203000  0.95673000  1.0
  O  O98  1  0.00924000  0.92257000  0.38885000  1.0
  O  O99  1  0.87564000  0.81779000  0.54312000  1.0
  O  O100  1  0.89808000  0.61109000  0.42253000  1.0
  O  O101  1  0.91869000  0.45667000  0.31792000  1.0
  O  O102  1  0.43186000  0.88896000  0.07737000  1.0
  O  O103  1  0.19338000  0.04334000  0.18203000  1.0
