# generated using pymatgen
data_ZnMoH8C12(NO2)2
_symmetry_space_group_name_H-M   'P 1'
_cell_length_a   6.42224000
_cell_length_b   8.73295000
_cell_length_c   10.65830000
_cell_angle_alpha   79.44100000
_cell_angle_beta   89.99980000
_cell_angle_gamma   89.99960000
_symmetry_Int_Tables_number   1
_chemical_formula_structural   ZnMoH8C12(NO2)2
_chemical_formula_sum   'Zn2 Mo2 H16 C24 N4 O8'
_cell_volume   587.64959831
_cell_formula_units_Z   2
loop_
 _symmetry_equiv_pos_site_id
 _symmetry_equiv_pos_as_xyz
  1  'x, y, z'
loop_
 _atom_site_type_symbol
 _atom_site_label
 _atom_site_symmetry_multiplicity
 _atom_site_fract_x
 _atom_site_fract_y
 _atom_site_fract_z
 _atom_site_occupancy
  Zn  Zn0  1  0.75000000  0.29205000  0.17229000  1.0
  Zn  Zn1  1  0.25000000  0.70795000  0.82771000  1.0
  Mo  Mo2  1  0.75000000  0.49512000  0.82485000  1.0
  Mo  Mo3  1  0.25000000  0.50487000  0.17516000  1.0
  H  H4  1  0.75001000  0.31246000  0.47294000  1.0
  H  H5  1  0.24999000  0.68753000  0.52707000  1.0
  H  H6  1  0.75000000  0.13220000  0.92728000  1.0
  H  H7  1  0.25000000  0.86781000  0.07272000  1.0
  H  H8  1  0.75000000  0.85516000  0.89005000  1.0
  H  H9  1  0.25000000  0.14486000  0.10995000  1.0
  H  H10  1  0.75000000  0.12378000  0.67471000  1.0
  H  H11  1  0.25000000  0.87622000  0.32529000  1.0
  H  H12  1  0.75000000  0.63682000  0.07734000  1.0
  H  H13  1  0.25000000  0.36319000  0.92265000  1.0
  H  H14  1  0.75000000  0.55295000  0.31756000  1.0
  H  H15  1  0.25001000  0.44705000  0.68243000  1.0
  H  H16  1  0.75000000  0.83337000  0.66799000  1.0
  H  H17  1  0.25000000  0.16663000  0.33201000  1.0
  H  H18  1  0.75000000  0.62351000  0.53268000  1.0
  H  H19  1  0.25000000  0.37649000  0.46731000  1.0
  C  C20  1  0.75000000  0.03351000  0.00674000  1.0
  C  C21  1  0.25000000  0.96649000  0.99326000  1.0
  C  C22  1  0.75000000  0.87880000  0.98690000  1.0
  C  C23  1  0.25000000  0.12121000  0.01310000  1.0
  C  C24  1  0.75000000  0.75775000  0.09083000  1.0
  C  C25  1  0.25001000  0.24226000  0.90916000  1.0
  C  C26  1  0.75000000  0.79157000  0.21547000  1.0
  C  C27  1  0.25000000  0.20843000  0.78452000  1.0
  C  C28  1  0.75000000  0.95088000  0.22672000  1.0
  C  C29  1  0.25000000  0.04912000  0.77328000  1.0
  C  C30  1  0.75000000  0.67441000  0.32877000  1.0
  C  C31  1  0.25001000  0.32559000  0.67122000  1.0
  C  C32  1  0.75000000  0.71370000  0.44706000  1.0
  C  C33  1  0.25000000  0.28629000  0.55294000  1.0
  C  C34  1  0.75000000  0.87351000  0.46159000  1.0
  C  C35  1  0.25000000  0.12649000  0.53841000  1.0
  C  C36  1  0.75000000  0.99226000  0.35143000  1.0
  C  C37  1  0.25000000  0.00774000  0.64856000  1.0
  C  C38  1  0.75000000  0.92172000  0.58124000  1.0
  C  C39  1  0.25000000  0.07827000  0.41876000  1.0
  C  C40  1  0.75000000  0.07879000  0.58584000  1.0
  C  C41  1  0.25000000  0.92121000  0.41416000  1.0
  C  C42  1  0.75000000  0.18804000  0.47117000  1.0
  C  C43  1  0.24999000  0.81196000  0.52882000  1.0
  N  N44  1  0.75000000  0.06813000  0.12357000  1.0
  N  N45  1  0.25000000  0.93188000  0.87643000  1.0
  N  N46  1  0.75000000  0.14570000  0.35765000  1.0
  N  N47  1  0.25000000  0.85430000  0.64235000  1.0
  O  O48  1  0.52209000  0.61440000  0.78879000  1.0
  O  O49  1  0.02209000  0.38560000  0.21122000  1.0
  O  O50  1  0.47791000  0.38560000  0.21122000  1.0
  O  O51  1  0.97791000  0.61440000  0.78879000  1.0
  O  O52  1  0.75000000  0.35148000  0.73143000  1.0
  O  O53  1  0.24999000  0.64851000  0.26859000  1.0
  O  O54  1  0.75000000  0.40366000  0.98794000  1.0
  O  O55  1  0.24999000  0.59634000  0.01207000  1.0
