# generated using pymatgen
data_CuH11C12IN2
_symmetry_space_group_name_H-M   'P 1'
_cell_length_a   7.09487000
_cell_length_b   8.63734000
_cell_length_c   10.39230000
_cell_angle_alpha   66.50910000
_cell_angle_beta   88.31670000
_cell_angle_gamma   76.63530000
_symmetry_Int_Tables_number   1
_chemical_formula_structural   CuH11C12IN2
_chemical_formula_sum   'Cu2 H22 C24 I2 N4'
_cell_volume   566.84375248
_cell_formula_units_Z   2
loop_
 _symmetry_equiv_pos_site_id
 _symmetry_equiv_pos_as_xyz
  1  'x, y, z'
loop_
 _atom_site_type_symbol
 _atom_site_label
 _atom_site_symmetry_multiplicity
 _atom_site_fract_x
 _atom_site_fract_y
 _atom_site_fract_z
 _atom_site_occupancy
  Cu  Cu0  1  0.42572000  0.90033000  0.09346000  1.0
  Cu  Cu1  1  0.57427000  0.09967000  0.90654000  1.0
  H  H2  1  0.20488000  0.39234000  0.67749000  1.0
  H  H3  1  0.79513000  0.60766000  0.32251000  1.0
  H  H4  1  0.16942000  0.63071000  0.76039000  1.0
  H  H5  1  0.83059000  0.36930000  0.23962000  1.0
  H  H6  1  0.19102000  0.92506000  0.59923000  1.0
  H  H7  1  0.80898000  0.07494000  0.40077000  1.0
  H  H8  1  0.26617000  0.99151000  0.34741000  1.0
  H  H9  1  0.73383000  0.00849000  0.65259000  1.0
  H  H10  1  0.25039000  0.23144000  0.54092000  1.0
  H  H11  1  0.74962000  0.76856000  0.45909000  1.0
  H  H12  1  0.41399000  0.20806000  0.41347000  1.0
  H  H13  1  0.58602000  0.79194000  0.58653000  1.0
  H  H14  1  0.15629000  0.27254000  0.37006000  1.0
  H  H15  1  0.84372000  0.72745000  0.62995000  1.0
  H  H16  1  0.28768000  0.24988000  0.06753000  1.0
  H  H17  1  0.71232000  0.75013000  0.93247000  1.0
  H  H18  1  0.00510000  0.75777000  0.04953000  1.0
  H  H19  1  0.99490000  0.24223000  0.95046000  1.0
  H  H20  1  0.45529000  0.38238000  0.17045000  1.0
  H  H21  1  0.54471000  0.61762000  0.82955000  1.0
  H  H22  1  0.42147000  0.60445000  0.05390000  1.0
  H  H23  1  0.57852000  0.39555000  0.94610000  1.0
  C  C24  1  0.27596000  0.72866000  0.37280000  1.0
  C  C25  1  0.72404000  0.27134000  0.62720000  1.0
  C  C26  1  0.25418000  0.56168000  0.46440000  1.0
  C  C27  1  0.74582000  0.43832000  0.53561000  1.0
  C  C28  1  0.21760000  0.52150000  0.60553000  1.0
  C  C29  1  0.78241000  0.47850000  0.39447000  1.0
  C  C30  1  0.19834000  0.65584000  0.65104000  1.0
  C  C31  1  0.80167000  0.34416000  0.34896000  1.0
  C  C32  1  0.21197000  0.82403000  0.55897000  1.0
  C  C33  1  0.78803000  0.17597000  0.44103000  1.0
  C  C34  1  0.25180000  0.86278000  0.41901000  1.0
  C  C35  1  0.74819000  0.13722000  0.58098000  1.0
  C  C36  1  0.31923000  0.56852000  0.25136000  1.0
  C  C37  1  0.68076000  0.43148000  0.74864000  1.0
  C  C38  1  0.27478000  0.28354000  0.42871000  1.0
  C  C39  1  0.72523000  0.71645000  0.57130000  1.0
  C  C40  1  0.16793000  0.50399000  0.06744000  1.0
  C  C41  1  0.83207000  0.49601000  0.93255000  1.0
  C  C42  1  0.16121000  0.36029000  0.03832000  1.0
  C  C43  1  0.83878000  0.63971000  0.96168000  1.0
  C  C44  1  0.00419000  0.64399000  0.02836000  1.0
  C  C45  1  0.99580000  0.35601000  0.97164000  1.0
  C  C46  1  0.35218000  0.51056000  0.13399000  1.0
  C  C47  1  0.64782000  0.48944000  0.86601000  1.0
  I  I48  1  0.29559000  0.99485000  0.83796000  1.0
  I  I49  1  0.70441000  0.00515000  0.16204000  1.0
  N  N50  1  0.31968000  0.72757000  0.24186000  1.0
  N  N51  1  0.68031000  0.27242000  0.75814000  1.0
  N  N52  1  0.28068000  0.46456000  0.38327000  1.0
  N  N53  1  0.71933000  0.53543000  0.61673000  1.0
