# generated using pymatgen
data_AgH8C10(NO2)3
_symmetry_space_group_name_H-M   'P 1'
_cell_length_a   7.38730000
_cell_length_b   9.18956000
_cell_length_c   18.05180000
_cell_angle_alpha   89.99980000
_cell_angle_beta   90.00000000
_cell_angle_gamma   110.18900000
_symmetry_Int_Tables_number   1
_chemical_formula_structural   AgH8C10(NO2)3
_chemical_formula_sum   'Ag4 H32 C40 N12 O24'
_cell_volume   1150.17171580
_cell_formula_units_Z   4
loop_
 _symmetry_equiv_pos_site_id
 _symmetry_equiv_pos_as_xyz
  1  'x, y, z'
loop_
 _atom_site_type_symbol
 _atom_site_label
 _atom_site_symmetry_multiplicity
 _atom_site_fract_x
 _atom_site_fract_y
 _atom_site_fract_z
 _atom_site_occupancy
  Ag  Ag0  1  0.54832000  0.16834000  0.82547000  1.0
  Ag  Ag1  1  0.45168000  0.33166000  0.32547000  1.0
  Ag  Ag2  1  0.45168000  0.83166000  0.17453000  1.0
  Ag  Ag3  1  0.54831000  0.66834000  0.67453000  1.0
  H  H4  1  0.61134000  0.37113000  0.95093000  1.0
  H  H5  1  0.38866000  0.12887000  0.45093000  1.0
  H  H6  1  0.38867000  0.62887000  0.04907000  1.0
  H  H7  1  0.61134000  0.87113000  0.54907000  1.0
  H  H8  1  0.53846000  0.39158000  0.08426000  1.0
  H  H9  1  0.46154000  0.10841000  0.58426000  1.0
  H  H10  1  0.46154000  0.60842000  0.91574000  1.0
  H  H11  1  0.53846000  0.89158000  0.41574000  1.0
  H  H12  1  0.30550000  0.16019000  0.14814000  1.0
  H  H13  1  0.69450000  0.33981000  0.64814000  1.0
  H  H14  1  0.69450000  0.83981000  0.85186000  1.0
  H  H15  1  0.30550000  0.66019000  0.35186000  1.0
  H  H16  1  0.07976000  0.89618000  0.14102000  1.0
  H  H17  1  0.92024000  0.60382000  0.64103000  1.0
  H  H18  1  0.92024000  0.10382000  0.85897000  1.0
  H  H19  1  0.07976000  0.39618000  0.35898000  1.0
  H  H20  1  0.98374000  0.65056000  0.93211000  1.0
  H  H21  1  0.01626000  0.84944000  0.43211000  1.0
  H  H22  1  0.01626000  0.34944000  0.06789000  1.0
  H  H23  1  0.98373000  0.15056000  0.56789000  1.0
  H  H24  1  0.99191000  0.64903000  0.18049000  1.0
  H  H25  1  0.00809000  0.85097000  0.68049000  1.0
  H  H26  1  0.00809000  0.35097000  0.81951000  1.0
  H  H27  1  0.99191000  0.14903000  0.31951000  1.0
  H  H28  1  0.76492000  0.50386000  0.16222000  1.0
  H  H29  1  0.23508000  0.99615000  0.66222000  1.0
  H  H30  1  0.23508000  0.49615000  0.83778000  1.0
  H  H31  1  0.76492000  0.00385000  0.33778000  1.0
  H  H32  1  0.78577000  0.70514000  0.16220000  1.0
  H  H33  1  0.21423000  0.79487000  0.66220000  1.0
  H  H34  1  0.21423000  0.29487000  0.83780000  1.0
  H  H35  1  0.78577000  0.20514000  0.33780000  1.0
  C  C36  1  0.50365000  0.27468000  0.97905000  1.0
  C  C37  1  0.49635000  0.22532000  0.47905000  1.0
  C  C38  1  0.49635000  0.72532000  0.02095000  1.0
  C  C39  1  0.50365000  0.77468000  0.52096000  1.0
  C  C40  1  0.46350000  0.28492000  0.05448000  1.0
  C  C41  1  0.53650000  0.21508000  0.55448000  1.0
  C  C42  1  0.53650000  0.71508000  0.94552000  1.0
  C  C43  1  0.46350000  0.78492000  0.44552000  1.0
  C  C44  1  0.33572000  0.15767000  0.08919000  1.0
  C  C45  1  0.66428000  0.34233000  0.58919000  1.0
  C  C46  1  0.66428000  0.84233000  0.91081000  1.0
  C  C47  1  0.33572000  0.65766000  0.41081000  1.0
  C  C48  1  0.11221000  0.88834000  0.08270000  1.0
  C  C49  1  0.88779000  0.61166000  0.58270000  1.0
  C  C50  1  0.88779000  0.11166000  0.91730000  1.0
  C  C51  1  0.11221000  0.38834000  0.41730000  1.0
  C  C52  1  0.02203000  0.75453000  0.04215000  1.0
  C  C53  1  0.97797000  0.74548000  0.54215000  1.0
  C  C54  1  0.97797000  0.24548000  0.95785000  1.0
  C  C55  1  0.02203000  0.25452000  0.45785000  1.0
  C  C56  1  0.05869000  0.75302000  0.96522000  1.0
  C  C57  1  0.94131000  0.74699000  0.46522000  1.0
  C  C58  1  0.94131000  0.24698000  0.03478000  1.0
  C  C59  1  0.05869000  0.25301000  0.53478000  1.0
  C  C60  1  0.18147000  0.88342000  0.93072000  1.0
  C  C61  1  0.81853000  0.61658000  0.43072000  1.0
  C  C62  1  0.81853000  0.11658000  0.06927000  1.0
  C  C63  1  0.18147000  0.38342000  0.56928000  1.0
  C  C64  1  0.28379000  0.02293000  0.97003000  1.0
  C  C65  1  0.71621000  0.47707000  0.47003000  1.0
  C  C66  1  0.71622000  0.97707000  0.02997000  1.0
  C  C67  1  0.28379000  0.52293000  0.52997000  1.0
  C  C68  1  0.24272000  0.02134000  0.04780000  1.0
  C  C69  1  0.75728000  0.47866000  0.54780000  1.0
  C  C70  1  0.75728000  0.97866000  0.95220000  1.0
  C  C71  1  0.24272000  0.52134000  0.45220000  1.0
  C  C72  1  0.85752000  0.62181000  0.14884000  1.0
  C  C73  1  0.14248000  0.87819000  0.64884000  1.0
  C  C74  1  0.14249000  0.37819000  0.85116000  1.0
  C  C75  1  0.85752000  0.12181000  0.35116000  1.0
  N  N76  1  0.41813000  0.14910000  0.93781000  1.0
  N  N77  1  0.58187000  0.35090000  0.43781000  1.0
  N  N78  1  0.58188000  0.85090000  0.06219000  1.0
  N  N79  1  0.41812000  0.64910000  0.56219000  1.0
  N  N80  1  0.19450000  0.87300000  0.85020000  1.0
  N  N81  1  0.80551000  0.62700000  0.35020000  1.0
  N  N82  1  0.80550000  0.12700000  0.14980000  1.0
  N  N83  1  0.19449000  0.37300000  0.64980000  1.0
  N  N84  1  0.69835000  0.02345000  0.70548000  1.0
  N  N85  1  0.30165000  0.47655000  0.20548000  1.0
  N  N86  1  0.30165000  0.97656000  0.29452000  1.0
  N  N87  1  0.69835000  0.52344000  0.79452000  1.0
  O  O88  1  0.89528000  0.62221000  0.07026000  1.0
  O  O89  1  0.10471000  0.87779000  0.57026000  1.0
  O  O90  1  0.10471000  0.37779000  0.92974000  1.0
  O  O91  1  0.89529000  0.12220000  0.42974000  1.0
  O  O92  1  0.20009000  0.75123000  0.82287000  1.0
  O  O93  1  0.79992000  0.74876000  0.32287000  1.0
  O  O94  1  0.79990000  0.24876000  0.17713000  1.0
  O  O95  1  0.20008000  0.25123000  0.67713000  1.0
  O  O96  1  0.19792000  0.98956000  0.81348000  1.0
  O  O97  1  0.80209000  0.51044000  0.31349000  1.0
  O  O98  1  0.80208000  0.01044000  0.18651000  1.0
  O  O99  1  0.19791000  0.48957000  0.68652000  1.0
  O  O100  1  0.75151000  0.16279000  0.73074000  1.0
  O  O101  1  0.24850000  0.33721000  0.23074000  1.0
  O  O102  1  0.24850000  0.83721000  0.26926000  1.0
  O  O103  1  0.75150000  0.66279000  0.76926000  1.0
  O  O104  1  0.56513000  0.91812000  0.73914000  1.0
  O  O105  1  0.43487000  0.58188000  0.23914000  1.0
  O  O106  1  0.43487000  0.08189000  0.26086000  1.0
  O  O107  1  0.56513000  0.41812000  0.76086000  1.0
  O  O108  1  0.77703000  0.99386000  0.64865000  1.0
  O  O109  1  0.22297000  0.50614000  0.14865000  1.0
  O  O110  1  0.22298000  0.00615000  0.35135000  1.0
  O  O111  1  0.77703000  0.49385000  0.85135000  1.0
