# generated using pymatgen
data_CuH10C18(N2O3)2
_symmetry_space_group_name_H-M   'P 1'
_cell_length_a   7.25779000
_cell_length_b   7.34670000
_cell_length_c   14.68730000
_cell_angle_alpha   90.00010000
_cell_angle_beta   90.00060000
_cell_angle_gamma   96.33870000
_symmetry_Int_Tables_number   1
_chemical_formula_structural   CuH10C18(N2O3)2
_chemical_formula_sum   'Cu2 H20 C36 N8 O12'
_cell_volume   778.35103838
_cell_formula_units_Z   2
loop_
 _symmetry_equiv_pos_site_id
 _symmetry_equiv_pos_as_xyz
  1  'x, y, z'
loop_
 _atom_site_type_symbol
 _atom_site_label
 _atom_site_symmetry_multiplicity
 _atom_site_fract_x
 _atom_site_fract_y
 _atom_site_fract_z
 _atom_site_occupancy
  Cu  Cu0  1  0.50001000  0.00000000  0.50000000  1.0
  Cu  Cu1  1  0.50000000  0.50000000  1.00000000  1.0
  H  H2  1  0.12917000  0.16093000  0.48746000  1.0
  H  H3  1  0.87082000  0.33907000  0.98746000  1.0
  H  H4  1  0.87083000  0.83907000  0.51254000  1.0
  H  H5  1  0.12916000  0.66093000  0.01253000  1.0
  H  H6  1  0.91145000  0.25621000  0.60493000  1.0
  H  H7  1  0.08854000  0.24379000  0.10493000  1.0
  H  H8  1  0.08855000  0.74379000  0.39507000  1.0
  H  H9  1  0.91145000  0.75621000  0.89506000  1.0
  H  H10  1  0.99083000  0.23019000  0.77039000  1.0
  H  H11  1  0.00917000  0.26982000  0.27039000  1.0
  H  H12  1  0.00916000  0.76981000  0.22961000  1.0
  H  H13  1  0.99085000  0.73018000  0.72960000  1.0
  H  H14  1  0.54996000  0.03544000  0.91643000  1.0
  H  H15  1  0.45004000  0.46457000  0.41643000  1.0
  H  H16  1  0.45003000  0.96455000  0.08357000  1.0
  H  H17  1  0.54997000  0.53544000  0.58357000  1.0
  H  H18  1  0.74420000  0.95160000  0.78854000  1.0
  H  H19  1  0.25579000  0.54841000  0.28854000  1.0
  H  H20  1  0.25579000  0.04841000  0.21146000  1.0
  H  H21  1  0.74421000  0.45158000  0.71147000  1.0
  C  C22  1  0.15951000  0.15053000  0.55974000  1.0
  C  C23  1  0.84048000  0.34948000  0.05974000  1.0
  C  C24  1  0.84049000  0.84948000  0.44026000  1.0
  C  C25  1  0.15951000  0.65052000  0.94026000  1.0
  C  C26  1  0.03879000  0.20369000  0.62683000  1.0
  C  C27  1  0.96121000  0.29632000  0.12683000  1.0
  C  C28  1  0.96121000  0.79632000  0.37317000  1.0
  C  C29  1  0.03879000  0.70368000  0.87316000  1.0
  C  C30  1  0.08339000  0.18953000  0.71793000  1.0
  C  C31  1  0.91661000  0.31048000  0.21794000  1.0
  C  C32  1  0.91660000  0.81047000  0.28207000  1.0
  C  C33  1  0.08340000  0.68952000  0.78206000  1.0
  C  C34  1  0.25177000  0.12208000  0.74379000  1.0
  C  C35  1  0.74823000  0.37793000  0.24379000  1.0
  C  C36  1  0.74823000  0.87792000  0.25621000  1.0
  C  C37  1  0.25177000  0.62207000  0.75621000  1.0
  C  C38  1  0.32477000  0.10436000  0.83389000  1.0
  C  C39  1  0.67523000  0.39565000  0.33389000  1.0
  C  C40  1  0.67522000  0.89564000  0.16611000  1.0
  C  C41  1  0.32478000  0.60435000  0.66611000  1.0
  C  C42  1  0.50043000  0.04660000  0.84697000  1.0
  C  C43  1  0.49957000  0.45340000  0.34697000  1.0
  C  C44  1  0.49957000  0.95340000  0.15303000  1.0
  C  C45  1  0.50044000  0.54659000  0.65303000  1.0
  C  C46  1  0.60972000  0.99839000  0.77534000  1.0
  C  C47  1  0.39028000  0.50161000  0.27534000  1.0
  C  C48  1  0.39028000  0.00162000  0.22466000  1.0
  C  C49  1  0.60972000  0.49838000  0.72466000  1.0
  C  C50  1  0.54616000  0.00878000  0.68506000  1.0
  C  C51  1  0.45384000  0.49123000  0.18506000  1.0
  C  C52  1  0.45384000  0.99122000  0.31494000  1.0
  C  C53  1  0.54616000  0.50877000  0.81494000  1.0
  C  C54  1  0.36685000  0.07391000  0.67143000  1.0
  C  C55  1  0.63315000  0.42610000  0.17143000  1.0
  C  C56  1  0.63315000  0.92609000  0.32857000  1.0
  C  C57  1  0.36685000  0.57390000  0.82857000  1.0
  N  N58  1  0.31808000  0.08749000  0.58248000  1.0
  N  N59  1  0.68192000  0.41252000  0.08249000  1.0
  N  N60  1  0.68192000  0.91252000  0.41752000  1.0
  N  N61  1  0.31808000  0.58748000  0.91751000  1.0
  N  N62  1  0.22403000  0.14533000  0.91310000  1.0
  N  N63  1  0.77597000  0.35468000  0.41310000  1.0
  N  N64  1  0.77596000  0.85467000  0.08691000  1.0
  N  N65  1  0.22405000  0.64532000  0.58690000  1.0
  O  O66  1  0.63752000  0.96338000  0.61422000  1.0
  O  O67  1  0.36248000  0.53663000  0.11422000  1.0
  O  O68  1  0.36249000  0.03663000  0.38578000  1.0
  O  O69  1  0.63752000  0.46337000  0.88578000  1.0
  O  O70  1  0.30935000  0.16710000  0.98798000  1.0
  O  O71  1  0.69064000  0.33290000  0.48798000  1.0
  O  O72  1  0.69064000  0.83290000  0.01203000  1.0
  O  O73  1  0.30937000  0.66709000  0.51202000  1.0
  O  O74  1  0.05388000  0.15991000  0.90700000  1.0
  O  O75  1  0.94611000  0.34011000  0.40701000  1.0
  O  O76  1  0.94611000  0.84011000  0.09300000  1.0
  O  O77  1  0.05390000  0.65990000  0.59299000  1.0
