# generated using pymatgen
data_Zn8H39C62N13(Cl5O13)2
_symmetry_space_group_name_H-M   'P 1'
_cell_length_a   18.30100000
_cell_length_b   18.41027831
_cell_length_c   18.45990000
_cell_angle_alpha   119.82722800
_cell_angle_beta   90.06350000
_cell_angle_gamma   119.78969152
_symmetry_Int_Tables_number   1
_chemical_formula_structural   Zn8H39C62N13(Cl5O13)2
_chemical_formula_sum   'Zn8 H39 C62 N13 Cl10 O26'
_cell_volume   4420.88349426
_cell_formula_units_Z   1
loop_
 _symmetry_equiv_pos_site_id
 _symmetry_equiv_pos_as_xyz
  1  'x, y, z'
loop_
 _atom_site_type_symbol
 _atom_site_label
 _atom_site_symmetry_multiplicity
 _atom_site_fract_x
 _atom_site_fract_y
 _atom_site_fract_z
 _atom_site_occupancy
  Zn  Zn0  1  0.05164000  0.59432000  0.45651000  1.0
  Zn  Zn1  1  0.87282000  0.42535000  0.45955000  1.0
  Zn  Zn2  1  0.04768000  0.59446000  0.62883000  1.0
  Zn  Zn3  1  0.04131000  0.41521000  0.45686000  1.0
  Zn  Zn4  1  0.46115000  0.41766000  0.04337000  1.0
  Zn  Zn5  1  0.45470000  0.41725000  0.87090000  1.0
  Zn  Zn6  1  0.63292000  0.59808000  0.04280000  1.0
  Zn  Zn7  1  0.45911000  0.59189000  0.04673000  1.0
  H  H8  1  0.13139000  0.51051000  0.23310000  1.0
  H  H9  1  0.45352000  0.50560000  0.24871000  1.0
  H  H10  1  0.20426000  0.90564000  0.81485000  1.0
  H  H11  1  0.30381000  0.09562000  0.91439000  1.0
  H  H12  1  0.25625000  0.10860000  0.63626000  1.0
  H  H13  1  0.35698000  0.66090000  0.97246000  1.0
  H  H14  1  0.30818000  0.71311000  0.95141000  1.0
  H  H15  1  0.22308000  0.25968000  0.71029000  1.0
  H  H16  1  0.14018000  0.19671000  0.61874000  1.0
  H  H17  1  0.17418000  0.33477000  0.47847000  1.0
  H  H18  1  0.27178000  0.36495000  0.52149000  1.0
  H  H19  1  0.16663000  0.91598000  0.53226000  1.0
  H  H20  1  0.05402000  0.25934000  0.58889000  1.0
  H  H21  1  0.05511000  0.20559000  0.48638000  1.0
  H  H22  1  0.59655000  0.05789000  0.32134000  1.0
  H  H23  1  0.69595000  0.17897000  0.37256000  1.0
  H  H24  1  0.93201000  0.89255000  0.20199000  1.0
  H  H25  1  0.82873000  0.83283000  0.20170000  1.0
  H  H26  1  0.04922000  0.13811000  0.33438000  1.0
  H  H27  1  0.96768000  0.05948000  0.35062000  1.0
  H  H28  1  0.93205000  0.09217000  0.16102000  1.0
  H  H29  1  0.99183000  0.20096000  0.25925000  1.0
  H  H30  1  0.26807000  0.92378000  0.53926000  1.0
  H  H31  1  0.47015000  0.33558000  0.56871000  1.0
  H  H32  1  0.48633000  0.34928000  0.66757000  1.0
  H  H33  1  0.69050000  0.57991000  0.62008000  1.0
  H  H34  1  0.74436000  0.53469000  0.55698000  1.0
  H  H35  1  0.65128000  0.28944000  0.03844000  1.0
  H  H36  1  0.54449000  0.20811000  0.01777000  1.0
  H  H37  1  0.58990000  0.21423000  0.22087000  1.0
  H  H38  1  0.67865000  0.31866000  0.31227000  1.0
  H  H39  1  0.52747000  0.50260000  0.42882000  1.0
  H  H40  1  0.54507000  0.49915000  0.33579000  1.0
  H  H41  1  0.22399000  0.64053000  0.80970000  1.0
  H  H42  1  0.30937000  0.34404000  0.62719000  1.0
  H  H43  1  0.27558000  0.50953000  0.45220000  1.0
  H  H44  1  0.58370000  0.90667000  0.22217000  1.0
  H  H45  1  0.86413000  0.92831000  0.12752000  1.0
  H  H46  1  0.54730000  0.30815000  0.15918000  1.0
  C  C47  1  0.85596000  0.23174000  0.36340000  1.0
  C  C48  1  0.20052000  0.89678000  0.69409000  1.0
  C  C49  1  0.22794000  0.95012000  0.78706000  1.0
  C  C50  1  0.14163000  0.78330000  0.63632000  1.0
  C  C51  1  0.28372000  0.05653000  0.84284000  1.0
  C  C52  1  0.31414000  0.11617000  0.80889000  1.0
  C  C53  1  0.28651000  0.06280000  0.71700000  1.0
  C  C54  1  0.28878000  0.07372000  0.64079000  1.0
  C  C55  1  0.23192000  0.95324000  0.57735000  1.0
  C  C56  1  0.20505000  0.42234000  0.66183000  1.0
  C  C57  1  0.19213000  0.50044000  0.69376000  1.0
  C  C58  1  0.41401000  0.50689000  0.29283000  1.0
  C  C59  1  0.23329000  0.57909000  0.78380000  1.0
  C  C60  1  0.28641000  0.58220000  0.84256000  1.0
  C  C61  1  0.30081000  0.50284000  0.80860000  1.0
  C  C62  1  0.86792000  0.52120000  0.37366000  1.0
  C  C63  1  0.25851000  0.42515000  0.71764000  1.0
  C  C64  1  0.24740000  0.32691000  0.64385000  1.0
  C  C65  1  0.17977000  0.31968000  0.57972000  1.0
  C  C66  1  0.83738000  0.06464000  0.27208000  1.0
  C  C67  1  0.79973000  0.11962000  0.30986000  1.0
  C  C68  1  0.70491000  0.05952000  0.29144000  1.0
  C  C69  1  0.33759000  0.50448000  0.27466000  1.0
  C  C70  1  0.65561000  0.95137000  0.23574000  1.0
  C  C71  1  0.69496000  0.89943000  0.19714000  1.0
  C  C72  1  0.78759000  0.95901000  0.21659000  1.0
  C  C73  1  0.86547000  0.95337000  0.19617000  1.0
  C  C74  1  0.13745000  0.50210000  0.63608000  1.0
  C  C75  1  0.92636000  0.07693000  0.26338000  1.0
  C  C76  1  0.72366000  0.46621000  0.66681000  1.0
  C  C77  1  0.80748000  0.48816000  0.69411000  1.0
  C  C78  1  0.82950000  0.49984000  0.77468000  1.0
  C  C79  1  0.77256000  0.49802000  0.82705000  1.0
  C  C80  1  0.28535000  0.50550000  0.33312000  1.0
  C  C81  1  0.69192000  0.48519000  0.80136000  1.0
  C  C82  1  0.66905000  0.46578000  0.71886000  1.0
  C  C83  1  0.59757000  0.44480000  0.65565000  1.0
  C  C84  1  0.66078000  0.44643000  0.59405000  1.0
  C  C85  1  0.73283000  0.44489000  0.25821000  1.0
  C  C86  1  0.86765000  0.50237000  0.64064000  1.0
  C  C87  1  0.81212000  0.53208000  0.32608000  1.0
  C  C88  1  0.83549000  0.62540000  0.34131000  1.0
  C  C89  1  0.78213000  0.62780000  0.28777000  1.0
  C  C90  1  0.70337000  0.53705000  0.21754000  1.0
  C  C91  1  0.21033000  0.50727000  0.31594000  1.0
  C  C92  1  0.68053000  0.44694000  0.20600000  1.0
  C  C93  1  0.61132000  0.33163000  0.14661000  1.0
  C  C94  1  0.67325000  0.32987000  0.20890000  1.0
  C  C95  1  0.35726000  0.50185000  0.86412000  1.0
  C  C96  1  0.64565000  0.53123000  0.15462000  1.0
  C  C97  1  0.37059000  0.22963000  0.86775000  1.0
  C  C98  1  0.14999000  0.50613000  0.37050000  1.0
  C  C99  1  0.63936000  0.78578000  0.13887000  1.0
  C  C100  1  0.63454000  0.49521000  0.85812000  1.0
  C  C101  1  0.36462000  0.50127000  0.13860000  1.0
  C  C102  1  0.18839000  0.50851000  0.24491000  1.0
  C  C103  1  0.31373000  0.50905000  0.40709000  1.0
  C  C104  1  0.38867000  0.51151000  0.42265000  1.0
  C  C105  1  0.44140000  0.51022000  0.36548000  1.0
  C  C106  1  0.23833000  0.50531000  0.18710000  1.0
  C  C107  1  0.31173000  0.50333000  0.20049000  1.0
  C  C108  1  0.23256000  0.95626000  0.66095000  1.0
  N  N109  1  0.32427000  0.66241000  0.92938000  1.0
  N  N110  1  0.68661000  0.51664000  0.57146000  1.0
  N  N111  1  0.59581000  0.28356000  0.05368000  1.0
  N  N112  1  0.63372000  0.29159000  0.25742000  1.0
  N  N113  1  0.51711000  0.51549000  0.38370000  1.0
  N  N114  1  0.20814000  0.23819000  0.64670000  1.0
  N  N115  1  0.20463000  0.31434000  0.50351000  1.0
  N  N116  1  0.08720000  0.23538000  0.54970000  1.0
  N  N117  1  0.65950000  0.10279000  0.32425000  1.0
  N  N118  1  0.88527000  0.90314000  0.22555000  1.0
  N  N119  1  0.98891000  0.11856000  0.34409000  1.0
  N  N120  1  0.97347000  0.12720000  0.22185000  1.0
  N  N121  1  0.51332000  0.35851000  0.62220000  1.0
  Cl  Cl122  1  0.39622000  0.13919000  0.63110000  1.0
  Cl  Cl123  1  0.20193000  0.49939000  0.09634000  1.0
  Cl  Cl124  1  0.92451000  0.51271000  0.81034000  1.0
  Cl  Cl125  1  0.80147000  0.50790000  0.92163000  1.0
  Cl  Cl126  1  0.60128000  0.56936000  0.70957000  1.0
  Cl  Cl127  1  0.61164000  0.31901000  0.49266000  1.0
  Cl  Cl128  1  0.42204000  0.51704000  0.51449000  1.0
  Cl  Cl129  1  0.92815000  0.73911000  0.42813000  1.0
  Cl  Cl130  1  0.81297000  0.74378000  0.31085000  1.0
  Cl  Cl131  1  0.73231000  0.27338000  0.14331000  1.0
  O  O132  1  0.00246000  0.50724000  0.49939000  1.0
  O  O133  1  0.68153000  0.74366000  0.11528000  1.0
  O  O134  1  0.55055000  0.43305000  0.81754000  1.0
  O  O135  1  0.93820000  0.27586000  0.36888000  1.0
  O  O136  1  0.39892000  0.57534000  0.13068000  1.0
  O  O137  1  0.67425000  0.56618000  0.93992000  1.0
  O  O138  1  0.37167000  0.42640000  0.09988000  1.0
  O  O139  1  0.40319000  0.27277000  0.95040000  1.0
  O  O140  1  0.55492000  0.73900000  0.11680000  1.0
  O  O141  1  0.37407000  0.43466000  0.82407000  1.0
  O  O142  1  0.68389000  0.57644000  0.11828000  1.0
  O  O143  1  0.95137000  0.57458000  0.39005000  1.0
  O  O144  1  0.12820000  0.74048000  0.55334000  1.0
  O  O145  1  0.82407000  0.45459000  0.39036000  1.0
  O  O146  1  0.13184000  0.57819000  0.67218000  1.0
  O  O147  1  0.82866000  0.46408000  0.56100000  1.0
  O  O148  1  0.13176000  0.45169000  0.40020000  1.0
  O  O149  1  0.95103000  0.55389000  0.67786000  1.0
  O  O150  1  0.11938000  0.55852000  0.38093000  1.0
  O  O151  1  0.10042000  0.42691000  0.55433000  1.0
  O  O152  1  0.81969000  0.27975000  0.40085000  1.0
  O  O153  1  0.10951000  0.73836000  0.67468000  1.0
  O  O154  1  0.50305000  0.50518000  0.00032000  1.0
  O  O155  1  0.38619000  0.56747000  0.94878000  1.0
  O  O156  1  0.56227000  0.47702000  0.14145000  1.0
  O  O157  1  0.38062000  0.27382000  0.82939000  1.0
