# generated using pymatgen
data_CdH15C21S3N5O6
_symmetry_space_group_name_H-M   'P 1'
_cell_length_a   10.52110000
_cell_length_b   10.94680000
_cell_length_c   12.60100000
_cell_angle_alpha   95.83640000
_cell_angle_beta   114.43400000
_cell_angle_gamma   113.61800000
_symmetry_Int_Tables_number   1
_chemical_formula_structural   CdH15C21S3N5O6
_chemical_formula_sum   'Cd2 H30 C42 S6 N10 O12'
_cell_volume   1146.74066987
_cell_formula_units_Z   2
loop_
 _symmetry_equiv_pos_site_id
 _symmetry_equiv_pos_as_xyz
  1  'x, y, z'
loop_
 _atom_site_type_symbol
 _atom_site_label
 _atom_site_symmetry_multiplicity
 _atom_site_fract_x
 _atom_site_fract_y
 _atom_site_fract_z
 _atom_site_occupancy
  Cd  Cd0  1  0.42129000  0.85429000  0.06594000  1.0
  Cd  Cd1  1  0.57871000  0.14570000  0.93406000  1.0
  H  H2  1  0.82945000  0.86400000  0.09217000  1.0
  H  H3  1  0.17055000  0.13600000  0.90783000  1.0
  H  H4  1  0.79184000  0.82345000  0.93876000  1.0
  H  H5  1  0.20816000  0.17655000  0.06124000  1.0
  H  H6  1  0.71091000  0.90707000  0.71809000  1.0
  H  H7  1  0.28909000  0.09293000  0.28191000  1.0
  H  H8  1  0.67417000  0.96111000  0.58482000  1.0
  H  H9  1  0.32583000  0.03889000  0.41518000  1.0
  H  H10  1  0.19217000  0.24680000  0.74963000  1.0
  H  H11  1  0.80783000  0.75320000  0.25037000  1.0
  H  H12  1  0.01937000  0.08812000  0.63134000  1.0
  H  H13  1  0.98063000  0.91188000  0.36866000  1.0
  H  H14  1  0.25833000  0.82025000  0.76909000  1.0
  H  H15  1  0.74166000  0.17975000  0.23090000  1.0
  H  H16  1  0.03522000  0.63571000  0.56805000  1.0
  H  H17  1  0.96478000  0.36428000  0.43194000  1.0
  H  H18  1  0.88053000  0.38916000  0.56598000  1.0
  H  H19  1  0.11947000  0.61083000  0.43402000  1.0
  H  H20  1  0.83760000  0.22305000  0.68380000  1.0
  H  H21  1  0.16240000  0.77695000  0.31620000  1.0
  H  H22  1  0.90263000  0.18147000  0.88566000  1.0
  H  H23  1  0.09737000  0.81853000  0.11434000  1.0
  H  H24  1  0.06423000  0.27293000  0.11313000  1.0
  H  H25  1  0.93577000  0.72707000  0.88687000  1.0
  H  H26  1  0.28933000  0.47617000  0.30544000  1.0
  H  H27  1  0.71067000  0.52383000  0.69456000  1.0
  H  H28  1  0.43850000  0.70845000  0.28360000  1.0
  H  H29  1  0.56150000  0.29155000  0.71640000  1.0
  H  H30  1  0.30753000  0.94392000  0.59929000  1.0
  H  H31  1  0.69247000  0.05608000  0.40071000  1.0
  C  C32  1  0.48150000  0.60263000  0.80325000  1.0
  C  C33  1  0.51850000  0.39737000  0.19675000  1.0
  C  C34  1  0.45016000  0.62521000  0.61952000  1.0
  C  C35  1  0.54984000  0.37479000  0.38048000  1.0
  C  C36  1  0.29812000  0.41685000  0.62987000  1.0
  C  C37  1  0.70188000  0.58315000  0.37013000  1.0
  C  C38  1  0.73937000  0.83489000  0.99576000  1.0
  C  C39  1  0.26063000  0.16511000  0.00424000  1.0
  C  C40  1  0.70337000  0.95551000  0.98000000  1.0
  C  C41  1  0.29663000  0.04449000  0.02000000  1.0
  C  C42  1  0.61667000  0.89718000  0.63026000  1.0
  C  C43  1  0.38333000  0.10282000  0.36974000  1.0
  C  C44  1  0.52029000  0.95689000  0.65634000  1.0
  C  C45  1  0.47971000  0.04311000  0.34366000  1.0
  C  C46  1  0.14526000  0.16481000  0.66508000  1.0
  C  C47  1  0.85474000  0.83519000  0.33492000  1.0
  C  C48  1  0.24034000  0.08573000  0.68602000  1.0
  C  C49  1  0.75966000  0.91427000  0.31398000  1.0
  C  C50  1  0.18977000  0.71237000  0.76477000  1.0
  C  C51  1  0.81023000  0.28763000  0.23522000  1.0
  C  C52  1  0.06550000  0.60759000  0.65203000  1.0
  C  C53  1  0.93449000  0.39240000  0.34796000  1.0
  C  C54  1  0.98107000  0.47250000  0.65103000  1.0
  C  C55  1  0.01893000  0.52749000  0.34897000  1.0
  C  C56  1  0.02199000  0.44219000  0.76288000  1.0
  C  C57  1  0.97801000  0.55781000  0.23712000  1.0
  C  C58  1  0.93664000  0.30627000  0.76940000  1.0
  C  C59  1  0.06336000  0.69373000  0.23059000  1.0
  C  C60  1  0.97251000  0.28304000  0.87999000  1.0
  C  C61  1  0.02749000  0.71695000  0.12001000  1.0
  C  C62  1  0.09837000  0.39416000  0.99263000  1.0
  C  C63  1  0.90163000  0.60584000  0.00737000  1.0
  C  C64  1  0.13556000  0.37536000  0.10907000  1.0
  C  C65  1  0.86444000  0.62465000  0.89093000  1.0
  C  C66  1  0.25864000  0.48699000  0.21431000  1.0
  C  C67  1  0.74136000  0.51302000  0.78569000  1.0
  C  C68  1  0.34276000  0.61723000  0.20278000  1.0
  C  C69  1  0.65724000  0.38278000  0.79722000  1.0
  C  C70  1  0.18844000  0.52995000  0.98984000  1.0
  C  C71  1  0.81156000  0.47005000  0.01016000  1.0
  C  C72  1  0.14819000  0.55484000  0.87273000  1.0
  C  C73  1  0.85181000  0.44515000  0.12727000  1.0
  S  S74  1  0.57793000  0.66520000  0.96336000  1.0
  S  S75  1  0.42206000  0.33480000  0.03664000  1.0
  S  S76  1  0.50323000  0.71969000  0.52733000  1.0
  S  S77  1  0.49677000  0.28031000  0.47267000  1.0
  S  S78  1  0.14279000  0.24406000  0.54579000  1.0
  S  S79  1  0.85721000  0.75594000  0.45422000  1.0
  N  N80  1  0.52647000  0.68820000  0.74151000  1.0
  N  N81  1  0.47353000  0.31180000  0.25849000  1.0
  N  N82  1  0.33564000  0.49047000  0.55777000  1.0
  N  N83  1  0.66436000  0.50953000  0.44223000  1.0
  N  N84  1  0.36621000  0.46637000  0.75238000  1.0
  N  N85  1  0.63379000  0.53363000  0.24762000  1.0
  N  N86  1  0.22862000  0.68637000  0.87136000  1.0
  N  N87  1  0.77138000  0.31363000  0.12864000  1.0
  N  N88  1  0.30801000  0.63811000  0.09438000  1.0
  N  N89  1  0.69199000  0.36189000  0.90562000  1.0
  O  O90  1  0.56011000  0.93382000  0.94637000  1.0
  O  O91  1  0.43988000  0.06618000  0.05363000  1.0
  O  O92  1  0.81619000  0.07127000  0.99965000  1.0
  O  O93  1  0.18381000  0.92873000  0.00035000  1.0
  O  O94  1  0.36459000  0.88372000  0.58530000  1.0
  O  O95  1  0.63541000  0.11628000  0.41470000  1.0
  O  O96  1  0.59304000  0.07101000  0.73877000  1.0
  O  O97  1  0.40696000  0.92899000  0.26123000  1.0
  O  O98  1  0.32103000  0.09161000  0.79555000  1.0
  O  O99  1  0.67897000  0.90839000  0.20445000  1.0
  O  O100  1  0.22459000  0.01537000  0.59003000  1.0
  O  O101  1  0.77541000  0.98463000  0.40997000  1.0
