# generated using pymatgen
data_ZnH10C14O5
_symmetry_space_group_name_H-M   'P 1'
_cell_length_a   5.77194000
_cell_length_b   12.86030000
_cell_length_c   16.98140000
_cell_angle_alpha   76.29500000
_cell_angle_beta   89.99850000
_cell_angle_gamma   89.99900000
_symmetry_Int_Tables_number   1
_chemical_formula_structural   ZnH10C14O5
_chemical_formula_sum   'Zn4 H40 C56 O20'
_cell_volume   1224.62161774
_cell_formula_units_Z   4
loop_
 _symmetry_equiv_pos_site_id
 _symmetry_equiv_pos_as_xyz
  1  'x, y, z'
loop_
 _atom_site_type_symbol
 _atom_site_label
 _atom_site_symmetry_multiplicity
 _atom_site_fract_x
 _atom_site_fract_y
 _atom_site_fract_z
 _atom_site_occupancy
  Zn  Zn0  1  0.97147000  0.05932000  0.88765000  1.0
  Zn  Zn1  1  0.47143000  0.94067000  0.61236000  1.0
  Zn  Zn2  1  0.02853000  0.94067000  0.11235000  1.0
  Zn  Zn3  1  0.52854000  0.05933000  0.38765000  1.0
  H  H4  1  0.19188000  0.44875000  0.91416000  1.0
  H  H5  1  0.69184000  0.55125000  0.58584000  1.0
  H  H6  1  0.80812000  0.55124000  0.08585000  1.0
  H  H7  1  0.30814000  0.44876000  0.41415000  1.0
  H  H8  1  0.94749000  0.49731000  0.79018000  1.0
  H  H9  1  0.44745000  0.50269000  0.70982000  1.0
  H  H10  1  0.05251000  0.50269000  0.20982000  1.0
  H  H11  1  0.55250000  0.49732000  0.29017000  1.0
  H  H12  1  0.98658000  0.39489000  0.68326000  1.0
  H  H13  1  0.48652000  0.60510000  0.81674000  1.0
  H  H14  1  0.01339000  0.60509000  0.31675000  1.0
  H  H15  1  0.51344000  0.39489000  0.18326000  1.0
  H  H16  1  0.28446000  0.25280000  0.69786000  1.0
  H  H17  1  0.78440000  0.74718000  0.80214000  1.0
  H  H18  1  0.71550000  0.74718000  0.30214000  1.0
  H  H19  1  0.21557000  0.25280000  0.19787000  1.0
  H  H20  1  0.70789000  0.44179000  0.91790000  1.0
  H  H21  1  0.20793000  0.55823000  0.58210000  1.0
  H  H22  1  0.29209000  0.55823000  0.08209000  1.0
  H  H23  1  0.79213000  0.44178000  0.41790000  1.0
  H  H24  1  0.94515000  0.40734000  0.04409000  1.0
  H  H25  1  0.44513000  0.59267000  0.45590000  1.0
  H  H26  1  0.05486000  0.59268000  0.95590000  1.0
  H  H27  1  0.55486000  0.40735000  0.54409000  1.0
  H  H28  1  0.86700000  0.24441000  0.15443000  1.0
  H  H29  1  0.36697000  0.75559000  0.34555000  1.0
  H  H30  1  0.13300000  0.75561000  0.84556000  1.0
  H  H31  1  0.63298000  0.24444000  0.65444000  1.0
  H  H32  1  0.54831000  0.12234000  0.13913000  1.0
  H  H33  1  0.04830000  0.87767000  0.36087000  1.0
  H  H34  1  0.45170000  0.87768000  0.86086000  1.0
  H  H35  1  0.95167000  0.12235000  0.63915000  1.0
  H  H36  1  0.11643000  0.98534000  0.76233000  1.0
  H  H37  1  0.61641000  0.01467000  0.73768000  1.0
  H  H38  1  0.88358000  0.01466000  0.23768000  1.0
  H  H39  1  0.38358000  0.98532000  0.26234000  1.0
  H  H40  1  0.28573000  0.07899000  0.77794000  1.0
  H  H41  1  0.78573000  0.92102000  0.72206000  1.0
  H  H42  1  0.71428000  0.92101000  0.22207000  1.0
  H  H43  1  0.21427000  0.07897000  0.27794000  1.0
  C  C44  1  0.40819000  0.27101000  0.81375000  1.0
  C  C45  1  0.90815000  0.72899000  0.68625000  1.0
  C  C46  1  0.59182000  0.72899000  0.18625000  1.0
  C  C47  1  0.09184000  0.27100000  0.31376000  1.0
  C  C48  1  0.37695000  0.32454000  0.87650000  1.0
  C  C49  1  0.87692000  0.67545000  0.62350000  1.0
  C  C50  1  0.62307000  0.67546000  0.12350000  1.0
  C  C51  1  0.12309000  0.32453000  0.37650000  1.0
  C  C52  1  0.21280000  0.40670000  0.86597000  1.0
  C  C53  1  0.71276000  0.59330000  0.63403000  1.0
  C  C54  1  0.78721000  0.59330000  0.13403000  1.0
  C  C55  1  0.28722000  0.40669000  0.36597000  1.0
  C  C56  1  0.07473000  0.43336000  0.79675000  1.0
  C  C57  1  0.57469000  0.56663000  0.70324000  1.0
  C  C58  1  0.92526000  0.56663000  0.20325000  1.0
  C  C59  1  0.42529000  0.43337000  0.29675000  1.0
  C  C60  1  0.09849000  0.37701000  0.73646000  1.0
  C  C61  1  0.59844000  0.62298000  0.76354000  1.0
  C  C62  1  0.90150000  0.62297000  0.26354000  1.0
  C  C63  1  0.40153000  0.37701000  0.23646000  1.0
  C  C64  1  0.26572000  0.29702000  0.74486000  1.0
  C  C65  1  0.76568000  0.70296000  0.75514000  1.0
  C  C66  1  0.73426000  0.70296000  0.25514000  1.0
  C  C67  1  0.23430000  0.29702000  0.24487000  1.0
  C  C68  1  0.50783000  0.29791000  0.95419000  1.0
  C  C69  1  0.00779000  0.70209000  0.54580000  1.0
  C  C70  1  0.49220000  0.70210000  0.04580000  1.0
  C  C71  1  0.99222000  0.29791000  0.45420000  1.0
  C  C72  1  0.67647000  0.37089000  0.96641000  1.0
  C  C73  1  0.17647000  0.62912000  0.53359000  1.0
  C  C74  1  0.32353000  0.62912000  0.03358000  1.0
  C  C75  1  0.82356000  0.37089000  0.46641000  1.0
  C  C76  1  0.80758000  0.35191000  0.03726000  1.0
  C  C77  1  0.30756000  0.64809000  0.46273000  1.0
  C  C78  1  0.19244000  0.64810000  0.96273000  1.0
  C  C79  1  0.69245000  0.35193000  0.53726000  1.0
  C  C80  1  0.76473000  0.26130000  0.09916000  1.0
  C  C81  1  0.26470000  0.73870000  0.40083000  1.0
  C  C82  1  0.23528000  0.73872000  0.90083000  1.0
  C  C83  1  0.73528000  0.26131000  0.59917000  1.0
  C  C84  1  0.58851000  0.19128000  0.09003000  1.0
  C  C85  1  0.08848000  0.80872000  0.40996000  1.0
  C  C86  1  0.41151000  0.80872000  0.90996000  1.0
  C  C87  1  0.91151000  0.19130000  0.59005000  1.0
  C  C88  1  0.46050000  0.20738000  0.01785000  1.0
  C  C89  1  0.96044000  0.79262000  0.48214000  1.0
  C  C90  1  0.53955000  0.79262000  0.98213000  1.0
  C  C91  1  0.03956000  0.20739000  0.51787000  1.0
  C  C92  1  0.58215000  0.18301000  0.82049000  1.0
  C  C93  1  0.08212000  0.81698000  0.67952000  1.0
  C  C94  1  0.41785000  0.81699000  0.17951000  1.0
  C  C95  1  0.91787000  0.18301000  0.32049000  1.0
  C  C96  1  0.27929000  0.12551000  0.01326000  1.0
  C  C97  1  0.77924000  0.87448000  0.48673000  1.0
  C  C98  1  0.72076000  0.87448000  0.98674000  1.0
  C  C99  1  0.22076000  0.12552000  0.51327000  1.0
  O  O100  1  0.75690000  0.18173000  0.86695000  1.0
  O  O101  1  0.25690000  0.81825000  0.63307000  1.0
  O  O102  1  0.24310000  0.81827000  0.13306000  1.0
  O  O103  1  0.74310000  0.18174000  0.36694000  1.0
  O  O104  1  0.54706000  0.11408000  0.77890000  1.0
  O  O105  1  0.04704000  0.88590000  0.72111000  1.0
  O  O106  1  0.45295000  0.88591000  0.22112000  1.0
  O  O107  1  0.95294000  0.11409000  0.27890000  1.0
  O  O108  1  0.23554000  0.10544000  0.94478000  1.0
  O  O109  1  0.73551000  0.89457000  0.55521000  1.0
  O  O110  1  0.76450000  0.89457000  0.05519000  1.0
  O  O111  1  0.26448000  0.10542000  0.44482000  1.0
  O  O112  1  0.18460000  0.07886000  0.08032000  1.0
  O  O113  1  0.68454000  0.92113000  0.41968000  1.0
  O  O114  1  0.81550000  0.92113000  0.91966000  1.0
  O  O115  1  0.31550000  0.07888000  0.58035000  1.0
  O  O116  1  0.12157000  0.05076000  0.78399000  1.0
  O  O117  1  0.62157000  0.94925000  0.71601000  1.0
  O  O118  1  0.87843000  0.94924000  0.21601000  1.0
  O  O119  1  0.37842000  0.05075000  0.28400000  1.0
