# generated using pymatgen
data_LaH10C6N9O7
_symmetry_space_group_name_H-M   'P 1'
_cell_length_a   8.76194000
_cell_length_b   8.86779000
_cell_length_c   11.39693818
_cell_angle_alpha   81.82543218
_cell_angle_beta   69.47719211
_cell_angle_gamma   72.41460000
_symmetry_Int_Tables_number   1
_chemical_formula_structural   LaH10C6N9O7
_chemical_formula_sum   'La2 H20 C12 N18 O14'
_cell_volume   789.91978234
_cell_formula_units_Z   2
loop_
 _symmetry_equiv_pos_site_id
 _symmetry_equiv_pos_as_xyz
  1  'x, y, z'
loop_
 _atom_site_type_symbol
 _atom_site_label
 _atom_site_symmetry_multiplicity
 _atom_site_fract_x
 _atom_site_fract_y
 _atom_site_fract_z
 _atom_site_occupancy
  La  La0  1  0.93704000  0.62665000  0.33846000  1.0
  La  La1  1  0.06296000  0.37335000  0.66154000  1.0
  H  H2  1  0.19584000  0.81120000  0.39319000  1.0
  H  H3  1  0.80415000  0.18881000  0.60682000  1.0
  H  H4  1  0.10234000  0.73803000  0.52294000  1.0
  H  H5  1  0.89766000  0.26199000  0.47706000  1.0
  H  H6  1  0.32854000  0.54924000  0.21118000  1.0
  H  H7  1  0.67147000  0.45075000  0.78881000  1.0
  H  H8  1  0.24642000  0.70596000  0.14457000  1.0
  H  H9  1  0.75358000  0.29405000  0.85543000  1.0
  H  H10  1  0.59501000  0.75502000  0.79391000  1.0
  H  H11  1  0.40500000  0.24498000  0.20609000  1.0
  H  H12  1  0.77168000  0.83113000  0.76431000  1.0
  H  H13  1  0.22832000  0.16887000  0.23569000  1.0
  H  H14  1  0.00164000  0.67813000  0.00320000  1.0
  H  H15  1  0.99837000  0.32186000  0.99680000  1.0
  H  H16  1  0.21439000  0.67792000  0.91404000  1.0
  H  H17  1  0.78562000  0.32207000  0.08596000  1.0
  H  H18  1  0.56987000  0.60703000  0.44021000  1.0
  H  H19  1  0.43012000  0.39297000  0.55979000  1.0
  H  H20  1  0.65735000  0.49113000  0.53553000  1.0
  H  H21  1  0.34263000  0.50888000  0.46448000  1.0
  C  C22  1  0.75972000  0.75022000  0.59983000  1.0
  C  C23  1  0.24029000  0.24978000  0.40016000  1.0
  C  C24  1  0.08071000  0.60459000  0.81569000  1.0
  C  C25  1  0.91929000  0.39540000  0.18431000  1.0
  C  C26  1  0.67327000  0.82611000  0.72732000  1.0
  C  C27  1  0.32673000  0.17389000  0.27268000  1.0
  C  C28  1  0.08500000  0.70673000  0.91062000  1.0
  C  C29  1  0.91499000  0.29327000  0.08939000  1.0
  C  C30  1  0.39299000  0.02266000  0.73763000  1.0
  C  C31  1  0.60702000  0.97734000  0.26236000  1.0
  C  C32  1  0.13505000  0.96956000  0.81615000  1.0
  C  C33  1  0.86495000  0.03044000  0.18385000  1.0
  N  N34  1  0.56396000  0.98230000  0.71805000  1.0
  N  N35  1  0.43605000  0.01770000  0.28194000  1.0
  N  N36  1  0.86844000  0.95492000  0.90498000  1.0
  N  N37  1  0.13157000  0.04508000  0.09502000  1.0
  N  N38  1  0.86764000  0.09653000  0.85827000  1.0
  N  N39  1  0.13237000  0.90347000  0.14173000  1.0
  N  N40  1  0.49304000  0.22475000  0.66142000  1.0
  N  N41  1  0.50696000  0.77524000  0.33857000  1.0
  N  N42  1  0.02741000  0.11262000  0.80200000  1.0
  N  N43  1  0.97259000  0.88738000  0.19800000  1.0
  N  N44  1  0.03335000  0.87344000  0.88061000  1.0
  N  N45  1  0.96665000  0.12656000  0.11939000  1.0
  N  N46  1  0.62260000  0.10987000  0.66914000  1.0
  N  N47  1  0.37740000  0.89012000  0.33086000  1.0
  N  N48  1  0.30276000  0.91833000  0.78428000  1.0
  N  N49  1  0.69725000  0.08167000  0.21571000  1.0
  N  N50  1  0.34959000  0.17798000  0.70244000  1.0
  N  N51  1  0.65041000  0.82202000  0.29756000  1.0
  O  O52  1  0.03755000  0.66692000  0.72083000  1.0
  O  O53  1  0.96245000  0.33308000  0.27918000  1.0
  O  O54  1  0.12712000  0.73503000  0.43240000  1.0
  O  O55  1  0.87288000  0.26498000  0.56760000  1.0
  O  O56  1  0.84122000  0.60206000  0.59590000  1.0
  O  O57  1  0.15878000  0.39794000  0.40410000  1.0
  O  O58  1  0.11893000  0.45555000  0.83972000  1.0
  O  O59  1  0.88106000  0.54445000  0.16029000  1.0
  O  O60  1  0.24285000  0.59370000  0.17063000  1.0
  O  O61  1  0.75714000  0.40631000  0.82937000  1.0
  O  O62  1  0.75070000  0.83408000  0.50272000  1.0
  O  O63  1  0.24929000  0.16592000  0.49728000  1.0
  O  O64  1  0.67195000  0.52487000  0.44808000  1.0
  O  O65  1  0.32804000  0.47513000  0.55192000  1.0
