# generated using pymatgen
data_Co2H8C9N4O7
_symmetry_space_group_name_H-M   'P 1'
_cell_length_a   6.45914000
_cell_length_b   10.40020000
_cell_length_c   12.14440000
_cell_angle_alpha   68.76000000
_cell_angle_beta   89.76440000
_cell_angle_gamma   88.81200000
_symmetry_Int_Tables_number   1
_chemical_formula_structural   Co2H8C9N4O7
_chemical_formula_sum   'Co4 H16 C18 N8 O14'
_cell_volume   760.23042852
_cell_formula_units_Z   2
loop_
 _symmetry_equiv_pos_site_id
 _symmetry_equiv_pos_as_xyz
  1  'x, y, z'
loop_
 _atom_site_type_symbol
 _atom_site_label
 _atom_site_symmetry_multiplicity
 _atom_site_fract_x
 _atom_site_fract_y
 _atom_site_fract_z
 _atom_site_occupancy
  Co  Co0  1  0.25341000  0.14108000  0.73169000  1.0
  Co  Co1  1  0.74659000  0.85893000  0.26829000  1.0
  Co  Co2  1  0.49999000  0.00000000  0.00000000  1.0
  Co  Co3  1  0.00000000  0.00000000  0.00000000  1.0
  H  H4  1  0.56313000  0.24465000  0.04342000  1.0
  H  H5  1  0.43060000  0.28427000  0.92467000  1.0
  H  H6  1  0.99770000  0.74647000  0.96433000  1.0
  H  H7  1  0.91503000  0.71835000  0.09390000  1.0
  H  H8  1  0.43681000  0.75534000  0.95662000  1.0
  H  H9  1  0.56944000  0.71575000  0.07533000  1.0
  H  H10  1  0.00233000  0.25354000  0.03564000  1.0
  H  H11  1  0.08501000  0.28164000  0.90609000  1.0
  H  H12  1  0.24656000  0.58718000  0.79060000  1.0
  H  H13  1  0.25176000  0.95604000  0.47992000  1.0
  H  H14  1  0.24925000  0.55610000  0.44666000  1.0
  H  H15  1  0.24492000  0.92892000  0.88639000  1.0
  H  H16  1  0.75342000  0.41281000  0.20941000  1.0
  H  H17  1  0.74825000  0.04394000  0.52009000  1.0
  H  H18  1  0.75076000  0.44389000  0.55336000  1.0
  H  H19  1  0.75507000  0.07109000  0.11361000  1.0
  C  C20  1  0.24753000  0.40340000  0.67765000  1.0
  C  C21  1  0.24873000  0.55636000  0.62378000  1.0
  C  C22  1  0.24817000  0.63660000  0.69472000  1.0
  C  C23  1  0.24900000  0.78044000  0.64257000  1.0
  C  C24  1  0.25072000  0.84383000  0.51926000  1.0
  C  C25  1  0.25082000  0.76388000  0.44833000  1.0
  C  C26  1  0.24976000  0.62019000  0.50045000  1.0
  C  C27  1  0.24737000  0.86864000  0.71618000  1.0
  C  C28  1  0.25056000  0.83295000  0.31887000  1.0
  C  C29  1  0.75249000  0.59660000  0.32235000  1.0
  C  C30  1  0.75127000  0.44365000  0.37622000  1.0
  C  C31  1  0.75182000  0.36340000  0.30530000  1.0
  C  C32  1  0.75100000  0.21956000  0.35743000  1.0
  C  C33  1  0.74929000  0.15616000  0.48075000  1.0
  C  C34  1  0.74919000  0.23612000  0.55166000  1.0
  C  C35  1  0.75025000  0.37981000  0.49955000  1.0
  C  C36  1  0.75261000  0.13135000  0.28382000  1.0
  C  C37  1  0.74944000  0.16704000  0.68113000  1.0
  N  N38  1  0.42230000  0.86624000  0.25130000  1.0
  N  N39  1  0.35262000  0.93122000  0.14093000  1.0
  N  N40  1  0.92114000  0.12404000  0.74874000  1.0
  N  N41  1  0.85107000  0.06163000  0.85877000  1.0
  N  N42  1  0.57769000  0.13376000  0.74870000  1.0
  N  N43  1  0.64737000  0.06878000  0.85906000  1.0
  N  N44  1  0.07886000  0.87596000  0.25126000  1.0
  N  N45  1  0.14892000  0.93837000  0.14123000  1.0
  O  O46  1  0.44482000  0.21841000  0.00628000  1.0
  O  O47  1  0.02342000  0.76461000  0.03633000  1.0
  O  O48  1  0.55517000  0.78160000  0.99374000  1.0
  O  O49  1  0.97657000  0.23541000  0.96365000  1.0
  O  O50  1  0.26543000  0.34071000  0.78965000  1.0
  O  O51  1  0.22917000  0.33408000  0.61027000  1.0
  O  O52  1  0.23447000  0.81231000  0.82846000  1.0
  O  O53  1  0.25857000  0.99860000  0.65984000  1.0
  O  O54  1  0.24968000  0.01475000  0.90946000  1.0
  O  O55  1  0.73460000  0.65929000  0.21035000  1.0
  O  O56  1  0.77085000  0.66593000  0.38972000  1.0
  O  O57  1  0.76549000  0.18768000  0.17154000  1.0
  O  O58  1  0.74143000  0.00139000  0.34016000  1.0
  O  O59  1  0.75031000  0.98525000  0.09054000  1.0
