# generated using pymatgen
data_Ag2H30C29(NO)4
_symmetry_space_group_name_H-M   'P 1'
_cell_length_a   10.02060000
_cell_length_b   10.30010000
_cell_length_c   15.23300000
_cell_angle_alpha   76.97170000
_cell_angle_beta   72.22890000
_cell_angle_gamma   86.74330000
_symmetry_Int_Tables_number   1
_chemical_formula_structural   Ag2H30C29(NO)4
_chemical_formula_sum   'Ag4 H60 C58 N8 O8'
_cell_volume   1458.56202208
_cell_formula_units_Z   2
loop_
 _symmetry_equiv_pos_site_id
 _symmetry_equiv_pos_as_xyz
  1  'x, y, z'
loop_
 _atom_site_type_symbol
 _atom_site_label
 _atom_site_symmetry_multiplicity
 _atom_site_fract_x
 _atom_site_fract_y
 _atom_site_fract_z
 _atom_site_occupancy
  Ag  Ag0  1  0.59849000  0.90443000  0.54302000  1.0
  Ag  Ag1  1  0.40151000  0.09557000  0.45698000  1.0
  Ag  Ag2  1  0.55197000  0.53429000  0.07842000  1.0
  Ag  Ag3  1  0.44802000  0.46571000  0.92158000  1.0
  H  H4  1  0.49771000  0.61770000  0.35271000  1.0
  H  H5  1  0.50229000  0.38230000  0.64729000  1.0
  H  H6  1  0.65118000  0.53869000  0.37492000  1.0
  H  H7  1  0.34882000  0.46131000  0.62508000  1.0
  H  H8  1  0.69233000  0.65145000  0.20295000  1.0
  H  H9  1  0.30767000  0.34855000  0.79705000  1.0
  H  H10  1  0.63916000  0.80276000  0.23429000  1.0
  H  H11  1  0.36084000  0.19724000  0.76571000  1.0
  H  H12  1  0.83992000  0.80478000  0.29944000  1.0
  H  H13  1  0.16008000  0.19522000  0.70056000  1.0
  H  H14  1  0.89049000  0.64598000  0.27933000  1.0
  H  H15  1  0.10951000  0.35402000  0.72067000  1.0
  H  H16  1  0.94043000  0.73375000  0.10454000  1.0
  H  H17  1  0.05957000  0.26625000  0.89546000  1.0
  H  H18  1  0.88435000  0.89188000  0.12280000  1.0
  H  H19  1  0.11565000  0.10812000  0.87720000  1.0
  H  H20  1  0.13353000  0.74404000  0.17637000  1.0
  H  H21  1  0.86647000  0.25597000  0.82363000  1.0
  H  H22  1  0.08007000  0.90457000  0.19369000  1.0
  H  H23  1  0.91993000  0.09543000  0.80631000  1.0
  H  H24  1  0.13134000  0.98878000  0.01845000  1.0
  H  H25  1  0.86866000  0.01121000  0.98155000  1.0
  H  H26  1  0.17959000  0.82736000  0.00049000  1.0
  H  H27  1  0.82041000  0.17265000  0.99951000  1.0
  H  H28  1  0.38503000  0.98189000  0.97448000  1.0
  H  H29  1  0.61497000  0.01812000  0.02552000  1.0
  H  H30  1  0.33064000  0.97694000  0.09642000  1.0
  H  H31  1  0.66936000  0.02307000  0.90358000  1.0
  H  H32  1  0.89843000  0.84750000  0.43159000  1.0
  H  H33  1  0.10156000  0.15251000  0.56841000  1.0
  H  H34  1  0.12295000  0.96925000  0.33927000  1.0
  H  H35  1  0.87704000  0.03076000  0.66073000  1.0
  H  H36  1  0.91511000  0.32968000  0.40788000  1.0
  H  H37  1  0.08489000  0.67032000  0.59212000  1.0
  H  H38  1  0.70194000  0.19003000  0.50207000  1.0
  H  H39  1  0.29805000  0.80998000  0.49793000  1.0
  H  H40  1  0.25832000  0.09900000  0.21998000  1.0
  H  H41  1  0.74168000  0.90100000  0.78002000  1.0
  H  H42  1  0.46256000  0.24577000  0.12037000  1.0
  H  H43  1  0.53744000  0.75423000  0.87963000  1.0
  H  H44  1  0.32644000  0.54153000  0.27035000  1.0
  H  H45  1  0.67356000  0.45847000  0.72966000  1.0
  H  H46  1  0.12179000  0.40560000  0.38039000  1.0
  H  H47  1  0.87821000  0.59440000  0.61961000  1.0
  H  H48  1  0.46227000  0.63652000  0.64505000  1.0
  H  H49  1  0.53773000  0.36348000  0.35495000  1.0
  H  H50  1  0.24132000  0.54119000  0.76406000  1.0
  H  H51  1  0.75868000  0.45880000  0.23594000  1.0
  H  H52  1  0.14347000  0.93726000  0.81595000  1.0
  H  H53  1  0.85653000  0.06274000  0.18406000  1.0
  H  H54  1  0.37305000  0.01285000  0.69842000  1.0
  H  H55  1  0.62696000  0.98715000  0.30158000  1.0
  H  H56  1  0.80434000  0.41383000  0.94652000  1.0
  H  H57  1  0.19566000  0.58617000  0.05349000  1.0
  H  H58  1  0.04138000  0.48416000  0.83618000  1.0
  H  H59  1  0.95862000  0.51583000  0.16382000  1.0
  H  H60  1  0.97151000  0.86451000  0.91757000  1.0
  H  H61  1  0.02850000  0.13549000  0.08243000  1.0
  H  H62  1  0.73670000  0.77809000  0.02233000  1.0
  H  H63  1  0.26331000  0.22191000  0.97767000  1.0
  C  C64  1  0.59524000  0.71635000  0.42821000  1.0
  C  C65  1  0.40476000  0.28366000  0.57179000  1.0
  C  C66  1  0.60430000  0.63533000  0.35402000  1.0
  C  C67  1  0.39570000  0.36467000  0.64598000  1.0
  C  C68  1  0.69199000  0.70966000  0.25561000  1.0
  C  C69  1  0.30801000  0.29034000  0.74439000  1.0
  C  C70  1  0.84223000  0.73893000  0.25111000  1.0
  C  C71  1  0.15777000  0.26108000  0.74889000  1.0
  C  C72  1  0.93502000  0.80149000  0.15202000  1.0
  C  C73  1  0.06498000  0.19851000  0.84798000  1.0
  C  C74  1  0.08387000  0.83515000  0.14724000  1.0
  C  C75  1  0.91613000  0.16485000  0.85276000  1.0
  C  C76  1  0.17699000  0.89522000  0.04744000  1.0
  C  C77  1  0.82301000  0.10478000  0.95256000  1.0
  C  C78  1  0.32754000  0.92028000  0.04381000  1.0
  C  C79  1  0.67246000  0.07972000  0.95619000  1.0
  C  C80  1  0.41060000  0.79195000  0.05930000  1.0
  C  C81  1  0.58940000  0.20805000  0.94070000  1.0
  C  C82  1  0.90834000  0.95461000  0.42468000  1.0
  C  C83  1  0.09165000  0.04539000  0.57532000  1.0
  C  C84  1  0.03221000  0.02392000  0.37220000  1.0
  C  C85  1  0.96779000  0.97608000  0.62779000  1.0
  C  C86  1  0.03979000  0.16199000  0.36473000  1.0
  C  C87  1  0.96021000  0.83801000  0.63527000  1.0
  C  C88  1  0.91842000  0.22260000  0.41223000  1.0
  C  C89  1  0.08158000  0.77740000  0.58777000  1.0
  C  C90  1  0.79858000  0.14669000  0.46414000  1.0
  C  C91  1  0.20142000  0.85332000  0.53586000  1.0
  C  C92  1  0.16760000  0.24090000  0.30798000  1.0
  C  C93  1  0.83240000  0.75910000  0.69202000  1.0
  C  C94  1  0.26887000  0.19566000  0.23514000  1.0
  C  C95  1  0.73113000  0.80434000  0.76486000  1.0
  C  C96  1  0.38302000  0.27646000  0.17876000  1.0
  C  C97  1  0.61698000  0.72354000  0.82124000  1.0
  C  C98  1  0.30723000  0.44236000  0.26221000  1.0
  C  C99  1  0.69277000  0.55764000  0.73779000  1.0
  C  C100  1  0.19164000  0.36650000  0.32234000  1.0
  C  C101  1  0.80836000  0.63350000  0.67766000  1.0
  C  C102  1  0.38878000  0.69831000  0.68647000  1.0
  C  C103  1  0.61122000  0.30169000  0.31353000  1.0
  C  C104  1  0.26379000  0.64675000  0.75235000  1.0
  C  C105  1  0.73621000  0.35325000  0.24765000  1.0
  C  C106  1  0.16882000  0.73095000  0.80086000  1.0
  C  C107  1  0.83119000  0.26904000  0.19914000  1.0
  C  C108  1  0.21051000  0.86493000  0.78172000  1.0
  C  C109  1  0.78950000  0.13506000  0.21829000  1.0
  C  C110  1  0.33840000  0.90901000  0.71622000  1.0
  C  C111  1  0.66160000  0.09099000  0.28378000  1.0
  C  C112  1  0.84819000  0.51225000  0.93809000  1.0
  C  C113  1  0.15181000  0.48775000  0.06191000  1.0
  C  C114  1  0.97984000  0.55343000  0.87654000  1.0
  C  C115  1  0.02016000  0.44657000  0.12346000  1.0
  C  C116  1  0.03049000  0.68210000  0.86655000  1.0
  C  C117  1  0.96952000  0.31790000  0.13345000  1.0
  C  C118  1  0.94085000  0.76361000  0.92077000  1.0
  C  C119  1  0.05915000  0.23638000  0.07923000  1.0
  C  C120  1  0.81011000  0.71652000  0.98046000  1.0
  C  C121  1  0.18989000  0.28348000  0.01954000  1.0
  N  N122  1  0.79299000  0.01430000  0.47027000  1.0
  N  N123  1  0.20701000  0.98570000  0.52973000  1.0
  N  N124  1  0.40095000  0.39965000  0.19037000  1.0
  N  N125  1  0.59904000  0.60035000  0.80963000  1.0
  N  N126  1  0.42601000  0.82744000  0.66794000  1.0
  N  N127  1  0.57399000  0.17256000  0.33206000  1.0
  N  N128  1  0.76399000  0.59235000  0.98982000  1.0
  N  N129  1  0.23601000  0.40764000  0.01018000  1.0
  O  O130  1  0.66659000  0.68099000  0.48535000  1.0
  O  O131  1  0.33340000  0.31901000  0.51465000  1.0
  O  O132  1  0.51804000  0.82006000  0.42494000  1.0
  O  O133  1  0.48196000  0.17994000  0.57506000  1.0
  O  O134  1  0.38478000  0.69729000  0.02426000  1.0
  O  O135  1  0.61522000  0.30271000  0.97574000  1.0
  O  O136  1  0.50091000  0.78696000  0.10260000  1.0
  O  O137  1  0.49909000  0.21304000  0.89740000  1.0
