# generated using pymatgen
data_DyH6C6SNO8
_symmetry_space_group_name_H-M   'P 1'
_cell_length_a   7.53611000
_cell_length_b   9.32646000
_cell_length_c   14.75510000
_cell_angle_alpha   89.99990000
_cell_angle_beta   90.00000000
_cell_angle_gamma   101.37100000
_symmetry_Int_Tables_number   1
_chemical_formula_structural   DyH6C6SNO8
_chemical_formula_sum   'Dy4 H24 C24 S4 N4 O32'
_cell_volume   1016.70911029
_cell_formula_units_Z   4
loop_
 _symmetry_equiv_pos_site_id
 _symmetry_equiv_pos_as_xyz
  1  'x, y, z'
loop_
 _atom_site_type_symbol
 _atom_site_label
 _atom_site_symmetry_multiplicity
 _atom_site_fract_x
 _atom_site_fract_y
 _atom_site_fract_z
 _atom_site_occupancy
  Dy  Dy0  1  0.13747000  0.27792000  0.04403000  1.0
  Dy  Dy1  1  0.36253000  0.72208000  0.54403000  1.0
  Dy  Dy2  1  0.86253000  0.72208000  0.95598000  1.0
  Dy  Dy3  1  0.63747000  0.27793000  0.45597000  1.0
  H  H4  1  0.14881000  0.04604000  0.44825000  1.0
  H  H5  1  0.35118000  0.95396000  0.94824000  1.0
  H  H6  1  0.85120000  0.95396000  0.55175000  1.0
  H  H7  1  0.64881000  0.04604000  0.05176000  1.0
  H  H8  1  0.10325000  0.12095000  0.28885000  1.0
  H  H9  1  0.39676000  0.87905000  0.78885000  1.0
  H  H10  1  0.89676000  0.87905000  0.71115000  1.0
  H  H11  1  0.60324000  0.12095000  0.21115000  1.0
  H  H12  1  0.91742000  0.66426000  0.22292000  1.0
  H  H13  1  0.58257000  0.33575000  0.72292000  1.0
  H  H14  1  0.08257000  0.33574000  0.77708000  1.0
  H  H15  1  0.41742000  0.66426000  0.27708000  1.0
  H  H16  1  0.96028000  0.60696000  0.38814000  1.0
  H  H17  1  0.53970000  0.39304000  0.88814000  1.0
  H  H18  1  0.03971000  0.39304000  0.61186000  1.0
  H  H19  1  0.46029000  0.60696000  0.11186000  1.0
  H  H20  1  0.29030000  0.36371000  0.22410000  1.0
  H  H21  1  0.20970000  0.63628000  0.72410000  1.0
  H  H22  1  0.70970000  0.63629000  0.77590000  1.0
  H  H23  1  0.79030000  0.36372000  0.27590000  1.0
  H  H24  1  0.46693000  0.35186000  0.16436000  1.0
  H  H25  1  0.03308000  0.64813000  0.66436000  1.0
  H  H26  1  0.53308000  0.64814000  0.83564000  1.0
  H  H27  1  0.96693000  0.35187000  0.33564000  1.0
  C  C28  1  0.09344000  0.96760000  0.39613000  1.0
  C  C29  1  0.40656000  0.03240000  0.89613000  1.0
  C  C30  1  0.90655000  0.03240000  0.60387000  1.0
  C  C31  1  0.59344000  0.96760000  0.10387000  1.0
  C  C32  1  0.06878000  0.00598000  0.30736000  1.0
  C  C33  1  0.43122000  0.99402000  0.80736000  1.0
  C  C34  1  0.93122000  0.99402000  0.69264000  1.0
  C  C35  1  0.56878000  0.00598000  0.19264000  1.0
  C  C36  1  0.00809000  0.89794000  0.24269000  1.0
  C  C37  1  0.49190000  0.10206000  0.74269000  1.0
  C  C38  1  0.99191000  0.10206000  0.75731000  1.0
  C  C39  1  0.50809000  0.89795000  0.25731000  1.0
  C  C40  1  0.96470000  0.75188000  0.27107000  1.0
  C  C41  1  0.53530000  0.24812000  0.77107000  1.0
  C  C42  1  0.03531000  0.24812000  0.72893000  1.0
  C  C43  1  0.46470000  0.75188000  0.22893000  1.0
  C  C44  1  0.98822000  0.71717000  0.36078000  1.0
  C  C45  1  0.51177000  0.28283000  0.86078000  1.0
  C  C46  1  0.01177000  0.28283000  0.63922000  1.0
  C  C47  1  0.48823000  0.71717000  0.13922000  1.0
  C  C48  1  0.99709000  0.93904000  0.14507000  1.0
  C  C49  1  0.50290000  0.06096000  0.64507000  1.0
  C  C50  1  0.00291000  0.06095000  0.85493000  1.0
  C  C51  1  0.49709000  0.93905000  0.35493000  1.0
  S  S52  1  0.81544000  0.40079000  0.09423000  1.0
  S  S53  1  0.68457000  0.59921000  0.59424000  1.0
  S  S54  1  0.18457000  0.59921000  0.90577000  1.0
  S  S55  1  0.31544000  0.40080000  0.40576000  1.0
  N  N56  1  0.05799000  0.82433000  0.42087000  1.0
  N  N57  1  0.44201000  0.17567000  0.92087000  1.0
  N  N58  1  0.94200000  0.17567000  0.57913000  1.0
  N  N59  1  0.55799000  0.82433000  0.07913000  1.0
  O  O60  1  0.04650000  0.07346000  0.12465000  1.0
  O  O61  1  0.45349000  0.92655000  0.62464000  1.0
  O  O62  1  0.95349000  0.92654000  0.87535000  1.0
  O  O63  1  0.54650000  0.07346000  0.37535000  1.0
  O  O64  1  0.94037000  0.83789000  0.08901000  1.0
  O  O65  1  0.55962000  0.16211000  0.58900000  1.0
  O  O66  1  0.05962000  0.16210000  0.91099000  1.0
  O  O67  1  0.44037000  0.83789000  0.41099000  1.0
  O  O68  1  0.09568000  0.78860000  0.50431000  1.0
  O  O69  1  0.40433000  0.21140000  0.00431000  1.0
  O  O70  1  0.90432000  0.21140000  0.49569000  1.0
  O  O71  1  0.59569000  0.78860000  0.99570000  1.0
  O  O72  1  0.00463000  0.44582000  0.12984000  1.0
  O  O73  1  0.49538000  0.55418000  0.62985000  1.0
  O  O74  1  0.99538000  0.55418000  0.87016000  1.0
  O  O75  1  0.50463000  0.44583000  0.37016000  1.0
  O  O76  1  0.82212000  0.27704000  0.03054000  1.0
  O  O77  1  0.67789000  0.72296000  0.53054000  1.0
  O  O78  1  0.17789000  0.72295000  0.96946000  1.0
  O  O79  1  0.32211000  0.27704000  0.46946000  1.0
  O  O80  1  0.75743000  0.52300000  0.04531000  1.0
  O  O81  1  0.74257000  0.47699000  0.54531000  1.0
  O  O82  1  0.24257000  0.47699000  0.95469000  1.0
  O  O83  1  0.25744000  0.52300000  0.45469000  1.0
  O  O84  1  0.68947000  0.35583000  0.17099000  1.0
  O  O85  1  0.81054000  0.64416000  0.67100000  1.0
  O  O86  1  0.31053000  0.64416000  0.82901000  1.0
  O  O87  1  0.18946000  0.35584000  0.32900000  1.0
  O  O88  1  0.33591000  0.35629000  0.16140000  1.0
  O  O89  1  0.16410000  0.64372000  0.66140000  1.0
  O  O90  1  0.66409000  0.64371000  0.83860000  1.0
  O  O91  1  0.83591000  0.35629000  0.33860000  1.0
