# generated using pymatgen
data_Zn8H47C77Cl19O26
_symmetry_space_group_name_H-M   'P 1'
_cell_length_a   17.90320000
_cell_length_b   18.34400000
_cell_length_c   18.35980000
_cell_angle_alpha   61.96210000
_cell_angle_beta   61.08330000
_cell_angle_gamma   61.53830000
_symmetry_Int_Tables_number   1
_chemical_formula_structural   Zn8H47C77Cl19O26
_chemical_formula_sum   'Zn8 H47 C77 Cl19 O26'
_cell_volume   4409.31839553
_cell_formula_units_Z   1
loop_
 _symmetry_equiv_pos_site_id
 _symmetry_equiv_pos_as_xyz
  1  'x, y, z'
loop_
 _atom_site_type_symbol
 _atom_site_label
 _atom_site_symmetry_multiplicity
 _atom_site_fract_x
 _atom_site_fract_y
 _atom_site_fract_z
 _atom_site_occupancy
  Zn  Zn0  1  0.86899000  0.53955000  0.54106000  1.0
  Zn  Zn1  1  0.04731000  0.54530000  0.54132000  1.0
  Zn  Zn2  1  0.04125000  0.54210000  0.37113000  1.0
  Zn  Zn3  1  0.04966000  0.37071000  0.54015000  1.0
  Zn  Zn4  1  0.63590000  0.95444000  0.95742000  1.0
  Zn  Zn5  1  0.45672000  0.96318000  0.12458000  1.0
  Zn  Zn6  1  0.45482000  0.96071000  0.95136000  1.0
  Zn  Zn7  1  0.46371000  0.12923000  0.95771000  1.0
  H  H8  1  0.03756000  0.26405000  0.31608000  1.0
  H  H9  1  0.85054000  0.83272000  0.34354000  1.0
  H  H10  1  0.83330000  0.89625000  0.24071000  1.0
  H  H11  1  0.62643000  0.79901000  0.47206000  1.0
  H  H12  1  0.73149000  0.77989000  0.47526000  1.0
  H  H13  1  0.65082000  0.88660000  0.46420000  1.0
  H  H14  1  0.48539000  0.24254000  0.15102000  1.0
  H  H15  1  0.46997000  0.18261000  0.26301000  1.0
  H  H16  1  0.48850000  0.13277000  0.19046000  1.0
  H  H17  1  0.13315000  0.11061000  0.31652000  1.0
  H  H18  1  0.07623000  0.13630000  0.24557000  1.0
  H  H19  1  0.70287000  0.78104000  0.61997000  1.0
  H  H20  1  0.19552000  0.08325000  0.21773000  1.0
  H  H21  1  0.31207000  0.45367000  0.62577000  1.0
  H  H22  1  0.39018000  0.38506000  0.56051000  1.0
  H  H23  1  0.27931000  0.44491000  0.55429000  1.0
  H  H24  1  0.09549000  0.20638000  0.95186000  1.0
  H  H25  1  0.07604000  0.10626000  0.98678000  1.0
  H  H26  1  0.17404000  0.10550000  0.99097000  1.0
  H  H27  1  0.04081000  0.74988000  0.25810000  1.0
  H  H28  1  0.02987000  0.86266000  0.20981000  1.0
  H  H29  1  0.09826000  0.79189000  0.14549000  1.0
  H  H30  1  0.83530000  0.36563000  0.76503000  1.0
  H  H31  1  0.19412000  0.88209000  0.04806000  1.0
  H  H32  1  0.11095000  0.94577000  0.11718000  1.0
  H  H33  1  0.22165000  0.95400000  0.06158000  1.0
  H  H34  1  0.94393000  0.20220000  0.39803000  1.0
  H  H35  1  0.84584000  0.20651000  0.39248000  1.0
  H  H36  1  0.86029000  0.30432000  0.37401000  1.0
  H  H37  1  0.74872000  0.60765000  0.94613000  1.0
  H  H38  1  0.82576000  0.59395000  0.99035000  1.0
  H  H39  1  0.72630000  0.68701000  0.99058000  1.0
  H  H40  1  0.68205000  0.14683000  0.95941000  1.0
  H  H41  1  0.72565000  0.37194000  0.84273000  1.0
  H  H42  1  0.70410000  0.23768000  0.94532000  1.0
  H  H43  1  0.60313000  0.25256000  0.93658000  1.0
  H  H44  1  0.90044000  0.53839000  0.28450000  1.0
  H  H45  1  0.80690000  0.52820000  0.28452000  1.0
  H  H46  1  0.88707000  0.56630000  0.18454000  1.0
  H  H47  1  0.79972000  0.67373000  0.08587000  1.0
  H  H48  1  0.73374000  0.61195000  0.18071000  1.0
  H  H49  1  0.68077000  0.71819000  0.12039000  1.0
  H  H50  1  0.81899000  0.27849000  0.86300000  1.0
  H  H51  1  0.53519000  0.87153000  0.39392000  1.0
  H  H52  1  0.53281000  0.97701000  0.37620000  1.0
  H  H53  1  0.51199000  0.95908000  0.30091000  1.0
  H  H54  1  0.77638000  0.94247000  0.32741000  1.0
  C  C55  1  0.15499000  0.37344000  0.62341000  1.0
  C  C56  1  0.79919000  0.69344000  0.30795000  1.0
  C  C57  1  0.79607000  0.66157000  0.25320000  1.0
  C  C58  1  0.85788000  0.63699000  0.36376000  1.0
  C  C59  1  0.74132000  0.71570000  0.19934000  1.0
  C  C60  1  0.68898000  0.80254000  0.19952000  1.0
  C  C61  1  0.69109000  0.83067000  0.25672000  1.0
  C  C62  1  0.65171000  0.90657000  0.29104000  1.0
  C  C63  1  0.72202000  0.84904000  0.34542000  1.0
  C  C64  1  0.16923000  0.28618000  0.25886000  1.0
  C  C65  1  0.19963000  0.31123000  0.29749000  1.0
  C  C66  1  0.73353000  0.15569000  0.65491000  1.0
  C  C67  1  0.29362000  0.27984000  0.27854000  1.0
  C  C68  1  0.35492000  0.22482000  0.22549000  1.0
  C  C69  1  0.31989000  0.19853000  0.19098000  1.0
  C  C70  1  0.85960000  0.64323000  0.62828000  1.0
  C  C71  1  0.22739000  0.22973000  0.20938000  1.0
  C  C72  1  0.15254000  0.22076000  0.20035000  1.0
  C  C73  1  0.08568000  0.28985000  0.25382000  1.0
  C  C74  1  0.19550000  0.24123000  0.74492000  1.0
  C  C75  1  0.21395000  0.31630000  0.67909000  1.0
  C  C76  1  0.28795000  0.33292000  0.67005000  1.0
  C  C77  1  0.74563000  0.19811000  0.69508000  1.0
  C  C78  1  0.33653000  0.27472000  0.72955000  1.0
  C  C79  1  0.31459000  0.20143000  0.79850000  1.0
  C  C80  1  0.24281000  0.18662000  0.80298000  1.0
  C  C81  1  0.18085000  0.13152000  0.86141000  1.0
  C  C82  1  0.13704000  0.36649000  0.35686000  1.0
  C  C83  1  0.12843000  0.19288000  0.78954000  1.0
  C  C84  1  0.24996000  0.70717000  0.32004000  1.0
  C  C85  1  0.17861000  0.71250000  0.30407000  1.0
  C  C86  1  0.15708000  0.78058000  0.23047000  1.0
  C  C87  1  0.21015000  0.83742000  0.17296000  1.0
  C  C88  1  0.79863000  0.25665000  0.63948000  1.0
  C  C89  1  0.28515000  0.82700000  0.18849000  1.0
  C  C90  1  0.30098000  0.76247000  0.26481000  1.0
  C  C91  1  0.36651000  0.71807000  0.31418000  1.0
  C  C92  1  0.30715000  0.65032000  0.37830000  1.0
  C  C93  1  0.82918000  0.69603000  0.74728000  1.0
  C  C94  1  0.13142000  0.64577000  0.36184000  1.0
  C  C95  1  0.80460000  0.70376000  0.68196000  1.0
  C  C96  1  0.72495000  0.77080000  0.67088000  1.0
  C  C97  1  0.67261000  0.82579000  0.72370000  1.0
  C  C98  1  0.69483000  0.81426000  0.79355000  1.0
  C  C99  1  0.81114000  0.29812000  0.68013000  1.0
  C  C100  1  0.77549000  0.74782000  0.80198000  1.0
  C  C101  1  0.82936000  0.69385000  0.86471000  1.0
  C  C102  1  0.89751000  0.64007000  0.79385000  1.0
  C  C103  1  0.37797000  0.13984000  0.13505000  1.0
  C  C104  1  0.63711000  0.86605000  0.85643000  1.0
  C  C105  1  0.63494000  0.86321000  0.14008000  1.0
  C  C106  1  0.86778000  0.35763000  0.62999000  1.0
  C  C107  1  0.36392000  0.14230000  0.86289000  1.0
  C  C108  1  0.34850000  0.87858000  0.12894000  1.0
  C  C109  1  0.64852000  0.13021000  0.85159000  1.0
  C  C110  1  0.77387000  0.28460000  0.77003000  1.0
  C  C111  1  0.83498000  0.26862000  0.54736000  1.0
  C  C112  1  0.82636000  0.22405000  0.50948000  1.0
  C  C113  1  0.77476000  0.16661000  0.56573000  1.0
  C  C114  1  0.78947000  0.32769000  0.81171000  1.0
  C  C115  1  0.55177000  0.93034000  0.34386000  1.0
  C  C116  1  0.80014000  0.88242000  0.31177000  1.0
  C  C117  1  0.67953000  0.82773000  0.44490000  1.0
  C  C118  1  0.45473000  0.19378000  0.20678000  1.0
  C  C119  1  0.13834000  0.13221000  0.24781000  1.0
  C  C120  1  0.31843000  0.40812000  0.59847000  1.0
  C  C121  1  0.72057000  0.22831000  0.82423000  1.0
  C  C122  1  0.12793000  0.13786000  0.95354000  1.0
  C  C123  1  0.07730000  0.79632000  0.21075000  1.0
  C  C124  1  0.18319000  0.90886000  0.09623000  1.0
  C  C125  1  0.87065000  0.23527000  0.41318000  1.0
  C  C126  1  0.77949000  0.64198000  0.95362000  1.0
  C  C127  1  0.67569000  0.21565000  0.92137000  1.0
  C  C128  1  0.85040000  0.56918000  0.25191000  1.0
  C  C129  1  0.73839000  0.67811000  0.14385000  1.0
  C  C130  1  0.70806000  0.18615000  0.78682000  1.0
  C  C131  1  0.74575000  0.77855000  0.30828000  1.0
  Cl  Cl132  1  0.33572000  0.31278000  0.32151000  1.0
  Cl  Cl133  1  0.36346000  0.77926000  0.36715000  1.0
  Cl  Cl134  1  0.36536000  0.54213000  0.37168000  1.0
  Cl  Cl135  1  0.25498000  0.64664000  0.48921000  1.0
  Cl  Cl136  1  0.57996000  0.90990000  0.69854000  1.0
  Cl  Cl137  1  0.87877000  0.74843000  0.87904000  1.0
  Cl  Cl138  1  0.00415000  0.65549000  0.73348000  1.0
  Cl  Cl139  1  0.91303000  0.52590000  0.83645000  1.0
  Cl  Cl140  1  0.76199000  0.10981000  0.52177000  1.0
  Cl  Cl141  1  0.66701000  0.08933000  0.71453000  1.0
  Cl  Cl142  1  0.67277000  0.00633000  0.20599000  1.0
  Cl  Cl143  1  0.15653000  0.25729000  0.08947000  1.0
  Cl  Cl144  1  0.02153000  0.39274000  0.19966000  1.0
  Cl  Cl145  1  0.89338000  0.34272000  0.47427000  1.0
  Cl  Cl146  1  0.42928000  0.29424000  0.71428000  1.0
  Cl  Cl147  1  0.23255000  0.01922000  0.86591000  1.0
  Cl  Cl148  1  0.13107000  0.13897000  0.72973000  1.0
  Cl  Cl149  1  0.01405000  0.25768000  0.83235000  1.0
  Cl  Cl150  1  0.48029000  0.67098000  0.25388000  1.0
  O  O151  1  0.00165000  0.49898000  0.49929000  1.0
  O  O152  1  0.39213000  0.06143000  0.87172000  1.0
  O  O153  1  0.37744000  0.89611000  0.16796000  1.0
  O  O154  1  0.13262000  0.33266000  0.60113000  1.0
  O  O155  1  0.56432000  0.17129000  0.86856000  1.0
  O  O156  1  0.37014000  0.89808000  0.04649000  1.0
  O  O157  1  0.68635000  0.05090000  0.88943000  1.0
  O  O158  1  0.67627000  0.87352000  0.05839000  1.0
  O  O159  1  0.37129000  0.17726000  0.90363000  1.0
  O  O160  1  0.37745000  0.06143000  0.17252000  1.0
  O  O161  1  0.55235000  0.88241000  0.88295000  1.0
  O  O162  1  0.81861000  0.62989000  0.59729000  1.0
  O  O163  1  0.81858000  0.60514000  0.44494000  1.0
  O  O164  1  0.94280000  0.60960000  0.61989000  1.0
  O  O165  1  0.10486000  0.44745000  0.31950000  1.0
  O  O166  1  0.10600000  0.63081000  0.44395000  1.0
  O  O167  1  0.95199000  0.32062000  0.61725000  1.0
  O  O168  1  0.12278000  0.60890000  0.32379000  1.0
  O  O169  1  0.82496000  0.43931000  0.61199000  1.0
  O  O170  1  0.12142000  0.32662000  0.43830000  1.0
  O  O171  1  0.13044000  0.45584000  0.60539000  1.0
  O  O172  1  0.94216000  0.62593000  0.32522000  1.0
  O  O173  1  0.50302000  0.00107000  0.99637000  1.0
  O  O174  1  0.41958000  0.17384000  0.05526000  1.0
  O  O175  1  0.67955000  0.88676000  0.87887000  1.0
  O  O176  1  0.55171000  0.90066000  0.17640000  1.0
