# generated using pymatgen
data_Al2H11C24O10F3
_symmetry_space_group_name_H-M   'P 1'
_cell_length_a   6.67078000
_cell_length_b   11.11460000
_cell_length_c   17.74210801
_cell_angle_alpha   90.12179288
_cell_angle_beta   99.03513024
_cell_angle_gamma   106.93320000
_symmetry_Int_Tables_number   1
_chemical_formula_structural   Al2H11C24O10F3
_chemical_formula_sum   'Al2 H11 C24 O10 F3'
_cell_volume   1241.21230752
_cell_formula_units_Z   1
loop_
 _symmetry_equiv_pos_site_id
 _symmetry_equiv_pos_as_xyz
  1  'x, y, z'
loop_
 _atom_site_type_symbol
 _atom_site_label
 _atom_site_symmetry_multiplicity
 _atom_site_fract_x
 _atom_site_fract_y
 _atom_site_fract_z
 _atom_site_occupancy
  Al  Al0  1  0.98571000  0.49088000  0.49873000  1.0
  Al  Al1  1  0.48693000  0.49041000  0.50098000  1.0
  H  H2  1  0.32720000  0.63459000  0.55258000  1.0
  H  H3  1  0.65914000  0.42099000  0.40793000  1.0
  H  H4  1  0.35407000  0.10146000  0.48180000  1.0
  H  H5  1  0.75087000  0.12113000  0.52926000  1.0
  H  H6  1  0.22119000  0.86548000  0.48088000  1.0
  H  H7  1  0.13577000  0.44315000  0.72142000  1.0
  H  H8  1  0.23522000  0.45269000  0.86326000  1.0
  H  H9  1  0.66306000  0.55071000  0.88327000  1.0
  H  H10  1  0.38035000  0.46645000  0.12143000  1.0
  H  H11  1  0.86889000  0.56044000  0.27065000  1.0
  H  H12  1  0.80727000  0.57080000  0.12882000  1.0
  C  C13  1  0.79725000  0.48197000  0.63679000  1.0
  C  C14  1  0.84186000  0.71980000  0.50231000  1.0
  C  C15  1  0.18148000  0.50151000  0.36126000  1.0
  C  C16  1  0.13356000  0.26517000  0.50263000  1.0
  C  C17  1  0.91389000  0.86034000  0.50458000  1.0
  C  C18  1  0.06030000  0.12504000  0.50475000  1.0
  C  C19  1  0.78598000  0.93540000  0.51918000  1.0
  C  C20  1  0.19417000  0.05332000  0.49198000  1.0
  C  C21  1  0.85473000  0.06566000  0.51858000  1.0
  C  C22  1  0.12029000  0.92285000  0.49149000  1.0
  C  C23  1  0.84387000  0.48677000  0.72202000  1.0
  C  C24  1  0.03250000  0.46441000  0.75801000  1.0
  C  C25  1  0.08860000  0.47074000  0.83685000  1.0
  C  C26  1  0.95616000  0.50179000  0.88365000  1.0
  C  C27  1  0.76726000  0.52510000  0.84883000  1.0
  C  C28  1  0.71450000  0.51698000  0.76984000  1.0
  C  C29  1  0.00923000  0.51005000  0.96424000  1.0
  C  C30  1  0.04875000  0.51664000  0.03395000  1.0
  C  C31  1  0.08813000  0.51869000  0.11464000  1.0
  C  C32  1  0.26763000  0.48903000  0.15306000  1.0
  C  C33  1  0.29893000  0.48562000  0.23202000  1.0
  C  C34  1  0.15701000  0.51009000  0.27650000  1.0
  C  C35  1  0.98029000  0.54136000  0.23693000  1.0
  C  C36  1  0.94551000  0.54661000  0.15810000  1.0
  O  O37  1  0.94247000  0.46709000  0.60229000  1.0
  O  O38  1  0.64320000  0.66536000  0.49455000  1.0
  O  O39  1  0.35285000  0.48485000  0.39555000  1.0
  O  O40  1  0.98971000  0.32028000  0.49265000  1.0
  O  O41  1  0.02635000  0.51036000  0.39260000  1.0
  O  O42  1  0.33254000  0.31805000  0.50974000  1.0
  O  O43  1  0.62090000  0.49478000  0.60473000  1.0
  O  O44  1  0.98721000  0.66523000  0.50809000  1.0
  O  O45  1  0.27685000  0.54770000  0.53286000  1.0
  O  O46  1  0.69503000  0.43851000  0.46280000  1.0
  F  F47  1  0.58790000  0.88223000  0.53610000  1.0
  F  F48  1  0.53141000  0.54196000  0.74038000  1.0
  F  F49  1  0.47461000  0.45445000  0.26462000  1.0
