# generated using pymatgen
data_CdH7C7N7O
_symmetry_space_group_name_H-M   'P 1'
_cell_length_a   9.15870000
_cell_length_b   9.26727000
_cell_length_c   13.59070000
_cell_angle_alpha   89.99980000
_cell_angle_beta   89.99960000
_cell_angle_gamma   66.67700000
_symmetry_Int_Tables_number   1
_chemical_formula_structural   CdH7C7N7O
_chemical_formula_sum   'Cd4 H28 C28 N28 O4'
_cell_volume   1059.26875068
_cell_formula_units_Z   4
loop_
 _symmetry_equiv_pos_site_id
 _symmetry_equiv_pos_as_xyz
  1  'x, y, z'
loop_
 _atom_site_type_symbol
 _atom_site_label
 _atom_site_symmetry_multiplicity
 _atom_site_fract_x
 _atom_site_fract_y
 _atom_site_fract_z
 _atom_site_occupancy
  Cd  Cd0  1  0.11992000  0.89936000  0.39672000  1.0
  Cd  Cd1  1  0.61993000  0.89937000  0.10328000  1.0
  Cd  Cd2  1  0.88008000  0.10063000  0.60328000  1.0
  Cd  Cd3  1  0.38007000  0.10063000  0.89672000  1.0
  H  H4  1  0.71900000  0.47024000  0.38538000  1.0
  H  H5  1  0.21900000  0.47024000  0.11462000  1.0
  H  H6  1  0.28100000  0.52975000  0.61462000  1.0
  H  H7  1  0.78100000  0.52976000  0.88538000  1.0
  H  H8  1  0.65768000  0.23882000  0.33451000  1.0
  H  H9  1  0.15767000  0.23882000  0.16549000  1.0
  H  H10  1  0.34232000  0.76118000  0.66549000  1.0
  H  H11  1  0.84232000  0.76118000  0.83451000  1.0
  H  H12  1  0.37403000  0.27780000  0.31160000  1.0
  H  H13  1  0.87402000  0.27780000  0.18840000  1.0
  H  H14  1  0.62598000  0.72220000  0.68840000  1.0
  H  H15  1  0.12598000  0.72220000  0.81160000  1.0
  H  H16  1  0.16028000  0.54669000  0.33886000  1.0
  H  H17  1  0.66027000  0.54670000  0.16114000  1.0
  H  H18  1  0.83972000  0.45330000  0.66114000  1.0
  H  H19  1  0.33972000  0.45330000  0.83885000  1.0
  H  H20  1  0.72817000  0.71872000  0.36135000  1.0
  H  H21  1  0.22817000  0.71871000  0.13865000  1.0
  H  H22  1  0.27183000  0.28128000  0.63865000  1.0
  H  H23  1  0.77183000  0.28129000  0.86135000  1.0
  H  H24  1  0.72962000  0.67761000  0.48752000  1.0
  H  H25  1  0.22961000  0.67761000  0.01249000  1.0
  H  H26  1  0.27038000  0.32239000  0.51248000  1.0
  H  H27  1  0.77038000  0.32240000  0.98752000  1.0
  H  H28  1  0.65942000  0.87799000  0.44885000  1.0
  H  H29  1  0.15943000  0.87798000  0.05115000  1.0
  H  H30  1  0.34057000  0.12201000  0.55114000  1.0
  H  H31  1  0.84058000  0.12202000  0.94885000  1.0
  C  C32  1  0.47115000  0.62764000  0.38936000  1.0
  C  C33  1  0.97115000  0.62764000  0.11065000  1.0
  C  C34  1  0.52885000  0.37236000  0.61065000  1.0
  C  C35  1  0.02885000  0.37236000  0.88935000  1.0
  C  C36  1  0.59690000  0.48241000  0.37474000  1.0
  C  C37  1  0.09689000  0.48241000  0.12527000  1.0
  C  C38  1  0.40310000  0.51759000  0.62526000  1.0
  C  C39  1  0.90310000  0.51759000  0.87473000  1.0
  C  C40  1  0.56313000  0.35415000  0.34643000  1.0
  C  C41  1  0.06313000  0.35415000  0.15357000  1.0
  C  C42  1  0.43687000  0.64585000  0.65356000  1.0
  C  C43  1  0.93687000  0.64585000  0.84644000  1.0
  C  C44  1  0.40520000  0.37535000  0.33304000  1.0
  C  C45  1  0.90520000  0.37536000  0.16697000  1.0
  C  C46  1  0.59481000  0.62464000  0.66696000  1.0
  C  C47  1  0.09480000  0.62465000  0.83303000  1.0
  C  C48  1  0.28563000  0.52449000  0.34826000  1.0
  C  C49  1  0.78563000  0.52449000  0.15174000  1.0
  C  C50  1  0.71437000  0.47551000  0.65174000  1.0
  C  C51  1  0.21437000  0.47551000  0.84826000  1.0
  C  C52  1  0.49718000  0.77004000  0.42313000  1.0
  C  C53  1  0.99718000  0.77004000  0.07687000  1.0
  C  C54  1  0.50283000  0.22996000  0.57687000  1.0
  C  C55  1  0.00282000  0.22996000  0.92313000  1.0
  C  C56  1  0.66274000  0.76191000  0.43018000  1.0
  C  C57  1  0.16274000  0.76191000  0.06983000  1.0
  C  C58  1  0.33727000  0.23808000  0.56982000  1.0
  C  C59  1  0.83726000  0.23809000  0.93018000  1.0
  N  N60  1  0.96945000  0.14966000  0.44920000  1.0
  N  N61  1  0.46945000  0.14967000  0.05080000  1.0
  N  N62  1  0.03055000  0.85033000  0.55079000  1.0
  N  N63  1  0.53055000  0.85034000  0.94921000  1.0
  N  N64  1  0.99678000  0.26263000  0.42625000  1.0
  N  N65  1  0.49677000  0.26262000  0.07375000  1.0
  N  N66  1  0.00322000  0.73737000  0.57375000  1.0
  N  N67  1  0.50322000  0.73738000  0.92625000  1.0
  N  N68  1  0.01910000  0.37320000  0.40319000  1.0
  N  N69  1  0.51909000  0.37320000  0.09681000  1.0
  N  N70  1  0.98090000  0.62680000  0.59681000  1.0
  N  N71  1  0.48090000  0.62680000  0.90319000  1.0
  N  N72  1  0.94936000  0.82810000  0.30378000  1.0
  N  N73  1  0.44936000  0.82810000  0.19622000  1.0
  N  N74  1  0.05064000  0.17190000  0.69622000  1.0
  N  N75  1  0.55064000  0.17190000  0.80378000  1.0
  N  N76  1  0.82409000  0.91847000  0.27521000  1.0
  N  N77  1  0.32410000  0.91846000  0.22479000  1.0
  N  N78  1  0.17591000  0.08153000  0.72479000  1.0
  N  N79  1  0.67590000  0.08154000  0.77521000  1.0
  N  N80  1  0.69798000  0.00400000  0.24547000  1.0
  N  N81  1  0.19797000  0.00400000  0.25453000  1.0
  N  N82  1  0.30202000  0.99600000  0.75453000  1.0
  N  N83  1  0.80202000  0.99600000  0.74547000  1.0
  N  N84  1  0.31853000  0.64693000  0.37613000  1.0
  N  N85  1  0.81852000  0.64693000  0.12388000  1.0
  N  N86  1  0.68148000  0.35307000  0.62387000  1.0
  N  N87  1  0.18148000  0.35307000  0.87612000  1.0
  O  O88  1  0.38115000  0.89069000  0.44693000  1.0
  O  O89  1  0.88116000  0.89069000  0.05308000  1.0
  O  O90  1  0.61885000  0.10931000  0.55307000  1.0
  O  O91  1  0.11884000  0.10931000  0.94692000  1.0
