# generated using pymatgen
data_BiH13C10Br2O
_symmetry_space_group_name_H-M   'P 1'
_cell_length_a   8.11537000
_cell_length_b   9.10290000
_cell_length_c   17.06690000
_cell_angle_alpha   89.99990000
_cell_angle_beta   94.28610000
_cell_angle_gamma   89.99990000
_symmetry_Int_Tables_number   1
_chemical_formula_structural   BiH13C10Br2O
_chemical_formula_sum   'Bi4 H52 C40 Br8 O4'
_cell_volume   1257.26389856
_cell_formula_units_Z   4
loop_
 _symmetry_equiv_pos_site_id
 _symmetry_equiv_pos_as_xyz
  1  'x, y, z'
loop_
 _atom_site_type_symbol
 _atom_site_label
 _atom_site_symmetry_multiplicity
 _atom_site_fract_x
 _atom_site_fract_y
 _atom_site_fract_z
 _atom_site_occupancy
  Bi  Bi0  1  0.00182000  0.19134000  0.23643000  1.0
  Bi  Bi1  1  0.99818000  0.69134000  0.26357000  1.0
  Bi  Bi2  1  0.99818000  0.80866000  0.76357000  1.0
  Bi  Bi3  1  0.00182000  0.30866000  0.73643000  1.0
  H  H4  1  0.33720000  0.38445000  0.20565000  1.0
  H  H5  1  0.66280000  0.88445000  0.29435000  1.0
  H  H6  1  0.66280000  0.61555000  0.79435000  1.0
  H  H7  1  0.33720000  0.11555000  0.70565000  1.0
  H  H8  1  0.51588000  0.56984000  0.27662000  1.0
  H  H9  1  0.48412000  0.06984000  0.22338000  1.0
  H  H10  1  0.48412000  0.43016000  0.72339000  1.0
  H  H11  1  0.51588000  0.93016000  0.77662000  1.0
  H  H12  1  0.46267000  0.64483000  0.41205000  1.0
  H  H13  1  0.53732000  0.14484000  0.08795000  1.0
  H  H14  1  0.53732000  0.35517000  0.58795000  1.0
  H  H15  1  0.46268000  0.85516000  0.91205000  1.0
  H  H16  1  0.22852000  0.53006000  0.47810000  1.0
  H  H17  1  0.77148000  0.03007000  0.02190000  1.0
  H  H18  1  0.77147000  0.46994000  0.52190000  1.0
  H  H19  1  0.22853000  0.96993000  0.97810000  1.0
  H  H20  1  0.05083000  0.34640000  0.40835000  1.0
  H  H21  1  0.94917000  0.84641000  0.09165000  1.0
  H  H22  1  0.94916000  0.65359000  0.59165000  1.0
  H  H23  1  0.05084000  0.15359000  0.90835000  1.0
  H  H24  1  0.93203000  0.00611000  0.42678000  1.0
  H  H25  1  0.06797000  0.50611000  0.07322000  1.0
  H  H26  1  0.06797000  0.99388000  0.57322000  1.0
  H  H27  1  0.93203000  0.49388000  0.92678000  1.0
  H  H28  1  0.94161000  0.18035000  0.47612000  1.0
  H  H29  1  0.05839000  0.68035000  0.02388000  1.0
  H  H30  1  0.05839000  0.81965000  0.52388000  1.0
  H  H31  1  0.94161000  0.31965000  0.97612000  1.0
  H  H32  1  0.69652000  0.11311000  0.53063000  1.0
  H  H33  1  0.30348000  0.61311000  0.96937000  1.0
  H  H34  1  0.30348000  0.88690000  0.46937000  1.0
  H  H35  1  0.69652000  0.38689000  0.03063000  1.0
  H  H36  1  0.66012000  0.96531000  0.46423000  1.0
  H  H37  1  0.33988000  0.46531000  0.03577000  1.0
  H  H38  1  0.33988000  0.03469000  0.53577000  1.0
  H  H39  1  0.66012000  0.53469000  0.96423000  1.0
  H  H40  1  0.48878000  0.10827000  0.37882000  1.0
  H  H41  1  0.51122000  0.60827000  0.12117000  1.0
  H  H42  1  0.51122000  0.89173000  0.62117000  1.0
  H  H43  1  0.48878000  0.39173000  0.87882000  1.0
  H  H44  1  0.49674000  0.24956000  0.44990000  1.0
  H  H45  1  0.50326000  0.74956000  0.05010000  1.0
  H  H46  1  0.50326000  0.75044000  0.55010000  1.0
  H  H47  1  0.49674000  0.25044000  0.94990000  1.0
  H  H48  1  0.71895000  0.37403000  0.39189000  1.0
  H  H49  1  0.28105000  0.87403000  0.10811000  1.0
  H  H50  1  0.28105000  0.62597000  0.60811000  1.0
  H  H51  1  0.71895000  0.12597000  0.89189000  1.0
  H  H52  1  0.63259000  0.28497000  0.30538000  1.0
  H  H53  1  0.36741000  0.78497000  0.19462000  1.0
  H  H54  1  0.36741000  0.71503000  0.69462000  1.0
  H  H55  1  0.63259000  0.21503000  0.80538000  1.0
  C  C56  1  0.18180000  0.35132000  0.30197000  1.0
  C  C57  1  0.81820000  0.85132000  0.19804000  1.0
  C  C58  1  0.81820000  0.64868000  0.69804000  1.0
  C  C59  1  0.18180000  0.14867000  0.80196000  1.0
  C  C60  1  0.31313000  0.41569000  0.26548000  1.0
  C  C61  1  0.68686000  0.91569000  0.23452000  1.0
  C  C62  1  0.68687000  0.58431000  0.73452000  1.0
  C  C63  1  0.31313000  0.08431000  0.76548000  1.0
  C  C64  1  0.41293000  0.52142000  0.30509000  1.0
  C  C65  1  0.58707000  0.02142000  0.19491000  1.0
  C  C66  1  0.58707000  0.47859000  0.69491000  1.0
  C  C67  1  0.41293000  0.97858000  0.80509000  1.0
  C  C68  1  0.38319000  0.56321000  0.38158000  1.0
  C  C69  1  0.61680000  0.06322000  0.11842000  1.0
  C  C70  1  0.61680000  0.43678000  0.61842000  1.0
  C  C71  1  0.38320000  0.93678000  0.88158000  1.0
  C  C72  1  0.25328000  0.49890000  0.41842000  1.0
  C  C73  1  0.74672000  0.99891000  0.08158000  1.0
  C  C74  1  0.74672000  0.50110000  0.58158000  1.0
  C  C75  1  0.25329000  0.00109000  0.91842000  1.0
  C  C76  1  0.15285000  0.39350000  0.37883000  1.0
  C  C77  1  0.84715000  0.89350000  0.12117000  1.0
  C  C78  1  0.84715000  0.60650000  0.62117000  1.0
  C  C79  1  0.15285000  0.10650000  0.87883000  1.0
  C  C80  1  0.86404000  0.10739000  0.43716000  1.0
  C  C81  1  0.13596000  0.60738000  0.06284000  1.0
  C  C82  1  0.13596000  0.89261000  0.56284000  1.0
  C  C83  1  0.86404000  0.39261000  0.93716000  1.0
  C  C84  1  0.69416000  0.08179000  0.46854000  1.0
  C  C85  1  0.30584000  0.58178000  0.03146000  1.0
  C  C86  1  0.30584000  0.91822000  0.53146000  1.0
  C  C87  1  0.69416000  0.41822000  0.96854000  1.0
  C  C88  1  0.57317000  0.17749000  0.41599000  1.0
  C  C89  1  0.42683000  0.67748000  0.08401000  1.0
  C  C90  1  0.42683000  0.82251000  0.58401000  1.0
  C  C91  1  0.57317000  0.32252000  0.91599000  1.0
  C  C92  1  0.68433000  0.26657000  0.36566000  1.0
  C  C93  1  0.31567000  0.76657000  0.13433000  1.0
  C  C94  1  0.31567000  0.73343000  0.63433000  1.0
  C  C95  1  0.68433000  0.23343000  0.86566000  1.0
  Br  Br96  1  0.17231000  0.19370000  0.10470000  1.0
  Br  Br97  1  0.82769000  0.69370000  0.39530000  1.0
  Br  Br98  1  0.82769000  0.80630000  0.89530000  1.0
  Br  Br99  1  0.17231000  0.30630000  0.60470000  1.0
  Br  Br100  1  0.19389000  0.95424000  0.31122000  1.0
  Br  Br101  1  0.80611000  0.45424000  0.18878000  1.0
  Br  Br102  1  0.80611000  0.04576000  0.68878000  1.0
  Br  Br103  1  0.19389000  0.54576000  0.81122000  1.0
  O  O104  1  0.83175000  0.17776000  0.36111000  1.0
  O  O105  1  0.16825000  0.67776000  0.13889000  1.0
  O  O106  1  0.16825000  0.82224000  0.63889000  1.0
  O  O107  1  0.83175000  0.32223000  0.86111000  1.0
