# generated using pymatgen
data_HgH3C4(NCl)2
_symmetry_space_group_name_H-M   'P 1'
_cell_length_a   3.94888000
_cell_length_b   9.35294000
_cell_length_c   18.94180000
_cell_angle_alpha   90.00010000
_cell_angle_beta   90.00050000
_cell_angle_gamma   78.93500000
_symmetry_Int_Tables_number   1
_chemical_formula_structural   HgH3C4(NCl)2
_chemical_formula_sum   'Hg4 H12 C16 N8 Cl8'
_cell_volume   686.58426850
_cell_formula_units_Z   4
loop_
 _symmetry_equiv_pos_site_id
 _symmetry_equiv_pos_as_xyz
  1  'x, y, z'
loop_
 _atom_site_type_symbol
 _atom_site_label
 _atom_site_symmetry_multiplicity
 _atom_site_fract_x
 _atom_site_fract_y
 _atom_site_fract_z
 _atom_site_occupancy
  Hg  Hg0  1  0.77742000  0.73563000  0.13651000  1.0
  Hg  Hg1  1  0.72259000  0.76437000  0.63650000  1.0
  Hg  Hg2  1  0.22258000  0.26437000  0.86349000  1.0
  Hg  Hg3  1  0.27741000  0.23563000  0.36349000  1.0
  H  H4  1  0.40081000  0.87497000  0.97656000  1.0
  H  H5  1  0.09917000  0.62502000  0.47656000  1.0
  H  H6  1  0.59920000  0.12504000  0.02344000  1.0
  H  H7  1  0.90082000  0.37498000  0.52344000  1.0
  H  H8  1  0.47146000  0.83733000  0.84428000  1.0
  H  H9  1  0.02853000  0.66266000  0.34428000  1.0
  H  H10  1  0.52855000  0.16267000  0.15572000  1.0
  H  H11  1  0.97147000  0.33734000  0.65572000  1.0
  H  H12  1  0.83661000  0.59782000  0.80353000  1.0
  H  H13  1  0.66338000  0.90217000  0.30353000  1.0
  H  H14  1  0.16339000  0.40218000  0.19647000  1.0
  H  H15  1  0.33661000  0.09782000  0.69647000  1.0
  C  C16  1  0.90808000  0.55479000  0.97447000  1.0
  C  C17  1  0.59190000  0.94521000  0.47446000  1.0
  C  C18  1  0.09191000  0.44521000  0.02553000  1.0
  C  C19  1  0.40808000  0.05479000  0.52553000  1.0
  C  C20  1  0.55930000  0.77693000  0.95431000  1.0
  C  C21  1  0.94068000  0.72307000  0.45431000  1.0
  C  C22  1  0.44072000  0.22307000  0.04569000  1.0
  C  C23  1  0.05932000  0.27693000  0.54569000  1.0
  C  C24  1  0.59586000  0.75579000  0.88173000  1.0
  C  C25  1  0.90414000  0.74421000  0.38173000  1.0
  C  C26  1  0.40417000  0.24421000  0.11827000  1.0
  C  C27  1  0.09586000  0.25579000  0.61827000  1.0
  C  C28  1  0.79565000  0.62456000  0.85920000  1.0
  C  C29  1  0.70435000  0.87544000  0.35919000  1.0
  C  C30  1  0.20435000  0.37545000  0.14081000  1.0
  C  C31  1  0.29564000  0.12456000  0.64081000  1.0
  N  N32  1  0.71621000  0.67720000  0.00067000  1.0
  N  N33  1  0.78377000  0.82280000  0.50067000  1.0
  N  N34  1  0.28378000  0.32281000  0.99933000  1.0
  N  N35  1  0.21623000  0.17720000  0.49933000  1.0
  N  N36  1  0.94713000  0.52388000  0.90551000  1.0
  N  N37  1  0.55287000  0.97612000  0.40550000  1.0
  N  N38  1  0.05286000  0.47612000  0.09449000  1.0
  N  N39  1  0.44713000  0.02388000  0.59449000  1.0
  Cl  Cl40  1  0.08157000  0.92304000  0.09901000  1.0
  Cl  Cl41  1  0.41844000  0.57695000  0.59901000  1.0
  Cl  Cl42  1  0.91844000  0.07696000  0.90099000  1.0
  Cl  Cl43  1  0.58156000  0.42304000  0.40099000  1.0
  Cl  Cl44  1  0.48525000  0.63464000  0.22967000  1.0
  Cl  Cl45  1  0.01477000  0.86536000  0.72967000  1.0
  Cl  Cl46  1  0.51475000  0.36536000  0.77033000  1.0
  Cl  Cl47  1  0.98523000  0.13464000  0.27033000  1.0
