# generated using pymatgen
data_Nd2H41Pt2C53N19O10
_symmetry_space_group_name_H-M   'P 1'
_cell_length_a   13.83260000
_cell_length_b   14.20880000
_cell_length_c   17.86050000
_cell_angle_alpha   66.58200000
_cell_angle_beta   72.19600000
_cell_angle_gamma   89.96700000
_symmetry_Int_Tables_number   1
_chemical_formula_structural   Nd2H41Pt2C53N19O10
_chemical_formula_sum   'Nd4 H82 Pt4 C106 N38 O20'
_cell_volume   3037.43482724
_cell_formula_units_Z   2
loop_
 _symmetry_equiv_pos_site_id
 _symmetry_equiv_pos_as_xyz
  1  'x, y, z'
loop_
 _atom_site_type_symbol
 _atom_site_label
 _atom_site_symmetry_multiplicity
 _atom_site_fract_x
 _atom_site_fract_y
 _atom_site_fract_z
 _atom_site_occupancy
  Nd  Nd0  1  0.06117000  0.08834000  0.69990000  1.0
  Nd  Nd1  1  0.43865000  0.78840000  0.30016000  1.0
  Nd  Nd2  1  0.93883000  0.91166000  0.30010000  1.0
  Nd  Nd3  1  0.56135000  0.21160000  0.69984000  1.0
  H  H4  1  0.96347000  0.23063000  0.53946000  1.0
  H  H5  1  0.53635000  0.77019000  0.46066000  1.0
  H  H6  1  0.03653000  0.76937000  0.46053000  1.0
  H  H7  1  0.46365000  0.22981000  0.53933000  1.0
  H  H8  1  0.85431000  0.22353000  0.45349000  1.0
  H  H9  1  0.64587000  0.67726000  0.54632000  1.0
  H  H10  1  0.14569000  0.77646000  0.54650000  1.0
  H  H11  1  0.35413000  0.32273000  0.45368000  1.0
  H  H12  1  0.78091000  0.04872000  0.47453000  1.0
  H  H13  1  0.71955000  0.52363000  0.52498000  1.0
  H  H14  1  0.21909000  0.95128000  0.52547000  1.0
  H  H15  1  0.28045000  0.47637000  0.47502000  1.0
  H  H16  1  0.82226000  0.89122000  0.57856000  1.0
  H  H17  1  0.67810000  0.47024000  0.42093000  1.0
  H  H18  1  0.17773000  0.10877000  0.42145000  1.0
  H  H19  1  0.32190000  0.52976000  0.57907000  1.0
  H  H20  1  0.89690000  0.77567000  0.63384000  1.0
  H  H21  1  0.60303000  0.40970000  0.36617000  1.0
  H  H22  1  0.10310000  0.22434000  0.36615000  1.0
  H  H23  1  0.39698000  0.59030000  0.63383000  1.0
  H  H24  1  0.93767000  0.62573000  0.74424000  1.0
  H  H25  1  0.56201000  0.36993000  0.25595000  1.0
  H  H26  1  0.06233000  0.37427000  0.25575000  1.0
  H  H27  1  0.43800000  0.63007000  0.74405000  1.0
  H  H28  1  0.99525000  0.65155000  0.85531000  1.0
  H  H29  1  0.50458000  0.50678000  0.14476000  1.0
  H  H30  1  0.00475000  0.34845000  0.14468000  1.0
  H  H31  1  0.49543000  0.49322000  0.85525000  1.0
  H  H32  1  0.00613000  0.67570000  0.95513000  1.0
  H  H33  1  0.49435000  0.63106000  0.04459000  1.0
  H  H34  1  0.99388000  0.32430000  0.04487000  1.0
  H  H35  1  0.50566000  0.36895000  0.95541000  1.0
  H  H36  1  0.05241000  0.71789000  0.06382000  1.0
  H  H37  1  0.44806000  0.78200000  0.93589000  1.0
  H  H38  1  0.94759000  0.28211000  0.93618000  1.0
  H  H39  1  0.55194000  0.21800000  0.06411000  1.0
  H  H40  1  0.08780000  0.90317000  0.03496000  1.0
  H  H41  1  0.41251000  0.93836000  0.96493000  1.0
  H  H42  1  0.91220000  0.09683000  0.96505000  1.0
  H  H43  1  0.58749000  0.06164000  0.03507000  1.0
  H  H44  1  0.07837000  0.04030000  0.89631000  1.0
  H  H45  1  0.42159000  0.93670000  0.10373000  1.0
  H  H46  1  0.92163000  0.95969000  0.10369000  1.0
  H  H47  1  0.57841000  0.06330000  0.89627000  1.0
  H  H48  1  0.24641000  0.14461000  0.52693000  1.0
  H  H49  1  0.25336000  0.67153000  0.47316000  1.0
  H  H50  1  0.75359000  0.85539000  0.47307000  1.0
  H  H51  1  0.74664000  0.32846000  0.52684000  1.0
  H  H52  1  0.17135000  0.22522000  0.50549000  1.0
  H  H53  1  0.32819000  0.73085000  0.49466000  1.0
  H  H54  1  0.82865000  0.77478000  0.49451000  1.0
  H  H55  1  0.67181000  0.26914000  0.50534000  1.0
  H  H56  1  0.17395000  0.22081000  0.76837000  1.0
  H  H57  1  0.32583000  0.98937000  0.23175000  1.0
  H  H58  1  0.82605000  0.77919000  0.23163000  1.0
  H  H59  1  0.67417000  0.01063000  0.76825000  1.0
  H  H60  1  0.25199000  0.14996000  0.74223000  1.0
  H  H61  1  0.24787000  0.89245000  0.25788000  1.0
  H  H62  1  0.74802000  0.85004000  0.25776000  1.0
  H  H63  1  0.75214000  0.10755000  0.74212000  1.0
  H  H64  1  0.82810000  0.40772000  0.18288000  1.0
  H  H65  1  0.67230000  0.59065000  0.81687000  1.0
  H  H66  1  0.17189000  0.59228000  0.81712000  1.0
  H  H67  1  0.32771000  0.40936000  0.18313000  1.0
  H  H68  1  0.87133000  0.43626000  0.30030000  1.0
  H  H69  1  0.62874000  0.73646000  0.69959000  1.0
  H  H70  1  0.12867000  0.56374000  0.69970000  1.0
  H  H71  1  0.37126000  0.26354000  0.30040000  1.0
  H  H72  1  0.86993000  0.61234000  0.29848000  1.0
  H  H73  1  0.63019000  0.91074000  0.70143000  1.0
  H  H74  1  0.13007000  0.38766000  0.70152000  1.0
  H  H75  1  0.36981000  0.08926000  0.29857000  1.0
  H  H76  1  0.78421000  0.55970000  0.06977000  1.0
  H  H77  1  0.71633000  0.62954000  0.92991000  1.0
  H  H78  1  0.21579000  0.44031000  0.93023000  1.0
  H  H79  1  0.28367000  0.37046000  0.07008000  1.0
  H  H80  1  0.79504000  0.86116000  0.11370000  1.0
  H  H81  1  0.70526000  0.97481000  0.88613000  1.0
  H  H82  1  0.20496000  0.13884000  0.88631000  1.0
  H  H83  1  0.29474000  0.02519000  0.11387000  1.0
  H  H84  1  0.75016000  0.00764000  0.99987000  1.0
  H  H85  1  0.24984000  0.99236000  0.00014000  1.0
  Pt  Pt86  1  0.91926000  0.46989000  0.62084000  1.0
  Pt  Pt87  1  0.58044000  0.09082000  0.37918000  1.0
  Pt  Pt88  1  0.08074000  0.53011000  0.37916000  1.0
  Pt  Pt89  1  0.41956000  0.90918000  0.62082000  1.0
  C  C90  1  0.99001000  0.34779000  0.62947000  1.0
  C  C91  1  0.50950000  0.97737000  0.37072000  1.0
  C  C92  1  0.00999000  0.65222000  0.37053000  1.0
  C  C93  1  0.49049000  0.02262000  0.62928000  1.0
  C  C94  1  0.28560000  0.95160000  0.66508000  1.0
  C  C95  1  0.21473000  0.61660000  0.33484000  1.0
  C  C96  1  0.71440000  0.04840000  0.33492000  1.0
  C  C97  1  0.78528000  0.38340000  0.66515000  1.0
  C  C98  1  0.85157000  0.59508000  0.60789000  1.0
  C  C99  1  0.64846000  0.20301000  0.39191000  1.0
  C  C100  1  0.14843000  0.40491000  0.39211000  1.0
  C  C101  1  0.35154000  0.79699000  0.60809000  1.0
  C  C102  1  0.05549000  0.55353000  0.57147000  1.0
  C  C103  1  0.44426000  0.12532000  0.42858000  1.0
  C  C104  1  0.94450000  0.44646000  0.42854000  1.0
  C  C105  1  0.55574000  0.87468000  0.57142000  1.0
  C  C106  1  0.93152000  0.15633000  0.54648000  1.0
  C  C107  1  0.56847000  0.70303000  0.45348000  1.0
  C  C108  1  0.06848000  0.84367000  0.45352000  1.0
  C  C109  1  0.43153000  0.29697000  0.54652000  1.0
  C  C110  1  0.87052000  0.15211000  0.49821000  1.0
  C  C111  1  0.62967000  0.65060000  0.50157000  1.0
  C  C112  1  0.12948000  0.84789000  0.50179000  1.0
  C  C113  1  0.37033000  0.34939000  0.49843000  1.0
  C  C114  1  0.83026000  0.05562000  0.50988000  1.0
  C  C115  1  0.67009000  0.56586000  0.48975000  1.0
  C  C116  1  0.16973000  0.94438000  0.49012000  1.0
  C  C117  1  0.32992000  0.43414000  0.51025000  1.0
  C  C118  1  0.85355000  0.96717000  0.56843000  1.0
  C  C119  1  0.64673000  0.53597000  0.43120000  1.0
  C  C120  1  0.14644000  0.03282000  0.43158000  1.0
  C  C121  1  0.35327000  0.46402000  0.56880000  1.0
  C  C122  1  0.91541000  0.97747000  0.61466000  1.0
  C  C123  1  0.58472000  0.59245000  0.38512000  1.0
  C  C124  1  0.08459000  0.02253000  0.38534000  1.0
  C  C125  1  0.41528000  0.40755000  0.61488000  1.0
  C  C126  1  0.93951000  0.88540000  0.67931000  1.0
  C  C127  1  0.56064000  0.56498000  0.32050000  1.0
  C  C128  1  0.06049000  0.11460000  0.32068000  1.0
  C  C129  1  0.43936000  0.43502000  0.67950000  1.0
  C  C130  1  0.92473000  0.78696000  0.68080000  1.0
  C  C131  1  0.57529000  0.46796000  0.31914000  1.0
  C  C132  1  0.07528000  0.21304000  0.31919000  1.0
  C  C133  1  0.42471000  0.53204000  0.68086000  1.0
  C  C134  1  0.94687000  0.70244000  0.74337000  1.0
  C  C135  1  0.55302000  0.44588000  0.25666000  1.0
  C  C136  1  0.05313000  0.29756000  0.25663000  1.0
  C  C137  1  0.44698000  0.55412000  0.74334000  1.0
  C  C138  1  0.97934000  0.71710000  0.80483000  1.0
  C  C139  1  0.52066000  0.52198000  0.19512000  1.0
  C  C140  1  0.02067000  0.28291000  0.19517000  1.0
  C  C141  1  0.47934000  0.47802000  0.80488000  1.0
  C  C142  1  0.99171000  0.81718000  0.80059000  1.0
  C  C143  1  0.50850000  0.61795000  0.19922000  1.0
  C  C144  1  0.00830000  0.18281000  0.19941000  1.0
  C  C145  1  0.49150000  0.38204000  0.80078000  1.0
  C  C146  1  0.02075000  0.83674000  0.86684000  1.0
  C  C147  1  0.47954000  0.70381000  0.13296000  1.0
  C  C148  1  0.97925000  0.16326000  0.13316000  1.0
  C  C149  1  0.52047000  0.29619000  0.86705000  1.0
  C  C150  1  0.02498000  0.75604000  0.94261000  1.0
  C  C151  1  0.47545000  0.69891000  0.05711000  1.0
  C  C152  1  0.97502000  0.24396000  0.05738000  1.0
  C  C153  1  0.52456000  0.30109000  0.94290000  1.0
  C  C154  1  0.04998000  0.77915000  0.00380000  1.0
  C  C155  1  0.45047000  0.78322000  0.99594000  1.0
  C  C156  1  0.95002000  0.22085000  0.99620000  1.0
  C  C157  1  0.54954000  0.21678000  0.00406000  1.0
  C  C158  1  0.06971000  0.88248000  0.98799000  1.0
  C  C159  1  0.43062000  0.87070000  0.01186000  1.0
  C  C160  1  0.93029000  0.11752000  0.01201000  1.0
  C  C161  1  0.56938000  0.12931000  0.98815000  1.0
  C  C162  1  0.06369000  0.95842000  0.91153000  1.0
  C  C163  1  0.43647000  0.87010000  0.08841000  1.0
  C  C164  1  0.93631000  0.04158000  0.08847000  1.0
  C  C165  1  0.56354000  0.12990000  0.91159000  1.0
  C  C166  1  0.82944000  0.48402000  0.18383000  1.0
  C  C167  1  0.67086000  0.66788000  0.81595000  1.0
  C  C168  1  0.17055000  0.51598000  0.81616000  1.0
  C  C169  1  0.32914000  0.33213000  0.18405000  1.0
  C  C170  1  0.85378000  0.49906000  0.24887000  1.0
  C  C171  1  0.64637000  0.74787000  0.75100000  1.0
  C  C172  1  0.14621000  0.50094000  0.75113000  1.0
  C  C173  1  0.35363000  0.25213000  0.24900000  1.0
  C  C174  1  0.85150000  0.59741000  0.24861000  1.0
  C  C175  1  0.64866000  0.84596000  0.75126000  1.0
  C  C176  1  0.14850000  0.40259000  0.75139000  1.0
  C  C177  1  0.35134000  0.15404000  0.24874000  1.0
  C  C178  1  0.80433000  0.56702000  0.12174000  1.0
  C  C179  1  0.69607000  0.68879000  0.87802000  1.0
  C  C180  1  0.19567000  0.43298000  0.87826000  1.0
  C  C181  1  0.30393000  0.31122000  0.12198000  1.0
  C  C182  1  0.80250000  0.66322000  0.12661000  1.0
  C  C183  1  0.69777000  0.78984000  0.87322000  1.0
  C  C184  1  0.19750000  0.33678000  0.87339000  1.0
  C  C185  1  0.30223000  0.21017000  0.12677000  1.0
  C  C186  1  0.77481000  0.75236000  0.06107000  1.0
  C  C187  1  0.72538000  0.81340000  0.93883000  1.0
  C  C188  1  0.22519000  0.24765000  0.93893000  1.0
  C  C189  1  0.27462000  0.18660000  0.06117000  1.0
  C  C190  1  0.77560000  0.84994000  0.06313000  1.0
  C  C191  1  0.72462000  0.91308000  0.93673000  1.0
  C  C192  1  0.22440000  0.15006000  0.93688000  1.0
  C  C193  1  0.27537000  0.08693000  0.06326000  1.0
  C  C194  1  0.75012000  0.93096000  0.99992000  1.0
  C  C195  1  0.24987000  0.06904000  0.00009000  1.0
  N  N196  1  0.03243000  0.27536000  0.63404000  1.0
  N  N197  1  0.46702000  0.90952000  0.36624000  1.0
  N  N198  1  0.96758000  0.72464000  0.36596000  1.0
  N  N199  1  0.53297000  0.09047000  0.63376000  1.0
  N  N200  1  0.20755000  0.98190000  0.68623000  1.0
  N  N201  1  0.29269000  0.66811000  0.31366000  1.0
  N  N202  1  0.79245000  0.01810000  0.31377000  1.0
  N  N203  1  0.70732000  0.33188000  0.68634000  1.0
  N  N204  1  0.81379000  0.67141000  0.59610000  1.0
  N  N205  1  0.68652000  0.26750000  0.40352000  1.0
  N  N206  1  0.18620000  0.32859000  0.40391000  1.0
  N  N207  1  0.31348000  0.73250000  0.59647000  1.0
  N  N208  1  0.13829000  0.59964000  0.54014000  1.0
  N  N209  1  0.36144000  0.14001000  0.46002000  1.0
  N  N210  1  0.86171000  0.40036000  0.45986000  1.0
  N  N211  1  0.63856000  0.86000000  0.53998000  1.0
  N  N212  1  0.87938000  0.14290000  0.81304000  1.0
  N  N213  1  0.62023000  0.95598000  0.18695000  1.0
  N  N214  1  0.12062000  0.85710000  0.18695000  1.0
  N  N215  1  0.37977000  0.04402000  0.81305000  1.0
  N  N216  1  0.95344000  0.07147000  0.60404000  1.0
  N  N217  1  0.54651000  0.67576000  0.39590000  1.0
  N  N218  1  0.04656000  0.92853000  0.39596000  1.0
  N  N219  1  0.45349000  0.32424000  0.60410000  1.0
  N  N220  1  0.97528000  0.90024000  0.73683000  1.0
  N  N221  1  0.52496000  0.63735000  0.26293000  1.0
  N  N222  1  0.02473000  0.09976000  0.26316000  1.0
  N  N223  1  0.47504000  0.36264000  0.73708000  1.0
  N  N224  1  0.03986000  0.93704000  0.85217000  1.0
  N  N225  1  0.46030000  0.78935000  0.14774000  1.0
  N  N226  1  0.96014000  0.06296000  0.14783000  1.0
  N  N227  1  0.53970000  0.21065000  0.85226000  1.0
  N  N228  1  0.82613000  0.67783000  0.18979000  1.0
  N  N229  1  0.67407000  0.86756000  0.81009000  1.0
  N  N230  1  0.17387000  0.32217000  0.81021000  1.0
  N  N231  1  0.32592000  0.13244000  0.18991000  1.0
  N  N232  1  0.75008000  0.73489000  0.99996000  1.0
  N  N233  1  0.24992000  0.26511000  0.00004000  1.0
  O  O234  1  0.86989000  0.10126000  0.76242000  1.0
  O  O235  1  0.62991000  0.86385000  0.23757000  1.0
  O  O236  1  0.13011000  0.89874000  0.23758000  1.0
  O  O237  1  0.37009000  0.13615000  0.76243000  1.0
  O  O238  1  0.96893000  0.15026000  0.81827000  1.0
  O  O239  1  0.53059000  0.96853000  0.18191000  1.0
  O  O240  1  0.03107000  0.84974000  0.18173000  1.0
  O  O241  1  0.46941000  0.03147000  0.81809000  1.0
  O  O242  1  0.80628000  0.17289000  0.85330000  1.0
  O  O243  1  0.69327000  0.02620000  0.14649000  1.0
  O  O244  1  0.19372000  0.82711000  0.14670000  1.0
  O  O245  1  0.30673000  0.97380000  0.85351000  1.0
  O  O246  1  0.17765000  0.16179000  0.55368000  1.0
  O  O247  1  0.32192000  0.71568000  0.44642000  1.0
  O  O248  1  0.82235000  0.83820000  0.44632000  1.0
  O  O249  1  0.67808000  0.28431000  0.55358000  1.0
  O  O250  1  0.18371000  0.17033000  0.74140000  1.0
  O  O251  1  0.31609000  0.91195000  0.25880000  1.0
  O  O252  1  0.81630000  0.82967000  0.25860000  1.0
  O  O253  1  0.68391000  0.08805000  0.74121000  1.0
