# generated using pymatgen
data_CuH2C6(NO2)2
_symmetry_space_group_name_H-M   'P 1'
_cell_length_a   5.21052000
_cell_length_b   6.71260000
_cell_length_c   10.14090000
_cell_angle_alpha   87.34650000
_cell_angle_beta   80.63230000
_cell_angle_gamma   71.31870000
_symmetry_Int_Tables_number   1
_chemical_formula_structural   CuH2C6(NO2)2
_chemical_formula_sum   'Cu2 H4 C12 N4 O8'
_cell_volume   331.51526373
_cell_formula_units_Z   2
loop_
 _symmetry_equiv_pos_site_id
 _symmetry_equiv_pos_as_xyz
  1  'x, y, z'
loop_
 _atom_site_type_symbol
 _atom_site_label
 _atom_site_symmetry_multiplicity
 _atom_site_fract_x
 _atom_site_fract_y
 _atom_site_fract_z
 _atom_site_occupancy
  Cu  Cu0  1  0.00000000  0.00000000  0.00000000  1.0
  Cu  Cu1  1  0.00000000  0.50000000  0.50000000  1.0
  H  H2  1  0.82037000  0.35955000  0.79307000  1.0
  H  H3  1  0.17963000  0.64045000  0.20693000  1.0
  H  H4  1  0.79471000  0.97162000  0.65433000  1.0
  H  H5  1  0.20529000  0.02838000  0.34568000  1.0
  C  C6  1  0.03361000  0.26884000  0.75938000  1.0
  C  C7  1  0.96638000  0.73116000  0.24062000  1.0
  C  C8  1  0.43087000  0.21168000  0.60485000  1.0
  C  C9  1  0.56914000  0.78831000  0.39515000  1.0
  C  C10  1  0.57762000  0.05708000  0.68426000  1.0
  C  C11  1  0.42238000  0.94292000  0.31574000  1.0
  C  C12  1  0.42869000  0.00637000  0.80011000  1.0
  C  C13  1  0.57131000  0.99363000  0.19989000  1.0
  C  C14  1  0.54979000  0.83151000  0.89415000  1.0
  C  C15  1  0.45021000  0.16849000  0.10585000  1.0
  C  C16  1  0.55296000  0.27220000  0.46926000  1.0
  C  C17  1  0.44704000  0.72780000  0.53075000  1.0
  N  N18  1  0.16022000  0.11250000  0.83597000  1.0
  N  N19  1  0.83977000  0.88750000  0.16403000  1.0
  N  N20  1  0.16125000  0.31517000  0.64271000  1.0
  N  N21  1  0.83875000  0.68483000  0.35730000  1.0
  O  O22  1  0.79986000  0.73751000  0.87576000  1.0
  O  O23  1  0.20014000  0.26249000  0.12424000  1.0
  O  O24  1  0.37256000  0.80132000  0.99231000  1.0
  O  O25  1  0.62744000  0.19868000  0.00769000  1.0
  O  O26  1  0.37609000  0.39520000  0.40089000  1.0
  O  O27  1  0.62391000  0.60480000  0.59911000  1.0
  O  O28  1  0.80470000  0.20392000  0.43211000  1.0
  O  O29  1  0.19531000  0.79608000  0.56789000  1.0
