# generated using pymatgen
data_Gd2H14C18S3O16
_symmetry_space_group_name_H-M   'P 1'
_cell_length_a   5.81400000
_cell_length_b   12.91020000
_cell_length_c   15.75530000
_cell_angle_alpha   81.60000000
_cell_angle_beta   79.39610000
_cell_angle_gamma   76.99470000
_symmetry_Int_Tables_number   1
_chemical_formula_structural   Gd2H14C18S3O16
_chemical_formula_sum   'Gd4 H28 C36 S6 O32'
_cell_volume   1125.79496961
_cell_formula_units_Z   2
loop_
 _symmetry_equiv_pos_site_id
 _symmetry_equiv_pos_as_xyz
  1  'x, y, z'
loop_
 _atom_site_type_symbol
 _atom_site_label
 _atom_site_symmetry_multiplicity
 _atom_site_fract_x
 _atom_site_fract_y
 _atom_site_fract_z
 _atom_site_occupancy
  Gd  Gd0  1  0.52800000  0.15239000  0.11011000  1.0
  Gd  Gd1  1  0.79081000  0.34776000  0.38994000  1.0
  Gd  Gd2  1  0.47200000  0.84762000  0.88989000  1.0
  Gd  Gd3  1  0.20919000  0.65224000  0.61006000  1.0
  H  H4  1  0.36894000  0.51080000  0.81339000  1.0
  H  H5  1  0.69315000  0.98869000  0.68661000  1.0
  H  H6  1  0.63105000  0.48921000  0.18662000  1.0
  H  H7  1  0.30684000  0.01131000  0.31339000  1.0
  H  H8  1  0.44577000  0.32455000  0.91253000  1.0
  H  H9  1  0.68355000  0.17493000  0.58757000  1.0
  H  H10  1  0.55423000  0.67546000  0.08747000  1.0
  H  H11  1  0.31645000  0.82507000  0.41242000  1.0
  H  H12  1  0.25806000  0.84703000  0.20579000  1.0
  H  H13  1  0.31080000  0.65309000  0.29424000  1.0
  H  H14  1  0.74193000  0.15297000  0.79422000  1.0
  H  H15  1  0.68920000  0.34691000  0.70576000  1.0
  H  H16  1  0.82901000  0.04373000  0.94498000  1.0
  H  H17  1  0.81775000  0.45641000  0.55525000  1.0
  H  H18  1  0.17100000  0.95628000  0.05502000  1.0
  H  H19  1  0.18225000  0.54359000  0.44476000  1.0
  H  H20  1  0.55813000  0.08097000  0.93500000  1.0
  H  H21  1  0.57430000  0.41907000  0.56496000  1.0
  H  H22  1  0.44187000  0.91903000  0.06500000  1.0
  H  H23  1  0.42569000  0.58093000  0.43504000  1.0
  H  H24  1  0.07837000  0.18582000  0.23292000  1.0
  H  H25  1  0.49743000  0.31413000  0.26709000  1.0
  H  H26  1  0.92163000  0.81418000  0.76708000  1.0
  H  H27  1  0.50257000  0.68587000  0.73291000  1.0
  H  H28  1  0.06103000  0.08905000  0.18248000  1.0
  H  H29  1  0.33273000  0.41089000  0.31745000  1.0
  H  H30  1  0.93897000  0.91095000  0.81752000  1.0
  H  H31  1  0.66726000  0.58911000  0.68255000  1.0
  C  C32  1  0.99080000  0.52221000  0.86331000  1.0
  C  C33  1  0.37572000  0.97771000  0.63679000  1.0
  C  C34  1  0.00920000  0.47778000  0.13669000  1.0
  C  C35  1  0.62428000  0.02229000  0.36321000  1.0
  C  C36  1  0.23166000  0.47392000  0.85520000  1.0
  C  C37  1  0.56069000  0.02574000  0.64488000  1.0
  C  C38  1  0.76834000  0.52607000  0.14480000  1.0
  C  C39  1  0.43931000  0.97426000  0.35512000  1.0
  C  C40  1  0.27124000  0.37575000  0.90779000  1.0
  C  C41  1  0.55505000  0.12395000  0.59234000  1.0
  C  C42  1  0.72876000  0.62425000  0.09221000  1.0
  C  C43  1  0.44496000  0.87605000  0.40765000  1.0
  C  C44  1  0.06095000  0.34995000  0.95459000  1.0
  C  C45  1  0.36554000  0.15002000  0.54557000  1.0
  C  C46  1  0.93905000  0.65005000  0.04541000  1.0
  C  C47  1  0.63447000  0.84997000  0.45442000  1.0
  C  C48  1  0.03462000  0.25324000  0.01499000  1.0
  C  C49  1  0.30330000  0.24677000  0.48517000  1.0
  C  C50  1  0.96539000  0.74675000  0.98501000  1.0
  C  C51  1  0.69670000  0.75323000  0.51483000  1.0
  C  C52  1  0.87981000  0.62775000  0.82325000  1.0
  C  C53  1  0.33025000  0.87217000  0.67676000  1.0
  C  C54  1  0.12019000  0.37225000  0.17675000  1.0
  C  C55  1  0.66975000  0.12783000  0.32324000  1.0
  C  C56  1  0.88620000  0.83887000  0.20806000  1.0
  C  C57  1  0.93299000  0.66130000  0.29195000  1.0
  C  C58  1  0.11379000  0.16113000  0.79194000  1.0
  C  C59  1  0.06702000  0.33870000  0.70804000  1.0
  C  C60  1  0.11818000  0.80103000  0.22627000  1.0
  C  C61  1  0.14536000  0.69911000  0.27376000  1.0
  C  C62  1  0.88183000  0.19898000  0.77373000  1.0
  C  C63  1  0.85464000  0.30089000  0.72624000  1.0
  C  C64  1  0.78312000  0.94014000  0.16107000  1.0
  C  C65  1  0.88410000  0.56003000  0.33887000  1.0
  C  C66  1  0.21688000  0.05986000  0.83893000  1.0
  C  C67  1  0.11590000  0.43997000  0.66112000  1.0
  S  S68  1  0.81568000  0.44781000  0.93600000  1.0
  S  S69  1  0.19896000  0.05238000  0.56411000  1.0
  S  S70  1  0.18431000  0.55219000  0.06400000  1.0
  S  S71  1  0.80105000  0.94762000  0.43588000  1.0
  S  S72  1  0.70592000  0.75011000  0.24999000  1.0
  S  S73  1  0.29408000  0.24989000  0.75001000  1.0
  O  O74  1  0.82484000  0.24565000  0.05327000  1.0
  O  O75  1  0.12409000  0.25460000  0.44686000  1.0
  O  O76  1  0.17515000  0.75435000  0.94673000  1.0
  O  O77  1  0.87590000  0.74540000  0.55314000  1.0
  O  O78  1  0.22397000  0.18326000  0.02535000  1.0
  O  O79  1  0.43357000  0.31658000  0.47481000  1.0
  O  O80  1  0.77603000  0.81673000  0.97465000  1.0
  O  O81  1  0.56643000  0.68342000  0.52519000  1.0
  O  O82  1  0.68276000  0.67503000  0.86364000  1.0
  O  O83  1  0.22077000  0.82489000  0.63633000  1.0
  O  O84  1  0.31724000  0.32497000  0.13636000  1.0
  O  O85  1  0.77922000  0.17511000  0.36367000  1.0
  O  O86  1  0.98448000  0.66766000  0.75101000  1.0
  O  O87  1  0.40295000  0.83217000  0.74897000  1.0
  O  O88  1  0.01552000  0.33233000  0.24899000  1.0
  O  O89  1  0.59705000  0.16783000  0.25103000  1.0
  O  O90  1  0.56270000  0.95851000  0.15143000  1.0
  O  O91  1  0.67243000  0.54169000  0.34850000  1.0
  O  O92  1  0.43730000  0.04149000  0.84857000  1.0
  O  O93  1  0.32758000  0.45831000  0.65150000  1.0
  O  O94  1  0.90880000  0.01171000  0.13156000  1.0
  O  O95  1  0.05184000  0.48838000  0.36838000  1.0
  O  O96  1  0.09121000  0.98829000  0.86844000  1.0
  O  O97  1  0.94817000  0.51162000  0.63161000  1.0
  O  O98  1  0.67488000  0.08444000  0.97210000  1.0
  O  O99  1  0.73157000  0.41577000  0.52794000  1.0
  O  O100  1  0.32511000  0.91556000  0.02790000  1.0
  O  O101  1  0.26843000  0.58423000  0.47206000  1.0
  O  O102  1  0.16958000  0.11993000  0.20803000  1.0
  O  O103  1  0.49771000  0.38006000  0.29200000  1.0
  O  O104  1  0.83041000  0.88007000  0.79197000  1.0
  O  O105  1  0.50229000  0.61994000  0.70800000  1.0
