# generated using pymatgen
data_CdH5(C2O3)2
_symmetry_space_group_name_H-M   'P 1'
_cell_length_a   6.33409000
_cell_length_b   7.60104000
_cell_length_c   27.18100000
_cell_angle_alpha   90.00010000
_cell_angle_beta   90.00020000
_cell_angle_gamma   72.90400000
_symmetry_Int_Tables_number   1
_chemical_formula_structural   CdH5(C2O3)2
_chemical_formula_sum   'Cd8 H40 C32 O48'
_cell_volume   1250.82299601
_cell_formula_units_Z   8
loop_
 _symmetry_equiv_pos_site_id
 _symmetry_equiv_pos_as_xyz
  1  'x, y, z'
loop_
 _atom_site_type_symbol
 _atom_site_label
 _atom_site_symmetry_multiplicity
 _atom_site_fract_x
 _atom_site_fract_y
 _atom_site_fract_z
 _atom_site_occupancy
  Cd  Cd0  1  0.90188000  0.81308000  0.21489000  1.0
  Cd  Cd1  1  0.59812000  0.68691000  0.71490000  1.0
  Cd  Cd2  1  0.09812000  0.18691000  0.78511000  1.0
  Cd  Cd3  1  0.40187000  0.31309000  0.28510000  1.0
  Cd  Cd4  1  0.53155000  0.79308000  0.04295000  1.0
  Cd  Cd5  1  0.96845000  0.70692000  0.54295000  1.0
  Cd  Cd6  1  0.46845000  0.20692000  0.95705000  1.0
  Cd  Cd7  1  0.03155000  0.29308000  0.45705000  1.0
  H  H8  1  0.52901000  0.18326000  0.11746000  1.0
  H  H9  1  0.97099000  0.31673000  0.61747000  1.0
  H  H10  1  0.47099000  0.81674000  0.88254000  1.0
  H  H11  1  0.02901000  0.68327000  0.38253000  1.0
  H  H12  1  0.94726000  0.29021000  0.14291000  1.0
  H  H13  1  0.55274000  0.20979000  0.64291000  1.0
  H  H14  1  0.05275000  0.70979000  0.85709000  1.0
  H  H15  1  0.44726000  0.79021000  0.35709000  1.0
  H  H16  1  0.09989000  0.16698000  0.06433000  1.0
  H  H17  1  0.40011000  0.33302000  0.56433000  1.0
  H  H18  1  0.90011000  0.83301000  0.93567000  1.0
  H  H19  1  0.59989000  0.66698000  0.43567000  1.0
  H  H20  1  0.02031000  0.83422000  0.08226000  1.0
  H  H21  1  0.47970000  0.66578000  0.58226000  1.0
  H  H22  1  0.97969000  0.16578000  0.91774000  1.0
  H  H23  1  0.52030000  0.33422000  0.41773000  1.0
  H  H24  1  0.58999000  0.60071000  0.21891000  1.0
  H  H25  1  0.91001000  0.89929000  0.71892000  1.0
  H  H26  1  0.41001000  0.39929000  0.78109000  1.0
  H  H27  1  0.08999000  0.10071000  0.28108000  1.0
  H  H28  1  0.45366000  0.80716000  0.21074000  1.0
  H  H29  1  0.04634000  0.69284000  0.71074000  1.0
  H  H30  1  0.54634000  0.19284000  0.78926000  1.0
  H  H31  1  0.95366000  0.30716000  0.28926000  1.0
  H  H32  1  0.22066000  0.50260000  0.17035000  1.0
  H  H33  1  0.27934000  0.99740000  0.67035000  1.0
  H  H34  1  0.77934000  0.49740000  0.82965000  1.0
  H  H35  1  0.72065000  0.00261000  0.32965000  1.0
  H  H36  1  0.00268000  0.55731000  0.13437000  1.0
  H  H37  1  0.49732000  0.94269000  0.63437000  1.0
  H  H38  1  0.99732000  0.44269000  0.86563000  1.0
  H  H39  1  0.50268000  0.05731000  0.36563000  1.0
  H  H40  1  0.81223000  0.49722000  0.99270000  1.0
  H  H41  1  0.68777000  0.00278000  0.49270000  1.0
  H  H42  1  0.18777000  0.50278000  0.00730000  1.0
  H  H43  1  0.31223000  0.99722000  0.50730000  1.0
  H  H44  1  0.64300000  0.60012000  0.95419000  1.0
  H  H45  1  0.85700000  0.89988000  0.45419000  1.0
  H  H46  1  0.35700000  0.39988000  0.04581000  1.0
  H  H47  1  0.14300000  0.10012000  0.54581000  1.0
  C  C48  1  0.68035000  0.16607000  0.13927000  1.0
  C  C49  1  0.81965000  0.33392000  0.63928000  1.0
  C  C50  1  0.31965000  0.83392000  0.86073000  1.0
  C  C51  1  0.18035000  0.66608000  0.36072000  1.0
  C  C52  1  0.82511000  0.27289000  0.11600000  1.0
  C  C53  1  0.67489000  0.22711000  0.61600000  1.0
  C  C54  1  0.17490000  0.72711000  0.88400000  1.0
  C  C55  1  0.32511000  0.77289000  0.38400000  1.0
  C  C56  1  0.95096000  0.13369000  0.07626000  1.0
  C  C57  1  0.54904000  0.36631000  0.57626000  1.0
  C  C58  1  0.04904000  0.86631000  0.92374000  1.0
  C  C59  1  0.45096000  0.63369000  0.42374000  1.0
  C  C60  1  0.00032000  0.95520000  0.10600000  1.0
  C  C61  1  0.49969000  0.54480000  0.60600000  1.0
  C  C62  1  0.99969000  0.04480000  0.89400000  1.0
  C  C63  1  0.50031000  0.45520000  0.39400000  1.0
  C  C64  1  0.60632000  0.22445000  0.19134000  1.0
  C  C65  1  0.89368000  0.27554000  0.69134000  1.0
  C  C66  1  0.39368000  0.77555000  0.80866000  1.0
  C  C67  1  0.10632000  0.72446000  0.30866000  1.0
  C  C68  1  0.70556000  0.46058000  0.09506000  1.0
  C  C69  1  0.79444000  0.03942000  0.59506000  1.0
  C  C70  1  0.29444000  0.53942000  0.90494000  1.0
  C  C71  1  0.20556000  0.96058000  0.40494000  1.0
  C  C72  1  0.80615000  0.14004000  0.03098000  1.0
  C  C73  1  0.69385000  0.35996000  0.53098000  1.0
  C  C74  1  0.19385000  0.85996000  0.96902000  1.0
  C  C75  1  0.30615000  0.64004000  0.46902000  1.0
  C  C76  1  0.21094000  0.92586000  0.13704000  1.0
  C  C77  1  0.28906000  0.57414000  0.63704000  1.0
  C  C78  1  0.78906000  0.07414000  0.86296000  1.0
  C  C79  1  0.71094000  0.42586000  0.36296000  1.0
  O  O80  1  0.58895000  0.72661000  0.22726000  1.0
  O  O81  1  0.91105000  0.77339000  0.72726000  1.0
  O  O82  1  0.41105000  0.27339000  0.77274000  1.0
  O  O83  1  0.08895000  0.22661000  0.27274000  1.0
  O  O84  1  0.80864000  0.97449000  0.13663000  1.0
  O  O85  1  0.69137000  0.52550000  0.63663000  1.0
  O  O86  1  0.19136000  0.02550000  0.86337000  1.0
  O  O87  1  0.30864000  0.47450000  0.36337000  1.0
  O  O88  1  0.05855000  0.55287000  0.16884000  1.0
  O  O89  1  0.44145000  0.94713000  0.66885000  1.0
  O  O90  1  0.94145000  0.44713000  0.83116000  1.0
  O  O91  1  0.55855000  0.05287000  0.33115000  1.0
  O  O92  1  0.65076000  0.10775000  0.22617000  1.0
  O  O93  1  0.84924000  0.39225000  0.72617000  1.0
  O  O94  1  0.34924000  0.89225000  0.77384000  1.0
  O  O95  1  0.15076000  0.60775000  0.27383000  1.0
  O  O96  1  0.49120000  0.39079000  0.19830000  1.0
  O  O97  1  0.00880000  0.10921000  0.69830000  1.0
  O  O98  1  0.50880000  0.60921000  0.80170000  1.0
  O  O99  1  0.99121000  0.89079000  0.30170000  1.0
  O  O100  1  0.74193000  0.62334000  0.98033000  1.0
  O  O101  1  0.75807000  0.87666000  0.48033000  1.0
  O  O102  1  0.25806000  0.37665000  0.01967000  1.0
  O  O103  1  0.24193000  0.12334000  0.51967000  1.0
  O  O104  1  0.50535000  0.49764000  0.08183000  1.0
  O  O105  1  0.99464000  0.00236000  0.58183000  1.0
  O  O106  1  0.49465000  0.50236000  0.91817000  1.0
  O  O107  1  0.00536000  0.99764000  0.41817000  1.0
  O  O108  1  0.81718000  0.57470000  0.08968000  1.0
  O  O109  1  0.68282000  0.92530000  0.58968000  1.0
  O  O110  1  0.18282000  0.42530000  0.91032000  1.0
  O  O111  1  0.31718000  0.07471000  0.41032000  1.0
  O  O112  1  0.67884000  0.03711000  0.02769000  1.0
  O  O113  1  0.82116000  0.46289000  0.52769000  1.0
  O  O114  1  0.32116000  0.96289000  0.97231000  1.0
  O  O115  1  0.17884000  0.53711000  0.47231000  1.0
  O  O116  1  0.80770000  0.25627000  0.99772000  1.0
  O  O117  1  0.69229000  0.24373000  0.49772000  1.0
  O  O118  1  0.19230000  0.74372000  0.00228000  1.0
  O  O119  1  0.30770000  0.75627000  0.50228000  1.0
  O  O120  1  0.38639000  0.92309000  0.11446000  1.0
  O  O121  1  0.11362000  0.57691000  0.61445000  1.0
  O  O122  1  0.61361000  0.07691000  0.88555000  1.0
  O  O123  1  0.88638000  0.42309000  0.38555000  1.0
  O  O124  1  0.20093000  0.90878000  0.18354000  1.0
  O  O125  1  0.29907000  0.59122000  0.68354000  1.0
  O  O126  1  0.79907000  0.09121000  0.81646000  1.0
  O  O127  1  0.70093000  0.40879000  0.31646000  1.0
