# generated using pymatgen
data_NiH24C36(NO2)2
_symmetry_space_group_name_H-M   'P 1'
_cell_length_a   16.11310000
_cell_length_b   19.18415878
_cell_length_c   19.18418430
_cell_angle_alpha   79.86553841
_cell_angle_beta   65.18223682
_cell_angle_gamma   65.18230156
_symmetry_Int_Tables_number   1
_chemical_formula_structural   NiH24C36(NO2)2
_chemical_formula_sum   'Ni4 H96 C144 N8 O16'
_cell_volume   4885.39566370
_cell_formula_units_Z   4
loop_
 _symmetry_equiv_pos_site_id
 _symmetry_equiv_pos_as_xyz
  1  'x, y, z'
loop_
 _atom_site_type_symbol
 _atom_site_label
 _atom_site_symmetry_multiplicity
 _atom_site_fract_x
 _atom_site_fract_y
 _atom_site_fract_z
 _atom_site_occupancy
  Ni  Ni0  1  0.64490000  0.00001000  0.99981000  1.0
  Ni  Ni1  1  0.89486000  0.50008000  0.50002000  1.0
  Ni  Ni2  1  0.14490000  0.99981000  0.00001000  1.0
  Ni  Ni3  1  0.39486000  0.50001000  0.50009000  1.0
  H  H4  1  0.62093000  0.61131000  0.70978000  1.0
  H  H5  1  0.94169000  0.38887000  0.29059000  1.0
  H  H6  1  0.48206000  0.20991000  0.88865000  1.0
  H  H7  1  0.58058000  0.79032000  0.11101000  1.0
  H  H8  1  0.44168000  0.29059000  0.38887000  1.0
  H  H9  1  0.12093000  0.70978000  0.61131000  1.0
  H  H10  1  0.08059000  0.11101000  0.79031000  1.0
  H  H11  1  0.98207000  0.88864000  0.20990000  1.0
  H  H12  1  0.43800000  0.67913000  0.77888000  1.0
  H  H13  1  0.89580000  0.32112000  0.22123000  1.0
  H  H14  1  0.36683000  0.27908000  0.82096000  1.0
  H  H15  1  0.46672000  0.72118000  0.17878000  1.0
  H  H16  1  0.39580000  0.22123000  0.32112000  1.0
  H  H17  1  0.93800000  0.77888000  0.67913000  1.0
  H  H18  1  0.96672000  0.17878000  0.72118000  1.0
  H  H19  1  0.86682000  0.82096000  0.27908000  1.0
  H  H20  1  0.40490000  0.72988000  0.56188000  1.0
  H  H21  1  0.69679000  0.26975000  0.43802000  1.0
  H  H22  1  0.38484000  0.06215000  0.76966000  1.0
  H  H23  1  0.21673000  0.93822000  0.23022000  1.0
  H  H24  1  0.19680000  0.43802000  0.26975000  1.0
  H  H25  1  0.90490000  0.56188000  0.72988000  1.0
  H  H26  1  0.71675000  0.23022000  0.93821000  1.0
  H  H27  1  0.88484000  0.76965000  0.06215000  1.0
  H  H28  1  0.58777000  0.66250000  0.49377000  1.0
  H  H29  1  0.74398000  0.33712000  0.50637000  1.0
  H  H30  1  0.50036000  0.99394000  0.83695000  1.0
  H  H31  1  0.33153000  0.00629000  0.16286000  1.0
  H  H32  1  0.24398000  0.50637000  0.33712000  1.0
  H  H33  1  0.08777000  0.49377000  0.66250000  1.0
  H  H34  1  0.83153000  0.16286000  0.00629000  1.0
  H  H35  1  0.00038000  0.83694000  0.99393000  1.0
  H  H36  1  0.32218000  0.80433000  0.79574000  1.0
  H  H37  1  0.92225000  0.19575000  0.20405000  1.0
  H  H38  1  0.37615000  0.29597000  0.69558000  1.0
  H  H39  1  0.36784000  0.70442000  0.30423000  1.0
  H  H40  1  0.42224000  0.20406000  0.19575000  1.0
  H  H41  1  0.82218000  0.79574000  0.80433000  1.0
  H  H42  1  0.86784000  0.30424000  0.70442000  1.0
  H  H43  1  0.87617000  0.69557000  0.29596000  1.0
  H  H44  1  0.14294000  0.87568000  0.86851000  1.0
  H  H45  1  0.88704000  0.12439000  0.13129000  1.0
  H  H46  1  0.26792000  0.36878000  0.62448000  1.0
  H  H47  1  0.26150000  0.63151000  0.37551000  1.0
  H  H48  1  0.38704000  0.13129000  0.12439000  1.0
  H  H49  1  0.64295000  0.86851000  0.87568000  1.0
  H  H50  1  0.76151000  0.37551000  0.63151000  1.0
  H  H51  1  0.76793000  0.62448000  0.36877000  1.0
  H  H52  1  0.07574000  0.77790000  0.72285000  1.0
  H  H53  1  0.57649000  0.22215000  0.27705000  1.0
  H  H54  1  0.10298000  0.22315000  0.72247000  1.0
  H  H55  1  0.04868000  0.77693000  0.27763000  1.0
  H  H56  1  0.07650000  0.27705000  0.22214000  1.0
  H  H57  1  0.57572000  0.72286000  0.77791000  1.0
  H  H58  1  0.54868000  0.27763000  0.77693000  1.0
  H  H59  1  0.60298000  0.72247000  0.22315000  1.0
  H  H60  1  0.25501000  0.70751000  0.64907000  1.0
  H  H61  1  0.61172000  0.29264000  0.35071000  1.0
  H  H62  1  0.21216000  0.14940000  0.79266000  1.0
  H  H63  1  0.15415000  0.85078000  0.20729000  1.0
  H  H64  1  0.11172000  0.35071000  0.29264000  1.0
  H  H65  1  0.75500000  0.64908000  0.70751000  1.0
  H  H66  1  0.65415000  0.20729000  0.85078000  1.0
  H  H67  1  0.71216000  0.79266000  0.14940000  1.0
  H  H68  1  0.99941000  0.98295000  0.84730000  1.0
  H  H69  1  0.82939000  0.01680000  0.15296000  1.0
  H  H70  1  0.23210000  0.34727000  0.51724000  1.0
  H  H71  1  0.09684000  0.65280000  0.48280000  1.0
  H  H72  1  0.32939000  0.15297000  0.01679000  1.0
  H  H73  1  0.49941000  0.84730000  0.98296000  1.0
  H  H74  1  0.59684000  0.48281000  0.65280000  1.0
  H  H75  1  0.73210000  0.51724000  0.34727000  1.0
  H  H76  1  0.81855000  0.04801000  0.92243000  1.0
  H  H77  1  0.78855000  0.95172000  0.07788000  1.0
  H  H78  1  0.11653000  0.42235000  0.45193000  1.0
  H  H79  1  0.99101000  0.57776000  0.54800000  1.0
  H  H80  1  0.28855000  0.07789000  0.95171000  1.0
  H  H81  1  0.31855000  0.92243000  0.04801000  1.0
  H  H82  1  0.49102000  0.54800000  0.57775000  1.0
  H  H83  1  0.61652000  0.45194000  0.42236000  1.0
  H  H84  1  0.77112000  0.84943000  0.93401000  1.0
  H  H85  1  0.55480000  0.15044000  0.06568000  1.0
  H  H86  1  0.87027000  0.43409000  0.65025000  1.0
  H  H87  1  0.95503000  0.56586000  0.34955000  1.0
  H  H88  1  0.05481000  0.06567000  0.15044000  1.0
  H  H89  1  0.27112000  0.93401000  0.84944000  1.0
  H  H90  1  0.45503000  0.34955000  0.56586000  1.0
  H  H91  1  0.37027000  0.65025000  0.43409000  1.0
  H  H92  1  0.95059000  0.77630000  0.85507000  1.0
  H  H93  1  0.58203000  0.22355000  0.14484000  1.0
  H  H94  1  0.97636000  0.35521000  0.72366000  1.0
  H  H95  1  0.05559000  0.64477000  0.27626000  1.0
  H  H96  1  0.08203000  0.14484000  0.22354000  1.0
  H  H97  1  0.45060000  0.85507000  0.77630000  1.0
  H  H98  1  0.55559000  0.27626000  0.64478000  1.0
  H  H99  1  0.47634000  0.72366000  0.35522000  1.0
  C  C100  1  0.72420000  0.59218000  0.55807000  1.0
  C  C101  1  0.87420000  0.40781000  0.44219000  1.0
  C  C102  1  0.56625000  0.05823000  0.90770000  1.0
  C  C103  1  0.53224000  0.94196000  0.09202000  1.0
  C  C104  1  0.37420000  0.44219000  0.40781000  1.0
  C  C105  1  0.22420000  0.55807000  0.59218000  1.0
  C  C106  1  0.03224000  0.09202000  0.94196000  1.0
  C  C107  1  0.06625000  0.90770000  0.05822000  1.0
  C  C108  1  0.61549000  0.63436000  0.59781000  1.0
  C  C109  1  0.84742000  0.36557000  0.40244000  1.0
  C  C110  1  0.49975000  0.09795000  0.86545000  1.0
  C  C111  1  0.46324000  0.90224000  0.13433000  1.0
  C  C112  1  0.34741000  0.40244000  0.36558000  1.0
  C  C113  1  0.11549000  0.59781000  0.63436000  1.0
  C  C114  1  0.96324000  0.13433000  0.90224000  1.0
  C  C115  1  0.99974000  0.86545000  0.09795000  1.0
  C  C116  1  0.57278000  0.63889000  0.67815000  1.0
  C  C117  1  0.88954000  0.36120000  0.32208000  1.0
  C  C118  1  0.46147000  0.17831000  0.86102000  1.0
  C  C119  1  0.50080000  0.82190000  0.13874000  1.0
  C  C120  1  0.38954000  0.32208000  0.36120000  1.0
  C  C121  1  0.07278000  0.67815000  0.63889000  1.0
  C  C122  1  0.00081000  0.13873000  0.82190000  1.0
  C  C123  1  0.96149000  0.86101000  0.17830000  1.0
  C  C124  1  0.47105000  0.67670000  0.71624000  1.0
  C  C125  1  0.86381000  0.32338000  0.28387000  1.0
  C  C126  1  0.39747000  0.21645000  0.82327000  1.0
  C  C127  1  0.43714000  0.78382000  0.17655000  1.0
  C  C128  1  0.36381000  0.28387000  0.32338000  1.0
  C  C129  1  0.97104000  0.71624000  0.67670000  1.0
  C  C130  1  0.93715000  0.17655000  0.78381000  1.0
  C  C131  1  0.89748000  0.82326000  0.21644000  1.0
  C  C132  1  0.40902000  0.71033000  0.67507000  1.0
  C  C133  1  0.79447000  0.28953000  0.32490000  1.0
  C  C134  1  0.36912000  0.17533000  0.78953000  1.0
  C  C135  1  0.33397000  0.82497000  0.21034000  1.0
  C  C136  1  0.29446000  0.32491000  0.28953000  1.0
  C  C137  1  0.90902000  0.67507000  0.71033000  1.0
  C  C138  1  0.83396000  0.21034000  0.82497000  1.0
  C  C139  1  0.86912000  0.78952000  0.17533000  1.0
  C  C140  1  0.45213000  0.70413000  0.59450000  1.0
  C  C141  1  0.75079000  0.29563000  0.40550000  1.0
  C  C142  1  0.40620000  0.09475000  0.79556000  1.0
  C  C143  1  0.29656000  0.90556000  0.20431000  1.0
  C  C144  1  0.25079000  0.40550000  0.29563000  1.0
  C  C145  1  0.95213000  0.59450000  0.70413000  1.0
  C  C146  1  0.79658000  0.20430000  0.90555000  1.0
  C  C147  1  0.90620000  0.79555000  0.09475000  1.0
  C  C148  1  0.55422000  0.66694000  0.55622000  1.0
  C  C149  1  0.77728000  0.33284000  0.44391000  1.0
  C  C150  1  0.47113000  0.05641000  0.83271000  1.0
  C  C151  1  0.36041000  0.94383000  0.16709000  1.0
  C  C152  1  0.27728000  0.44391000  0.33284000  1.0
  C  C153  1  0.05423000  0.55622000  0.66694000  1.0
  C  C154  1  0.86041000  0.16709000  0.94382000  1.0
  C  C155  1  0.97114000  0.83270000  0.05640000  1.0
  C  C156  1  0.30161000  0.75203000  0.71657000  1.0
  C  C157  1  0.77031000  0.24787000  0.28329000  1.0
  C  C158  1  0.30326000  0.21685000  0.74795000  1.0
  C  C159  1  0.26808000  0.78343000  0.25195000  1.0
  C  C160  1  0.27029000  0.28330000  0.24787000  1.0
  C  C161  1  0.80161000  0.71657000  0.75203000  1.0
  C  C162  1  0.76808000  0.25195000  0.78343000  1.0
  C  C163  1  0.80326000  0.74795000  0.21684000  1.0
  C  C164  1  0.26808000  0.79936000  0.77897000  1.0
  C  C165  1  0.84645000  0.20062000  0.22086000  1.0
  C  C166  1  0.31704000  0.27922000  0.70063000  1.0
  C  C167  1  0.29699000  0.72108000  0.29927000  1.0
  C  C168  1  0.34644000  0.22087000  0.20062000  1.0
  C  C169  1  0.76808000  0.77897000  0.79936000  1.0
  C  C170  1  0.79700000  0.29927000  0.72108000  1.0
  C  C171  1  0.81705000  0.70062000  0.27921000  1.0
  C  C172  1  0.16761000  0.84029000  0.81933000  1.0
  C  C173  1  0.82720000  0.15971000  0.18051000  1.0
  C  C174  1  0.25729000  0.31960000  0.65986000  1.0
  C  C175  1  0.23697000  0.68064000  0.34011000  1.0
  C  C176  1  0.32719000  0.18051000  0.15971000  1.0
  C  C177  1  0.66762000  0.81933000  0.84029000  1.0
  C  C178  1  0.73697000  0.34011000  0.68064000  1.0
  C  C179  1  0.75730000  0.65986000  0.31959000  1.0
  C  C180  1  0.09730000  0.83269000  0.79938000  1.0
  C  C181  1  0.72935000  0.16725000  0.20055000  1.0
  C  C182  1  0.17939000  0.29961000  0.66752000  1.0
  C  C183  1  0.14673000  0.70053000  0.33249000  1.0
  C  C184  1  0.22933000  0.20056000  0.16725000  1.0
  C  C185  1  0.59729000  0.79938000  0.83270000  1.0
  C  C186  1  0.64674000  0.33249000  0.70053000  1.0
  C  C187  1  0.67939000  0.66753000  0.29961000  1.0
  C  C188  1  0.13020000  0.78437000  0.73803000  1.0
  C  C189  1  0.65262000  0.21560000  0.26189000  1.0
  C  C190  1  0.16397000  0.23831000  0.71587000  1.0
  C  C191  1  0.11825000  0.76184000  0.28417000  1.0
  C  C192  1  0.15261000  0.26190000  0.21560000  1.0
  C  C193  1  0.63020000  0.73803000  0.78437000  1.0
  C  C194  1  0.61824000  0.28418000  0.76184000  1.0
  C  C195  1  0.66397000  0.71587000  0.23831000  1.0
  C  C196  1  0.23101000  0.74531000  0.69619000  1.0
  C  C197  1  0.67258000  0.25467000  0.30371000  1.0
  C  C198  1  0.22587000  0.19649000  0.75482000  1.0
  C  C199  1  0.17717000  0.80373000  0.24515000  1.0
  C  C200  1  0.17258000  0.30371000  0.25467000  1.0
  C  C201  1  0.73101000  0.69619000  0.74531000  1.0
  C  C202  1  0.67717000  0.24515000  0.80373000  1.0
  C  C203  1  0.72587000  0.75482000  0.19649000  1.0
  C  C204  1  0.99065000  0.87377000  0.84367000  1.0
  C  C205  1  0.70805000  0.12607000  0.15634000  1.0
  C  C206  1  0.11396000  0.34374000  0.62633000  1.0
  C  C207  1  0.08431000  0.65632000  0.37367000  1.0
  C  C208  1  0.20803000  0.15635000  0.12607000  1.0
  C  C209  1  0.49066000  0.84367000  0.87377000  1.0
  C  C210  1  0.58432000  0.37367000  0.65632000  1.0
  C  C211  1  0.61395000  0.62633000  0.34375000  1.0
  C  C212  1  0.95164000  0.95110000  0.86447000  1.0
  C  C213  1  0.76705000  0.04868000  0.13568000  1.0
  C  C214  1  0.15246000  0.36443000  0.54900000  1.0
  C  C215  1  0.06611000  0.63565000  0.45101000  1.0
  C  C216  1  0.26704000  0.13569000  0.04868000  1.0
  C  C217  1  0.45165000  0.86446000  0.95110000  1.0
  C  C218  1  0.56612000  0.45101000  0.63565000  1.0
  C  C219  1  0.65246000  0.54900000  0.36443000  1.0
  C  C220  1  0.85084000  0.98765000  0.90674000  1.0
  C  C221  1  0.74499000  0.01211000  0.09346000  1.0
  C  C222  1  0.08839000  0.40669000  0.51230000  1.0
  C  C223  1  0.00754000  0.59342000  0.48764000  1.0
  C  C224  1  0.24497000  0.09347000  0.01211000  1.0
  C  C225  1  0.35084000  0.90674000  0.98765000  1.0
  C  C226  1  0.50754000  0.48764000  0.59342000  1.0
  C  C227  1  0.58839000  0.51230000  0.40669000  1.0
  C  C228  1  0.82453000  0.87676000  0.91187000  1.0
  C  C229  1  0.61324000  0.12308000  0.08799000  1.0
  C  C230  1  0.95099000  0.41194000  0.62309000  1.0
  C  C231  1  0.98635000  0.58805000  0.37680000  1.0
  C  C232  1  0.11324000  0.08799000  0.12308000  1.0
  C  C233  1  0.32453000  0.91187000  0.87676000  1.0
  C  C234  1  0.48635000  0.37680000  0.58805000  1.0
  C  C235  1  0.45100000  0.62308000  0.41194000  1.0
  C  C236  1  0.92400000  0.83680000  0.86816000  1.0
  C  C237  1  0.62896000  0.16303000  0.13181000  1.0
  C  C238  1  0.01036000  0.36823000  0.66316000  1.0
  C  C239  1  0.04211000  0.63175000  0.33677000  1.0
  C  C240  1  0.12896000  0.13181000  0.16303000  1.0
  C  C241  1  0.42402000  0.86815000  0.83680000  1.0
  C  C242  1  0.54212000  0.33677000  0.63175000  1.0
  C  C243  1  0.51035000  0.66316000  0.36824000  1.0
  N  N244  1  0.78794000  0.95121000  0.93092000  1.0
  N  N245  1  0.67007000  0.04862000  0.06902000  1.0
  N  N246  1  0.98903000  0.43098000  0.54868000  1.0
  N  N247  1  0.96885000  0.56911000  0.45125000  1.0
  N  N248  1  0.17006000  0.06903000  0.04862000  1.0
  N  N249  1  0.28794000  0.93092000  0.95121000  1.0
  N  N250  1  0.46886000  0.45125000  0.56911000  1.0
  N  N251  1  0.48903000  0.54868000  0.43098000  1.0
  O  O252  1  0.76246000  0.58141000  0.48559000  1.0
  O  O253  1  0.82914000  0.41867000  0.51465000  1.0
  O  O254  1  0.59377000  0.98575000  0.91842000  1.0
  O  O255  1  0.49806000  0.01442000  0.08123000  1.0
  O  O256  1  0.32914000  0.51465000  0.41867000  1.0
  O  O257  1  0.26246000  0.48559000  0.58141000  1.0
  O  O258  1  0.99807000  0.08122000  0.01442000  1.0
  O  O259  1  0.09377000  0.91841000  0.98574000  1.0
  O  O260  1  0.77885000  0.56369000  0.59745000  1.0
  O  O261  1  0.93977000  0.43627000  0.40277000  1.0
  O  O262  1  0.59233000  0.09762000  0.93628000  1.0
  O  O263  1  0.62627000  0.90257000  0.06343000  1.0
  O  O264  1  0.43976000  0.40277000  0.43628000  1.0
  O  O265  1  0.27886000  0.59744000  0.56369000  1.0
  O  O266  1  0.12627000  0.06343000  0.90257000  1.0
  O  O267  1  0.09233000  0.93627000  0.09762000  1.0
