# generated using pymatgen
data_KH23C22O15
_symmetry_space_group_name_H-M   'P 1'
_cell_length_a   7.04329000
_cell_length_b   8.75699000
_cell_length_c   19.15820000
_cell_angle_alpha   103.22300000
_cell_angle_beta   90.00000000
_cell_angle_gamma   90.00000000
_symmetry_Int_Tables_number   1
_chemical_formula_structural   KH23C22O15
_chemical_formula_sum   'K2 H46 C44 O30'
_cell_volume   1150.31121474
_cell_formula_units_Z   2
loop_
 _symmetry_equiv_pos_site_id
 _symmetry_equiv_pos_as_xyz
  1  'x, y, z'
loop_
 _atom_site_type_symbol
 _atom_site_label
 _atom_site_symmetry_multiplicity
 _atom_site_fract_x
 _atom_site_fract_y
 _atom_site_fract_z
 _atom_site_occupancy
  K  K0  1  0.89367000  0.83942000  0.72107000  1.0
  K  K1  1  0.39368000  0.16058000  0.27893000  1.0
  H  H2  1  0.71154000  0.75250000  0.86039000  1.0
  H  H3  1  0.21154000  0.24750000  0.13961000  1.0
  H  H4  1  0.69341000  0.14999000  0.67988000  1.0
  H  H5  1  0.19341000  0.85001000  0.32012000  1.0
  H  H6  1  0.77553000  0.10055000  0.91267000  1.0
  H  H7  1  0.27554000  0.89945000  0.08733000  1.0
  H  H8  1  0.76815000  0.34406000  0.11530000  1.0
  H  H9  1  0.26816000  0.65593000  0.88470000  1.0
  H  H10  1  0.78776000  0.68556000  0.26495000  1.0
  H  H11  1  0.28776000  0.31444000  0.73506000  1.0
  H  H12  1  0.86704000  0.01196000  0.12016000  1.0
  H  H13  1  0.36703000  0.98804000  0.87984000  1.0
  H  H14  1  0.90629000  0.92949000  0.02690000  1.0
  H  H15  1  0.40629000  0.07051000  0.97310000  1.0
  H  H16  1  0.67767000  0.98701000  0.05804000  1.0
  H  H17  1  0.17767000  0.01299000  0.94196000  1.0
  H  H18  1  0.65528000  0.53258000  0.68509000  1.0
  H  H19  1  0.15528000  0.46742000  0.31491000  1.0
  H  H20  1  0.99361000  0.30428000  0.65176000  1.0
  H  H21  1  0.49361000  0.69572000  0.34824000  1.0
  H  H22  1  0.11851000  0.51516000  0.71977000  1.0
  H  H23  1  0.61851000  0.48484000  0.28023000  1.0
  H  H24  1  0.84773000  0.54042000  0.56917000  1.0
  H  H25  1  0.34773000  0.45958000  0.43083000  1.0
  H  H26  1  0.14051000  0.49985000  0.53876000  1.0
  H  H27  1  0.64051000  0.50015000  0.46124000  1.0
  H  H28  1  0.82123000  0.18339000  0.52530000  1.0
  H  H29  1  0.32123000  0.81661000  0.47470000  1.0
  H  H30  1  0.68603000  0.22928000  0.42736000  1.0
  H  H31  1  0.18603000  0.77072000  0.57264000  1.0
  H  H32  1  0.49922000  0.41980000  0.57544000  1.0
  H  H33  1  0.99922000  0.58020000  0.42456000  1.0
  H  H34  1  0.32456000  0.16861000  0.57855000  1.0
  H  H35  1  0.82456000  0.83139000  0.42145000  1.0
  H  H36  1  0.37080000  0.20238000  0.49248000  1.0
  H  H37  1  0.87080000  0.79762000  0.50752000  1.0
  H  H38  1  0.55339000  0.96981000  0.55401000  1.0
  H  H39  1  0.05340000  0.03019000  0.44599000  1.0
  H  H40  1  0.18728000  0.01843000  0.65401000  1.0
  H  H41  1  0.68728000  0.98157000  0.34599000  1.0
  H  H42  1  0.08966000  0.98491000  0.57534000  1.0
  H  H43  1  0.58966000  0.01509000  0.42466000  1.0
  H  H44  1  0.57946000  0.73009000  0.55436000  1.0
  H  H45  1  0.07946000  0.26991000  0.44564000  1.0
  H  H46  1  0.48236000  0.81201000  0.62627000  1.0
  H  H47  1  0.98236000  0.18799000  0.37372000  1.0
  C  C48  1  0.73384000  0.53511000  0.82021000  1.0
  C  C49  1  0.23383000  0.46490000  0.17980000  1.0
  C  C50  1  0.73731000  0.40153000  0.76191000  1.0
  C  C51  1  0.23731000  0.59847000  0.23809000  1.0
  C  C52  1  0.74926000  0.25247000  0.77614000  1.0
  C  C53  1  0.24926000  0.74753000  0.22386000  1.0
  C  C54  1  0.76330000  0.23213000  0.84774000  1.0
  C  C55  1  0.26330000  0.76787000  0.15226000  1.0
  C  C56  1  0.76322000  0.36530000  0.90488000  1.0
  C  C57  1  0.26322000  0.63470000  0.09512000  1.0
  C  C58  1  0.76480000  0.46284000  0.10666000  1.0
  C  C59  1  0.26480000  0.53716000  0.89334000  1.0
  C  C60  1  0.76701000  0.59224000  0.16513000  1.0
  C  C61  1  0.26701000  0.40776000  0.83487000  1.0
  C  C62  1  0.76795000  0.74835000  0.15439000  1.0
  C  C63  1  0.26795000  0.25165000  0.84561000  1.0
  C  C64  1  0.75133000  0.88204000  0.21994000  1.0
  C  C65  1  0.25133000  0.11796000  0.78006000  1.0
  C  C66  1  0.77631000  0.77284000  0.08387000  1.0
  C  C67  1  0.27631000  0.22715000  0.91613000  1.0
  C  C68  1  0.80971000  0.93423000  0.07204000  1.0
  C  C69  1  0.30971000  0.06578000  0.92796000  1.0
  C  C70  1  0.76451000  0.64041000  0.02460000  1.0
  C  C71  1  0.26451000  0.35959000  0.97540000  1.0
  C  C72  1  0.74749000  0.65681000  0.95019000  1.0
  C  C73  1  0.24749000  0.34319000  0.04981000  1.0
  C  C74  1  0.74965000  0.51793000  0.89173000  1.0
  C  C75  1  0.24965000  0.48207000  0.10827000  1.0
  C  C76  1  0.76680000  0.34463000  0.97764000  1.0
  C  C77  1  0.26680000  0.65536000  0.02235000  1.0
  C  C78  1  0.76289000  0.48609000  0.03740000  1.0
  C  C79  1  0.26289000  0.51391000  0.96260000  1.0
  C  C80  1  0.72592000  0.42029000  0.68564000  1.0
  C  C81  1  0.22592000  0.57971000  0.31436000  1.0
  C  C82  1  0.92298000  0.41557000  0.64924000  1.0
  C  C83  1  0.42298000  0.58443000  0.35076000  1.0
  C  C84  1  0.90006000  0.42174000  0.57034000  1.0
  C  C85  1  0.40006000  0.57826000  0.42966000  1.0
  C  C86  1  0.75873000  0.30099000  0.53126000  1.0
  C  C87  1  0.25873000  0.69901000  0.46874000  1.0
  C  C88  1  0.57232000  0.30679000  0.57296000  1.0
  C  C89  1  0.07232000  0.69321000  0.42704000  1.0
  C  C90  1  0.43732000  0.17415000  0.53969000  1.0
  C  C91  1  0.93732000  0.82585000  0.46031000  1.0
  O  O92  1  0.71387000  0.67825000  0.80715000  1.0
  O  O93  1  0.21387000  0.32176000  0.19285000  1.0
  O  O94  1  0.74449000  0.11967000  0.72345000  1.0
  O  O95  1  0.24449000  0.88033000  0.27655000  1.0
  O  O96  1  0.77181000  0.08573000  0.85777000  1.0
  O  O97  1  0.27182000  0.91427000  0.14223000  1.0
  O  O98  1  0.77445000  0.56697000  0.23175000  1.0
  O  O99  1  0.27445000  0.43303000  0.76825000  1.0
  O  O100  1  0.70287000  0.01686000  0.21664000  1.0
  O  O101  1  0.20286000  0.98314000  0.78336000  1.0
  O  O102  1  0.78186000  0.84452000  0.28185000  1.0
  O  O103  1  0.28186000  0.15548000  0.71815000  1.0
  O  O104  1  0.72498000  0.79025000  0.93496000  1.0
  O  O105  1  0.22498000  0.20975000  0.06504000  1.0
  O  O106  1  0.77360000  0.20898000  0.98990000  1.0
  O  O107  1  0.27360000  0.79102000  0.01010000  1.0
  O  O108  1  0.61066000  0.29383000  0.64522000  1.0
  O  O109  1  0.11066000  0.70617000  0.35478000  1.0
  O  O110  1  0.03578000  0.54608000  0.68327000  1.0
  O  O111  1  0.53578000  0.45392000  0.31673000  1.0
  O  O112  1  0.07734000  0.39477000  0.53341000  1.0
  O  O113  1  0.57734000  0.60523000  0.46659000  1.0
  O  O114  1  0.72662000  0.33025000  0.46153000  1.0
  O  O115  1  0.22662000  0.66975000  0.53847000  1.0
  O  O116  1  0.52823000  0.02571000  0.51530000  1.0
  O  O117  1  0.02823000  0.97429000  0.48470000  1.0
  O  O118  1  0.11609000  0.93852000  0.61683000  1.0
  O  O119  1  0.61609000  0.06148000  0.38317000  1.0
  O  O120  1  0.59868000  0.81426000  0.59892000  1.0
  O  O121  1  0.09868000  0.18574000  0.40108000  1.0
