# generated using pymatgen
data_CoH10C14(SN2)2
_symmetry_space_group_name_H-M   'P 1'
_cell_length_a   9.08694000
_cell_length_b   9.35272000
_cell_length_c   10.16960000
_cell_angle_alpha   115.07700000
_cell_angle_beta   110.34600000
_cell_angle_gamma   92.49940000
_symmetry_Int_Tables_number   1
_chemical_formula_structural   CoH10C14(SN2)2
_chemical_formula_sum   'Co2 H20 C28 S4 N8'
_cell_volume   715.18175352
_cell_formula_units_Z   2
loop_
 _symmetry_equiv_pos_site_id
 _symmetry_equiv_pos_as_xyz
  1  'x, y, z'
loop_
 _atom_site_type_symbol
 _atom_site_label
 _atom_site_symmetry_multiplicity
 _atom_site_fract_x
 _atom_site_fract_y
 _atom_site_fract_z
 _atom_site_occupancy
  Co  Co0  1  0.00000000  0.50000000  0.00000000  1.0
  Co  Co1  1  0.50000000  0.00000000  0.50000000  1.0
  H  H2  1  0.34348000  0.51644000  0.15679000  1.0
  H  H3  1  0.65653000  0.48355000  0.84322000  1.0
  H  H4  1  0.52196000  0.32512000  0.14915000  1.0
  H  H5  1  0.47804000  0.67487000  0.85085000  1.0
  H  H6  1  0.10586000  0.94051000  0.78327000  1.0
  H  H7  1  0.89413000  0.05949000  0.21672000  1.0
  H  H8  1  0.94320000  0.14851000  0.80847000  1.0
  H  H9  1  0.05680000  0.85149000  0.19152000  1.0
  H  H10  1  0.35567000  0.86672000  0.85692000  1.0
  H  H11  1  0.64432000  0.13327000  0.14307000  1.0
  H  H12  1  0.63954000  0.87139000  0.72101000  1.0
  H  H13  1  0.36045000  0.12862000  0.27899000  1.0
  H  H14  1  0.82908000  0.69286000  0.74911000  1.0
  H  H15  1  0.17091000  0.30715000  0.25089000  1.0
  H  H16  1  0.86013000  0.64378000  0.31722000  1.0
  H  H17  1  0.13987000  0.35622000  0.68278000  1.0
  H  H18  1  0.67534000  0.82790000  0.31065000  1.0
  H  H19  1  0.32467000  0.17210000  0.68936000  1.0
  H  H20  1  0.00048000  0.53355000  0.66185000  1.0
  H  H21  1  0.99952000  0.46645000  0.33816000  1.0
  C  C22  1  0.29535000  0.38771000  0.07625000  1.0
  C  C23  1  0.70465000  0.61229000  0.92375000  1.0
  C  C24  1  0.39426000  0.27867000  0.07141000  1.0
  C  C25  1  0.60574000  0.72132000  0.92858000  1.0
  C  C26  1  0.32951000  0.11208000  0.96579000  1.0
  C  C27  1  0.67049000  0.88791000  0.03420000  1.0
  C  C28  1  0.16357000  0.06698000  0.86873000  1.0
  C  C29  1  0.83642000  0.93302000  0.13126000  1.0
  C  C30  1  0.07160000  0.18248000  0.88146000  1.0
  C  C31  1  0.92840000  0.81752000  0.11854000  1.0
  C  C32  1  0.42195000  0.98793000  0.95227000  1.0
  C  C33  1  0.57804000  0.01206000  0.04772000  1.0
  C  C34  1  0.69190000  0.81923000  0.63491000  1.0
  C  C35  1  0.30810000  0.18077000  0.36509000  1.0
  C  C36  1  0.79718000  0.71873000  0.64909000  1.0
  C  C37  1  0.20282000  0.28128000  0.35092000  1.0
  C  C38  1  0.86155000  0.64920000  0.53483000  1.0
  C  C39  1  0.13845000  0.35080000  0.46518000  1.0
  C  C40  1  0.81504000  0.69019000  0.41012000  1.0
  C  C41  1  0.18496000  0.30981000  0.58988000  1.0
  C  C42  1  0.71095000  0.79334000  0.40475000  1.0
  C  C43  1  0.28905000  0.20667000  0.59525000  1.0
  C  C44  1  0.96961000  0.54300000  0.55282000  1.0
  C  C45  1  0.03039000  0.45700000  0.44719000  1.0
  C  C46  1  0.19086000  0.69648000  0.35453000  1.0
  C  C47  1  0.80914000  0.30352000  0.64547000  1.0
  C  C48  1  0.67832000  0.20708000  0.85467000  1.0
  C  C49  1  0.32169000  0.79292000  0.14533000  1.0
  S  S50  1  0.29960000  0.82041000  0.53956000  1.0
  S  S51  1  0.70040000  0.17959000  0.46044000  1.0
  S  S52  1  0.79798000  0.32240000  0.03924000  1.0
  S  S53  1  0.20203000  0.67760000  0.96077000  1.0
  N  N54  1  0.13503000  0.34197000  0.98398000  1.0
  N  N55  1  0.86498000  0.65803000  0.01602000  1.0
  N  N56  1  0.64831000  0.85780000  0.51472000  1.0
  N  N57  1  0.35169000  0.14221000  0.48528000  1.0
  N  N58  1  0.11180000  0.60725000  0.21850000  1.0
  N  N59  1  0.88820000  0.39275000  0.78150000  1.0
  N  N60  1  0.59543000  0.12528000  0.71828000  1.0
  N  N61  1  0.40458000  0.87472000  0.28173000  1.0
