# generated using pymatgen
data_CuH4C6N5
_symmetry_space_group_name_H-M   'P 1'
_cell_length_a   3.63087000
_cell_length_b   13.09130000
_cell_length_c   17.51580000
_cell_angle_alpha   90.00100000
_cell_angle_beta   90.00130000
_cell_angle_gamma   91.06940000
_symmetry_Int_Tables_number   1
_chemical_formula_structural   CuH4C6N5
_chemical_formula_sum   'Cu4 H16 C24 N20'
_cell_volume   832.43014956
_cell_formula_units_Z   4
loop_
 _symmetry_equiv_pos_site_id
 _symmetry_equiv_pos_as_xyz
  1  'x, y, z'
loop_
 _atom_site_type_symbol
 _atom_site_label
 _atom_site_symmetry_multiplicity
 _atom_site_fract_x
 _atom_site_fract_y
 _atom_site_fract_z
 _atom_site_occupancy
  Cu  Cu0  1  0.63845000  0.40349000  0.56178000  1.0
  Cu  Cu1  1  0.36156000  0.09651000  0.06178000  1.0
  Cu  Cu2  1  0.36156000  0.59651000  0.43822000  1.0
  Cu  Cu3  1  0.63844000  0.90349000  0.93822000  1.0
  H  H4  1  0.92433000  0.19464000  0.58197000  1.0
  H  H5  1  0.07568000  0.30536000  0.08197000  1.0
  H  H6  1  0.07567000  0.80536000  0.41803000  1.0
  H  H7  1  0.92431000  0.69464000  0.91803000  1.0
  H  H8  1  0.67682000  0.43740000  0.72357000  1.0
  H  H9  1  0.32318000  0.06260000  0.22357000  1.0
  H  H10  1  0.32318000  0.56260000  0.27643000  1.0
  H  H11  1  0.67682000  0.93740000  0.77643000  1.0
  H  H12  1  0.88192000  0.34194000  0.83973000  1.0
  H  H13  1  0.11808000  0.15805000  0.33972000  1.0
  H  H14  1  0.11808000  0.65806000  0.16028000  1.0
  H  H15  1  0.88193000  0.84195000  0.66028000  1.0
  H  H16  1  0.13071000  0.08867000  0.69256000  1.0
  H  H17  1  0.86929000  0.41133000  0.19256000  1.0
  H  H18  1  0.86929000  0.91133000  0.30744000  1.0
  H  H19  1  0.13071000  0.58867000  0.80744000  1.0
  C  C20  1  0.91731000  0.22421000  0.64017000  1.0
  C  C21  1  0.08269000  0.27579000  0.14017000  1.0
  C  C22  1  0.08269000  0.77580000  0.35983000  1.0
  C  C23  1  0.91730000  0.72421000  0.85983000  1.0
  C  C24  1  0.78358000  0.36036000  0.71937000  1.0
  C  C25  1  0.21642000  0.13964000  0.21937000  1.0
  C  C26  1  0.21642000  0.63964000  0.28063000  1.0
  C  C27  1  0.78358000  0.86037000  0.78063000  1.0
  C  C28  1  0.89644000  0.30715000  0.78338000  1.0
  C  C29  1  0.10355000  0.19285000  0.28337000  1.0
  C  C30  1  0.10355000  0.69285000  0.21663000  1.0
  C  C31  1  0.89645000  0.80715000  0.71662000  1.0
  C  C32  1  0.02665000  0.20761000  0.77525000  1.0
  C  C33  1  0.97334000  0.29238000  0.27525000  1.0
  C  C34  1  0.97334000  0.79239000  0.22475000  1.0
  C  C35  1  0.02666000  0.70761000  0.72475000  1.0
  C  C36  1  0.03260000  0.16585000  0.70140000  1.0
  C  C37  1  0.96740000  0.33415000  0.20140000  1.0
  C  C38  1  0.96740000  0.83415000  0.29860000  1.0
  C  C39  1  0.03259000  0.66586000  0.79860000  1.0
  C  C40  1  0.15262000  0.14949000  0.84056000  1.0
  C  C41  1  0.84737000  0.35050000  0.34056000  1.0
  C  C42  1  0.84738000  0.85051000  0.15944000  1.0
  C  C43  1  0.15263000  0.64950000  0.65944000  1.0
  N  N44  1  0.37083000  0.02832000  0.90612000  1.0
  N  N45  1  0.62917000  0.47168000  0.40612000  1.0
  N  N46  1  0.62916000  0.97168000  0.09388000  1.0
  N  N47  1  0.37083000  0.52832000  0.59388000  1.0
  N  N48  1  0.28911000  0.05454000  0.83501000  1.0
  N  N49  1  0.71089000  0.44546000  0.33501000  1.0
  N  N50  1  0.71089000  0.94546000  0.16499000  1.0
  N  N51  1  0.28911000  0.55454000  0.66499000  1.0
  N  N52  1  0.14930000  0.18279000  0.91361000  1.0
  N  N53  1  0.85070000  0.31721000  0.41361000  1.0
  N  N54  1  0.85070000  0.81721000  0.08639000  1.0
  N  N55  1  0.14930000  0.68279000  0.58639000  1.0
  N  N56  1  0.28587000  0.10610000  0.95366000  1.0
  N  N57  1  0.71413000  0.39390000  0.45366000  1.0
  N  N58  1  0.71413000  0.89390000  0.04634000  1.0
  N  N59  1  0.28587000  0.60610000  0.54634000  1.0
  N  N60  1  0.79376000  0.32061000  0.64802000  1.0
  N  N61  1  0.20624000  0.17939000  0.14802000  1.0
  N  N62  1  0.20624000  0.67939000  0.35198000  1.0
  N  N63  1  0.79376000  0.82061000  0.85198000  1.0
