# generated using pymatgen
data_TbH10C11NO7
_symmetry_space_group_name_H-M   'P 1'
_cell_length_a   8.33570000
_cell_length_b   8.97962000
_cell_length_c   10.50640000
_cell_angle_alpha   105.77000000
_cell_angle_beta   100.49900000
_cell_angle_gamma   97.27450000
_symmetry_Int_Tables_number   1
_chemical_formula_structural   TbH10C11NO7
_chemical_formula_sum   'Tb2 H20 C22 N2 O14'
_cell_volume   731.14093234
_cell_formula_units_Z   2
loop_
 _symmetry_equiv_pos_site_id
 _symmetry_equiv_pos_as_xyz
  1  'x, y, z'
loop_
 _atom_site_type_symbol
 _atom_site_label
 _atom_site_symmetry_multiplicity
 _atom_site_fract_x
 _atom_site_fract_y
 _atom_site_fract_z
 _atom_site_occupancy
  Tb  Tb0  1  0.41817000  0.29110000  0.02808000  1.0
  Tb  Tb1  1  0.58183000  0.70890000  0.97192000  1.0
  H  H2  1  0.74935000  0.19668000  0.37579000  1.0
  H  H3  1  0.25065000  0.80331000  0.62421000  1.0
  H  H4  1  0.65298000  0.29662000  0.58370000  1.0
  H  H5  1  0.34702000  0.70337000  0.41630000  1.0
  H  H6  1  0.75885000  0.76930000  0.56342000  1.0
  H  H7  1  0.24115000  0.23070000  0.43658000  1.0
  H  H8  1  0.85807000  0.67434000  0.35533000  1.0
  H  H9  1  0.14193000  0.32566000  0.64468000  1.0
  H  H10  1  0.94704000  0.16839000  0.27774000  1.0
  H  H11  1  0.05296000  0.83161000  0.72226000  1.0
  H  H12  1  0.99660000  0.20204000  0.13186000  1.0
  H  H13  1  0.00340000  0.79796000  0.86814000  1.0
  H  H14  1  0.00107000  0.41715000  0.09130000  1.0
  H  H15  1  0.99893000  0.58285000  0.90870000  1.0
  H  H16  1  0.03661000  0.57995000  0.23764000  1.0
  H  H17  1  0.96338000  0.42006000  0.76236000  1.0
  H  H18  1  0.54873000  0.15090000  0.78738000  1.0
  H  H19  1  0.45127000  0.84910000  0.21263000  1.0
  H  H20  1  0.53196000  0.32423000  0.78040000  1.0
  H  H21  1  0.46804000  0.67577000  0.21960000  1.0
  C  C22  1  0.81965000  0.42779000  0.35099000  1.0
  C  C23  1  0.18035000  0.57221000  0.64901000  1.0
  C  C24  1  0.75620000  0.32294000  0.41708000  1.0
  C  C25  1  0.24380000  0.67706000  0.58291000  1.0
  C  C26  1  0.70112000  0.37924000  0.53449000  1.0
  C  C27  1  0.29888000  0.62076000  0.46550000  1.0
  C  C28  1  0.70417000  0.54073000  0.59103000  1.0
  C  C29  1  0.29582000  0.45926000  0.40897000  1.0
  C  C30  1  0.75960000  0.64420000  0.52227000  1.0
  C  C31  1  0.24040000  0.35580000  0.47773000  1.0
  C  C32  1  0.81557000  0.59004000  0.40494000  1.0
  C  C33  1  0.18443000  0.40996000  0.59506000  1.0
  C  C34  1  0.65429000  0.59953000  0.71940000  1.0
  C  C35  1  0.34571000  0.40046000  0.28060000  1.0
  C  C36  1  0.90126000  0.21139000  0.19197000  1.0
  C  C37  1  0.09874000  0.78862000  0.80803000  1.0
  C  C38  1  0.74350000  0.09777000  0.10230000  1.0
  C  C39  1  0.25651000  0.90224000  0.89770000  1.0
  C  C40  1  0.94080000  0.48039000  0.16899000  1.0
  C  C41  1  0.05920000  0.51962000  0.83101000  1.0
  C  C42  1  0.80963000  0.55000000  0.09545000  1.0
  C  C43  1  0.19037000  0.45000000  0.90455000  1.0
  N  N44  1  0.88390000  0.37411000  0.23909000  1.0
  N  N45  1  0.11611000  0.62589000  0.76091000  1.0
  O  O46  1  0.62167000  0.15486000  0.05757000  1.0
  O  O47  1  0.37833000  0.84515000  0.94243000  1.0
  O  O48  1  0.74874000  0.95291000  0.07704000  1.0
  O  O49  1  0.25126000  0.04709000  0.92296000  1.0
  O  O50  1  0.65367000  0.49485000  0.07236000  1.0
  O  O51  1  0.34633000  0.50515000  0.92764000  1.0
  O  O52  1  0.85929000  0.66605000  0.05682000  1.0
  O  O53  1  0.14071000  0.33395000  0.94318000  1.0
  O  O54  1  0.60841000  0.50251000  0.78375000  1.0
  O  O55  1  0.39159000  0.49748000  0.21625000  1.0
  O  O56  1  0.66006000  0.74689000  0.77460000  1.0
  O  O57  1  0.33994000  0.25311000  0.22540000  1.0
  O  O58  1  0.47953000  0.23038000  0.80317000  1.0
  O  O59  1  0.52047000  0.76961000  0.19683000  1.0
