# generated using pymatgen
data_ZnH20C26(NO3)2
_symmetry_space_group_name_H-M   'P 1'
_cell_length_a   8.47672000
_cell_length_b   11.46103281
_cell_length_c   13.55880000
_cell_angle_alpha   90.00007396
_cell_angle_beta   90.00010000
_cell_angle_gamma   68.30919629
_symmetry_Int_Tables_number   1
_chemical_formula_structural   ZnH20C26(NO3)2
_chemical_formula_sum   'Zn2 H40 C52 N4 O12'
_cell_volume   1223.99111834
_cell_formula_units_Z   2
loop_
 _symmetry_equiv_pos_site_id
 _symmetry_equiv_pos_as_xyz
  1  'x, y, z'
loop_
 _atom_site_type_symbol
 _atom_site_label
 _atom_site_symmetry_multiplicity
 _atom_site_fract_x
 _atom_site_fract_y
 _atom_site_fract_z
 _atom_site_occupancy
  Zn  Zn0  1  0.63406000  0.99998000  0.99988000  1.0
  Zn  Zn1  1  0.13405000  0.99999000  0.50012000  1.0
  H  H2  1  0.12728000  0.39292000  0.67134000  1.0
  H  H3  1  0.52032000  0.60703000  0.32855000  1.0
  H  H4  1  0.62728000  0.39292000  0.82866000  1.0
  H  H5  1  0.02033000  0.60703000  0.17145000  1.0
  H  H6  1  0.00566000  0.29635000  0.66824000  1.0
  H  H7  1  0.30224000  0.70376000  0.33174000  1.0
  H  H8  1  0.50566000  0.29635000  0.83176000  1.0
  H  H9  1  0.80224000  0.70376000  0.16826000  1.0
  H  H10  1  0.44018000  0.78135000  0.76216000  1.0
  H  H11  1  0.22154000  0.21853000  0.23780000  1.0
  H  H12  1  0.94018000  0.78135000  0.73784000  1.0
  H  H13  1  0.72153000  0.21853000  0.26220000  1.0
  H  H14  1  0.31598000  0.13041000  0.67370000  1.0
  H  H15  1  0.44666000  0.86960000  0.32614000  1.0
  H  H16  1  0.81598000  0.13041000  0.82630000  1.0
  H  H17  1  0.94666000  0.86960000  0.17387000  1.0
  H  H18  1  0.07796000  0.36684000  0.92120000  1.0
  H  H19  1  0.44475000  0.63312000  0.07871000  1.0
  H  H20  1  0.57796000  0.36684000  0.57880000  1.0
  H  H21  1  0.94475000  0.63312000  0.42129000  1.0
  H  H22  1  0.67587000  0.63714000  0.48534000  1.0
  H  H23  1  0.31249000  0.36299000  0.51464000  1.0
  H  H24  1  0.17587000  0.63714000  0.01466000  1.0
  H  H25  1  0.81249000  0.36299000  0.98536000  1.0
  H  H26  1  0.90960000  0.46888000  0.57118000  1.0
  H  H27  1  0.37815000  0.53127000  0.42884000  1.0
  H  H28  1  0.40960000  0.46888000  0.92882000  1.0
  H  H29  1  0.87815000  0.53127000  0.07116000  1.0
  H  H30  1  0.67888000  0.61603000  0.85104000  1.0
  H  H31  1  0.29473000  0.38400000  0.14896000  1.0
  H  H32  1  0.17888000  0.61603000  0.64896000  1.0
  H  H33  1  0.79473000  0.38400000  0.35104000  1.0
  H  H34  1  0.53452000  0.99313000  0.79182000  1.0
  H  H35  1  0.52815000  0.00676000  0.20793000  1.0
  H  H36  1  0.03452000  0.99313000  0.70818000  1.0
  H  H37  1  0.02816000  0.00675000  0.29207000  1.0
  H  H38  1  0.30178000  0.21790000  0.02935000  1.0
  H  H39  1  0.51972000  0.78196000  0.97048000  1.0
  H  H40  1  0.80178000  0.21790000  0.47065000  1.0
  H  H41  1  0.01973000  0.78196000  0.52952000  1.0
  C  C42  1  0.40514000  0.81457000  0.56115000  1.0
  C  C43  1  0.21952000  0.18546000  0.43889000  1.0
  C  C44  1  0.90514000  0.81457000  0.93885000  1.0
  C  C45  1  0.71952000  0.18546000  0.06111000  1.0
  C  C46  1  0.80691000  0.53196000  0.71719000  1.0
  C  C47  1  0.33857000  0.46815000  0.28283000  1.0
  C  C48  1  0.30691000  0.53196000  0.78281000  1.0
  C  C49  1  0.83856000  0.46815000  0.21717000  1.0
  C  C50  1  0.05852000  0.34850000  0.71798000  1.0
  C  C51  1  0.40711000  0.65152000  0.28198000  1.0
  C  C52  1  0.55852000  0.34850000  0.78203000  1.0
  C  C53  1  0.90711000  0.65152000  0.21802000  1.0
  C  C54  1  0.54450000  0.71327000  0.72128000  1.0
  C  C55  1  0.25747000  0.28676000  0.27870000  1.0
  C  C56  1  0.04450000  0.71327000  0.77871000  1.0
  C  C57  1  0.75746000  0.28677000  0.22130000  1.0
  C  C58  1  0.30916000  0.15273000  0.75207000  1.0
  C  C59  1  0.46219000  0.84722000  0.24777000  1.0
  C  C60  1  0.80916000  0.15273000  0.74793000  1.0
  C  C61  1  0.96219000  0.84722000  0.25223000  1.0
  C  C62  1  0.54364000  0.71888000  0.61776000  1.0
  C  C63  1  0.26215000  0.28120000  0.38221000  1.0
  C  C64  1  0.04364000  0.71888000  0.88224000  1.0
  C  C65  1  0.76215000  0.28120000  0.11779000  1.0
  C  C66  1  0.17574000  0.28442000  0.88993000  1.0
  C  C67  1  0.46026000  0.71551000  0.10996000  1.0
  C  C68  1  0.67573000  0.28443000  0.61007000  1.0
  C  C69  1  0.96027000  0.71550000  0.39004000  1.0
  C  C70  1  0.67740000  0.63090000  0.56555000  1.0
  C  C71  1  0.30789000  0.36924000  0.43444000  1.0
  C  C72  1  0.17740000  0.63090000  0.93445000  1.0
  C  C73  1  0.80789000  0.36924000  0.06556000  1.0
  C  C74  1  0.80878000  0.53731000  0.61382000  1.0
  C  C75  1  0.34577000  0.46282000  0.38620000  1.0
  C  C76  1  0.30878000  0.53731000  0.88618000  1.0
  C  C77  1  0.84577000  0.46282000  0.11380000  1.0
  C  C78  1  0.18098000  0.26065000  0.78863000  1.0
  C  C79  1  0.44180000  0.73929000  0.21126000  1.0
  C  C80  1  0.68098000  0.26066000  0.71137000  1.0
  C  C81  1  0.94180000  0.73929000  0.28874000  1.0
  C  C82  1  0.67550000  0.62130000  0.77070000  1.0
  C  C83  1  0.29651000  0.37876000  0.22931000  1.0
  C  C84  1  0.17550000  0.62130000  0.72930000  1.0
  C  C85  1  0.79651000  0.37876000  0.27068000  1.0
  C  C86  1  0.42945000  0.07617000  0.81691000  1.0
  C  C87  1  0.50606000  0.92370000  0.18290000  1.0
  C  C88  1  0.92945000  0.07617000  0.68309000  1.0
  C  C89  1  0.00606000  0.92370000  0.31711000  1.0
  C  C90  1  0.30011000  0.20215000  0.95002000  1.0
  C  C91  1  0.50242000  0.79771000  0.04981000  1.0
  C  C92  1  0.80011000  0.20215000  0.54998000  1.0
  C  C93  1  0.00243000  0.79771000  0.45019000  1.0
  N  N94  1  0.42652000  0.10104000  0.91432000  1.0
  N  N95  1  0.52787000  0.89880000  0.08548000  1.0
  N  N96  1  0.92652000  0.10104000  0.58568000  1.0
  N  N97  1  0.02787000  0.89880000  0.41452000  1.0
  O  O98  1  0.92657000  0.44199000  0.77164000  1.0
  O  O99  1  0.36840000  0.55808000  0.22837000  1.0
  O  O100  1  0.42657000  0.44199000  0.72836000  1.0
  O  O101  1  0.86840000  0.55808000  0.27163000  1.0
  O  O102  1  0.27699000  0.89202000  0.60943000  1.0
  O  O103  1  0.16873000  0.10798000  0.39068000  1.0
  O  O104  1  0.77699000  0.89202000  0.89057000  1.0
  O  O105  1  0.66873000  0.10798000  0.10932000  1.0
  O  O106  1  0.41430000  0.81780000  0.46842000  1.0
  O  O107  1  0.23211000  0.18219000  0.53159000  1.0
  O  O108  1  0.91431000  0.81780000  0.03158000  1.0
  O  O109  1  0.73211000  0.18219000  0.96840000  1.0
