# generated using pymatgen
data_CoPH10C3NO8
_symmetry_space_group_name_H-M   'P 1'
_cell_length_a   5.35961000
_cell_length_b   7.79497000
_cell_length_c   9.84227000
_cell_angle_alpha   90.00180000
_cell_angle_beta   90.00010000
_cell_angle_gamma   97.75600000
_symmetry_Int_Tables_number   1
_chemical_formula_structural   CoPH10C3NO8
_chemical_formula_sum   'Co2 P2 H20 C6 N2 O16'
_cell_volume   407.42868389
_cell_formula_units_Z   2
loop_
 _symmetry_equiv_pos_site_id
 _symmetry_equiv_pos_as_xyz
  1  'x, y, z'
loop_
 _atom_site_type_symbol
 _atom_site_label
 _atom_site_symmetry_multiplicity
 _atom_site_fract_x
 _atom_site_fract_y
 _atom_site_fract_z
 _atom_site_occupancy
  Co  Co0  1  0.18583000  0.51837000  0.06591000  1.0
  Co  Co1  1  0.81416000  0.48162000  0.56590000  1.0
  P  P2  1  0.68407000  0.37900000  0.24502000  1.0
  P  P3  1  0.31588000  0.62101000  0.74502000  1.0
  H  H4  1  0.71511000  0.53890000  0.00831000  1.0
  H  H5  1  0.28484000  0.46104000  0.50832000  1.0
  H  H6  1  0.89084000  0.56797000  0.87194000  1.0
  H  H7  1  0.10911000  0.43198000  0.37195000  1.0
  H  H8  1  0.27647000  0.24059000  0.92760000  1.0
  H  H9  1  0.72352000  0.75939000  0.42755000  1.0
  H  H10  1  0.98468000  0.26677000  0.90386000  1.0
  H  H11  1  0.01531000  0.73319000  0.40381000  1.0
  H  H12  1  0.62622000  0.02132000  0.98675000  1.0
  H  H13  1  0.37368000  0.97866000  0.48678000  1.0
  H  H14  1  0.54158000  0.80232000  0.97695000  1.0
  H  H15  1  0.45854000  0.19764000  0.47699000  1.0
  H  H16  1  0.84292000  0.88295000  0.97609000  1.0
  H  H17  1  0.15713000  0.11718000  0.47611000  1.0
  H  H18  1  0.81760000  0.05057000  0.33810000  1.0
  H  H19  1  0.18244000  0.94949000  0.83815000  1.0
  H  H20  1  0.99314000  0.10491000  0.18416000  1.0
  H  H21  1  0.00686000  0.89512000  0.68422000  1.0
  H  H22  1  0.82480000  0.79318000  0.18849000  1.0
  H  H23  1  0.17524000  0.20685000  0.68852000  1.0
  C  C24  1  0.80538000  0.06172000  0.22680000  1.0
  C  C25  1  0.19465000  0.93827000  0.72685000  1.0
  C  C26  1  0.69438000  0.88772000  0.16879000  1.0
  C  C27  1  0.30560000  0.11228000  0.66883000  1.0
  C  C28  1  0.43828000  0.82201000  0.23382000  1.0
  C  C29  1  0.56170000  0.17805000  0.73384000  1.0
  N  N30  1  0.67374000  0.90225000  0.01826000  1.0
  N  N31  1  0.32627000  0.09776000  0.51829000  1.0
  O  O32  1  0.87754000  0.59449000  0.97125000  1.0
  O  O33  1  0.12240000  0.40542000  0.47126000  1.0
  O  O34  1  0.51846000  0.47433000  0.15499000  1.0
  O  O35  1  0.48147000  0.52569000  0.65496000  1.0
  O  O36  1  0.11874000  0.26904000  0.97213000  1.0
  O  O37  1  0.88123000  0.73092000  0.47207000  1.0
  O  O38  1  0.96674000  0.44611000  0.22859000  1.0
  O  O39  1  0.03325000  0.55393000  0.72856000  1.0
  O  O40  1  0.63476000  0.18092000  0.18943000  1.0
  O  O41  1  0.36530000  0.81912000  0.68947000  1.0
  O  O42  1  0.61532000  0.37050000  0.39678000  1.0
  O  O43  1  0.38469000  0.62942000  0.89677000  1.0
  O  O44  1  0.24828000  0.78693000  0.15780000  1.0
  O  O45  1  0.75176000  0.21309000  0.65782000  1.0
  O  O46  1  0.43943000  0.80779000  0.36287000  1.0
  O  O47  1  0.56062000  0.19225000  0.86289000  1.0
