# generated using pymatgen
data_CdH9C14N5O4
_symmetry_space_group_name_H-M   'P 1'
_cell_length_a   9.90024000
_cell_length_b   10.06460000
_cell_length_c   14.79470000
_cell_angle_alpha   83.82580000
_cell_angle_beta   83.29860000
_cell_angle_gamma   80.06660000
_symmetry_Int_Tables_number   1
_chemical_formula_structural   CdH9C14N5O4
_chemical_formula_sum   'Cd4 H36 C56 N20 O16'
_cell_volume   1436.38275822
_cell_formula_units_Z   4
loop_
 _symmetry_equiv_pos_site_id
 _symmetry_equiv_pos_as_xyz
  1  'x, y, z'
loop_
 _atom_site_type_symbol
 _atom_site_label
 _atom_site_symmetry_multiplicity
 _atom_site_fract_x
 _atom_site_fract_y
 _atom_site_fract_z
 _atom_site_occupancy
  Cd  Cd0  1  0.19459000  0.25403000  0.15829000  1.0
  Cd  Cd1  1  0.80541000  0.74597000  0.84171000  1.0
  Cd  Cd2  1  0.98925000  0.99450000  0.31669000  1.0
  Cd  Cd3  1  0.01075000  0.00550000  0.68331000  1.0
  H  H4  1  0.02803000  0.46634000  0.31119000  1.0
  H  H5  1  0.97197000  0.53366000  0.68881000  1.0
  H  H6  1  0.22717000  0.65333000  0.49536000  1.0
  H  H7  1  0.77283000  0.34667000  0.50464000  1.0
  H  H8  1  0.23722000  0.22004000  0.52554000  1.0
  H  H9  1  0.76278000  0.77996000  0.47447000  1.0
  H  H10  1  0.75356000  0.27048000  0.85395000  1.0
  H  H11  1  0.24644000  0.72952000  0.14605000  1.0
  H  H12  1  0.50676000  0.09670000  0.69236000  1.0
  H  H13  1  0.49324000  0.90330000  0.30764000  1.0
  H  H14  1  0.48005000  0.52953000  0.67829000  1.0
  H  H15  1  0.51995000  0.47047000  0.32171000  1.0
  H  H16  1  0.41126000  0.21120000  0.92571000  1.0
  H  H17  1  0.58874000  0.78880000  0.07429000  1.0
  H  H18  1  0.26264000  0.25123000  0.77239000  1.0
  H  H19  1  0.73736000  0.74877000  0.22761000  1.0
  H  H20  1  0.64514000  0.44856000  0.09605000  1.0
  H  H21  1  0.35486000  0.55144000  0.90395000  1.0
  H  H22  1  0.82119000  0.36786000  0.23273000  1.0
  H  H23  1  0.17881000  0.63214000  0.76727000  1.0
  H  H24  1  0.96962000  0.01389000  0.06449000  1.0
  H  H25  1  0.03038000  0.98611000  0.93551000  1.0
  H  H26  1  0.70758000  0.06693000  0.00346000  1.0
  H  H27  1  0.29242000  0.93307000  0.99654000  1.0
  H  H28  1  0.47606000  0.20947000  0.48877000  1.0
  H  H29  1  0.52394000  0.79053000  0.51123000  1.0
  H  H30  1  0.74098000  0.08232000  0.52251000  1.0
  H  H31  1  0.25903000  0.91768000  0.47748000  1.0
  H  H32  1  0.80058000  0.42568000  0.94553000  1.0
  H  H33  1  0.19942000  0.57432000  0.05446000  1.0
  H  H34  1  0.02185000  0.31871000  0.82791000  1.0
  H  H35  1  0.97815000  0.68129000  0.17209000  1.0
  H  H36  1  0.47563000  0.21655000  0.31409000  1.0
  H  H37  1  0.52437000  0.78345000  0.68591000  1.0
  H  H38  1  0.54129000  0.09393000  0.15245000  1.0
  H  H39  1  0.45871000  0.90607000  0.84755000  1.0
  C  C40  1  0.13229000  0.32945000  0.41373000  1.0
  C  C41  1  0.86771000  0.67055000  0.58627000  1.0
  C  C42  1  0.08930000  0.45706000  0.36873000  1.0
  C  C43  1  0.91070000  0.54294000  0.63127000  1.0
  C  C44  1  0.12216000  0.57385000  0.39805000  1.0
  C  C45  1  0.87784000  0.42615000  0.60195000  1.0
  C  C46  1  0.20041000  0.56293000  0.47211000  1.0
  C  C47  1  0.79959000  0.43707000  0.52789000  1.0
  C  C48  1  0.24546000  0.43543000  0.51621000  1.0
  C  C49  1  0.75453000  0.56457000  0.48379000  1.0
  C  C50  1  0.20838000  0.31839000  0.48839000  1.0
  C  C51  1  0.79162000  0.68161000  0.51161000  1.0
  C  C52  1  0.09350000  0.20515000  0.38353000  1.0
  C  C53  1  0.90650000  0.79485000  0.61647000  1.0
  C  C54  1  0.07161000  0.71015000  0.35117000  1.0
  C  C55  1  0.92838000  0.28985000  0.64883000  1.0
  C  C56  1  0.61816000  0.41414000  0.77173000  1.0
  C  C57  1  0.38184000  0.58586000  0.22827000  1.0
  C  C58  1  0.67356000  0.28392000  0.80768000  1.0
  C  C59  1  0.32644000  0.71608000  0.19232000  1.0
  C  C60  1  0.63208000  0.16902000  0.78123000  1.0
  C  C61  1  0.36792000  0.83097000  0.21877000  1.0
  C  C62  1  0.53684000  0.18470000  0.71676000  1.0
  C  C63  1  0.46316000  0.81530000  0.28324000  1.0
  C  C64  1  0.48185000  0.31446000  0.68022000  1.0
  C  C65  1  0.51815000  0.68554000  0.31978000  1.0
  C  C66  1  0.52152000  0.42944000  0.70834000  1.0
  C  C67  1  0.47848000  0.57056000  0.29166000  1.0
  C  C68  1  0.67006000  0.53622000  0.79532000  1.0
  C  C69  1  0.32994000  0.46378000  0.20468000  1.0
  C  C70  1  0.69996000  0.03054000  0.81519000  1.0
  C  C71  1  0.30004000  0.96946000  0.18482000  1.0
  C  C72  1  0.30189000  0.24296000  0.92062000  1.0
  C  C73  1  0.69811000  0.75704000  0.07938000  1.0
  C  C74  1  0.23164000  0.26318000  0.84385000  1.0
  C  C75  1  0.76836000  0.73682000  0.15615000  1.0
  C  C76  1  0.08492000  0.30609000  0.96548000  1.0
  C  C77  1  0.91508000  0.69391000  0.03452000  1.0
  C  C78  1  0.96417000  0.34159000  0.02799000  1.0
  C  C79  1  0.03583000  0.65841000  0.97201000  1.0
  C  C80  1  0.75418000  0.40822000  0.09210000  1.0
  C  C81  1  0.24582000  0.59178000  0.90790000  1.0
  C  C82  1  0.84257000  0.36921000  0.15908000  1.0
  C  C83  1  0.15743000  0.63079000  0.84092000  1.0
  C  C84  1  0.86902000  0.03743000  0.10159000  1.0
  C  C85  1  0.13098000  0.96257000  0.89841000  1.0
  C  C86  1  0.73971000  0.06536000  0.07112000  1.0
  C  C87  1  0.26029000  0.93464000  0.92888000  1.0
  C  C88  1  0.72165000  0.07618000  0.22025000  1.0
  C  C89  1  0.27835000  0.92382000  0.77975000  1.0
  C  C90  1  0.67541000  0.09716000  0.31422000  1.0
  C  C91  1  0.32459000  0.90284000  0.68578000  1.0
  C  C92  1  0.56106000  0.16414000  0.44296000  1.0
  C  C93  1  0.43894000  0.83586000  0.55704000  1.0
  C  C94  1  0.69194000  0.10034000  0.45950000  1.0
  C  C95  1  0.30806000  0.89966000  0.54050000  1.0
  N  N96  1  0.32869000  0.43447000  0.58761000  1.0
  N  N97  1  0.67131000  0.56553000  0.41239000  1.0
  N  N98  1  0.39158000  0.31802000  0.61246000  1.0
  N  N99  1  0.60842000  0.68198000  0.38755000  1.0
  N  N100  1  0.97259000  0.32808000  0.11831000  1.0
  N  N101  1  0.02741000  0.67192000  0.88169000  1.0
  N  N102  1  0.21000000  0.26960000  0.99598000  1.0
  N  N103  1  0.79000000  0.73040000  0.00401000  1.0
  N  N104  1  0.83250000  0.38987000  0.00975000  1.0
  N  N105  1  0.16750000  0.61013000  0.99025000  1.0
  N  N106  1  0.09564000  0.30293000  0.87333000  1.0
  N  N107  1  0.90436000  0.69707000  0.12666000  1.0
  N  N108  1  0.76190000  0.05877000  0.37898000  1.0
  N  N109  1  0.23810000  0.94122000  0.62102000  1.0
  N  N110  1  0.85647000  0.04398000  0.19418000  1.0
  N  N111  1  0.14353000  0.95602000  0.80582000  1.0
  N  N112  1  0.55199000  0.16116000  0.35086000  1.0
  N  N113  1  0.44801000  0.83884000  0.64914000  1.0
  N  N114  1  0.64738000  0.08981000  0.14719000  1.0
  N  N115  1  0.35262000  0.91019000  0.85281000  1.0
  O  O116  1  0.06829000  0.20792000  0.29877000  1.0
  O  O117  1  0.93171000  0.79209000  0.70123000  1.0
  O  O118  1  0.08274000  0.10379000  0.43909000  1.0
  O  O119  1  0.91726000  0.89621000  0.56091000  1.0
  O  O120  1  0.98849000  0.72024000  0.29116000  1.0
  O  O121  1  0.01151000  0.27976000  0.70884000  1.0
  O  O122  1  0.11553000  0.81127000  0.37708000  1.0
  O  O123  1  0.88446000  0.18873000  0.62292000  1.0
  O  O124  1  0.62131000  0.65373000  0.76266000  1.0
  O  O125  1  0.37869000  0.34627000  0.23733000  1.0
  O  O126  1  0.76802000  0.51705000  0.84773000  1.0
  O  O127  1  0.23198000  0.48294000  0.15227000  1.0
  O  O128  1  0.63214000  0.93099000  0.81900000  1.0
  O  O129  1  0.36785000  0.06901000  0.18100000  1.0
  O  O130  1  0.82219000  0.01497000  0.83589000  1.0
  O  O131  1  0.17781000  0.98503000  0.16411000  1.0
