# generated using pymatgen
data_ZnH16(C11N6)2
_symmetry_space_group_name_H-M   'P 1'
_cell_length_a   10.37720000
_cell_length_b   10.37720000
_cell_length_c   11.97740000
_cell_angle_alpha   70.75520000
_cell_angle_beta   70.75470000
_cell_angle_gamma   66.75710000
_symmetry_Int_Tables_number   1
_chemical_formula_structural   ZnH16(C11N6)2
_chemical_formula_sum   'Zn2 H32 C44 N24'
_cell_volume   1088.89343101
_cell_formula_units_Z   2
loop_
 _symmetry_equiv_pos_site_id
 _symmetry_equiv_pos_as_xyz
  1  'x, y, z'
loop_
 _atom_site_type_symbol
 _atom_site_label
 _atom_site_symmetry_multiplicity
 _atom_site_fract_x
 _atom_site_fract_y
 _atom_site_fract_z
 _atom_site_occupancy
  Zn  Zn0  1  0.07254000  0.92746000  0.25000000  1.0
  Zn  Zn1  1  0.92746000  0.07254000  0.75000000  1.0
  H  H2  1  0.40941000  0.50108000  0.86677000  1.0
  H  H3  1  0.49891000  0.59059000  0.63323000  1.0
  H  H4  1  0.59058000  0.49892000  0.13323000  1.0
  H  H5  1  0.50108000  0.40941000  0.36677000  1.0
  H  H6  1  0.52462000  0.23662000  0.86694000  1.0
  H  H7  1  0.76338000  0.47538000  0.63306000  1.0
  H  H8  1  0.47538000  0.76338000  0.13306000  1.0
  H  H9  1  0.23662000  0.52462000  0.36694000  1.0
  H  H10  1  0.49326000  0.05636000  0.06587000  1.0
  H  H11  1  0.94364000  0.50674000  0.43413000  1.0
  H  H12  1  0.50675000  0.94364000  0.93413000  1.0
  H  H13  1  0.05636000  0.49325000  0.56587000  1.0
  H  H14  1  0.24988000  0.37768000  0.25318000  1.0
  H  H15  1  0.62232000  0.75013000  0.24682000  1.0
  H  H16  1  0.75012000  0.62232000  0.74682000  1.0
  H  H17  1  0.37768000  0.24987000  0.75318000  1.0
  H  H18  1  0.15162000  0.08147000  0.98657000  1.0
  H  H19  1  0.91853000  0.84837000  0.51343000  1.0
  H  H20  1  0.84837000  0.91853000  0.01343000  1.0
  H  H21  1  0.08147000  0.15163000  0.48657000  1.0
  H  H22  1  0.11634000  0.33426000  0.86996000  1.0
  H  H23  1  0.66574000  0.88365000  0.63004000  1.0
  H  H24  1  0.88365000  0.66574000  0.13004000  1.0
  H  H25  1  0.33427000  0.11635000  0.36996000  1.0
  H  H26  1  0.90925000  0.46237000  0.21433000  1.0
  H  H27  1  0.53764000  0.09076000  0.28567000  1.0
  H  H28  1  0.09076000  0.53764000  0.78566000  1.0
  H  H29  1  0.46236000  0.90924000  0.71433000  1.0
  H  H30  1  0.95192000  0.20568000  0.31440000  1.0
  H  H31  1  0.79433000  0.04809000  0.18561000  1.0
  H  H32  1  0.04809000  0.79433000  0.68560000  1.0
  H  H33  1  0.20567000  0.95191000  0.81439000  1.0
  C  C34  1  0.25659000  0.61012000  0.06682000  1.0
  C  C35  1  0.38988000  0.74341000  0.43318000  1.0
  C  C36  1  0.74341000  0.38987000  0.93318000  1.0
  C  C37  1  0.61012000  0.25660000  0.56682000  1.0
  C  C38  1  0.32131000  0.45931000  0.06036000  1.0
  C  C39  1  0.54069000  0.67869000  0.43964000  1.0
  C  C40  1  0.67869000  0.54069000  0.93964000  1.0
  C  C41  1  0.45931000  0.32131000  0.56036000  1.0
  C  C42  1  0.39833000  0.41821000  0.95028000  1.0
  C  C43  1  0.58179000  0.60167000  0.54972000  1.0
  C  C44  1  0.60167000  0.58179000  0.04971000  1.0
  C  C45  1  0.41820000  0.39832000  0.45029000  1.0
  C  C46  1  0.46088000  0.27221000  0.95063000  1.0
  C  C47  1  0.72779000  0.53912000  0.54936000  1.0
  C  C48  1  0.53912000  0.72779000  0.04936000  1.0
  C  C49  1  0.27221000  0.46088000  0.45064000  1.0
  C  C50  1  0.44396000  0.17192000  0.06116000  1.0
  C  C51  1  0.82808000  0.55605000  0.43884000  1.0
  C  C52  1  0.55604000  0.82808000  0.93884000  1.0
  C  C53  1  0.17192000  0.44395000  0.56116000  1.0
  C  C54  1  0.30992000  0.34958000  0.16595000  1.0
  C  C55  1  0.65042000  0.69008000  0.33405000  1.0
  C  C56  1  0.69008000  0.65042000  0.83404000  1.0
  C  C57  1  0.34958000  0.30992000  0.66596000  1.0
  C  C58  1  0.10061000  0.17010000  0.03274000  1.0
  C  C59  1  0.82990000  0.89939000  0.46726000  1.0
  C  C60  1  0.89939000  0.82990000  0.96726000  1.0
  C  C61  1  0.17010000  0.10061000  0.53274000  1.0
  C  C62  1  0.08050000  0.31236000  0.96896000  1.0
  C  C63  1  0.68764000  0.91950000  0.53104000  1.0
  C  C64  1  0.91950000  0.68764000  0.03104000  1.0
  C  C65  1  0.31236000  0.08050000  0.46896000  1.0
  C  C66  1  0.01164000  0.42337000  0.03206000  1.0
  C  C67  1  0.57663000  0.98836000  0.46794000  1.0
  C  C68  1  0.98836000  0.57663000  0.96794000  1.0
  C  C69  1  0.42337000  0.01164000  0.53206000  1.0
  C  C70  1  0.96467000  0.38300000  0.15873000  1.0
  C  C71  1  0.61700000  0.03533000  0.34127000  1.0
  C  C72  1  0.03534000  0.61700000  0.84127000  1.0
  C  C73  1  0.38300000  0.96466000  0.65873000  1.0
  C  C74  1  0.98851000  0.23856000  0.21619000  1.0
  C  C75  1  0.76143000  0.01149000  0.28381000  1.0
  C  C76  1  0.01149000  0.76144000  0.78380000  1.0
  C  C77  1  0.23856000  0.98851000  0.71620000  1.0
  N  N78  1  0.15211000  0.79860000  0.13448000  1.0
  N  N79  1  0.20140000  0.84789000  0.36553000  1.0
  N  N80  1  0.84789000  0.20140000  0.86552000  1.0
  N  N81  1  0.79860000  0.15211000  0.63447000  1.0
  N  N82  1  0.18943000  0.84010000  0.01312000  1.0
  N  N83  1  0.15990000  0.81057000  0.48688000  1.0
  N  N84  1  0.81057000  0.15989000  0.98688000  1.0
  N  N85  1  0.84010000  0.18944000  0.51312000  1.0
  N  N86  1  0.25525000  0.72293000  0.96894000  1.0
  N  N87  1  0.27707000  0.74475000  0.53106000  1.0
  N  N88  1  0.74475000  0.27707000  0.03106000  1.0
  N  N89  1  0.72293000  0.25525000  0.46894000  1.0
  N  N90  1  0.19266000  0.65514000  0.17127000  1.0
  N  N91  1  0.34486000  0.80734000  0.32873000  1.0
  N  N92  1  0.80734000  0.34486000  0.82873000  1.0
  N  N93  1  0.65514000  0.19266000  0.67127000  1.0
  N  N94  1  0.36941000  0.20912000  0.16735000  1.0
  N  N95  1  0.79088000  0.63059000  0.33265000  1.0
  N  N96  1  0.63059000  0.79088000  0.83265000  1.0
  N  N97  1  0.20911000  0.36941000  0.66736000  1.0
  N  N98  1  0.05600000  0.13287000  0.15480000  1.0
  N  N99  1  0.86713000  0.94400000  0.34520000  1.0
  N  N100  1  0.94400000  0.86713000  0.84520000  1.0
  N  N101  1  0.13287000  0.05600000  0.65480000  1.0
