# generated using pymatgen
data_ZnH18C24N3O5
_symmetry_space_group_name_H-M   'P 1'
_cell_length_a   16.31460000
_cell_length_b   16.87510000
_cell_length_c   18.35340000
_cell_angle_alpha   92.14590000
_cell_angle_beta   89.99990000
_cell_angle_gamma   89.99960000
_symmetry_Int_Tables_number   1
_chemical_formula_structural   ZnH18C24N3O5
_chemical_formula_sum   'Zn8 H144 C192 N24 O40'
_cell_volume   5049.34035068
_cell_formula_units_Z   8
loop_
 _symmetry_equiv_pos_site_id
 _symmetry_equiv_pos_as_xyz
  1  'x, y, z'
loop_
 _atom_site_type_symbol
 _atom_site_label
 _atom_site_symmetry_multiplicity
 _atom_site_fract_x
 _atom_site_fract_y
 _atom_site_fract_z
 _atom_site_occupancy
  Zn  Zn0  1  0.50320000  0.72195000  0.22201000  1.0
  Zn  Zn1  1  0.00319000  0.77805000  0.27798000  1.0
  Zn  Zn2  1  0.49681000  0.27805000  0.77799000  1.0
  Zn  Zn3  1  0.99680000  0.22195000  0.72202000  1.0
  Zn  Zn4  1  0.00035000  0.71083000  0.79058000  1.0
  Zn  Zn5  1  0.50035000  0.78917000  0.70942000  1.0
  Zn  Zn6  1  0.99965000  0.28917000  0.20942000  1.0
  Zn  Zn7  1  0.49965000  0.21083000  0.29058000  1.0
  H  H8  1  0.83172000  0.68558000  0.52427000  1.0
  H  H9  1  0.33172000  0.81442000  0.97573000  1.0
  H  H10  1  0.16829000  0.31442000  0.47573000  1.0
  H  H11  1  0.66828000  0.18558000  0.02428000  1.0
  H  H12  1  0.82543000  0.78887000  0.53966000  1.0
  H  H13  1  0.32544000  0.71113000  0.96034000  1.0
  H  H14  1  0.17457000  0.21113000  0.46034000  1.0
  H  H15  1  0.67457000  0.28888000  0.03966000  1.0
  H  H16  1  0.68828000  0.76305000  0.60945000  1.0
  H  H17  1  0.18828000  0.73695000  0.89055000  1.0
  H  H18  1  0.31172000  0.23695000  0.39055000  1.0
  H  H19  1  0.81172000  0.26305000  0.10946000  1.0
  H  H20  1  0.71815000  0.66300000  0.61059000  1.0
  H  H21  1  0.21815000  0.83700000  0.88941000  1.0
  H  H22  1  0.28186000  0.33700000  0.38941000  1.0
  H  H23  1  0.78185000  0.16299000  0.11059000  1.0
  H  H24  1  0.78765000  0.84976000  0.30842000  1.0
  H  H25  1  0.28765000  0.65024000  0.19158000  1.0
  H  H26  1  0.21235000  0.15024000  0.69158000  1.0
  H  H27  1  0.71235000  0.34977000  0.80842000  1.0
  H  H28  1  0.82697000  0.76124000  0.39348000  1.0
  H  H29  1  0.32698000  0.73876000  0.10652000  1.0
  H  H30  1  0.17302000  0.23876000  0.60652000  1.0
  H  H31  1  0.67302000  0.26124000  0.89349000  1.0
  H  H32  1  0.79028000  0.66314000  0.38926000  1.0
  H  H33  1  0.29029000  0.83686000  0.11074000  1.0
  H  H34  1  0.20971000  0.33686000  0.61074000  1.0
  H  H35  1  0.70971000  0.16314000  0.88926000  1.0
  H  H36  1  0.81483000  0.58624000  0.59296000  1.0
  H  H37  1  0.31483000  0.91376000  0.90704000  1.0
  H  H38  1  0.18517000  0.41377000  0.40703000  1.0
  H  H39  1  0.68517000  0.08624000  0.09296000  1.0
  H  H40  1  0.25401000  0.03517000  0.76382000  1.0
  H  H41  1  0.75401000  0.46483000  0.73619000  1.0
  H  H42  1  0.74599000  0.96482000  0.23618000  1.0
  H  H43  1  0.24599000  0.53518000  0.26381000  1.0
  H  H44  1  0.53285000  0.15405000  0.53173000  1.0
  H  H45  1  0.03286000  0.34595000  0.96826000  1.0
  H  H46  1  0.46714000  0.84595000  0.46826000  1.0
  H  H47  1  0.96715000  0.65405000  0.03173000  1.0
  H  H48  1  0.67694000  0.69987000  0.47657000  1.0
  H  H49  1  0.17694000  0.80013000  0.02343000  1.0
  H  H50  1  0.32306000  0.30013000  0.52343000  1.0
  H  H51  1  0.82306000  0.19987000  0.97658000  1.0
  H  H52  1  0.70170000  0.80090000  0.47174000  1.0
  H  H53  1  0.20170000  0.69910000  0.02827000  1.0
  H  H54  1  0.29830000  0.19910000  0.52826000  1.0
  H  H55  1  0.79830000  0.30090000  0.97174000  1.0
  H  H56  1  0.85899000  0.86741000  0.79806000  1.0
  H  H57  1  0.35899000  0.63259000  0.70194000  1.0
  H  H58  1  0.14101000  0.13259000  0.20194000  1.0
  H  H59  1  0.64100000  0.36740000  0.29806000  1.0
  H  H60  1  0.14160000  0.94138000  0.79521000  1.0
  H  H61  1  0.64160000  0.55863000  0.70480000  1.0
  H  H62  1  0.85840000  0.05862000  0.20479000  1.0
  H  H63  1  0.35840000  0.44138000  0.29520000  1.0
  H  H64  1  0.49348000  0.09366000  0.64939000  1.0
  H  H65  1  0.99349000  0.40634000  0.85061000  1.0
  H  H66  1  0.50651000  0.90634000  0.35060000  1.0
  H  H67  1  0.00651000  0.59365000  0.14939000  1.0
  H  H68  1  0.14827000  0.44490000  0.71077000  1.0
  H  H69  1  0.64828000  0.05509000  0.78923000  1.0
  H  H70  1  0.85172000  0.55509000  0.28923000  1.0
  H  H71  1  0.35172000  0.94492000  0.21077000  1.0
  H  H72  1  0.26714000  0.53530000  0.73575000  1.0
  H  H73  1  0.76715000  0.96469000  0.76424000  1.0
  H  H74  1  0.73285000  0.46469000  0.26425000  1.0
  H  H75  1  0.23285000  0.03531000  0.23575000  1.0
  H  H76  1  0.30565000  0.49317000  0.95621000  1.0
  H  H77  1  0.80566000  0.00683000  0.54378000  1.0
  H  H78  1  0.69435000  0.50683000  0.04378000  1.0
  H  H79  1  0.19435000  0.99317000  0.45621000  1.0
  H  H80  1  0.28523000  0.98262000  0.54369000  1.0
  H  H81  1  0.78523000  0.51738000  0.95632000  1.0
  H  H82  1  0.71476000  0.01737000  0.45631000  1.0
  H  H83  1  0.21478000  0.48263000  0.04368000  1.0
  H  H84  1  0.00745000  0.42907000  0.66058000  1.0
  H  H85  1  0.50745000  0.07093000  0.83943000  1.0
  H  H86  1  0.99255000  0.57093000  0.33942000  1.0
  H  H87  1  0.49255000  0.92907000  0.16057000  1.0
  H  H88  1  0.68977000  0.59383000  0.41042000  1.0
  H  H89  1  0.18977000  0.90618000  0.08958000  1.0
  H  H90  1  0.31023000  0.40617000  0.58958000  1.0
  H  H91  1  0.81023000  0.09383000  0.91042000  1.0
  H  H92  1  0.22591000  0.77535000  0.62953000  1.0
  H  H93  1  0.72592000  0.72466000  0.87047000  1.0
  H  H94  1  0.77409000  0.22464000  0.37047000  1.0
  H  H95  1  0.27409000  0.27535000  0.12953000  1.0
  H  H96  1  0.23440000  0.28959000  0.87371000  1.0
  H  H97  1  0.73440000  0.21041000  0.62629000  1.0
  H  H98  1  0.76560000  0.71040000  0.12629000  1.0
  H  H99  1  0.26561000  0.78960000  0.37371000  1.0
  H  H100  1  0.05257000  0.53799000  0.74971000  1.0
  H  H101  1  0.55257000  0.96201000  0.75029000  1.0
  H  H102  1  0.94743000  0.46201000  0.25029000  1.0
  H  H103  1  0.44743000  0.03799000  0.24971000  1.0
  H  H104  1  0.72917000  0.85280000  0.69683000  1.0
  H  H105  1  0.22918000  0.64720000  0.80317000  1.0
  H  H106  1  0.27083000  0.14720000  0.30317000  1.0
  H  H107  1  0.77082000  0.35280000  0.19683000  1.0
  H  H108  1  0.34398000  0.86544000  0.60208000  1.0
  H  H109  1  0.84399000  0.63457000  0.89793000  1.0
  H  H110  1  0.65602000  0.13456000  0.39792000  1.0
  H  H111  1  0.15602000  0.36544000  0.10207000  1.0
  H  H112  1  0.60983000  0.47051000  0.42427000  1.0
  H  H113  1  0.10983000  0.02949000  0.07573000  1.0
  H  H114  1  0.39017000  0.52949000  0.57573000  1.0
  H  H115  1  0.89018000  0.97051000  0.92428000  1.0
  H  H116  1  0.35668000  0.37605000  0.89577000  1.0
  H  H117  1  0.85669000  0.12395000  0.60423000  1.0
  H  H118  1  0.64331000  0.62395000  0.10423000  1.0
  H  H119  1  0.14332000  0.87605000  0.39576000  1.0
  H  H120  1  0.50429000  0.60786000  0.84713000  1.0
  H  H121  1  0.00429000  0.89214000  0.65286000  1.0
  H  H122  1  0.49571000  0.39214000  0.15287000  1.0
  H  H123  1  0.99571000  0.10787000  0.34714000  1.0
  H  H124  1  0.32517000  0.04301000  0.42659000  1.0
  H  H125  1  0.82518000  0.45698000  0.07341000  1.0
  H  H126  1  0.67482000  0.95699000  0.57341000  1.0
  H  H127  1  0.17483000  0.54302000  0.92659000  1.0
  H  H128  1  0.88678000  0.45711000  0.57870000  1.0
  H  H129  1  0.38678000  0.04289000  0.92131000  1.0
  H  H130  1  0.11322000  0.54289000  0.42130000  1.0
  H  H131  1  0.61322000  0.95711000  0.07869000  1.0
  H  H132  1  0.65334000  0.86726000  0.21363000  1.0
  H  H133  1  0.15334000  0.63274000  0.28637000  1.0
  H  H134  1  0.34666000  0.13274000  0.78637000  1.0
  H  H135  1  0.84666000  0.36726000  0.71364000  1.0
  H  H136  1  0.34776000  0.55922000  0.07350000  1.0
  H  H137  1  0.84776000  0.94078000  0.42650000  1.0
  H  H138  1  0.65224000  0.44077000  0.92650000  1.0
  H  H139  1  0.15224000  0.05922000  0.57350000  1.0
  H  H140  1  0.44099000  0.55398000  0.26246000  1.0
  H  H141  1  0.94099000  0.94603000  0.23754000  1.0
  H  H142  1  0.55900000  0.44603000  0.73754000  1.0
  H  H143  1  0.05901000  0.05397000  0.76246000  1.0
  H  H144  1  0.48373000  0.44631000  0.34727000  1.0
  H  H145  1  0.98373000  0.05370000  0.15272000  1.0
  H  H146  1  0.51627000  0.55369000  0.65272000  1.0
  H  H147  1  0.01628000  0.94631000  0.84728000  1.0
  H  H148  1  0.54547000  0.67524000  0.96527000  1.0
  H  H149  1  0.04547000  0.82475000  0.53473000  1.0
  H  H150  1  0.45453000  0.32475000  0.03474000  1.0
  H  H151  1  0.95454000  0.17526000  0.46527000  1.0
  C  C152  1  0.64697000  0.71440000  0.31259000  1.0
  C  C153  1  0.14697000  0.78560000  0.18741000  1.0
  C  C154  1  0.35303000  0.28560000  0.68741000  1.0
  C  C155  1  0.85303000  0.21440000  0.81259000  1.0
  C  C156  1  0.45114000  0.13901000  0.40180000  1.0
  C  C157  1  0.95115000  0.36099000  0.09820000  1.0
  C  C158  1  0.54885000  0.86099000  0.59820000  1.0
  C  C159  1  0.04886000  0.63901000  0.90180000  1.0
  C  C160  1  0.78817000  0.73465000  0.53453000  1.0
  C  C161  1  0.28817000  0.76535000  0.96547000  1.0
  C  C162  1  0.21184000  0.26535000  0.46547000  1.0
  C  C163  1  0.71183000  0.23465000  0.03453000  1.0
  C  C164  1  0.74169000  0.72360000  0.60581000  1.0
  C  C165  1  0.24170000  0.77640000  0.89419000  1.0
  C  C166  1  0.25831000  0.27640000  0.39419000  1.0
  C  C167  1  0.75830000  0.22360000  0.10581000  1.0
  C  C168  1  0.86011000  0.70838000  0.69619000  1.0
  C  C169  1  0.36011000  0.79162000  0.80381000  1.0
  C  C170  1  0.13989000  0.29162000  0.30381000  1.0
  C  C171  1  0.63989000  0.20838000  0.19619000  1.0
  C  C172  1  0.73241000  0.81503000  0.29878000  1.0
  C  C173  1  0.23241000  0.68497000  0.20121000  1.0
  C  C174  1  0.26759000  0.18497000  0.70121000  1.0
  C  C175  1  0.76759000  0.31503000  0.79879000  1.0
  C  C176  1  0.77125000  0.72533000  0.39752000  1.0
  C  C177  1  0.27125000  0.77467000  0.10248000  1.0
  C  C178  1  0.22875000  0.27467000  0.60248000  1.0
  C  C179  1  0.72875000  0.22533000  0.89752000  1.0
  C  C180  1  0.89663000  0.63107000  0.67807000  1.0
  C  C181  1  0.39663000  0.86893000  0.82193000  1.0
  C  C182  1  0.10337000  0.36893000  0.32193000  1.0
  C  C183  1  0.60337000  0.13107000  0.17807000  1.0
  C  C184  1  0.11089000  0.79663000  0.73370000  1.0
  C  C185  1  0.61089000  0.70338000  0.76631000  1.0
  C  C186  1  0.88911000  0.20337000  0.26631000  1.0
  C  C187  1  0.38911000  0.29663000  0.23369000  1.0
  C  C188  1  0.17631000  0.85352000  0.71331000  1.0
  C  C189  1  0.67631000  0.64649000  0.78670000  1.0
  C  C190  1  0.82369000  0.14648000  0.28670000  1.0
  C  C191  1  0.32369000  0.35352000  0.21330000  1.0
  C  C192  1  0.18302000  0.36285000  0.79209000  1.0
  C  C193  1  0.68302000  0.13714000  0.70791000  1.0
  C  C194  1  0.81698000  0.63714000  0.20792000  1.0
  C  C195  1  0.31698000  0.86286000  0.29208000  1.0
  C  C196  1  0.40328000  0.54606000  0.89501000  1.0
  C  C197  1  0.90329000  0.95393000  0.60498000  1.0
  C  C198  1  0.59671000  0.45393000  0.10499000  1.0
  C  C199  1  0.09671000  0.04607000  0.39501000  1.0
  C  C200  1  0.47132000  0.66014000  0.09825000  1.0
  C  C201  1  0.97132000  0.83985000  0.40175000  1.0
  C  C202  1  0.52868000  0.33985000  0.90175000  1.0
  C  C203  1  0.02869000  0.16014000  0.59826000  1.0
  C  C204  1  0.30340000  0.95626000  0.67992000  1.0
  C  C205  1  0.80340000  0.54375000  0.82009000  1.0
  C  C206  1  0.69660000  0.04373000  0.32008000  1.0
  C  C207  1  0.19661000  0.45626000  0.17991000  1.0
  C  C208  1  0.38768000  0.03469000  0.60286000  1.0
  C  C209  1  0.88769000  0.46532000  0.89714000  1.0
  C  C210  1  0.61231000  0.96531000  0.39714000  1.0
  C  C211  1  0.11232000  0.53469000  0.10285000  1.0
  C  C212  1  0.86839000  0.57460000  0.62606000  1.0
  C  C213  1  0.36839000  0.92540000  0.87394000  1.0
  C  C214  1  0.13161000  0.42540000  0.37394000  1.0
  C  C215  1  0.63160000  0.07460000  0.12606000  1.0
  C  C216  1  0.24712000  0.97848000  0.73428000  1.0
  C  C217  1  0.74712000  0.52153000  0.76573000  1.0
  C  C218  1  0.75289000  0.02151000  0.26572000  1.0
  C  C219  1  0.25289000  0.47848000  0.23427000  1.0
  C  C220  1  0.47909000  0.11598000  0.53455000  1.0
  C  C221  1  0.97910000  0.38402000  0.96545000  1.0
  C  C222  1  0.52090000  0.88402000  0.46545000  1.0
  C  C223  1  0.02091000  0.61598000  0.03455000  1.0
  C  C224  1  0.72866000  0.74111000  0.47072000  1.0
  C  C225  1  0.22867000  0.75889000  0.02928000  1.0
  C  C226  1  0.27134000  0.25889000  0.52928000  1.0
  C  C227  1  0.77133000  0.24111000  0.97072000  1.0
  C  C228  1  0.31664000  0.46273000  0.81917000  1.0
  C  C229  1  0.81665000  0.03726000  0.68083000  1.0
  C  C230  1  0.68336000  0.53726000  0.18083000  1.0
  C  C231  1  0.18335000  0.96274000  0.31917000  1.0
  C  C232  1  0.60648000  0.64034000  0.33025000  1.0
  C  C233  1  0.10648000  0.85966000  0.16975000  1.0
  C  C234  1  0.39352000  0.35966000  0.66975000  1.0
  C  C235  1  0.89352000  0.14034000  0.83025000  1.0
  C  C236  1  0.84445000  0.82048000  0.75826000  1.0
  C  C237  1  0.34445000  0.67952000  0.74174000  1.0
  C  C238  1  0.15555000  0.17952000  0.24174000  1.0
  C  C239  1  0.65555000  0.32048000  0.25826000  1.0
  C  C240  1  0.44921000  0.62104000  0.02721000  1.0
  C  C241  1  0.94921000  0.87896000  0.47278000  1.0
  C  C242  1  0.55079000  0.37895000  0.97279000  1.0
  C  C243  1  0.05080000  0.12104000  0.52721000  1.0
  C  C244  1  0.18459000  0.92649000  0.75145000  1.0
  C  C245  1  0.68459000  0.57352000  0.74856000  1.0
  C  C246  1  0.81542000  0.07351000  0.24855000  1.0
  C  C247  1  0.31542000  0.42649000  0.25145000  1.0
  C  C248  1  0.45765000  0.08261000  0.59993000  1.0
  C  C249  1  0.95766000  0.41740000  0.90007000  1.0
  C  C250  1  0.54234000  0.91739000  0.40006000  1.0
  C  C251  1  0.04234000  0.58260000  0.09993000  1.0
  C  C252  1  0.19299000  0.43163000  0.75262000  1.0
  C  C253  1  0.69299000  0.06837000  0.74738000  1.0
  C  C254  1  0.80701000  0.56837000  0.24738000  1.0
  C  C255  1  0.30701000  0.93164000  0.25262000  1.0
  C  C256  1  0.25908000  0.48196000  0.76637000  1.0
  C  C257  1  0.75908000  0.01803000  0.73363000  1.0
  C  C258  1  0.74092000  0.51803000  0.23363000  1.0
  C  C259  1  0.24092000  0.98197000  0.26637000  1.0
  C  C260  1  0.35822000  0.53260000  0.95820000  1.0
  C  C261  1  0.85823000  0.96739000  0.54180000  1.0
  C  C262  1  0.64178000  0.46739000  0.04180000  1.0
  C  C263  1  0.14178000  0.03261000  0.45820000  1.0
  C  C264  1  0.33939000  0.01996000  0.54081000  1.0
  C  C265  1  0.83939000  0.48004000  0.95919000  1.0
  C  C266  1  0.66060000  0.98004000  0.45919000  1.0
  C  C267  1  0.16061000  0.51996000  0.04080000  1.0
  C  C268  1  0.97590000  0.48614000  0.66273000  1.0
  C  C269  1  0.47590000  0.01386000  0.83727000  1.0
  C  C270  1  0.02410000  0.51386000  0.33727000  1.0
  C  C271  1  0.52410000  0.98614000  0.16272000  1.0
  C  C272  1  0.63366000  0.58442000  0.37943000  1.0
  C  C273  1  0.13366000  0.91558000  0.12056000  1.0
  C  C274  1  0.36633000  0.41558000  0.62056000  1.0
  C  C275  1  0.86634000  0.08442000  0.87944000  1.0
  C  C276  1  0.43117000  0.10204000  0.47174000  1.0
  C  C277  1  0.93118000  0.39796000  0.02826000  1.0
  C  C278  1  0.56882000  0.89796000  0.52825000  1.0
  C  C279  1  0.06883000  0.60204000  0.97174000  1.0
  C  C280  1  0.23243000  0.83288000  0.65793000  1.0
  C  C281  1  0.73244000  0.66713000  0.84208000  1.0
  C  C282  1  0.76756000  0.16712000  0.34207000  1.0
  C  C283  1  0.26757000  0.33287000  0.15793000  1.0
  C  C284  1  0.24164000  0.34423000  0.84457000  1.0
  C  C285  1  0.74164000  0.15577000  0.65543000  1.0
  C  C286  1  0.75837000  0.65577000  0.15543000  1.0
  C  C287  1  0.25837000  0.84423000  0.34457000  1.0
  C  C288  1  0.00095000  0.54553000  0.71282000  1.0
  C  C289  1  0.50095000  0.95447000  0.78719000  1.0
  C  C290  1  0.99905000  0.45447000  0.28718000  1.0
  C  C291  1  0.49905000  0.04553000  0.21282000  1.0
  C  C292  1  0.78122000  0.81516000  0.70845000  1.0
  C  C293  1  0.28122000  0.68484000  0.79155000  1.0
  C  C294  1  0.21878000  0.18484000  0.29155000  1.0
  C  C295  1  0.71877000  0.31516000  0.20846000  1.0
  C  C296  1  0.29706000  0.88321000  0.64173000  1.0
  C  C297  1  0.79706000  0.61679000  0.85828000  1.0
  C  C298  1  0.70294000  0.11678000  0.35827000  1.0
  C  C299  1  0.20294000  0.38321000  0.14173000  1.0
  C  C300  1  0.58886000  0.51478000  0.38662000  1.0
  C  C301  1  0.08886000  0.98522000  0.11338000  1.0
  C  C302  1  0.41114000  0.48521000  0.61338000  1.0
  C  C303  1  0.91114000  0.01478000  0.88662000  1.0
  C  C304  1  0.30916000  0.39317000  0.85773000  1.0
  C  C305  1  0.80917000  0.10683000  0.64227000  1.0
  C  C306  1  0.69083000  0.60683000  0.14227000  1.0
  C  C307  1  0.19083000  0.89317000  0.35773000  1.0
  C  C308  1  0.47093000  0.59738000  0.89729000  1.0
  C  C309  1  0.97094000  0.90262000  0.60271000  1.0
  C  C310  1  0.52906000  0.40262000  0.10271000  1.0
  C  C311  1  0.02907000  0.09739000  0.39729000  1.0
  C  C312  1  0.36171000  0.05358000  0.47572000  1.0
  C  C313  1  0.86172000  0.44642000  0.02428000  1.0
  C  C314  1  0.63828000  0.94642000  0.52428000  1.0
  C  C315  1  0.13829000  0.55358000  0.97572000  1.0
  C  C316  1  0.90869000  0.50185000  0.61855000  1.0
  C  C317  1  0.40869000  0.99815000  0.88146000  1.0
  C  C318  1  0.09131000  0.49815000  0.38145000  1.0
  C  C319  1  0.59131000  0.00185000  0.11855000  1.0
  C  C320  1  0.66682000  0.82184000  0.25202000  1.0
  C  C321  1  0.16682000  0.67816000  0.24798000  1.0
  C  C322  1  0.33318000  0.17816000  0.74798000  1.0
  C  C323  1  0.83318000  0.32184000  0.75202000  1.0
  C  C324  1  0.38174000  0.56971000  0.02367000  1.0
  C  C325  1  0.88175000  0.93029000  0.47633000  1.0
  C  C326  1  0.61825000  0.43028000  0.97633000  1.0
  C  C327  1  0.11826000  0.06972000  0.52367000  1.0
  C  C328  1  0.49478000  0.56014000  0.29751000  1.0
  C  C329  1  0.99478000  0.93986000  0.20248000  1.0
  C  C330  1  0.50521000  0.43986000  0.70248000  1.0
  C  C331  1  0.00522000  0.06014000  0.79752000  1.0
  C  C332  1  0.51837000  0.50147000  0.34488000  1.0
  C  C333  1  0.01837000  0.99853000  0.15512000  1.0
  C  C334  1  0.48163000  0.49853000  0.65511000  1.0
  C  C335  1  0.98163000  0.00147000  0.84488000  1.0
  C  C336  1  0.49348000  0.63462000  0.96312000  1.0
  C  C337  1  0.99349000  0.86538000  0.53687000  1.0
  C  C338  1  0.50651000  0.36537000  0.03688000  1.0
  C  C339  1  0.00652000  0.13463000  0.46313000  1.0
  C  C340  1  0.11319000  0.30782000  0.77597000  1.0
  C  C341  1  0.61319000  0.19218000  0.72403000  1.0
  C  C342  1  0.88681000  0.69218000  0.22403000  1.0
  C  C343  1  0.38681000  0.80782000  0.27597000  1.0
  N  N344  1  0.79187000  0.74463000  0.66958000  1.0
  N  N345  1  0.29187000  0.75537000  0.83042000  1.0
  N  N346  1  0.20813000  0.25537000  0.33042000  1.0
  N  N347  1  0.70813000  0.24463000  0.16958000  1.0
  N  N348  1  0.71917000  0.74741000  0.33673000  1.0
  N  N349  1  0.21918000  0.75259000  0.16327000  1.0
  N  N350  1  0.28082000  0.25259000  0.66327000  1.0
  N  N351  1  0.78082000  0.24741000  0.83673000  1.0
  N  N352  1  0.96283000  0.61542000  0.71994000  1.0
  N  N353  1  0.46283000  0.88458000  0.78006000  1.0
  N  N354  1  0.03717000  0.38458000  0.28006000  1.0
  N  N355  1  0.53717000  0.11542000  0.21994000  1.0
  N  N356  1  0.53726000  0.62709000  0.29072000  1.0
  N  N357  1  0.03726000  0.87292000  0.20928000  1.0
  N  N358  1  0.46274000  0.37291000  0.70928000  1.0
  N  N359  1  0.96274000  0.12708000  0.79072000  1.0
  N  N360  1  0.61495000  0.75977000  0.26121000  1.0
  N  N361  1  0.11495000  0.74023000  0.23879000  1.0
  N  N362  1  0.38505000  0.24023000  0.73879000  1.0
  N  N363  1  0.88505000  0.25977000  0.76121000  1.0
  N  N364  1  0.89222000  0.75448000  0.75014000  1.0
  N  N365  1  0.39222000  0.74552000  0.74986000  1.0
  N  N366  1  0.10778000  0.24552000  0.24986000  1.0
  N  N367  1  0.60778000  0.25448000  0.25014000  1.0
  O  O368  1  0.51741000  0.18026000  0.39719000  1.0
  O  O369  1  0.01742000  0.31973000  0.10281000  1.0
  O  O370  1  0.48258000  0.81973000  0.60281000  1.0
  O  O371  1  0.98258000  0.68026000  0.89719000  1.0
  O  O372  1  0.36905000  0.00703000  0.67053000  1.0
  O  O373  1  0.86905000  0.49297000  0.82947000  1.0
  O  O374  1  0.63095000  0.99296000  0.32946000  1.0
  O  O375  1  0.13095000  0.50703000  0.17053000  1.0
  O  O376  1  0.40254000  0.13074000  0.34762000  1.0
  O  O377  1  0.90255000  0.36926000  0.15237000  1.0
  O  O378  1  0.59745000  0.86926000  0.65237000  1.0
  O  O379  1  0.09746000  0.63074000  0.84762000  1.0
  O  O380  1  0.07109000  0.81219000  0.79380000  1.0
  O  O381  1  0.57109000  0.68782000  0.70621000  1.0
  O  O382  1  0.92891000  0.18782000  0.20620000  1.0
  O  O383  1  0.42891000  0.31218000  0.29379000  1.0
  O  O384  1  0.38380000  0.51302000  0.82741000  1.0
  O  O385  1  0.88381000  0.98698000  0.67259000  1.0
  O  O386  1  0.61620000  0.48698000  0.17260000  1.0
  O  O387  1  0.11620000  0.01302000  0.32741000  1.0
  O  O388  1  0.09676000  0.73555000  0.69410000  1.0
  O  O389  1  0.59677000  0.76447000  0.80591000  1.0
  O  O390  1  0.90323000  0.26445000  0.30591000  1.0
  O  O391  1  0.40323000  0.23554000  0.19410000  1.0
  O  O392  1  0.53306000  0.70636000  0.10396000  1.0
  O  O393  1  0.03306000  0.79363000  0.39604000  1.0
  O  O394  1  0.46694000  0.29363000  0.89605000  1.0
  O  O395  1  0.96695000  0.20636000  0.60396000  1.0
  O  O396  1  0.42657000  0.64678000  0.15446000  1.0
  O  O397  1  0.92657000  0.85322000  0.34554000  1.0
  O  O398  1  0.57342000  0.35321000  0.84554000  1.0
  O  O399  1  0.07344000  0.14678000  0.65446000  1.0
  O  O400  1  0.06633000  0.32367000  0.72124000  1.0
  O  O401  1  0.56634000  0.17633000  0.77876000  1.0
  O  O402  1  0.93367000  0.67633000  0.27877000  1.0
  O  O403  1  0.43367000  0.82368000  0.22123000  1.0
  O  O404  1  0.10203000  0.24766000  0.81341000  1.0
  O  O405  1  0.60204000  0.25234000  0.68659000  1.0
  O  O406  1  0.89797000  0.75234000  0.18658000  1.0
  O  O407  1  0.39797000  0.74767000  0.31341000  1.0
