# generated using pymatgen
data_Cu2H22C37N4O9
_symmetry_space_group_name_H-M   'P 1'
_cell_length_a   11.37210000
_cell_length_b   12.55080000
_cell_length_c   14.93668463
_cell_angle_alpha   80.06491979
_cell_angle_beta   67.62337969
_cell_angle_gamma   63.06200000
_symmetry_Int_Tables_number   1
_chemical_formula_structural   Cu2H22C37N4O9
_chemical_formula_sum   'Cu4 H44 C74 N8 O18'
_cell_volume   1757.46969686
_cell_formula_units_Z   2
loop_
 _symmetry_equiv_pos_site_id
 _symmetry_equiv_pos_as_xyz
  1  'x, y, z'
loop_
 _atom_site_type_symbol
 _atom_site_label
 _atom_site_symmetry_multiplicity
 _atom_site_fract_x
 _atom_site_fract_y
 _atom_site_fract_z
 _atom_site_occupancy
  Cu  Cu0  1  0.67355000  0.66270000  0.01029000  1.0
  Cu  Cu1  1  0.34659000  0.33732000  0.98977000  1.0
  Cu  Cu2  1  0.43398000  0.16253000  0.48968000  1.0
  Cu  Cu3  1  0.08628000  0.83736000  0.51020000  1.0
  H  H4  1  0.56926000  0.71641000  0.21905000  1.0
  H  H5  1  0.50479000  0.28357000  0.78102000  1.0
  H  H6  1  0.53828000  0.21658000  0.28104000  1.0
  H  H7  1  0.03583000  0.78342000  0.71892000  1.0
  H  H8  1  0.64983000  0.76026000  0.33421000  1.0
  H  H9  1  0.74430000  0.23987000  0.66578000  1.0
  H  H10  1  0.73402000  0.26048000  0.16596000  1.0
  H  H11  1  0.16026000  0.73970000  0.83407000  1.0
  H  H12  1  0.04842000  0.68721000  0.10060000  1.0
  H  H13  1  0.83640000  0.31275000  0.89941000  1.0
  H  H14  1  0.89908000  0.18703000  0.39962000  1.0
  H  H15  1  0.48569000  0.81289000  0.60039000  1.0
  H  H16  1  0.94832000  0.65419000  0.99554000  1.0
  H  H17  1  0.59817000  0.34581000  0.00449000  1.0
  H  H18  1  0.69389000  0.15396000  0.50458000  1.0
  H  H19  1  0.35249000  0.84590000  0.49539000  1.0
  H  H20  1  0.80087000  0.89467000  0.50601000  1.0
  H  H21  1  0.20143000  0.10545000  0.49390000  1.0
  H  H22  1  0.05675000  0.39470000  0.99411000  1.0
  H  H23  1  0.44550000  0.60536000  0.00594000  1.0
  H  H24  1  0.70421000  0.85970000  0.39965000  1.0
  H  H25  1  0.96335000  0.14068000  0.60029000  1.0
  H  H26  1  0.85381000  0.35963000  0.10054000  1.0
  H  H27  1  0.31400000  0.64030000  0.89949000  1.0
  H  H28  1  0.13339000  0.66350000  0.20930000  1.0
  H  H29  1  0.00660000  0.33616000  0.79081000  1.0
  H  H30  1  0.09274000  0.16354000  0.29083000  1.0
  H  H31  1  0.54718000  0.83632000  0.70912000  1.0
  H  H32  1  0.21180000  0.71366000  0.32296000  1.0
  H  H33  1  0.24882000  0.28594000  0.67703000  1.0
  H  H34  1  0.28483000  0.21359000  0.17704000  1.0
  H  H35  1  0.67553000  0.78631000  0.82291000  1.0
  H  H36  1  0.51311000  0.56191000  0.32520000  1.0
  H  H37  1  0.40015000  0.43844000  0.67490000  1.0
  H  H38  1  0.58847000  0.06176000  0.17480000  1.0
  H  H39  1  0.82501000  0.93851000  0.82505000  1.0
  H  H40  1  0.22418000  0.36704000  0.31267000  1.0
  H  H41  1  0.90370000  0.63279000  0.68765000  1.0
  H  H42  1  0.28670000  0.86712000  0.18740000  1.0
  H  H43  1  0.34124000  0.13236000  0.81243000  1.0
  H  H44  1  0.22518000  0.40184000  0.47027000  1.0
  H  H45  1  0.09700000  0.59827000  0.52998000  1.0
  H  H46  1  0.44540000  0.90181000  0.02980000  1.0
  H  H47  1  0.37699000  0.09803000  0.97004000  1.0
  C  C48  1  0.67453000  0.71124000  0.19633000  1.0
  C  C49  1  0.58217000  0.28882000  0.80370000  1.0
  C  C50  1  0.62086000  0.21132000  0.30378000  1.0
  C  C51  1  0.13590000  0.78868000  0.69618000  1.0
  C  C52  1  0.72163000  0.73492000  0.26033000  1.0
  C  C53  1  0.71690000  0.26525000  0.73966000  1.0
  C  C54  1  0.73197000  0.23500000  0.23983000  1.0
  C  C55  1  0.20670000  0.76507000  0.76016000  1.0
  C  C56  1  0.85768000  0.72887000  0.22834000  1.0
  C  C57  1  0.81494000  0.27134000  0.77164000  1.0
  C  C58  1  0.83607000  0.22884000  0.27186000  1.0
  C  C59  1  0.33665000  0.77122000  0.72816000  1.0
  C  C60  1  0.94065000  0.69662000  0.13139000  1.0
  C  C61  1  0.76877000  0.30345000  0.86861000  1.0
  C  C62  1  0.82213000  0.19647000  0.36880000  1.0
  C  C63  1  0.38733000  0.80348000  0.63121000  1.0
  C  C64  1  0.88536000  0.67620000  0.07115000  1.0
  C  C65  1  0.63281000  0.32385000  0.92887000  1.0
  C  C66  1  0.70656000  0.17604000  0.42899000  1.0
  C  C67  1  0.31158000  0.82388000  0.57099000  1.0
  C  C68  1  0.87206000  0.84495000  0.43945000  1.0
  C  C69  1  0.15644000  0.15513000  0.56046000  1.0
  C  C70  1  0.06150000  0.34489000  0.06062000  1.0
  C  C71  1  0.46704000  0.65507000  0.93936000  1.0
  C  C72  1  0.81818000  0.82279000  0.37904000  1.0
  C  C73  1  0.01993000  0.17747000  0.62088000  1.0
  C  C74  1  0.94725000  0.32266000  0.12108000  1.0
  C  C75  1  0.39107000  0.67720000  0.87889000  1.0
  C  C76  1  0.91026000  0.75619000  0.29394000  1.0
  C  C77  1  0.96049000  0.24388000  0.70607000  1.0
  C  C78  1  0.95421000  0.25614000  0.20623000  1.0
  C  C79  1  0.41661000  0.74376000  0.79375000  1.0
  C  C80  1  0.05483000  0.71656000  0.27358000  1.0
  C  C81  1  0.04528000  0.28323000  0.72648000  1.0
  C  C82  1  0.07846000  0.21655000  0.22653000  1.0
  C  C83  1  0.52160000  0.78333000  0.77343000  1.0
  C  C84  1  0.10051000  0.74303000  0.33722000  1.0
  C  C85  1  0.18104000  0.25671000  0.66278000  1.0
  C  C86  1  0.18779000  0.24294000  0.16280000  1.0
  C  C87  1  0.59362000  0.75694000  0.83714000  1.0
  C  C88  1  0.44824000  0.52145000  0.32120000  1.0
  C  C89  1  0.29082000  0.47876000  0.67894000  1.0
  C  C90  1  0.51950000  0.02141000  0.17879000  1.0
  C  C91  1  0.71970000  0.97875000  0.82102000  1.0
  C  C92  1  0.44622000  0.50377000  0.23234000  1.0
  C  C93  1  0.18230000  0.49629000  0.76781000  1.0
  C  C94  1  0.42864000  0.00372000  0.26764000  1.0
  C  C95  1  0.70003000  0.99629000  0.73217000  1.0
  C  C96  1  0.36402000  0.44843000  0.22926000  1.0
  C  C97  1  0.04166000  0.55149000  0.77095000  1.0
  C  C98  1  0.34322000  0.94848000  0.27076000  1.0
  C  C99  1  0.56250000  0.05131000  0.72909000  1.0
  C  C100  1  0.28506000  0.41227000  0.31526000  1.0
  C  C101  1  0.01245000  0.58771000  0.68500000  1.0
  C  C102  1  0.35026000  0.91227000  0.18481000  1.0
  C  C103  1  0.44735000  0.08736000  0.81505000  1.0
  C  C104  1  0.28596000  0.43181000  0.40397000  1.0
  C  C105  1  0.12155000  0.56835000  0.59625000  1.0
  C  C106  1  0.43993000  0.93178000  0.09608000  1.0
  C  C107  1  0.46776000  0.06806000  0.90377000  1.0
  C  C108  1  0.36820000  0.48598000  0.40774000  1.0
  C  C109  1  0.26176000  0.51429000  0.59245000  1.0
  C  C110  1  0.52594000  0.98598000  0.09227000  1.0
  C  C111  1  0.60415000  0.01416000  0.90755000  1.0
  C  C112  1  0.38159000  0.50015000  0.50008000  1.0
  C  C113  1  0.63161000  0.00018000  0.99990000  1.0
  C  C114  1  0.54249000  0.53213000  0.13975000  1.0
  C  C115  1  0.21434000  0.46796000  0.86037000  1.0
  C  C116  1  0.43240000  0.03191000  0.36021000  1.0
  C  C117  1  0.82463000  0.96806000  0.63962000  1.0
  C  C118  1  0.35240000  0.43620000  0.13492000  1.0
  C  C119  1  0.92344000  0.56382000  0.86527000  1.0
  C  C120  1  0.23726000  0.93631000  0.36511000  1.0
  C  C121  1  0.53865000  0.06356000  0.63478000  1.0
  N  N122  1  0.75409000  0.68330000  0.10243000  1.0
  N  N123  1  0.53990000  0.31675000  0.89761000  1.0
  N  N124  1  0.60657000  0.18323000  0.39766000  1.0
  N  N125  1  0.18745000  0.81669000  0.60229000  1.0
  N  N126  1  0.01104000  0.80590000  0.41964000  1.0
  N  N127  1  0.23671000  0.19398000  0.58028000  1.0
  N  N128  1  0.18071000  0.30583000  0.08037000  1.0
  N  N129  1  0.56692000  0.69413000  0.91962000  1.0
  O  O130  1  0.51966000  0.64336000  0.12498000  1.0
  O  O131  1  0.28817000  0.35675000  0.87504000  1.0
  O  O132  1  0.39485000  0.14314000  0.37501000  1.0
  O  O133  1  0.91301000  0.85683000  0.62484000  1.0
  O  O134  1  0.63838000  0.44837000  0.08387000  1.0
  O  O135  1  0.17039000  0.55166000  0.91637000  1.0
  O  O136  1  0.47234000  0.94814000  0.41612000  1.0
  O  O137  1  0.83683000  0.05184000  0.58379000  1.0
  O  O138  1  0.29865000  0.52894000  0.09056000  1.0
  O  O139  1  0.91790000  0.47116000  0.90968000  1.0
  O  O140  1  0.13905000  0.02900000  0.40946000  1.0
  O  O141  1  0.57737000  0.97087000  0.59046000  1.0
  O  O142  1  0.39772000  0.32849000  0.10648000  1.0
  O  O143  1  0.83267000  0.67158000  0.89364000  1.0
  O  O144  1  0.25421000  0.82857000  0.39356000  1.0
  O  O145  1  0.47645000  0.17131000  0.60632000  1.0
  O  O146  1  0.49038000  0.50005000  0.50006000  1.0
  O  O147  1  0.74028000  0.00035000  0.99990000  1.0
