# generated using pymatgen
data_CuH8C6O5
_symmetry_space_group_name_H-M   'P 1'
_cell_length_a   5.49040000
_cell_length_b   7.06021000
_cell_length_c   18.21420000
_cell_angle_alpha   89.99990000
_cell_angle_beta   89.99910000
_cell_angle_gamma   90.00000000
_symmetry_Int_Tables_number   1
_chemical_formula_structural   CuH8C6O5
_chemical_formula_sum   'Cu4 H32 C24 O20'
_cell_volume   706.04390097
_cell_formula_units_Z   4
loop_
 _symmetry_equiv_pos_site_id
 _symmetry_equiv_pos_as_xyz
  1  'x, y, z'
loop_
 _atom_site_type_symbol
 _atom_site_label
 _atom_site_symmetry_multiplicity
 _atom_site_fract_x
 _atom_site_fract_y
 _atom_site_fract_z
 _atom_site_occupancy
  Cu  Cu0  1  0.83414000  0.75000000  0.80133000  1.0
  Cu  Cu1  1  0.33415000  0.25000000  0.69865000  1.0
  Cu  Cu2  1  0.16600000  0.25000000  0.19865000  1.0
  Cu  Cu3  1  0.66599000  0.75000000  0.30136000  1.0
  H  H4  1  0.34485000  0.75001000  0.88392000  1.0
  H  H5  1  0.84489000  0.25002000  0.61607000  1.0
  H  H6  1  0.65520000  0.25004000  0.11603000  1.0
  H  H7  1  0.15518000  0.75002000  0.38397000  1.0
  H  H8  1  0.13436000  0.75001000  0.94131000  1.0
  H  H9  1  0.63439000  0.25001000  0.55868000  1.0
  H  H10  1  0.86558000  0.25002000  0.05861000  1.0
  H  H11  1  0.36556000  0.75001000  0.44139000  1.0
  H  H12  1  0.08879000  0.12352000  0.85620000  1.0
  H  H13  1  0.58881000  0.87648000  0.64379000  1.0
  H  H14  1  0.91123000  0.62352000  0.14376000  1.0
  H  H15  1  0.41121000  0.37648000  0.35625000  1.0
  H  H16  1  0.91122000  0.87648000  0.14376000  1.0
  H  H17  1  0.41121000  0.12351000  0.35625000  1.0
  H  H18  1  0.08879000  0.37649000  0.85620000  1.0
  H  H19  1  0.58881000  0.62352000  0.64379000  1.0
  H  H20  1  0.15324000  0.37651000  0.99039000  1.0
  H  H21  1  0.65326000  0.62349000  0.50960000  1.0
  H  H22  1  0.84676000  0.87651000  0.00958000  1.0
  H  H23  1  0.34673000  0.12349000  0.49044000  1.0
  H  H24  1  0.84676000  0.62350000  0.00957000  1.0
  H  H25  1  0.34673000  0.37650000  0.49044000  1.0
  H  H26  1  0.15323000  0.12350000  0.99039000  1.0
  H  H27  1  0.65325000  0.87650000  0.50960000  1.0
  H  H28  1  0.59512000  0.12294000  0.96921000  1.0
  H  H29  1  0.09514000  0.87706000  0.53078000  1.0
  H  H30  1  0.40487000  0.62294000  0.03076000  1.0
  H  H31  1  0.90484000  0.37706000  0.46925000  1.0
  H  H32  1  0.40487000  0.87706000  0.03076000  1.0
  H  H33  1  0.90484000  0.12294000  0.46925000  1.0
  H  H34  1  0.59512000  0.37706000  0.96921000  1.0
  H  H35  1  0.09514000  0.62294000  0.53078000  1.0
  C  C36  1  0.46315000  0.25000000  0.86569000  1.0
  C  C37  1  0.96317000  0.75000000  0.63429000  1.0
  C  C38  1  0.53685000  0.75000000  0.13427000  1.0
  C  C39  1  0.03684000  0.25000000  0.36574000  1.0
  C  C40  1  0.17771000  0.25000000  0.87812000  1.0
  C  C41  1  0.67774000  0.75000000  0.62187000  1.0
  C  C42  1  0.82229000  0.75000000  0.12185000  1.0
  C  C43  1  0.32228000  0.25000000  0.37817000  1.0
  C  C44  1  0.22113000  0.25000000  0.96194000  1.0
  C  C45  1  0.72114000  0.75000000  0.53805000  1.0
  C  C46  1  0.77887000  0.75000000  0.03803000  1.0
  C  C47  1  0.27884000  0.24999000  0.46199000  1.0
  C  C48  1  0.50052000  0.25000000  0.94980000  1.0
  C  C49  1  0.00054000  0.75000000  0.55019000  1.0
  C  C50  1  0.49947000  0.75000000  0.05017000  1.0
  C  C51  1  0.99944000  0.25000000  0.44984000  1.0
  C  C52  1  0.54837000  0.42563000  0.82442000  1.0
  C  C53  1  0.04839000  0.57438000  0.67556000  1.0
  C  C54  1  0.45162000  0.92557000  0.17557000  1.0
  C  C55  1  0.95162000  0.07442000  0.32445000  1.0
  C  C56  1  0.45163000  0.57442000  0.17557000  1.0
  C  C57  1  0.95161000  0.42557000  0.32445000  1.0
  C  C58  1  0.54837000  0.07437000  0.82443000  1.0
  C  C59  1  0.04839000  0.92562000  0.67556000  1.0
  O  O60  1  0.66567000  0.55210000  0.86005000  1.0
  O  O61  1  0.16570000  0.44791000  0.63993000  1.0
  O  O62  1  0.33428000  0.05209000  0.13997000  1.0
  O  O63  1  0.83429000  0.94789000  0.36004000  1.0
  O  O64  1  0.33430000  0.44789000  0.13997000  1.0
  O  O65  1  0.83427000  0.55209000  0.36004000  1.0
  O  O66  1  0.66567000  0.94791000  0.86005000  1.0
  O  O67  1  0.16571000  0.05209000  0.63993000  1.0
  O  O68  1  0.49724000  0.44515000  0.75682000  1.0
  O  O69  1  0.99724000  0.55486000  0.74317000  1.0
  O  O70  1  0.50270000  0.94499000  0.24317000  1.0
  O  O71  1  0.00270000  0.05500000  0.25684000  1.0
  O  O72  1  0.50269000  0.55501000  0.24317000  1.0
  O  O73  1  0.00270000  0.44499000  0.25683000  1.0
  O  O74  1  0.49723000  0.05486000  0.75682000  1.0
  O  O75  1  0.99723000  0.94515000  0.74317000  1.0
  O  O76  1  0.16746000  0.75000000  0.88891000  1.0
  O  O77  1  0.66749000  0.24998000  0.61108000  1.0
  O  O78  1  0.83257000  0.24998000  0.11101000  1.0
  O  O79  1  0.33256000  0.74998000  0.38899000  1.0
