# generated using pymatgen
data_ZnH5C8NO4
_symmetry_space_group_name_H-M   'P 1'
_cell_length_a   7.29622000
_cell_length_b   7.29581000
_cell_length_c   18.11099814
_cell_angle_alpha   94.32418280
_cell_angle_beta   98.06946485
_cell_angle_gamma   117.70300000
_symmetry_Int_Tables_number   1
_chemical_formula_structural   ZnH5C8NO4
_chemical_formula_sum   'Zn4 H20 C32 N4 O16'
_cell_volume   834.16636621
_cell_formula_units_Z   4
loop_
 _symmetry_equiv_pos_site_id
 _symmetry_equiv_pos_as_xyz
  1  'x, y, z'
loop_
 _atom_site_type_symbol
 _atom_site_label
 _atom_site_symmetry_multiplicity
 _atom_site_fract_x
 _atom_site_fract_y
 _atom_site_fract_z
 _atom_site_occupancy
  Zn  Zn0  1  0.61526000  0.47410000  0.31313000  1.0
  Zn  Zn1  1  0.16077000  0.80187000  0.18685000  1.0
  Zn  Zn2  1  0.38474000  0.52590000  0.68687000  1.0
  Zn  Zn3  1  0.83923000  0.19813000  0.81315000  1.0
  H  H4  1  0.26785000  0.80680000  0.67966000  1.0
  H  H5  1  0.12667000  0.08753000  0.82032000  1.0
  H  H6  1  0.73216000  0.19321000  0.32034000  1.0
  H  H7  1  0.87332000  0.91246000  0.17968000  1.0
  H  H8  1  0.51279000  0.90832000  0.66825000  1.0
  H  H9  1  0.24010000  0.34399000  0.83176000  1.0
  H  H10  1  0.48722000  0.09169000  0.33175000  1.0
  H  H11  1  0.75990000  0.65601000  0.16824000  1.0
  H  H12  1  0.92463000  0.80950000  0.44710000  1.0
  H  H13  1  0.36270000  0.97752000  0.05297000  1.0
  H  H14  1  0.07537000  0.19051000  0.55290000  1.0
  H  H15  1  0.63731000  0.02248000  0.94703000  1.0
  H  H16  1  0.03682000  0.82675000  0.58456000  1.0
  H  H17  1  0.24262000  0.95210000  0.91549000  1.0
  H  H18  1  0.96319000  0.17326000  0.41544000  1.0
  H  H19  1  0.75737000  0.04789000  0.08451000  1.0
  H  H20  1  0.52567000  0.68530000  0.53978000  1.0
  H  H21  1  0.14488000  0.48511000  0.96018000  1.0
  H  H22  1  0.47433000  0.31470000  0.46022000  1.0
  H  H23  1  0.85511000  0.51487000  0.03982000  1.0
  C  C24  1  0.32398000  0.69107000  0.44169000  1.0
  C  C25  1  0.24889000  0.38181000  0.05829000  1.0
  C  C26  1  0.67603000  0.30894000  0.55831000  1.0
  C  C27  1  0.75111000  0.61819000  0.94171000  1.0
  C  C28  1  0.15793000  0.73225000  0.41536000  1.0
  C  C29  1  0.31653000  0.24225000  0.08464000  1.0
  C  C30  1  0.84207000  0.26775000  0.58464000  1.0
  C  C31  1  0.68347000  0.75775000  0.91536000  1.0
  C  C32  1  0.05564000  0.78105000  0.46722000  1.0
  C  C33  1  0.31381000  0.08818000  0.03283000  1.0
  C  C34  1  0.94436000  0.21896000  0.53278000  1.0
  C  C35  1  0.68619000  0.91182000  0.96717000  1.0
  C  C36  1  0.12030000  0.79382000  0.54444000  1.0
  C  C37  1  0.24953000  0.07558000  0.95560000  1.0
  C  C38  1  0.87971000  0.20619000  0.45556000  1.0
  C  C39  1  0.75047000  0.92441000  0.04440000  1.0
  C  C40  1  0.29237000  0.76401000  0.57021000  1.0
  C  C41  1  0.19362000  0.22164000  0.92980000  1.0
  C  C42  1  0.70763000  0.23600000  0.42979000  1.0
  C  C43  1  0.80638000  0.77835000  0.07020000  1.0
  C  C44  1  0.39487000  0.71354000  0.51904000  1.0
  C  C45  1  0.19401000  0.37520000  0.98093000  1.0
  C  C46  1  0.60513000  0.28646000  0.48096000  1.0
  C  C47  1  0.80598000  0.62479000  0.01907000  1.0
  C  C48  1  0.40303000  0.59097000  0.38819000  1.0
  C  C49  1  0.20227000  0.51438000  0.11179000  1.0
  C  C50  1  0.59697000  0.40904000  0.61181000  1.0
  C  C51  1  0.79772000  0.48561000  0.88821000  1.0
  C  C52  1  0.10107000  0.73440000  0.33341000  1.0
  C  C53  1  0.40069000  0.26745000  0.16660000  1.0
  C  C54  1  0.89892000  0.26559000  0.66658000  1.0
  C  C55  1  0.59931000  0.73255000  0.83340000  1.0
  N  N56  1  0.36426000  0.77899000  0.64991000  1.0
  N  N57  1  0.12897000  0.21389000  0.85009000  1.0
  N  N58  1  0.63575000  0.22101000  0.35009000  1.0
  N  N59  1  0.87103000  0.78611000  0.14991000  1.0
  O  O60  1  0.91239000  0.66917000  0.29983000  1.0
  O  O61  1  0.36907000  0.11233000  0.20017000  1.0
  O  O62  1  0.08761000  0.33083000  0.70017000  1.0
  O  O63  1  0.63094000  0.88768000  0.79984000  1.0
  O  O64  1  0.25429000  0.81286000  0.29767000  1.0
  O  O65  1  0.51494000  0.45646000  0.20232000  1.0
  O  O66  1  0.74571000  0.18714000  0.70233000  1.0
  O  O67  1  0.48506000  0.54353000  0.79768000  1.0
  O  O68  1  0.27733000  0.41079000  0.35150000  1.0
  O  O69  1  0.05903000  0.42555000  0.14857000  1.0
  O  O70  1  0.72268000  0.58923000  0.64850000  1.0
  O  O71  1  0.94098000  0.57445000  0.85144000  1.0
  O  O72  1  0.60083000  0.68718000  0.38523000  1.0
  O  O73  1  0.30137000  0.71514000  0.11466000  1.0
  O  O74  1  0.39918000  0.31282000  0.61477000  1.0
  O  O75  1  0.69862000  0.28485000  0.88534000  1.0
