# generated using pymatgen
data_DyH10C11NO7
_symmetry_space_group_name_H-M   'P 1'
_cell_length_a   8.07111000
_cell_length_b   8.07108000
_cell_length_c   17.82850000
_cell_angle_alpha   88.70060000
_cell_angle_beta   88.70070000
_cell_angle_gamma   89.68690000
_symmetry_Int_Tables_number   1
_chemical_formula_structural   DyH10C11NO7
_chemical_formula_sum   'Dy4 H40 C44 N4 O28'
_cell_volume   1160.78296152
_cell_formula_units_Z   4
loop_
 _symmetry_equiv_pos_site_id
 _symmetry_equiv_pos_as_xyz
  1  'x, y, z'
loop_
 _atom_site_type_symbol
 _atom_site_label
 _atom_site_symmetry_multiplicity
 _atom_site_fract_x
 _atom_site_fract_y
 _atom_site_fract_z
 _atom_site_occupancy
  Dy  Dy0  1  0.75763000  0.54250000  0.48712000  1.0
  Dy  Dy1  1  0.45750000  0.24237000  0.01288000  1.0
  Dy  Dy2  1  0.24237000  0.45750000  0.51288000  1.0
  Dy  Dy3  1  0.54250000  0.75763000  0.98712000  1.0
  H  H4  1  0.42260000  0.41879000  0.31195000  1.0
  H  H5  1  0.58122000  0.57740000  0.18805000  1.0
  H  H6  1  0.57740000  0.58121000  0.68805000  1.0
  H  H7  1  0.41878000  0.42260000  0.81195000  1.0
  H  H8  1  0.43213000  0.18396000  0.22063000  1.0
  H  H9  1  0.81605000  0.56787000  0.27937000  1.0
  H  H10  1  0.56788000  0.81604000  0.77936000  1.0
  H  H11  1  0.18395000  0.43212000  0.72064000  1.0
  H  H12  1  0.53677000  0.90216000  0.26709000  1.0
  H  H13  1  0.09784000  0.46322000  0.23290000  1.0
  H  H14  1  0.46323000  0.09784000  0.73291000  1.0
  H  H15  1  0.90215000  0.53677000  0.76709000  1.0
  H  H16  1  0.62343000  0.12760000  0.48038000  1.0
  H  H17  1  0.87239000  0.37657000  0.01962000  1.0
  H  H18  1  0.37657000  0.87240000  0.51962000  1.0
  H  H19  1  0.12760000  0.62344000  0.98038000  1.0
  H  H20  1  0.11165000  0.87215000  0.68839000  1.0
  H  H21  1  0.12785000  0.88834000  0.81161000  1.0
  H  H22  1  0.88835000  0.12785000  0.31161000  1.0
  H  H23  1  0.87215000  0.11166000  0.18839000  1.0
  H  H24  1  0.89650000  0.84019000  0.70992000  1.0
  H  H25  1  0.15981000  0.10349000  0.79008000  1.0
  H  H26  1  0.10350000  0.15980000  0.29008000  1.0
  H  H27  1  0.84019000  0.89651000  0.20992000  1.0
  H  H28  1  0.03820000  0.99877000  0.56411000  1.0
  H  H29  1  0.00123000  0.96179000  0.93590000  1.0
  H  H30  1  0.96180000  0.00123000  0.43590000  1.0
  H  H31  1  0.99877000  0.03820000  0.06410000  1.0
  H  H32  1  0.82708000  0.95454000  0.58188000  1.0
  H  H33  1  0.04546000  0.17291000  0.91812000  1.0
  H  H34  1  0.17291000  0.04546000  0.41812000  1.0
  H  H35  1  0.95454000  0.82709000  0.08188000  1.0
  H  H36  1  0.82142000  0.15123000  0.68849000  1.0
  H  H37  1  0.84877000  0.17857000  0.81151000  1.0
  H  H38  1  0.17857000  0.84877000  0.31152000  1.0
  H  H39  1  0.15123000  0.82143000  0.18849000  1.0
  H  H40  1  0.03625000  0.19692000  0.67042000  1.0
  H  H41  1  0.80308000  0.96374000  0.82958000  1.0
  H  H42  1  0.96374000  0.80308000  0.32959000  1.0
  H  H43  1  0.19692000  0.03626000  0.17041000  1.0
  C  C44  1  0.46767000  0.29524000  0.32606000  1.0
  C  C45  1  0.70477000  0.53233000  0.17394000  1.0
  C  C46  1  0.53234000  0.70477000  0.67394000  1.0
  C  C47  1  0.29523000  0.46767000  0.82606000  1.0
  C  C48  1  0.47364000  0.16296000  0.27778000  1.0
  C  C49  1  0.83705000  0.52635000  0.22222000  1.0
  C  C50  1  0.52636000  0.83705000  0.72222000  1.0
  C  C51  1  0.16295000  0.47365000  0.77778000  1.0
  C  C52  1  0.53273000  0.00930000  0.30320000  1.0
  C  C53  1  0.99070000  0.46726000  0.19679000  1.0
  C  C54  1  0.46727000  0.99070000  0.69680000  1.0
  C  C55  1  0.00929000  0.53274000  0.80321000  1.0
  C  C56  1  0.58827000  0.99286000  0.37672000  1.0
  C  C57  1  0.00714000  0.41173000  0.12328000  1.0
  C  C58  1  0.41173000  0.00715000  0.62328000  1.0
  C  C59  1  0.99286000  0.58827000  0.87672000  1.0
  C  C60  1  0.58123000  0.12935000  0.42302000  1.0
  C  C61  1  0.87065000  0.41877000  0.07698000  1.0
  C  C62  1  0.41877000  0.87065000  0.57698000  1.0
  C  C63  1  0.12935000  0.58123000  0.92302000  1.0
  C  C64  1  0.65571000  0.83309000  0.40884000  1.0
  C  C65  1  0.16691000  0.34428000  0.09116000  1.0
  C  C66  1  0.34429000  0.16691000  0.59116000  1.0
  C  C67  1  0.83309000  0.65572000  0.90884000  1.0
  C  C68  1  0.99471000  0.69111000  0.62080000  1.0
  C  C69  1  0.30889000  0.00529000  0.87920000  1.0
  C  C70  1  0.00529000  0.30889000  0.37921000  1.0
  C  C71  1  0.69111000  0.99471000  0.12080000  1.0
  C  C72  1  0.99035000  0.84961000  0.66433000  1.0
  C  C73  1  0.15039000  0.00964000  0.83567000  1.0
  C  C74  1  0.00965000  0.15039000  0.33567000  1.0
  C  C75  1  0.84961000  0.99036000  0.16433000  1.0
  C  C76  1  0.94265000  0.98851000  0.60892000  1.0
  C  C77  1  0.01149000  0.05734000  0.89108000  1.0
  C  C78  1  0.05734000  0.01149000  0.39109000  1.0
  C  C79  1  0.98851000  0.94266000  0.10892000  1.0
  C  C80  1  0.92041000  0.15742000  0.64530000  1.0
  C  C81  1  0.84259000  0.07959000  0.85470000  1.0
  C  C82  1  0.07959000  0.84258000  0.35470000  1.0
  C  C83  1  0.15742000  0.92041000  0.14530000  1.0
  C  C84  1  0.87236000  0.27917000  0.58451000  1.0
  C  C85  1  0.72083000  0.12764000  0.91549000  1.0
  C  C86  1  0.12764000  0.72083000  0.41549000  1.0
  C  C87  1  0.27917000  0.87236000  0.08451000  1.0
  N  N88  1  0.52019000  0.27572000  0.39740000  1.0
  N  N89  1  0.72428000  0.47981000  0.10260000  1.0
  N  N90  1  0.47981000  0.72428000  0.60260000  1.0
  N  N91  1  0.27572000  0.52019000  0.89740000  1.0
  O  O92  1  0.51033000  0.40445000  0.44327000  1.0
  O  O93  1  0.59554000  0.48968000  0.05673000  1.0
  O  O94  1  0.48967000  0.59555000  0.55672000  1.0
  O  O95  1  0.40445000  0.51033000  0.94327000  1.0
  O  O96  1  0.69327000  0.83121000  0.47818000  1.0
  O  O97  1  0.16879000  0.30672000  0.02182000  1.0
  O  O98  1  0.30672000  0.16880000  0.52182000  1.0
  O  O99  1  0.83121000  0.69329000  0.97818000  1.0
  O  O100  1  0.67460000  0.70682000  0.36834000  1.0
  O  O101  1  0.29318000  0.32540000  0.13166000  1.0
  O  O102  1  0.32540000  0.29318000  0.63166000  1.0
  O  O103  1  0.70682000  0.67460000  0.86834000  1.0
  O  O104  1  0.85542000  0.63707000  0.60006000  1.0
  O  O105  1  0.36293000  0.14457000  0.89994000  1.0
  O  O106  1  0.14457000  0.36293000  0.39994000  1.0
  O  O107  1  0.63707000  0.85543000  0.10006000  1.0
  O  O108  1  0.13609000  0.62847000  0.60456000  1.0
  O  O109  1  0.37153000  0.86391000  0.89544000  1.0
  O  O110  1  0.86391000  0.37153000  0.39544000  1.0
  O  O111  1  0.62847000  0.13609000  0.10456000  1.0
  O  O112  1  0.72070000  0.30891000  0.57221000  1.0
  O  O113  1  0.69108000  0.27930000  0.92778000  1.0
  O  O114  1  0.27930000  0.69109000  0.42779000  1.0
  O  O115  1  0.30892000  0.72070000  0.07221000  1.0
  O  O116  1  0.98553000  0.34688000  0.54267000  1.0
  O  O117  1  0.65313000  0.01447000  0.95733000  1.0
  O  O118  1  0.01447000  0.65312000  0.45733000  1.0
  O  O119  1  0.34688000  0.98553000  0.04267000  1.0
