# generated using pymatgen
data_AgH14C12S(NO)3
_symmetry_space_group_name_H-M   'P 1'
_cell_length_a   7.75983000
_cell_length_b   12.03480000
_cell_length_c   14.75060000
_cell_angle_alpha   93.84910000
_cell_angle_beta   90.07170000
_cell_angle_gamma   108.77200000
_symmetry_Int_Tables_number   1
_chemical_formula_structural   AgH14C12S(NO)3
_chemical_formula_sum   'Ag4 H56 C48 S4 N12 O12'
_cell_volume   1300.93080261
_cell_formula_units_Z   4
loop_
 _symmetry_equiv_pos_site_id
 _symmetry_equiv_pos_as_xyz
  1  'x, y, z'
loop_
 _atom_site_type_symbol
 _atom_site_label
 _atom_site_symmetry_multiplicity
 _atom_site_fract_x
 _atom_site_fract_y
 _atom_site_fract_z
 _atom_site_occupancy
  Ag  Ag0  1  0.64879000  0.71350000  0.33427000  1.0
  Ag  Ag1  1  0.93444000  0.28589000  0.16570000  1.0
  Ag  Ag2  1  0.35121000  0.28650000  0.66573000  1.0
  Ag  Ag3  1  0.06556000  0.71410000  0.83430000  1.0
  H  H4  1  0.02852000  0.90683000  0.29154000  1.0
  H  H5  1  0.12122000  0.09240000  0.20923000  1.0
  H  H6  1  0.97146000  0.09316000  0.70845000  1.0
  H  H7  1  0.87877000  0.90759000  0.79076000  1.0
  H  H8  1  0.49067000  0.90564000  0.29062000  1.0
  H  H9  1  0.58439000  0.09336000  0.20897000  1.0
  H  H10  1  0.50932000  0.09436000  0.70938000  1.0
  H  H11  1  0.41560000  0.90664000  0.79104000  1.0
  H  H12  1  0.32665000  0.62968000  0.46837000  1.0
  H  H13  1  0.69679000  0.37092000  0.03132000  1.0
  H  H14  1  0.67335000  0.37032000  0.53163000  1.0
  H  H15  1  0.30324000  0.62907000  0.96869000  1.0
  H  H16  1  0.77892000  0.52341000  0.41690000  1.0
  H  H17  1  0.25519000  0.47541000  0.08302000  1.0
  H  H18  1  0.22107000  0.47659000  0.58309000  1.0
  H  H19  1  0.74483000  0.52458000  0.91699000  1.0
  H  H20  1  0.19098000  0.98605000  0.96330000  1.0
  H  H21  1  0.20431000  0.01338000  0.53693000  1.0
  H  H22  1  0.80901000  0.01394000  0.03670000  1.0
  H  H23  1  0.79570000  0.98663000  0.46307000  1.0
  H  H24  1  0.35605000  0.91407000  0.97284000  1.0
  H  H25  1  0.44131000  0.08510000  0.52792000  1.0
  H  H26  1  0.64395000  0.08592000  0.02715000  1.0
  H  H27  1  0.55869000  0.91491000  0.47207000  1.0
  H  H28  1  0.34668000  0.02449000  0.05716000  1.0
  H  H29  1  0.32190000  0.97465000  0.44348000  1.0
  H  H30  1  0.65332000  0.97551000  0.94283000  1.0
  H  H31  1  0.67810000  0.02536000  0.55652000  1.0
  H  H32  1  0.33847000  0.84211000  0.15513000  1.0
  H  H33  1  0.49610000  0.15687000  0.34524000  1.0
  H  H34  1  0.66153000  0.15788000  0.84487000  1.0
  H  H35  1  0.50390000  0.84314000  0.65475000  1.0
  H  H36  1  0.81836000  0.55752000  0.25390000  1.0
  H  H37  1  0.26041000  0.44174000  0.24596000  1.0
  H  H38  1  0.18163000  0.44247000  0.74610000  1.0
  H  H39  1  0.73959000  0.55826000  0.75404000  1.0
  H  H40  1  0.64504000  0.55153000  0.18319000  1.0
  H  H41  1  0.09336000  0.44788000  0.31660000  1.0
  H  H42  1  0.35495000  0.44848000  0.81681000  1.0
  H  H43  1  0.90664000  0.55213000  0.68340000  1.0
  H  H44  1  0.53924000  0.70002000  0.12747000  1.0
  H  H45  1  0.83936000  0.29973000  0.37250000  1.0
  H  H46  1  0.46076000  0.29998000  0.87252000  1.0
  H  H47  1  0.16064000  0.70027000  0.62750000  1.0
  H  H48  1  0.57407000  0.60048000  0.04162000  1.0
  H  H49  1  0.97443000  0.39952000  0.45809000  1.0
  H  H50  1  0.42594000  0.39952000  0.95838000  1.0
  H  H51  1  0.02557000  0.60049000  0.54192000  1.0
  H  H52  1  0.59509000  0.74553000  0.01480000  1.0
  H  H53  1  0.85062000  0.25467000  0.48530000  1.0
  H  H54  1  0.40491000  0.25447000  0.98520000  1.0
  H  H55  1  0.14939000  0.74534000  0.51470000  1.0
  H  H56  1  0.89290000  0.85260000  0.98674000  1.0
  H  H57  1  0.04066000  0.14711000  0.51329000  1.0
  H  H58  1  0.10710000  0.14739000  0.01326000  1.0
  H  H59  1  0.95935000  0.85290000  0.48671000  1.0
  C  C60  1  0.92826000  0.94762000  0.27255000  1.0
  C  C61  1  0.98015000  0.05158000  0.22792000  1.0
  C  C62  1  0.07172000  0.05237000  0.72745000  1.0
  C  C63  1  0.01984000  0.94841000  0.77208000  1.0
  C  C64  1  0.63164000  0.94756000  0.27173000  1.0
  C  C65  1  0.68353000  0.05147000  0.22806000  1.0
  C  C66  1  0.36834000  0.05243000  0.72828000  1.0
  C  C67  1  0.31646000  0.94853000  0.77194000  1.0
  C  C68  1  0.40438000  0.57176000  0.48270000  1.0
  C  C69  1  0.83256000  0.42856000  0.01713000  1.0
  C  C70  1  0.59562000  0.42824000  0.51729000  1.0
  C  C71  1  0.16746000  0.57143000  0.98288000  1.0
  C  C72  1  0.65412000  0.51270000  0.45424000  1.0
  C  C73  1  0.14123000  0.48663000  0.04571000  1.0
  C  C74  1  0.34588000  0.48730000  0.54575000  1.0
  C  C75  1  0.85880000  0.51337000  0.95430000  1.0
  C  C76  1  0.26353000  0.95075000  0.01162000  1.0
  C  C77  1  0.31238000  0.04851000  0.48883000  1.0
  C  C78  1  0.73647000  0.04924000  0.98838000  1.0
  C  C79  1  0.68762000  0.95150000  0.51117000  1.0
  C  C80  1  0.07367000  0.72794000  0.18803000  1.0
  C  C81  1  0.34556000  0.27125000  0.31210000  1.0
  C  C82  1  0.92633000  0.27206000  0.81197000  1.0
  C  C83  1  0.65444000  0.72876000  0.68789000  1.0
  C  C84  1  0.19375000  0.81209000  0.13689000  1.0
  C  C85  1  0.38148000  0.18702000  0.36335000  1.0
  C  C86  1  0.80625000  0.18790000  0.86311000  1.0
  C  C87  1  0.61852000  0.81299000  0.63665000  1.0
  C  C88  1  0.88562000  0.68597000  0.16565000  1.0
  C  C89  1  0.19957000  0.31339000  0.33430000  1.0
  C  C90  1  0.11438000  0.31402000  0.83435000  1.0
  C  C91  1  0.80043000  0.68662000  0.66569000  1.0
  C  C92  1  0.62214000  0.69351000  0.06803000  1.0
  C  C93  1  0.92918000  0.30641000  0.43191000  1.0
  C  C94  1  0.37786000  0.30648000  0.93197000  1.0
  C  C95  1  0.07082000  0.69360000  0.56809000  1.0
  C  C96  1  0.13261000  0.85892000  0.06427000  1.0
  C  C97  1  0.27365000  0.14040000  0.43593000  1.0
  C  C98  1  0.86739000  0.14107000  0.93572000  1.0
  C  C99  1  0.72635000  0.85961000  0.56407000  1.0
  C  C100  1  0.82172000  0.73337000  0.09205000  1.0
  C  C101  1  0.08856000  0.26625000  0.40793000  1.0
  C  C102  1  0.17827000  0.26663000  0.90796000  1.0
  C  C103  1  0.91145000  0.73376000  0.59207000  1.0
  C  C104  1  0.94541000  0.81777000  0.04326000  1.0
  C  C105  1  0.12787000  0.18184000  0.45680000  1.0
  C  C106  1  0.05459000  0.18223000  0.95674000  1.0
  C  C107  1  0.87213000  0.81818000  0.54320000  1.0
  S  S108  1  0.17435000  0.69178000  0.28659000  1.0
  S  S109  1  0.48233000  0.30753000  0.21370000  1.0
  S  S110  1  0.82564000  0.30822000  0.71341000  1.0
  S  S111  1  0.51767000  0.69248000  0.78629000  1.0
  N  N112  1  0.55849000  0.58471000  0.43693000  1.0
  N  N113  1  0.97348000  0.41492000  0.06288000  1.0
  N  N114  1  0.44151000  0.41529000  0.56306000  1.0
  N  N115  1  0.02655000  0.58508000  0.93713000  1.0
  N  N116  1  0.75378000  0.89479000  0.29402000  1.0
  N  N117  1  0.85841000  0.10435000  0.20611000  1.0
  N  N118  1  0.24621000  0.10520000  0.70598000  1.0
  N  N119  1  0.14158000  0.89564000  0.79390000  1.0
  N  N120  1  0.76011000  0.60558000  0.21695000  1.0
  N  N121  1  0.15422000  0.39373000  0.28287000  1.0
  N  N122  1  0.23989000  0.39442000  0.78305000  1.0
  N  N123  1  0.84578000  0.60628000  0.71713000  1.0
  O  O124  1  0.03641000  0.59364000  0.32743000  1.0
  O  O125  1  0.44250000  0.40586000  0.17298000  1.0
  O  O126  1  0.96359000  0.40636000  0.67257000  1.0
  O  O127  1  0.55750000  0.59415000  0.82701000  1.0
  O  O128  1  0.22872000  0.80029000  0.34706000  1.0
  O  O129  1  0.42822000  0.19918000  0.15306000  1.0
  O  O130  1  0.77127000  0.19971000  0.65294000  1.0
  O  O131  1  0.57177000  0.80082000  0.84694000  1.0
  O  O132  1  0.33162000  0.65860000  0.25320000  1.0
  O  O133  1  0.67272000  0.34051000  0.24729000  1.0
  O  O134  1  0.66838000  0.34140000  0.74680000  1.0
  O  O135  1  0.32728000  0.65949000  0.75270000  1.0
