# generated using pymatgen
data_LaH5C9N3O7
_symmetry_space_group_name_H-M   'P 1'
_cell_length_a   9.34050000
_cell_length_b   10.45620000
_cell_length_c   12.65910000
_cell_angle_alpha   89.99940000
_cell_angle_beta   106.54100000
_cell_angle_gamma   90.00000000
_symmetry_Int_Tables_number   1
_chemical_formula_structural   LaH5C9N3O7
_chemical_formula_sum   'La4 H20 C36 N12 O28'
_cell_volume   1185.19995031
_cell_formula_units_Z   4
loop_
 _symmetry_equiv_pos_site_id
 _symmetry_equiv_pos_as_xyz
  1  'x, y, z'
loop_
 _atom_site_type_symbol
 _atom_site_label
 _atom_site_symmetry_multiplicity
 _atom_site_fract_x
 _atom_site_fract_y
 _atom_site_fract_z
 _atom_site_occupancy
  La  La0  1  0.88734000  0.87313000  0.32728000  1.0
  La  La1  1  0.88735000  0.12686000  0.82728000  1.0
  La  La2  1  0.38824000  0.42320000  0.32498000  1.0
  La  La3  1  0.38824000  0.57680000  0.82497000  1.0
  H  H4  1  0.09579000  0.16139000  0.27700000  1.0
  H  H5  1  0.09578000  0.83862000  0.77699000  1.0
  H  H6  1  0.16716000  0.21967000  0.66978000  1.0
  H  H7  1  0.16717000  0.78033000  0.16978000  1.0
  H  H8  1  0.18460000  0.74431000  0.57215000  1.0
  H  H9  1  0.18461000  0.25569000  0.07215000  1.0
  H  H10  1  0.76999000  0.48160000  0.60398000  1.0
  H  H11  1  0.76999000  0.51840000  0.10399000  1.0
  H  H12  1  0.66375000  0.67586000  0.09050000  1.0
  H  H13  1  0.66375000  0.32415000  0.59050000  1.0
  H  H14  1  0.49960000  0.09969000  0.94936000  1.0
  H  H15  1  0.49960000  0.90031000  0.44938000  1.0
  H  H16  1  0.19699000  0.74422000  0.37342000  1.0
  H  H17  1  0.19699000  0.25578000  0.87341000  1.0
  H  H18  1  0.23769000  0.88639000  0.34424000  1.0
  H  H19  1  0.23769000  0.11361000  0.84423000  1.0
  H  H20  1  0.51894000  0.45421000  0.13891000  1.0
  H  H21  1  0.51894000  0.54579000  0.63890000  1.0
  H  H22  1  0.60619000  0.32753000  0.18867000  1.0
  H  H23  1  0.60620000  0.67247000  0.68868000  1.0
  C  C24  1  0.11118000  0.17592000  0.36481000  1.0
  C  C25  1  0.11117000  0.82408000  0.86481000  1.0
  C  C26  1  0.22162000  0.28558000  0.52386000  1.0
  C  C27  1  0.22161000  0.71441000  0.02385000  1.0
  C  C28  1  0.15021000  0.20771000  0.58203000  1.0
  C  C29  1  0.15021000  0.79229000  0.08203000  1.0
  C  C30  1  0.05801000  0.11249000  0.52290000  1.0
  C  C31  1  0.05802000  0.88751000  0.02290000  1.0
  C  C32  1  0.96846000  0.02662000  0.57625000  1.0
  C  C33  1  0.96846000  0.97338000  0.07625000  1.0
  C  C34  1  0.32727000  0.38865000  0.58318000  1.0
  C  C35  1  0.32726000  0.61135000  0.08318000  1.0
  C  C36  1  0.09229000  0.68279000  0.57700000  1.0
  C  C37  1  0.09229000  0.31721000  0.07700000  1.0
  C  C38  1  0.00408000  0.52731000  0.67039000  1.0
  C  C39  1  0.00409000  0.47269000  0.17039000  1.0
  C  C40  1  0.86345000  0.53766000  0.59509000  1.0
  C  C41  1  0.86345000  0.46234000  0.09509000  1.0
  C  C42  1  0.84678000  0.62308000  0.50807000  1.0
  C  C43  1  0.84678000  0.37692000  0.00807000  1.0
  C  C44  1  0.69781000  0.64061000  0.42078000  1.0
  C  C45  1  0.69781000  0.35939000  0.92079000  1.0
  C  C46  1  0.03715000  0.42569000  0.75971000  1.0
  C  C47  1  0.03716000  0.57430000  0.25971000  1.0
  C  C48  1  0.62684000  0.77041000  0.05810000  1.0
  C  C49  1  0.62684000  0.22960000  0.55810000  1.0
  C  C50  1  0.62402000  0.98641000  0.08809000  1.0
  C  C51  1  0.62402000  0.01359000  0.58810000  1.0
  C  C52  1  0.53470000  0.00446000  0.98053000  1.0
  C  C53  1  0.53470000  0.99555000  0.48053000  1.0
  C  C54  1  0.49267000  0.89600000  0.91549000  1.0
  C  C55  1  0.49267000  0.10400000  0.41549000  1.0
  C  C56  1  0.38554000  0.90284000  0.79995000  1.0
  C  C57  1  0.38555000  0.09717000  0.29996000  1.0
  C  C58  1  0.67040000  0.09664000  0.16868000  1.0
  C  C59  1  0.67041000  0.90337000  0.66869000  1.0
  N  N60  1  0.04136000  0.09440000  0.41485000  1.0
  N  N61  1  0.04135000  0.90561000  0.91484000  1.0
  N  N62  1  0.20058000  0.27174000  0.41467000  1.0
  N  N63  1  0.20058000  0.72826000  0.91466000  1.0
  N  N64  1  0.96267000  0.69332000  0.49779000  1.0
  N  N65  1  0.96268000  0.30668000  0.99780000  1.0
  N  N66  1  0.11779000  0.60312000  0.66341000  1.0
  N  N67  1  0.11780000  0.39687000  0.16342000  1.0
  N  N68  1  0.53859000  0.77814000  0.95453000  1.0
  N  N69  1  0.53859000  0.22187000  0.45453000  1.0
  N  N70  1  0.67101000  0.86901000  0.12670000  1.0
  N  N71  1  0.67101000  0.13100000  0.62671000  1.0
  O  O72  1  0.88617000  0.94398000  0.51514000  1.0
  O  O73  1  0.88618000  0.05602000  0.01514000  1.0
  O  O74  1  0.97968000  0.04596000  0.67675000  1.0
  O  O75  1  0.97969000  0.95404000  0.17675000  1.0
  O  O76  1  0.39637000  0.45345000  0.52793000  1.0
  O  O77  1  0.39637000  0.54655000  0.02793000  1.0
  O  O78  1  0.33888000  0.40195000  0.68416000  1.0
  O  O79  1  0.33887000  0.59804000  0.18416000  1.0
  O  O80  1  0.68713000  0.73318000  0.35473000  1.0
  O  O81  1  0.68713000  0.26682000  0.85473000  1.0
  O  O82  1  0.59706000  0.56039000  0.42225000  1.0
  O  O83  1  0.59707000  0.43961000  0.92226000  1.0
  O  O84  1  0.16243000  0.43070000  0.83342000  1.0
  O  O85  1  0.16244000  0.56930000  0.33342000  1.0
  O  O86  1  0.93800000  0.34062000  0.75032000  1.0
  O  O87  1  0.93801000  0.65937000  0.25033000  1.0
  O  O88  1  0.36177000  0.79646000  0.74755000  1.0
  O  O89  1  0.36178000  0.20354000  0.24755000  1.0
  O  O90  1  0.32500000  0.00824000  0.76713000  1.0
  O  O91  1  0.32501000  0.99176000  0.26714000  1.0
  O  O92  1  0.72795000  0.06534000  0.26953000  1.0
  O  O93  1  0.72795000  0.93467000  0.76954000  1.0
  O  O94  1  0.64629000  0.20702000  0.12904000  1.0
  O  O95  1  0.64631000  0.79299000  0.62906000  1.0
  O  O96  1  0.17826000  0.83588000  0.38350000  1.0
  O  O97  1  0.17826000  0.16412000  0.88350000  1.0
  O  O98  1  0.56685000  0.41112000  0.20988000  1.0
  O  O99  1  0.56685000  0.58888000  0.70988000  1.0
