# generated using pymatgen
data_ZnH14C19(NO2)2
_symmetry_space_group_name_H-M   'P 1'
_cell_length_a   8.73901000
_cell_length_b   10.14810000
_cell_length_c   10.82510000
_cell_angle_alpha   77.01590000
_cell_angle_beta   70.38910000
_cell_angle_gamma   84.26660000
_symmetry_Int_Tables_number   1
_chemical_formula_structural   ZnH14C19(NO2)2
_chemical_formula_sum   'Zn2 H28 C38 N4 O8'
_cell_volume   880.89463218
_cell_formula_units_Z   2
loop_
 _symmetry_equiv_pos_site_id
 _symmetry_equiv_pos_as_xyz
  1  'x, y, z'
loop_
 _atom_site_type_symbol
 _atom_site_label
 _atom_site_symmetry_multiplicity
 _atom_site_fract_x
 _atom_site_fract_y
 _atom_site_fract_z
 _atom_site_occupancy
  Zn  Zn0  1  0.43777000  0.37785000  0.90454000  1.0
  Zn  Zn1  1  0.56224000  0.62215000  0.09546000  1.0
  H  H2  1  0.32551000  0.19581000  0.17873000  1.0
  H  H3  1  0.67449000  0.80419000  0.82126000  1.0
  H  H4  1  0.12658000  0.19805000  0.40416000  1.0
  H  H5  1  0.87343000  0.80195000  0.59583000  1.0
  H  H6  1  0.91273000  0.56374000  0.22587000  1.0
  H  H7  1  0.08727000  0.43627000  0.77413000  1.0
  H  H8  1  0.12396000  0.54685000  0.01121000  1.0
  H  H9  1  0.87604000  0.45315000  0.98879000  1.0
  H  H10  1  0.00279000  0.24221000  0.59077000  1.0
  H  H11  1  0.99722000  0.75778000  0.40923000  1.0
  H  H12  1  0.78180000  0.24996000  0.80502000  1.0
  H  H13  1  0.21821000  0.75003000  0.19498000  1.0
  H  H14  1  0.52088000  0.54027000  0.61905000  1.0
  H  H15  1  0.47914000  0.45973000  0.38096000  1.0
  H  H16  1  0.72457000  0.54416000  0.39457000  1.0
  H  H17  1  0.27544000  0.45584000  0.60543000  1.0
  H  H18  1  0.38421000  0.92313000  0.94087000  1.0
  H  H19  1  0.61577000  0.07688000  0.05914000  1.0
  H  H20  1  0.32245000  0.73253000  0.64404000  1.0
  H  H21  1  0.67755000  0.26747000  0.35597000  1.0
  H  H22  1  0.28741000  0.16725000  0.59465000  1.0
  H  H23  1  0.71258000  0.83275000  0.40535000  1.0
  H  H24  1  0.31897000  0.87025000  0.42971000  1.0
  H  H25  1  0.68103000  0.12974000  0.57030000  1.0
  H  H26  1  0.33918000  0.04777000  0.39638000  1.0
  H  H27  1  0.66082000  0.95222000  0.60362000  1.0
  H  H28  1  0.14463000  0.97492000  0.48005000  1.0
  H  H29  1  0.85537000  0.02507000  0.51995000  1.0
  C  C30  1  0.23335000  0.27658000  0.19481000  1.0
  C  C31  1  0.76665000  0.72343000  0.80518000  1.0
  C  C32  1  0.12126000  0.27887000  0.32059000  1.0
  C  C33  1  0.87874000  0.72114000  0.67940000  1.0
  C  C34  1  0.00279000  0.38329000  0.33786000  1.0
  C  C35  1  0.99721000  0.61671000  0.66213000  1.0
  C  C36  1  0.00214000  0.48042000  0.22290000  1.0
  C  C37  1  0.99786000  0.51958000  0.77710000  1.0
  C  C38  1  0.12012000  0.47164000  0.10126000  1.0
  C  C39  1  0.87988000  0.52837000  0.89874000  1.0
  C  C40  1  0.88194000  0.38919000  0.47039000  1.0
  C  C41  1  0.11807000  0.61081000  0.52961000  1.0
  C  C42  1  0.89699000  0.30845000  0.58975000  1.0
  C  C43  1  0.10302000  0.69155000  0.41024000  1.0
  C  C44  1  0.77496000  0.31268000  0.71087000  1.0
  C  C45  1  0.22505000  0.68732000  0.28913000  1.0
  C  C46  1  0.62898000  0.47461000  0.60669000  1.0
  C  C47  1  0.37103000  0.52539000  0.39331000  1.0
  C  C48  1  0.74416000  0.47568000  0.48158000  1.0
  C  C49  1  0.25585000  0.52432000  0.51842000  1.0
  C  C50  1  0.33128000  0.05756000  0.77369000  1.0
  C  C51  1  0.66870000  0.94244000  0.22632000  1.0
  C  C52  1  0.35673000  0.93056000  0.84841000  1.0
  C  C53  1  0.64325000  0.06944000  0.15159000  1.0
  C  C54  1  0.35086000  0.81362000  0.80196000  1.0
  C  C55  1  0.64913000  0.18638000  0.19805000  1.0
  C  C56  1  0.32349000  0.82468000  0.67955000  1.0
  C  C57  1  0.67650000  0.17532000  0.32045000  1.0
  C  C58  1  0.29988000  0.95081000  0.60297000  1.0
  C  C59  1  0.70011000  0.04918000  0.39703000  1.0
  C  C60  1  0.30234000  0.06657000  0.65241000  1.0
  C  C61  1  0.69764000  0.93343000  0.34760000  1.0
  C  C62  1  0.34420000  0.18494000  0.81792000  1.0
  C  C63  1  0.65579000  0.81507000  0.18208000  1.0
  C  C64  1  0.37974000  0.67692000  0.88036000  1.0
  C  C65  1  0.62026000  0.32308000  0.11965000  1.0
  C  C66  1  0.27454000  0.96158000  0.47035000  1.0
  C  C67  1  0.72545000  0.03841000  0.52966000  1.0
  N  N68  1  0.23561000  0.37306000  0.08637000  1.0
  N  N69  1  0.76439000  0.62694000  0.91362000  1.0
  N  N70  1  0.64164000  0.39347000  0.71981000  1.0
  N  N71  1  0.35837000  0.60653000  0.28019000  1.0
  O  O72  1  0.41422000  0.17536000  0.90675000  1.0
  O  O73  1  0.58578000  0.82464000  0.09325000  1.0
  O  O74  1  0.29203000  0.29652000  0.76437000  1.0
  O  O75  1  0.70796000  0.70349000  0.23562000  1.0
  O  O76  1  0.39617000  0.67044000  0.99365000  1.0
  O  O77  1  0.60383000  0.32957000  0.00636000  1.0
  O  O78  1  0.38263000  0.57502000  0.82836000  1.0
  O  O79  1  0.61738000  0.42498000  0.17164000  1.0
