# generated using pymatgen
data_CdH11C12N5Cl2O3
_symmetry_space_group_name_H-M   'P 1'
_cell_length_a   7.29636000
_cell_length_b   9.19171000
_cell_length_c   11.43760000
_cell_angle_alpha   83.26150000
_cell_angle_beta   89.14490000
_cell_angle_gamma   88.08970000
_symmetry_Int_Tables_number   1
_chemical_formula_structural   CdH11C12N5Cl2O3
_chemical_formula_sum   'Cd2 H22 C24 N10 Cl4 O6'
_cell_volume   761.30521382
_cell_formula_units_Z   2
loop_
 _symmetry_equiv_pos_site_id
 _symmetry_equiv_pos_as_xyz
  1  'x, y, z'
loop_
 _atom_site_type_symbol
 _atom_site_label
 _atom_site_symmetry_multiplicity
 _atom_site_fract_x
 _atom_site_fract_y
 _atom_site_fract_z
 _atom_site_occupancy
  Cd  Cd0  1  0.24903000  0.42297000  0.49514000  1.0
  Cd  Cd1  1  0.75097000  0.57703000  0.50486000  1.0
  H  H2  1  0.48289000  0.42296000  0.27302000  1.0
  H  H3  1  0.51711000  0.57704000  0.72698000  1.0
  H  H4  1  0.07075000  0.23926000  0.72292000  1.0
  H  H5  1  0.92925000  0.76075000  0.27708000  1.0
  H  H6  1  0.01575000  0.97732000  0.80671000  1.0
  H  H7  1  0.98424000  0.02269000  0.19328000  1.0
  H  H8  1  0.11045000  0.77722000  0.68532000  1.0
  H  H9  1  0.88954000  0.22278000  0.31468000  1.0
  H  H10  1  0.26529000  0.84240000  0.49029000  1.0
  H  H11  1  0.73471000  0.15760000  0.50971000  1.0
  H  H12  1  0.38329000  0.03274000  0.33675000  1.0
  H  H13  1  0.61672000  0.96725000  0.66325000  1.0
  H  H14  1  0.66286000  0.55248000  0.17828000  1.0
  H  H15  1  0.33714000  0.44752000  0.82173000  1.0
  H  H16  1  0.83831000  0.43294000  0.83510000  1.0
  H  H17  1  0.16169000  0.56706000  0.16490000  1.0
  H  H18  1  0.72166000  0.19408000  0.83909000  1.0
  H  H19  1  0.27833000  0.80592000  0.16091000  1.0
  H  H20  1  0.52770000  0.15140000  0.93236000  1.0
  H  H21  1  0.47230000  0.84860000  0.06764000  1.0
  H  H22  1  0.75050000  0.08924000  0.98111000  1.0
  H  H23  1  0.24950000  0.91076000  0.01889000  1.0
  C  C24  1  0.11081000  0.14720000  0.67496000  1.0
  C  C25  1  0.88918000  0.85281000  0.32503000  1.0
  C  C26  1  0.08060000  0.00266000  0.72073000  1.0
  C  C27  1  0.91939000  0.99735000  0.27927000  1.0
  C  C28  1  0.13500000  0.89139000  0.65358000  1.0
  C  C29  1  0.86500000  0.10862000  0.34643000  1.0
  C  C30  1  0.21987000  0.92722000  0.54444000  1.0
  C  C31  1  0.78013000  0.07278000  0.45556000  1.0
  C  C32  1  0.24734000  0.07494000  0.50471000  1.0
  C  C33  1  0.75266000  0.92506000  0.49529000  1.0
  C  C34  1  0.34184000  0.11699000  0.39233000  1.0
  C  C35  1  0.65816000  0.88301000  0.60767000  1.0
  C  C36  1  0.53466000  0.24631000  0.17434000  1.0
  C  C37  1  0.46534000  0.75368000  0.82566000  1.0
  C  C38  1  0.63561000  0.34936000  0.09128000  1.0
  C  C39  1  0.36439000  0.65064000  0.90872000  1.0
  C  C40  1  0.68511000  0.49154000  0.10345000  1.0
  C  C41  1  0.31489000  0.50846000  0.89655000  1.0
  C  C42  1  0.77494000  0.54390000  0.99788000  1.0
  C  C43  1  0.22506000  0.45610000  0.00212000  1.0
  C  C44  1  0.77997000  0.43339000  0.92298000  1.0
  C  C45  1  0.22003000  0.56661000  0.07703000  1.0
  C  C46  1  0.67268000  0.17867000  0.93046000  1.0
  C  C47  1  0.32732000  0.82133000  0.06955000  1.0
  N  N48  1  0.19081000  0.18192000  0.56989000  1.0
  N  N49  1  0.80919000  0.81808000  0.43011000  1.0
  N  N50  1  0.37637000  0.25417000  0.36568000  1.0
  N  N51  1  0.62363000  0.74583000  0.63432000  1.0
  N  N52  1  0.46855000  0.31258000  0.27063000  1.0
  N  N53  1  0.53145000  0.68742000  0.72937000  1.0
  N  N54  1  0.69612000  0.31641000  0.98027000  1.0
  N  N55  1  0.30388000  0.68359000  0.01973000  1.0
  N  N56  1  0.84746000  0.68583000  0.97188000  1.0
  N  N57  1  0.15254000  0.31417000  0.02812000  1.0
  Cl  Cl58  1  0.95760000  0.47320000  0.35111000  1.0
  Cl  Cl59  1  0.04240000  0.52680000  0.64889000  1.0
  Cl  Cl60  1  0.43409000  0.62364000  0.37042000  1.0
  Cl  Cl61  1  0.56592000  0.37636000  0.62958000  1.0
  O  O62  1  0.50788000  0.11685000  0.16219000  1.0
  O  O63  1  0.49212000  0.88315000  0.83781000  1.0
  O  O64  1  0.91910000  0.71849000  0.87297000  1.0
  O  O65  1  0.08090000  0.28151000  0.12704000  1.0
  O  O66  1  0.83552000  0.77087000  0.04967000  1.0
  O  O67  1  0.16449000  0.22913000  0.95033000  1.0
