# generated using pymatgen
data_FeH4C8O5
_symmetry_space_group_name_H-M   'P 1'
_cell_length_a   6.50133000
_cell_length_b   10.26860000
_cell_length_c   13.17110000
_cell_angle_alpha   108.62370000
_cell_angle_beta   90.12240000
_cell_angle_gamma   97.36510000
_symmetry_Int_Tables_number   1
_chemical_formula_structural   FeH4C8O5
_chemical_formula_sum   'Fe4 H16 C32 O20'
_cell_volume   825.51041730
_cell_formula_units_Z   4
loop_
 _symmetry_equiv_pos_site_id
 _symmetry_equiv_pos_as_xyz
  1  'x, y, z'
loop_
 _atom_site_type_symbol
 _atom_site_label
 _atom_site_symmetry_multiplicity
 _atom_site_fract_x
 _atom_site_fract_y
 _atom_site_fract_z
 _atom_site_occupancy
  Fe  Fe0  1  0.49956000  0.49847000  0.25875000  1.0
  Fe  Fe1  1  0.50043000  0.50153000  0.74125000  1.0
  Fe  Fe2  1  0.99994000  0.49873000  0.26222000  1.0
  Fe  Fe3  1  0.00005000  0.50129000  0.73777000  1.0
  H  H4  1  0.19608000  0.80626000  0.49819000  1.0
  H  H5  1  0.80396000  0.19373000  0.50181000  1.0
  H  H6  1  0.63140000  0.94732000  0.43140000  1.0
  H  H7  1  0.36864000  0.05267000  0.56860000  1.0
  H  H8  1  0.28748000  0.18976000  0.34094000  1.0
  H  H9  1  0.71251000  0.81024000  0.65906000  1.0
  H  H10  1  0.11964000  0.94302000  0.29473000  1.0
  H  H11  1  0.88035000  0.05701000  0.70525000  1.0
  H  H12  1  0.68688000  0.80178000  0.16248000  1.0
  H  H13  1  0.31313000  0.19822000  0.83750000  1.0
  H  H14  1  0.85504000  0.04859000  0.20906000  1.0
  H  H15  1  0.14495000  0.95141000  0.79095000  1.0
  H  H16  1  0.79568000  0.19393000  0.01383000  1.0
  H  H17  1  0.20429000  0.80606000  0.98615000  1.0
  H  H18  1  0.36726000  0.05282000  0.07081000  1.0
  H  H19  1  0.63271000  0.94718000  0.92920000  1.0
  C  C20  1  0.90351000  0.86307000  0.46166000  1.0
  C  C21  1  0.09652000  0.13690000  0.53834000  1.0
  C  C22  1  0.11158000  0.89191000  0.49998000  1.0
  C  C23  1  0.88845000  0.10808000  0.50000000  1.0
  C  C24  1  0.79227000  0.97160000  0.46193000  1.0
  C  C25  1  0.20776000  0.02838000  0.53806000  1.0
  C  C26  1  0.80582000  0.71611000  0.41275000  1.0
  C  C27  1  0.19418000  0.28387000  0.58727000  1.0
  C  C28  1  0.58207000  0.13298000  0.27947000  1.0
  C  C29  1  0.41793000  0.86703000  0.72052000  1.0
  C  C30  1  0.37383000  0.10415000  0.30264000  1.0
  C  C31  1  0.62617000  0.89586000  0.69736000  1.0
  C  C32  1  0.28000000  0.96735000  0.27589000  1.0
  C  C33  1  0.71999000  0.03266000  0.72411000  1.0
  C  C34  1  0.39361000  0.85862000  0.22607000  1.0
  C  C35  1  0.60637000  0.14138000  0.77393000  1.0
  C  C36  1  0.60067000  0.88747000  0.20086000  1.0
  C  C37  1  0.39933000  0.11254000  0.79914000  1.0
  C  C38  1  0.69453000  0.02424000  0.22773000  1.0
  C  C39  1  0.30549000  0.97578000  0.77227000  1.0
  C  C40  1  0.68037000  0.27977000  0.30365000  1.0
  C  C41  1  0.31964000  0.72023000  0.69634000  1.0
  C  C42  1  0.30129000  0.71215000  0.20938000  1.0
  C  C43  1  0.69873000  0.28786000  0.79064000  1.0
  C  C44  1  0.09121000  0.13719000  0.04607000  1.0
  C  C45  1  0.90877000  0.86281000  0.95391000  1.0
  C  C46  1  0.88376000  0.10826000  0.00677000  1.0
  C  C47  1  0.11621000  0.89173000  0.99324000  1.0
  C  C48  1  0.20713000  0.02858000  0.03908000  1.0
  C  C49  1  0.79284000  0.97142000  0.96094000  1.0
  C  C50  1  0.18376000  0.28345000  0.10305000  1.0
  C  C51  1  0.81623000  0.71655000  0.89692000  1.0
  O  O52  1  0.74380000  0.49814000  0.20315000  1.0
  O  O53  1  0.25622000  0.50186000  0.79684000  1.0
  O  O54  1  0.24438000  0.49860000  0.31784000  1.0
  O  O55  1  0.75560000  0.50141000  0.68216000  1.0
  O  O56  1  0.93030000  0.62362000  0.39848000  1.0
  O  O57  1  0.06968000  0.37635000  0.60154000  1.0
  O  O58  1  0.61451000  0.69032000  0.38636000  1.0
  O  O59  1  0.38549000  0.30969000  0.61366000  1.0
  O  O60  1  0.55535000  0.37268000  0.33390000  1.0
  O  O61  1  0.44466000  0.62730000  0.66609000  1.0
  O  O62  1  0.87194000  0.30552000  0.29228000  1.0
  O  O63  1  0.12807000  0.69452000  0.70771000  1.0
  O  O64  1  0.11126000  0.68597000  0.22545000  1.0
  O  O65  1  0.88876000  0.31402000  0.77461000  1.0
  O  O66  1  0.42914000  0.62166000  0.18206000  1.0
  O  O67  1  0.57087000  0.37837000  0.81795000  1.0
  O  O68  1  0.05472000  0.37389000  0.12329000  1.0
  O  O69  1  0.94530000  0.62614000  0.87668000  1.0
  O  O70  1  0.37464000  0.30982000  0.12963000  1.0
  O  O71  1  0.62533000  0.69015000  0.87037000  1.0
