# generated using pymatgen
data_KH4C4BrN2O3
_symmetry_space_group_name_H-M   'P 1'
_cell_length_a   7.26879000
_cell_length_b   8.04759000
_cell_length_c   13.28300000
_cell_angle_alpha   97.56600000
_cell_angle_beta   89.99960000
_cell_angle_gamma   89.99990000
_symmetry_Int_Tables_number   1
_chemical_formula_structural   KH4C4BrN2O3
_chemical_formula_sum   'K4 H16 C16 Br4 N8 O12'
_cell_volume   770.24085021
_cell_formula_units_Z   4
loop_
 _symmetry_equiv_pos_site_id
 _symmetry_equiv_pos_as_xyz
  1  'x, y, z'
loop_
 _atom_site_type_symbol
 _atom_site_label
 _atom_site_symmetry_multiplicity
 _atom_site_fract_x
 _atom_site_fract_y
 _atom_site_fract_z
 _atom_site_occupancy
  K  K0  1  0.05375000  0.30329000  0.80506000  1.0
  K  K1  1  0.55374000  0.19669000  0.69492000  1.0
  K  K2  1  0.94625000  0.69672000  0.19494000  1.0
  K  K3  1  0.44625000  0.80327000  0.30505000  1.0
  H  H4  1  0.79525000  0.93588000  0.48478000  1.0
  H  H5  1  0.29525000  0.56412000  0.01522000  1.0
  H  H6  1  0.20474000  0.06412000  0.51522000  1.0
  H  H7  1  0.70475000  0.43589000  0.98477000  1.0
  H  H8  1  0.01477000  0.84073000  0.48356000  1.0
  H  H9  1  0.51478000  0.65927000  0.01644000  1.0
  H  H10  1  0.98522000  0.15927000  0.51644000  1.0
  H  H11  1  0.48523000  0.34073000  0.98357000  1.0
  H  H12  1  0.73157000  0.42815000  0.49159000  1.0
  H  H13  1  0.23157000  0.07185000  0.00842000  1.0
  H  H14  1  0.26843000  0.57185000  0.50841000  1.0
  H  H15  1  0.76843000  0.92816000  0.99159000  1.0
  H  H16  1  0.88169000  0.72920000  0.75260000  1.0
  H  H17  1  0.38168000  0.77080000  0.74740000  1.0
  H  H18  1  0.11831000  0.27079000  0.24740000  1.0
  H  H19  1  0.61831000  0.22921000  0.25260000  1.0
  C  C20  1  0.88240000  0.86036000  0.62618000  1.0
  C  C21  1  0.38242000  0.63963000  0.87381000  1.0
  C  C22  1  0.11759000  0.13963000  0.37382000  1.0
  C  C23  1  0.61760000  0.36037000  0.12619000  1.0
  C  C24  1  0.79621000  0.66953000  0.46407000  1.0
  C  C25  1  0.29620000  0.83047000  0.03593000  1.0
  C  C26  1  0.20378000  0.33047000  0.53593000  1.0
  C  C27  1  0.70380000  0.16953000  0.96408000  1.0
  C  C28  1  0.82102000  0.56058000  0.62713000  1.0
  C  C29  1  0.32102000  0.93941000  0.87288000  1.0
  C  C30  1  0.17900000  0.43942000  0.37287000  1.0
  C  C31  1  0.67900000  0.06058000  0.12712000  1.0
  C  C32  1  0.87265000  0.83295000  0.51239000  1.0
  C  C33  1  0.37266000  0.66704000  0.98762000  1.0
  C  C34  1  0.12734000  0.16705000  0.48761000  1.0
  C  C35  1  0.62735000  0.33296000  0.01239000  1.0
  Br  Br36  1  0.10823000  0.31674000  0.07512000  1.0
  Br  Br37  1  0.60827000  0.18323000  0.42488000  1.0
  Br  Br38  1  0.89173000  0.68323000  0.92488000  1.0
  Br  Br39  1  0.39172000  0.81678000  0.57512000  1.0
  N  N40  1  0.78440000  0.54375000  0.52423000  1.0
  N  N41  1  0.28440000  0.95625000  0.97578000  1.0
  N  N42  1  0.21560000  0.45625000  0.47578000  1.0
  N  N43  1  0.71560000  0.04375000  0.02422000  1.0
  N  N44  1  0.86947000  0.71825000  0.67398000  1.0
  N  N45  1  0.36947000  0.78175000  0.82602000  1.0
  N  N46  1  0.13052000  0.28175000  0.32602000  1.0
  N  N47  1  0.63053000  0.21825000  0.17398000  1.0
  O  O48  1  0.80956000  0.43903000  0.67487000  1.0
  O  O49  1  0.30956000  0.06097000  0.82513000  1.0
  O  O50  1  0.19044000  0.56097000  0.32513000  1.0
  O  O51  1  0.69043000  0.93902000  0.17488000  1.0
  O  O52  1  0.75292000  0.64480000  0.37335000  1.0
  O  O53  1  0.25293000  0.85520000  0.12664000  1.0
  O  O54  1  0.24707000  0.35520000  0.62665000  1.0
  O  O55  1  0.74708000  0.14480000  0.87336000  1.0
  O  O56  1  0.90490000  0.00056000  0.67431000  1.0
  O  O57  1  0.40491000  0.49945000  0.82568000  1.0
  O  O58  1  0.09510000  0.99943000  0.32569000  1.0
  O  O59  1  0.59512000  0.50057000  0.17431000  1.0
