# generated using pymatgen
data_CdH12C18(N3O2)2
_symmetry_space_group_name_H-M   'P 1'
_cell_length_a   8.35712000
_cell_length_b   17.70730000
_cell_length_c   19.15980000
_cell_angle_alpha   90.00010000
_cell_angle_beta   90.00000000
_cell_angle_gamma   89.99990000
_symmetry_Int_Tables_number   1
_chemical_formula_structural   CdH12C18(N3O2)2
_chemical_formula_sum   'Cd4 H48 C72 N24 O16'
_cell_volume   2835.30611709
_cell_formula_units_Z   4
loop_
 _symmetry_equiv_pos_site_id
 _symmetry_equiv_pos_as_xyz
  1  'x, y, z'
loop_
 _atom_site_type_symbol
 _atom_site_label
 _atom_site_symmetry_multiplicity
 _atom_site_fract_x
 _atom_site_fract_y
 _atom_site_fract_z
 _atom_site_occupancy
  Cd  Cd0  1  0.51963000  0.08593000  0.96844000  1.0
  Cd  Cd1  1  0.48037000  0.58593000  0.03156000  1.0
  Cd  Cd2  1  0.48037000  0.08593000  0.46844000  1.0
  Cd  Cd3  1  0.51963000  0.58593000  0.53156000  1.0
  H  H4  1  0.35465000  0.08334000  0.13332000  1.0
  H  H5  1  0.64536000  0.58334000  0.86667000  1.0
  H  H6  1  0.64536000  0.08334000  0.63333000  1.0
  H  H7  1  0.35464000  0.58334000  0.36668000  1.0
  H  H8  1  0.84120000  0.11029000  0.08537000  1.0
  H  H9  1  0.15880000  0.61029000  0.91463000  1.0
  H  H10  1  0.15880000  0.11029000  0.58537000  1.0
  H  H11  1  0.84120000  0.61029000  0.41463000  1.0
  H  H12  1  0.01469000  0.04305000  0.16197000  1.0
  H  H13  1  0.98531000  0.54305000  0.83803000  1.0
  H  H14  1  0.98531000  0.04305000  0.66197000  1.0
  H  H15  1  0.01469000  0.54306000  0.33803000  1.0
  H  H16  1  0.23227000  0.04379000  0.25236000  1.0
  H  H17  1  0.76773000  0.54379000  0.74764000  1.0
  H  H18  1  0.76772000  0.04379000  0.75236000  1.0
  H  H19  1  0.23227000  0.54379000  0.24764000  1.0
  H  H20  1  0.90080000  0.12544000  0.40515000  1.0
  H  H21  1  0.09920000  0.62545000  0.59485000  1.0
  H  H22  1  0.09919000  0.12545000  0.90515000  1.0
  H  H23  1  0.90080000  0.62544000  0.09485000  1.0
  H  H24  1  0.68120000  0.12679000  0.31525000  1.0
  H  H25  1  0.31880000  0.62679000  0.68475000  1.0
  H  H26  1  0.31879000  0.12679000  0.81525000  1.0
  H  H27  1  0.68120000  0.62678000  0.18475000  1.0
  H  H28  1  0.58960000  0.25600000  0.86893000  1.0
  H  H29  1  0.41040000  0.75600000  0.13107000  1.0
  H  H30  1  0.41042000  0.25600000  0.36892000  1.0
  H  H31  1  0.58960000  0.75600000  0.63107000  1.0
  H  H32  1  0.20009000  0.19783000  0.99684000  1.0
  H  H33  1  0.79991000  0.69783000  0.00316000  1.0
  H  H34  1  0.79991000  0.19783000  0.49684000  1.0
  H  H35  1  0.20009000  0.69783000  0.50316000  1.0
  H  H36  1  0.28632000  0.44285000  0.96152000  1.0
  H  H37  1  0.71367000  0.94285000  0.03848000  1.0
  H  H38  1  0.71368000  0.44284000  0.46152000  1.0
  H  H39  1  0.28632000  0.94285000  0.53848000  1.0
  H  H40  1  0.05918000  0.53193000  0.98949000  1.0
  H  H41  1  0.94081000  0.03193000  0.01051000  1.0
  H  H42  1  0.94082000  0.53193000  0.48949000  1.0
  H  H43  1  0.05918000  0.03193000  0.51051000  1.0
  H  H44  1  0.72455000  0.34919000  0.97385000  1.0
  H  H45  1  0.27544000  0.84920000  0.02615000  1.0
  H  H46  1  0.27546000  0.34920000  0.47385000  1.0
  H  H47  1  0.72455000  0.84920000  0.52615000  1.0
  H  H48  1  0.94703000  0.25958000  0.94519000  1.0
  H  H49  1  0.05297000  0.75958000  0.05481000  1.0
  H  H50  1  0.05298000  0.25959000  0.44519000  1.0
  H  H51  1  0.94703000  0.75958000  0.55481000  1.0
  C  C52  1  0.48336000  0.08774000  0.13945000  1.0
  C  C53  1  0.51664000  0.58774000  0.86054000  1.0
  C  C54  1  0.51664000  0.08774000  0.63946000  1.0
  C  C55  1  0.48336000  0.58774000  0.36054000  1.0
  C  C56  1  0.72968000  0.10069000  0.11285000  1.0
  C  C57  1  0.27033000  0.60069000  0.88715000  1.0
  C  C58  1  0.27032000  0.10069000  0.61285000  1.0
  C  C59  1  0.72967000  0.60069000  0.38715000  1.0
  C  C60  1  0.83809000  0.08830000  0.23361000  1.0
  C  C61  1  0.16191000  0.58830000  0.76639000  1.0
  C  C62  1  0.16191000  0.08830000  0.73361000  1.0
  C  C63  1  0.83809000  0.58830000  0.26639000  1.0
  C  C64  1  0.99122000  0.06357000  0.21468000  1.0
  C  C65  1  0.00878000  0.56357000  0.78532000  1.0
  C  C66  1  0.00878000  0.06357000  0.71468000  1.0
  C  C67  1  0.99122000  0.56357000  0.28532000  1.0
  C  C68  1  0.11195000  0.06340000  0.26478000  1.0
  C  C69  1  0.88805000  0.56340000  0.73522000  1.0
  C  C70  1  0.88804000  0.06340000  0.76478000  1.0
  C  C71  1  0.11195000  0.56340000  0.23522000  1.0
  C  C72  1  0.08004000  0.08775000  0.33301000  1.0
  C  C73  1  0.91995000  0.58775000  0.66699000  1.0
  C  C74  1  0.91995000  0.08775000  0.83301000  1.0
  C  C75  1  0.08005000  0.58775000  0.16699000  1.0
  C  C76  1  0.92475000  0.10979000  0.35125000  1.0
  C  C77  1  0.07525000  0.60979000  0.64875000  1.0
  C  C78  1  0.07524000  0.10980000  0.85125000  1.0
  C  C79  1  0.92475000  0.60979000  0.14875000  1.0
  C  C80  1  0.80281000  0.11016000  0.30194000  1.0
  C  C81  1  0.19719000  0.61017000  0.69806000  1.0
  C  C82  1  0.19719000  0.11017000  0.80194000  1.0
  C  C83  1  0.80281000  0.61016000  0.19806000  1.0
  C  C84  1  0.21092000  0.09070000  0.38627000  1.0
  C  C85  1  0.78907000  0.59070000  0.61373000  1.0
  C  C86  1  0.78907000  0.09070000  0.88627000  1.0
  C  C87  1  0.21093000  0.59070000  0.11373000  1.0
  C  C88  1  0.47719000  0.25907000  0.89715000  1.0
  C  C89  1  0.52281000  0.75907000  0.10285000  1.0
  C  C90  1  0.52283000  0.25907000  0.39715000  1.0
  C  C91  1  0.47719000  0.75908000  0.60285000  1.0
  C  C92  1  0.28037000  0.22778000  0.96200000  1.0
  C  C93  1  0.71963000  0.72778000  0.03800000  1.0
  C  C94  1  0.71964000  0.22778000  0.46200000  1.0
  C  C95  1  0.28037000  0.72778000  0.53800000  1.0
  C  C96  1  0.12785000  0.34776000  0.95110000  1.0
  C  C97  1  0.87214000  0.84776000  0.04890000  1.0
  C  C98  1  0.87215000  0.34776000  0.45110000  1.0
  C  C99  1  0.12785000  0.84776000  0.54890000  1.0
  C  C100  1  0.16227000  0.42386000  0.96294000  1.0
  C  C101  1  0.83772000  0.92386000  0.03706000  1.0
  C  C102  1  0.83773000  0.42386000  0.46294000  1.0
  C  C103  1  0.16227000  0.92386000  0.53707000  1.0
  C  C104  1  0.03660000  0.47271000  0.97768000  1.0
  C  C105  1  0.96340000  0.97271000  0.02232000  1.0
  C  C106  1  0.96340000  0.47271000  0.47768000  1.0
  C  C107  1  0.03660000  0.97271000  0.52232000  1.0
  C  C108  1  0.87893000  0.44598000  0.98097000  1.0
  C  C109  1  0.12106000  0.94599000  0.01904000  1.0
  C  C110  1  0.12107000  0.44599000  0.48097000  1.0
  C  C111  1  0.87894000  0.94599000  0.51903000  1.0
  C  C112  1  0.84765000  0.36910000  0.97041000  1.0
  C  C113  1  0.15234000  0.86910000  0.02960000  1.0
  C  C114  1  0.15235000  0.36911000  0.47041000  1.0
  C  C115  1  0.84766000  0.86910000  0.52959000  1.0
  C  C116  1  0.97183000  0.31933000  0.95476000  1.0
  C  C117  1  0.02817000  0.81933000  0.04525000  1.0
  C  C118  1  0.02818000  0.31933000  0.45476000  1.0
  C  C119  1  0.97183000  0.81933000  0.54525000  1.0
  C  C120  1  0.74588000  0.50050000  0.99532000  1.0
  C  C121  1  0.25412000  0.00051000  0.00468000  1.0
  C  C122  1  0.25412000  0.50051000  0.49532000  1.0
  C  C123  1  0.74588000  0.00051000  0.50468000  1.0
  N  N124  1  0.58461000  0.09829000  0.08412000  1.0
  N  N125  1  0.41540000  0.59829000  0.91588000  1.0
  N  N126  1  0.41539000  0.09829000  0.58412000  1.0
  N  N127  1  0.58460000  0.59829000  0.41588000  1.0
  N  N128  1  0.71509000  0.09101000  0.18251000  1.0
  N  N129  1  0.28491000  0.59101000  0.81749000  1.0
  N  N130  1  0.28491000  0.09101000  0.68251000  1.0
  N  N131  1  0.71509000  0.59101000  0.31749000  1.0
  N  N132  1  0.55751000  0.08343000  0.20034000  1.0
  N  N133  1  0.44249000  0.58343000  0.79966000  1.0
  N  N134  1  0.44249000  0.08343000  0.70034000  1.0
  N  N135  1  0.55751000  0.58343000  0.29966000  1.0
  N  N136  1  0.41897000  0.20149000  0.93743000  1.0
  N  N137  1  0.58103000  0.70149000  0.06257000  1.0
  N  N138  1  0.58104000  0.20149000  0.43743000  1.0
  N  N139  1  0.41897000  0.70149000  0.56257000  1.0
  N  N140  1  0.25726000  0.29798000  0.93690000  1.0
  N  N141  1  0.74273000  0.79798000  0.06310000  1.0
  N  N142  1  0.74275000  0.29798000  0.43689000  1.0
  N  N143  1  0.25726000  0.79798000  0.56310000  1.0
  N  N144  1  0.38270000  0.31915000  0.89546000  1.0
  N  N145  1  0.61729000  0.81915000  0.10454000  1.0
  N  N146  1  0.61731000  0.31915000  0.39546000  1.0
  N  N147  1  0.38270000  0.81916000  0.60454000  1.0
  O  O148  1  0.34203000  0.05667000  0.37135000  1.0
  O  O149  1  0.65796000  0.55667000  0.62865000  1.0
  O  O150  1  0.65796000  0.05667000  0.87135000  1.0
  O  O151  1  0.34204000  0.55667000  0.12865000  1.0
  O  O152  1  0.18920000  0.12680000  0.44299000  1.0
  O  O153  1  0.81080000  0.62681000  0.55701000  1.0
  O  O154  1  0.81080000  0.12681000  0.94299000  1.0
  O  O155  1  0.18920000  0.62680000  0.05701000  1.0
  O  O156  1  0.77089000  0.57063000  0.98544000  1.0
  O  O157  1  0.22911000  0.07063000  0.01456000  1.0
  O  O158  1  0.22911000  0.57063000  0.48544000  1.0
  O  O159  1  0.77089000  0.07063000  0.51456000  1.0
  O  O160  1  0.61198000  0.47379000  0.01656000  1.0
  O  O161  1  0.38802000  0.97379000  0.98344000  1.0
  O  O162  1  0.38802000  0.47379000  0.51656000  1.0
  O  O163  1  0.61199000  0.97379000  0.48344000  1.0
