# generated using pymatgen
data_UP2H10(C2O3)3
_symmetry_space_group_name_H-M   'P 1'
_cell_length_a   10.87590000
_cell_length_b   11.18190000
_cell_length_c   24.15220000
_cell_angle_alpha   89.99270000
_cell_angle_beta   89.97350000
_cell_angle_gamma   67.48600000
_symmetry_Int_Tables_number   1
_chemical_formula_structural   UP2H10(C2O3)3
_chemical_formula_sum   'U6 P12 H60 C36 O54'
_cell_volume   2713.36884557
_cell_formula_units_Z   6
loop_
 _symmetry_equiv_pos_site_id
 _symmetry_equiv_pos_as_xyz
  1  'x, y, z'
loop_
 _atom_site_type_symbol
 _atom_site_label
 _atom_site_symmetry_multiplicity
 _atom_site_fract_x
 _atom_site_fract_y
 _atom_site_fract_z
 _atom_site_occupancy
  U  U0  1  0.93837000  0.11290000  0.75245000  1.0
  U  U1  1  0.06157000  0.88714000  0.25240000  1.0
  U  U2  1  0.79083000  0.38154000  0.95557000  1.0
  U  U3  1  0.20929000  0.61843000  0.45560000  1.0
  U  U4  1  0.21389000  0.62004000  0.04590000  1.0
  U  U5  1  0.78608000  0.37996000  0.54591000  1.0
  P  P6  1  0.48680000  0.34069000  0.98559000  1.0
  P  P7  1  0.51320000  0.65935000  0.48563000  1.0
  P  P8  1  0.51741000  0.66212000  0.01637000  1.0
  P  P9  1  0.48267000  0.33779000  0.51634000  1.0
  P  P10  1  0.07179000  0.25680000  0.85708000  1.0
  P  P11  1  0.92849000  0.74305000  0.35713000  1.0
  P  P12  1  0.93582000  0.74580000  0.14345000  1.0
  P  P13  1  0.06395000  0.25434000  0.64342000  1.0
  P  P14  1  0.17246000  0.93945000  0.11085000  1.0
  P  P15  1  0.82733000  0.06062000  0.61086000  1.0
  P  P16  1  0.83209000  0.06744000  0.89088000  1.0
  P  P17  1  0.16807000  0.93247000  0.39085000  1.0
  H  H18  1  0.80507000  0.92055000  0.72514000  1.0
  H  H19  1  0.19512000  0.07940000  0.22505000  1.0
  H  H20  1  0.94328000  0.82734000  0.74608000  1.0
  H  H21  1  0.05682000  0.17267000  0.24591000  1.0
  H  H22  1  0.80918000  0.65065000  0.95906000  1.0
  H  H23  1  0.19092000  0.34930000  0.45909000  1.0
  H  H24  1  0.19393000  0.35169000  0.04037000  1.0
  H  H25  1  0.80598000  0.64837000  0.54038000  1.0
  H  H26  1  0.95988000  0.56880000  0.94645000  1.0
  H  H27  1  0.04025000  0.43118000  0.44646000  1.0
  H  H28  1  0.04270000  0.43340000  0.05183000  1.0
  H  H29  1  0.95719000  0.56663000  0.55183000  1.0
  H  H30  1  0.52641000  0.38923000  0.90239000  1.0
  H  H31  1  0.47368000  0.61095000  0.40243000  1.0
  H  H32  1  0.47870000  0.60282000  0.09765000  1.0
  H  H33  1  0.52116000  0.39728000  0.59759000  1.0
  H  H34  1  0.21243000  0.35052000  0.87282000  1.0
  H  H35  1  0.78778000  0.64940000  0.37291000  1.0
  H  H36  1  0.79469000  0.65177000  0.13057000  1.0
  H  H37  1  0.20511000  0.34833000  0.63050000  1.0
  H  H38  1  0.35363000  0.81934000  0.15415000  1.0
  H  H39  1  0.64524000  0.18147000  0.65347000  1.0
  H  H40  1  0.68198000  0.16099000  0.82931000  1.0
  H  H41  1  0.31837000  0.83896000  0.32928000  1.0
  H  H42  1  0.41028000  0.12619000  0.90048000  1.0
  H  H43  1  0.58990000  0.87372000  0.40059000  1.0
  H  H44  1  0.59850000  0.87591000  0.10117000  1.0
  H  H45  1  0.40128000  0.12418000  0.60108000  1.0
  H  H46  1  0.07758000  0.06898000  0.97557000  1.0
  H  H47  1  0.92257000  0.93085000  0.47560000  1.0
  H  H48  1  0.92745000  0.93427000  0.02326000  1.0
  H  H49  1  0.07248000  0.06573000  0.52323000  1.0
  H  H50  1  0.36072000  0.15150000  0.07727000  1.0
  H  H51  1  0.63921000  0.84855000  0.57738000  1.0
  H  H52  1  0.64045000  0.85212000  0.92400000  1.0
  H  H53  1  0.35963000  0.14782000  0.42391000  1.0
  H  H54  1  0.59333000  0.12090000  0.96210000  1.0
  H  H55  1  0.40666000  0.87923000  0.46229000  1.0
  H  H56  1  0.41216000  0.88196000  0.04024000  1.0
  H  H57  1  0.58785000  0.11786000  0.54006000  1.0
  H  H58  1  0.56875000  0.14402000  0.03437000  1.0
  H  H59  1  0.43134000  0.85587000  0.53454000  1.0
  H  H60  1  0.43587000  0.85845000  0.96790000  1.0
  H  H61  1  0.56404000  0.14162000  0.46775000  1.0
  H  H62  1  0.12105000  0.03428000  0.87481000  1.0
  H  H63  1  0.87921000  0.96555000  0.37484000  1.0
  H  H64  1  0.89026000  0.96712000  0.12401000  1.0
  H  H65  1  0.10950000  0.03301000  0.62399000  1.0
  H  H66  1  0.25803000  0.05757000  0.84338000  1.0
  H  H67  1  0.74225000  0.94229000  0.34345000  1.0
  H  H68  1  0.75293000  0.94783000  0.15673000  1.0
  H  H69  1  0.24678000  0.05233000  0.65668000  1.0
  H  H70  1  0.02755000  0.13914000  0.07427000  1.0
  H  H71  1  0.97242000  0.86081000  0.57435000  1.0
  H  H72  1  0.97272000  0.86281000  0.92373000  1.0
  H  H73  1  0.02735000  0.13709000  0.42371000  1.0
  H  H74  1  0.15115000  0.15820000  0.11661000  1.0
  H  H75  1  0.84865000  0.84190000  0.61669000  1.0
  H  H76  1  0.84344000  0.85338000  0.88166000  1.0
  H  H77  1  0.15665000  0.14654000  0.38160000  1.0
  C  C78  1  0.39851000  0.14136000  0.98938000  1.0
  C  C79  1  0.60155000  0.85860000  0.48948000  1.0
  C  C80  1  0.60685000  0.86081000  0.01223000  1.0
  C  C81  1  0.39309000  0.13921000  0.51214000  1.0
  C  C82  1  0.35419000  0.12101000  0.93732000  1.0
  C  C83  1  0.64594000  0.87892000  0.43742000  1.0
  C  C84  1  0.65327000  0.88087000  0.06390000  1.0
  C  C85  1  0.34656000  0.11921000  0.56382000  1.0
  C  C86  1  0.23850000  0.09578000  0.93204000  1.0
  C  C87  1  0.76167000  0.90410000  0.43211000  1.0
  C  C88  1  0.76913000  0.90634000  0.06821000  1.0
  C  C89  1  0.23069000  0.09376000  0.56815000  1.0
  C  C90  1  0.16870000  0.08723000  0.97963000  1.0
  C  C91  1  0.83143000  0.91265000  0.47968000  1.0
  C  C92  1  0.83656000  0.91539000  0.02002000  1.0
  C  C93  1  0.16335000  0.08464000  0.51998000  1.0
  C  C94  1  0.21153000  0.10750000  0.03201000  1.0
  C  C95  1  0.78852000  0.89244000  0.53208000  1.0
  C  C96  1  0.79130000  0.89601000  0.96793000  1.0
  C  C97  1  0.20869000  0.10398000  0.46787000  1.0
  C  C98  1  0.32576000  0.13621000  0.03652000  1.0
  C  C99  1  0.67425000  0.86377000  0.53661000  1.0
  C  C100  1  0.67731000  0.86675000  0.96446000  1.0
  C  C101  1  0.32269000  0.13325000  0.46438000  1.0
  C  C102  1  0.52027000  0.17153000  0.99390000  1.0
  C  C103  1  0.47976000  0.82848000  0.49403000  1.0
  C  C104  1  0.48469000  0.83108000  0.00833000  1.0
  C  C105  1  0.51529000  0.16888000  0.50821000  1.0
  C  C106  1  0.18189000  0.09289000  0.87587000  1.0
  C  C107  1  0.81835000  0.90696000  0.37593000  1.0
  C  C108  1  0.82794000  0.90989000  0.12395000  1.0
  C  C109  1  0.17181000  0.09023000  0.62391000  1.0
  C  C110  1  0.13520000  0.09987000  0.08278000  1.0
  C  C111  1  0.86475000  0.90013000  0.58284000  1.0
  C  C112  1  0.86452000  0.90571000  0.91658000  1.0
  C  C113  1  0.13556000  0.09422000  0.41654000  1.0
  O  O114  1  0.86873000  0.90727000  0.75520000  1.0
  O  O115  1  0.13131000  0.09275000  0.25509000  1.0
  O  O116  1  0.86973000  0.57211000  0.94063000  1.0
  O  O117  1  0.13043000  0.42786000  0.44067000  1.0
  O  O118  1  0.13267000  0.42946000  0.05906000  1.0
  O  O119  1  0.86720000  0.57057000  0.55906000  1.0
  O  O120  1  0.45104000  0.37877000  0.92210000  1.0
  O  O121  1  0.54900000  0.62146000  0.42212000  1.0
  O  O122  1  0.55033000  0.62487000  0.08035000  1.0
  O  O123  1  0.44974000  0.37485000  0.58035000  1.0
  O  O124  1  0.61610000  0.35625000  0.00140000  1.0
  O  O125  1  0.38387000  0.64378000  0.50144000  1.0
  O  O126  1  0.38738000  0.64741000  0.00066000  1.0
  O  O127  1  0.61272000  0.35252000  0.50065000  1.0
  O  O128  1  0.36357000  0.41434000  0.01986000  1.0
  O  O129  1  0.63637000  0.58560000  0.51988000  1.0
  O  O130  1  0.64054000  0.58810000  0.98231000  1.0
  O  O131  1  0.35957000  0.41192000  0.48232000  1.0
  O  O132  1  0.16518000  0.33342000  0.84135000  1.0
  O  O133  1  0.83515000  0.66639000  0.34143000  1.0
  O  O134  1  0.84027000  0.67315000  0.16155000  1.0
  O  O135  1  0.15951000  0.32696000  0.66149000  1.0
  O  O136  1  0.98807000  0.32034000  0.90761000  1.0
  O  O137  1  0.01214000  0.67957000  0.40765000  1.0
  O  O138  1  0.01550000  0.67858000  0.09258000  1.0
  O  O139  1  0.98436000  0.32156000  0.59255000  1.0
  O  O140  1  0.99388000  0.25634000  0.80520000  1.0
  O  O141  1  0.00646000  0.74350000  0.30524000  1.0
  O  O142  1  0.01867000  0.74593000  0.19377000  1.0
  O  O143  1  0.98100000  0.25424000  0.69374000  1.0
  O  O144  1  0.08477000  0.95754000  0.16198000  1.0
  O  O145  1  0.91467000  0.04270000  0.66204000  1.0
  O  O146  1  0.93016000  0.04838000  0.84305000  1.0
  O  O147  1  0.07015000  0.95144000  0.34302000  1.0
  O  O148  1  0.16020000  0.84775000  0.06665000  1.0
  O  O149  1  0.83981000  0.15227000  0.56666000  1.0
  O  O150  1  0.84186000  0.15455000  0.93780000  1.0
  O  O151  1  0.15826000  0.84539000  0.43779000  1.0
  O  O152  1  0.32498000  0.89784000  0.13144000  1.0
  O  O153  1  0.67465000  0.10218000  0.63127000  1.0
  O  O154  1  0.68398000  0.11997000  0.86576000  1.0
  O  O155  1  0.31626000  0.87995000  0.36573000  1.0
  O  O156  1  0.69167000  0.40595000  0.89260000  1.0
  O  O157  1  0.30858000  0.59405000  0.39263000  1.0
  O  O158  1  0.31340000  0.59607000  0.10910000  1.0
  O  O159  1  0.68641000  0.40389000  0.60911000  1.0
  O  O160  1  0.88632000  0.35509000  0.01957000  1.0
  O  O161  1  0.11369000  0.64487000  0.51960000  1.0
  O  O162  1  0.11939000  0.64753000  0.98175000  1.0
  O  O163  1  0.88069000  0.35245000  0.48176000  1.0
  O  O164  1  0.75751000  0.19994000  0.75685000  1.0
  O  O165  1  0.24249000  0.80020000  0.25651000  1.0
  O  O166  1  0.11120000  0.00266000  0.74966000  1.0
  O  O167  1  0.88871000  0.99734000  0.24984000  1.0
