# generated using pymatgen
data_CdH10C10N2Cl2O
_symmetry_space_group_name_H-M   'P 1'
_cell_length_a   3.83352000
_cell_length_b   16.44330000
_cell_length_c   18.33050000
_cell_angle_alpha   89.99990000
_cell_angle_beta   89.99990000
_cell_angle_gamma   90.00000000
_symmetry_Int_Tables_number   1
_chemical_formula_structural   CdH10C10N2Cl2O
_chemical_formula_sum   'Cd4 H40 C40 N8 Cl8 O4'
_cell_volume   1155.47625475
_cell_formula_units_Z   4
loop_
 _symmetry_equiv_pos_site_id
 _symmetry_equiv_pos_as_xyz
  1  'x, y, z'
loop_
 _atom_site_type_symbol
 _atom_site_label
 _atom_site_symmetry_multiplicity
 _atom_site_fract_x
 _atom_site_fract_y
 _atom_site_fract_z
 _atom_site_occupancy
  Cd  Cd0  1  0.27010000  0.49745000  0.40423000  1.0
  Cd  Cd1  1  0.77010000  0.50255000  0.59577000  1.0
  Cd  Cd2  1  0.27010000  0.99745000  0.09577000  1.0
  Cd  Cd3  1  0.77010000  0.00255000  0.90423000  1.0
  H  H4  1  0.04980000  0.18268000  0.20749000  1.0
  H  H5  1  0.54980000  0.81732000  0.79251000  1.0
  H  H6  1  0.04980000  0.68268000  0.29251000  1.0
  H  H7  1  0.54980000  0.31732000  0.70749000  1.0
  H  H8  1  0.48102000  0.29385000  0.39425000  1.0
  H  H9  1  0.98102000  0.70615000  0.60575000  1.0
  H  H10  1  0.48102000  0.79385000  0.10575000  1.0
  H  H11  1  0.98102000  0.20615000  0.89425000  1.0
  H  H12  1  0.56699000  0.09409000  0.28737000  1.0
  H  H13  1  0.06700000  0.90591000  0.71264000  1.0
  H  H14  1  0.56699000  0.59409000  0.21264000  1.0
  H  H15  1  0.06699000  0.40591000  0.78737000  1.0
  H  H16  1  0.17530000  0.08821000  0.33756000  1.0
  H  H17  1  0.67531000  0.91179000  0.66244000  1.0
  H  H18  1  0.17530000  0.58821000  0.16244000  1.0
  H  H19  1  0.67531000  0.41179000  0.83756000  1.0
  H  H20  1  0.55782000  0.12708000  0.38039000  1.0
  H  H21  1  0.05783000  0.87292000  0.61961000  1.0
  H  H22  1  0.55783000  0.62708000  0.11961000  1.0
  H  H23  1  0.05782000  0.37292000  0.88039000  1.0
  H  H24  1  0.75469000  0.44218000  0.21303000  1.0
  H  H25  1  0.25470000  0.55782000  0.78696000  1.0
  H  H26  1  0.75469000  0.94218000  0.28696000  1.0
  H  H27  1  0.25469000  0.05782000  0.71304000  1.0
  H  H28  1  0.55491000  0.49629000  0.09324000  1.0
  H  H29  1  0.05492000  0.50371000  0.90676000  1.0
  H  H30  1  0.55492000  0.99629000  0.40676000  1.0
  H  H31  1  0.05492000  0.00371000  0.59324000  1.0
  H  H32  1  0.68097000  0.42238000  0.97915000  1.0
  H  H33  1  0.18097000  0.57762000  0.02085000  1.0
  H  H34  1  0.68097000  0.92238000  0.52085000  1.0
  H  H35  1  0.18097000  0.07762000  0.47915000  1.0
  H  H36  1  0.01730000  0.29115000  0.98432000  1.0
  H  H37  1  0.51729000  0.70884000  0.01568000  1.0
  H  H38  1  0.01730000  0.79116000  0.51568000  1.0
  H  H39  1  0.51730000  0.20884000  0.48432000  1.0
  H  H40  1  0.22616000  0.23827000  0.10152000  1.0
  H  H41  1  0.72617000  0.76173000  0.89848000  1.0
  H  H42  1  0.22616000  0.73827000  0.39848000  1.0
  H  H43  1  0.72616000  0.26173000  0.60152000  1.0
  C  C44  1  0.22959000  0.34521000  0.29511000  1.0
  C  C45  1  0.72959000  0.65479000  0.70489000  1.0
  C  C46  1  0.22959000  0.84521000  0.20489000  1.0
  C  C47  1  0.72958000  0.15479000  0.79511000  1.0
  C  C48  1  0.36173000  0.28287000  0.34162000  1.0
  C  C49  1  0.86174000  0.71714000  0.65838000  1.0
  C  C50  1  0.36174000  0.78286000  0.15838000  1.0
  C  C51  1  0.86174000  0.21713000  0.84162000  1.0
  C  C52  1  0.32441000  0.20938000  0.30588000  1.0
  C  C53  1  0.82441000  0.79062000  0.69412000  1.0
  C  C54  1  0.32440000  0.70938000  0.19412000  1.0
  C  C55  1  0.82441000  0.29062000  0.80588000  1.0
  C  C56  1  0.41092000  0.12526000  0.32920000  1.0
  C  C57  1  0.91093000  0.87474000  0.67080000  1.0
  C  C58  1  0.41093000  0.62526000  0.17080000  1.0
  C  C59  1  0.91093000  0.37474000  0.82920000  1.0
  C  C60  1  0.00149000  0.33701000  0.16464000  1.0
  C  C61  1  0.50150000  0.66299000  0.83537000  1.0
  C  C62  1  0.00149000  0.83701000  0.33536000  1.0
  C  C63  1  0.50150000  0.16299000  0.66464000  1.0
  C  C64  1  0.81664000  0.41057000  0.16254000  1.0
  C  C65  1  0.31664000  0.58943000  0.83746000  1.0
  C  C66  1  0.81664000  0.91057000  0.33746000  1.0
  C  C67  1  0.31664000  0.08943000  0.66254000  1.0
  C  C68  1  0.70792000  0.44069000  0.09526000  1.0
  C  C69  1  0.20792000  0.55931000  0.90474000  1.0
  C  C70  1  0.70793000  0.94070000  0.40474000  1.0
  C  C71  1  0.20792000  0.05931000  0.59526000  1.0
  C  C72  1  0.77670000  0.39847000  0.03083000  1.0
  C  C73  1  0.27670000  0.60153000  0.96917000  1.0
  C  C74  1  0.77670000  0.89847000  0.46917000  1.0
  C  C75  1  0.27670000  0.10153000  0.53083000  1.0
  C  C76  1  0.95946000  0.32518000  0.03383000  1.0
  C  C77  1  0.45946000  0.67482000  0.96617000  1.0
  C  C78  1  0.95947000  0.82518000  0.46617000  1.0
  C  C79  1  0.45947000  0.17482000  0.53383000  1.0
  C  C80  1  0.07424000  0.29421000  0.10031000  1.0
  C  C81  1  0.57424000  0.70579000  0.89969000  1.0
  C  C82  1  0.07424000  0.79421000  0.39969000  1.0
  C  C83  1  0.57424000  0.20579000  0.60031000  1.0
  N  N84  1  0.11168000  0.30514000  0.23234000  1.0
  N  N85  1  0.61168000  0.69486000  0.76766000  1.0
  N  N86  1  0.11168000  0.80514000  0.26766000  1.0
  N  N87  1  0.61168000  0.19486000  0.73234000  1.0
  N  N88  1  0.18735000  0.22367000  0.23881000  1.0
  N  N89  1  0.68735000  0.77633000  0.76119000  1.0
  N  N90  1  0.18735000  0.72367000  0.26118000  1.0
  N  N91  1  0.68735000  0.27633000  0.73882000  1.0
  Cl  Cl92  1  0.77054000  0.41135000  0.47129000  1.0
  Cl  Cl93  1  0.27054000  0.58865000  0.52871000  1.0
  Cl  Cl94  1  0.77055000  0.91135000  0.02871000  1.0
  Cl  Cl95  1  0.27055000  0.08865000  0.97129000  1.0
  Cl  Cl96  1  0.76956000  0.59016000  0.35252000  1.0
  Cl  Cl97  1  0.26956000  0.40985000  0.64748000  1.0
  Cl  Cl98  1  0.76956000  0.09015000  0.14748000  1.0
  Cl  Cl99  1  0.26956000  0.90984000  0.85252000  1.0
  O  O100  1  0.21774000  0.42217000  0.30117000  1.0
  O  O101  1  0.71776000  0.57783000  0.69883000  1.0
  O  O102  1  0.21776000  0.92217000  0.19883000  1.0
  O  O103  1  0.71774000  0.07783000  0.80117000  1.0
