# generated using pymatgen
data_MnH19C21(NO3)2
_symmetry_space_group_name_H-M   'P 1'
_cell_length_a   8.57093000
_cell_length_b   9.97313000
_cell_length_c   13.08380000
_cell_angle_alpha   73.43020000
_cell_angle_beta   79.01720000
_cell_angle_gamma   81.57460000
_symmetry_Int_Tables_number   1
_chemical_formula_structural   MnH19C21(NO3)2
_chemical_formula_sum   'Mn2 H38 C42 N4 O12'
_cell_volume   1047.25023007
_cell_formula_units_Z   2
loop_
 _symmetry_equiv_pos_site_id
 _symmetry_equiv_pos_as_xyz
  1  'x, y, z'
loop_
 _atom_site_type_symbol
 _atom_site_label
 _atom_site_symmetry_multiplicity
 _atom_site_fract_x
 _atom_site_fract_y
 _atom_site_fract_z
 _atom_site_occupancy
  Mn  Mn0  1  0.95174000  0.84357000  0.82012000  1.0
  Mn  Mn1  1  0.04826000  0.15643000  0.17988000  1.0
  H  H2  1  0.03873000  0.82013000  0.02856000  1.0
  H  H3  1  0.96127000  0.17987000  0.97144000  1.0
  H  H4  1  0.03446000  0.66977000  0.00684000  1.0
  H  H5  1  0.96555000  0.33024000  0.99316000  1.0
  H  H6  1  0.97306000  0.89820000  0.56806000  1.0
  H  H7  1  0.02695000  0.10175000  0.43194000  1.0
  H  H8  1  0.79892000  0.89706000  0.43449000  1.0
  H  H9  1  0.20109000  0.10290000  0.56552000  1.0
  H  H10  1  0.51230000  0.84254000  0.50659000  1.0
  H  H11  1  0.48769000  0.15746000  0.49341000  1.0
  H  H12  1  0.40988000  0.81201000  0.70116000  1.0
  H  H13  1  0.59011000  0.18802000  0.29884000  1.0
  H  H14  1  0.33952000  0.79856000  0.86558000  1.0
  H  H15  1  0.66047000  0.20146000  0.13442000  1.0
  H  H16  1  0.27544000  0.79268000  0.05973000  1.0
  H  H17  1  0.72456000  0.20734000  0.94027000  1.0
  H  H18  1  0.48922000  0.82483000  0.15448000  1.0
  H  H19  1  0.51078000  0.17518000  0.84552000  1.0
  H  H20  1  0.76404000  0.85824000  0.04929000  1.0
  H  H21  1  0.23596000  0.14176000  0.95071000  1.0
  H  H22  1  0.95419000  0.36678000  0.81647000  1.0
  H  H23  1  0.04582000  0.63323000  0.18354000  1.0
  H  H24  1  0.38793000  0.55859000  0.67785000  1.0
  H  H25  1  0.61207000  0.44142000  0.32214000  1.0
  H  H26  1  0.36488000  0.12365000  0.68867000  1.0
  H  H27  1  0.63511000  0.87635000  0.31133000  1.0
  H  H28  1  0.64562000  0.46268000  0.68318000  1.0
  H  H29  1  0.35437000  0.53732000  0.31680000  1.0
  H  H30  1  0.59392000  0.52726000  0.55090000  1.0
  H  H31  1  0.40608000  0.47274000  0.44908000  1.0
  H  H32  1  0.81124000  0.35296000  0.48873000  1.0
  H  H33  1  0.18875000  0.64702000  0.51127000  1.0
  H  H34  1  0.86984000  0.30472000  0.61825000  1.0
  H  H35  1  0.13014000  0.69527000  0.38175000  1.0
  H  H36  1  0.91347000  0.55850000  0.59437000  1.0
  H  H37  1  0.08653000  0.44148000  0.40564000  1.0
  H  H38  1  0.85687000  0.60323000  0.46518000  1.0
  H  H39  1  0.14312000  0.39676000  0.53483000  1.0
  C  C40  1  0.84669000  0.88228000  0.59331000  1.0
  C  C41  1  0.15333000  0.11768000  0.40669000  1.0
  C  C42  1  0.75001000  0.87828000  0.52014000  1.0
  C  C43  1  0.25000000  0.12169000  0.47987000  1.0
  C  C44  1  0.59165000  0.85032000  0.56023000  1.0
  C  C45  1  0.40834000  0.14968000  0.43977000  1.0
  C  C46  1  0.53396000  0.83273000  0.66991000  1.0
  C  C47  1  0.46604000  0.16729000  0.33009000  1.0
  C  C48  1  0.63809000  0.84254000  0.73764000  1.0
  C  C49  1  0.36192000  0.15747000  0.26236000  1.0
  C  C50  1  0.58845000  0.83147000  0.85435000  1.0
  C  C51  1  0.41155000  0.16854000  0.14565000  1.0
  C  C52  1  0.43260000  0.81053000  0.90766000  1.0
  C  C53  1  0.56740000  0.18949000  0.09234000  1.0
  C  C54  1  0.39626000  0.80601000  0.01696000  1.0
  C  C55  1  0.60374000  0.19401000  0.98303000  1.0
  C  C56  1  0.51474000  0.82392000  0.06998000  1.0
  C  C57  1  0.48526000  0.17610000  0.93002000  1.0
  C  C58  1  0.66716000  0.84330000  0.01187000  1.0
  C  C59  1  0.33285000  0.15671000  0.98813000  1.0
  C  C60  1  0.05721000  0.10575000  0.79462000  1.0
  C  C61  1  0.94278000  0.89426000  0.20539000  1.0
  C  C62  1  0.14938000  0.23161000  0.75574000  1.0
  C  C63  1  0.85062000  0.76839000  0.24427000  1.0
  C  C64  1  0.07803000  0.35771000  0.77779000  1.0
  C  C65  1  0.92197000  0.64230000  0.22222000  1.0
  C  C66  1  0.16502000  0.47377000  0.74972000  1.0
  C  C67  1  0.83499000  0.52623000  0.25029000  1.0
  C  C68  1  0.32379000  0.46584000  0.69803000  1.0
  C  C69  1  0.67622000  0.53416000  0.30197000  1.0
  C  C70  1  0.39511000  0.33959000  0.67560000  1.0
  C  C71  1  0.60488000  0.66041000  0.32440000  1.0
  C  C72  1  0.30727000  0.22254000  0.70393000  1.0
  C  C73  1  0.69272000  0.77747000  0.29608000  1.0
  C  C74  1  0.08780000  0.60517000  0.77911000  1.0
  C  C75  1  0.91222000  0.39484000  0.22090000  1.0
  C  C76  1  0.64671000  0.43465000  0.60723000  1.0
  C  C77  1  0.35328000  0.56534000  0.39276000  1.0
  C  C78  1  0.81506000  0.39188000  0.55890000  1.0
  C  C79  1  0.18494000  0.60810000  0.44110000  1.0
  C  C80  1  0.91400000  0.51763000  0.52435000  1.0
  C  C81  1  0.08600000  0.48235000  0.47565000  1.0
  N  N82  1  0.70407000  0.84581000  0.90711000  1.0
  N  N83  1  0.29593000  0.15420000  0.09288000  1.0
  N  N84  1  0.79281000  0.86481000  0.69890000  1.0
  N  N85  1  0.20720000  0.13517000  0.30110000  1.0
  O  O86  1  0.08330000  0.01607000  0.73856000  1.0
  O  O87  1  0.91669000  0.98394000  0.26146000  1.0
  O  O88  1  0.95875000  0.09149000  0.88198000  1.0
  O  O89  1  0.04123000  0.90852000  0.11803000  1.0
  O  O90  1  0.15106000  0.72058000  0.73431000  1.0
  O  O91  1  0.84896000  0.27943000  0.26569000  1.0
  O  O92  1  0.96054000  0.59786000  0.84849000  1.0
  O  O93  1  0.03949000  0.40214000  0.15153000  1.0
  O  O94  1  0.04951000  0.76826000  0.97120000  1.0
  O  O95  1  0.95049000  0.23174000  0.02881000  1.0
  O  O96  1  0.55064000  0.31938000  0.62897000  1.0
  O  O97  1  0.44935000  0.68062000  0.37102000  1.0
