# generated using pymatgen
data_ZnH7C5N5O6
_symmetry_space_group_name_H-M   'P 1'
_cell_length_a   8.18108000
_cell_length_b   9.98218000
_cell_length_c   11.14080000
_cell_angle_alpha   90.00000000
_cell_angle_beta   105.92900000
_cell_angle_gamma   90.00000000
_symmetry_Int_Tables_number   1
_chemical_formula_structural   ZnH7C5N5O6
_chemical_formula_sum   'Zn4 H28 C20 N20 O24'
_cell_volume   874.87903272
_cell_formula_units_Z   4
loop_
 _symmetry_equiv_pos_site_id
 _symmetry_equiv_pos_as_xyz
  1  'x, y, z'
loop_
 _atom_site_type_symbol
 _atom_site_label
 _atom_site_symmetry_multiplicity
 _atom_site_fract_x
 _atom_site_fract_y
 _atom_site_fract_z
 _atom_site_occupancy
  Zn  Zn0  1  0.24092000  0.13855000  0.26041000  1.0
  Zn  Zn1  1  0.75908000  0.63855000  0.23959000  1.0
  Zn  Zn2  1  0.75908000  0.86145000  0.73959000  1.0
  Zn  Zn3  1  0.24092000  0.36145000  0.76041000  1.0
  H  H4  1  0.22255000  0.13131000  0.50791000  1.0
  H  H5  1  0.77745000  0.63131000  0.99209000  1.0
  H  H6  1  0.77745000  0.86869000  0.49209000  1.0
  H  H7  1  0.22255000  0.36869000  0.00791000  1.0
  H  H8  1  0.26751000  0.27822000  0.48182000  1.0
  H  H9  1  0.73249000  0.77822000  0.01818000  1.0
  H  H10  1  0.73249000  0.72178000  0.51818000  1.0
  H  H11  1  0.26751000  0.22178000  0.98182000  1.0
  H  H12  1  0.46406000  0.33434000  0.22474000  1.0
  H  H13  1  0.53594000  0.83434000  0.27526000  1.0
  H  H14  1  0.53594000  0.66566000  0.77526000  1.0
  H  H15  1  0.46406000  0.16566000  0.72474000  1.0
  H  H16  1  0.39907000  0.93002000  0.39506000  1.0
  H  H17  1  0.60094000  0.43002000  0.10494000  1.0
  H  H18  1  0.60094000  0.06998000  0.60494000  1.0
  H  H19  1  0.39906000  0.56998000  0.89506000  1.0
  H  H20  1  0.08775000  0.68299000  0.15590000  1.0
  H  H21  1  0.91225000  0.18299000  0.34410000  1.0
  H  H22  1  0.91225000  0.31701000  0.84410000  1.0
  H  H23  1  0.08775000  0.81701000  0.65590000  1.0
  H  H24  1  0.51857000  0.18453000  0.19999000  1.0
  H  H25  1  0.48143000  0.68453000  0.30001000  1.0
  H  H26  1  0.48143000  0.81547000  0.80001000  1.0
  H  H27  1  0.51857000  0.31547000  0.69999000  1.0
  H  H28  1  0.53818000  0.03530000  0.38058000  1.0
  H  H29  1  0.46182000  0.53530000  0.11942000  1.0
  H  H30  1  0.46182000  0.96470000  0.61942000  1.0
  H  H31  1  0.53818000  0.46470000  0.88058000  1.0
  C  C32  1  0.23601000  0.96160000  0.03557000  1.0
  C  C33  1  0.76399000  0.46160000  0.46443000  1.0
  C  C34  1  0.76399000  0.03840000  0.96443000  1.0
  C  C35  1  0.23601000  0.53840000  0.53557000  1.0
  C  C36  1  0.19460000  0.83416000  0.08106000  1.0
  C  C37  1  0.80541000  0.33417000  0.41894000  1.0
  C  C38  1  0.80540000  0.16584000  0.91894000  1.0
  C  C39  1  0.19460000  0.66584000  0.58106000  1.0
  C  C40  1  0.28045000  0.75976000  0.00469000  1.0
  C  C41  1  0.71955000  0.25976000  0.49531000  1.0
  C  C42  1  0.71955000  0.24024000  0.99531000  1.0
  C  C43  1  0.28045000  0.74024000  0.50469000  1.0
  C  C44  1  0.31921000  0.88971000  0.94981000  1.0
  C  C45  1  0.68079000  0.38971000  0.55019000  1.0
  C  C46  1  0.68079000  0.11029000  0.05019000  1.0
  C  C47  1  0.31921000  0.61029000  0.44981000  1.0
  C  C48  1  0.03274000  0.86059000  0.23242000  1.0
  C  C49  1  0.96726000  0.36059000  0.26758000  1.0
  C  C50  1  0.96726000  0.13941000  0.76758000  1.0
  C  C51  1  0.03274000  0.63941000  0.73242000  1.0
  N  N52  1  0.05943000  0.99015000  0.26451000  1.0
  N  N53  1  0.94058000  0.49015000  0.23549000  1.0
  N  N54  1  0.94058000  0.00985000  0.73549000  1.0
  N  N55  1  0.05942000  0.50985000  0.76451000  1.0
  N  N56  1  0.95951000  0.01502000  0.34083000  1.0
  N  N57  1  0.04049000  0.51502000  0.15917000  1.0
  N  N58  1  0.04049000  0.98498000  0.65917000  1.0
  N  N59  1  0.95951000  0.48498000  0.84083000  1.0
  N  N60  1  0.87758000  0.90746000  0.35486000  1.0
  N  N61  1  0.12242000  0.40746000  0.14514000  1.0
  N  N62  1  0.12242000  0.09254000  0.64514000  1.0
  N  N63  1  0.87758000  0.59254000  0.85486000  1.0
  N  N64  1  0.91979000  0.80723000  0.28734000  1.0
  N  N65  1  0.08021000  0.30723000  0.21266000  1.0
  N  N66  1  0.08021000  0.19277000  0.71266000  1.0
  N  N67  1  0.91979000  0.69277000  0.78734000  1.0
  N  N68  1  0.10905000  0.78720000  0.15917000  1.0
  N  N69  1  0.89095000  0.28721000  0.34083000  1.0
  N  N70  1  0.89095000  0.21279000  0.84083000  1.0
  N  N71  1  0.10905000  0.71279000  0.65917000  1.0
  O  O72  1  0.21446000  0.08301000  0.05896000  1.0
  O  O73  1  0.78554000  0.58301000  0.44104000  1.0
  O  O74  1  0.78554000  0.91699000  0.94104000  1.0
  O  O75  1  0.21446000  0.41699000  0.55896000  1.0
  O  O76  1  0.27712000  0.18429000  0.45443000  1.0
  O  O77  1  0.72288000  0.68429000  0.04557000  1.0
  O  O78  1  0.72288000  0.81571000  0.54557000  1.0
  O  O79  1  0.27712000  0.31571000  0.95443000  1.0
  O  O80  1  0.30863000  0.63757000  0.99365000  1.0
  O  O81  1  0.69137000  0.13757000  0.50635000  1.0
  O  O82  1  0.69137000  0.36243000  0.00635000  1.0
  O  O83  1  0.30863000  0.86243000  0.49365000  1.0
  O  O84  1  0.45588000  0.23961000  0.24881000  1.0
  O  O85  1  0.54412000  0.73961000  0.25119000  1.0
  O  O86  1  0.54412000  0.76039000  0.75119000  1.0
  O  O87  1  0.45588000  0.26039000  0.74881000  1.0
  O  O88  1  0.38683000  0.92488000  0.86812000  1.0
  O  O89  1  0.61317000  0.42488000  0.63188000  1.0
  O  O90  1  0.61317000  0.07512000  0.13188000  1.0
  O  O91  1  0.38683000  0.57512000  0.36812000  1.0
  O  O92  1  0.44175000  0.98112000  0.33148000  1.0
  O  O93  1  0.55825000  0.48112000  0.16852000  1.0
  O  O94  1  0.55825000  0.01888000  0.66852000  1.0
  O  O95  1  0.44175000  0.51888000  0.83148000  1.0
