# generated using pymatgen
data_SiAgH14C7S4(OF)3
_symmetry_space_group_name_H-M   'P 1'
_cell_length_a   6.63117000
_cell_length_b   8.55821000
_cell_length_c   13.50460000
_cell_angle_alpha   89.99970000
_cell_angle_beta   87.88690000
_cell_angle_gamma   89.99920000
_symmetry_Int_Tables_number   1
_chemical_formula_structural   SiAgH14C7S4(OF)3
_chemical_formula_sum   'Si2 Ag2 H28 C14 S8 O6 F6'
_cell_volume   765.87765801
_cell_formula_units_Z   2
loop_
 _symmetry_equiv_pos_site_id
 _symmetry_equiv_pos_as_xyz
  1  'x, y, z'
loop_
 _atom_site_type_symbol
 _atom_site_label
 _atom_site_symmetry_multiplicity
 _atom_site_fract_x
 _atom_site_fract_y
 _atom_site_fract_z
 _atom_site_occupancy
  Si  Si0  1  0.67916000  0.73100000  0.12309000  1.0
  Si  Si1  1  0.32085000  0.23100000  0.87691000  1.0
  Ag  Ag2  1  0.28123000  0.05871000  0.58552000  1.0
  Ag  Ag3  1  0.71877000  0.55871000  0.41449000  1.0
  H  H4  1  0.14722000  0.73624000  0.43232000  1.0
  H  H5  1  0.85279000  0.23624000  0.56768000  1.0
  H  H6  1  0.21365000  0.91505000  0.37125000  1.0
  H  H7  1  0.78635000  0.41504000  0.62875000  1.0
  H  H8  1  0.51832000  0.92749000  0.23563000  1.0
  H  H9  1  0.48168000  0.42749000  0.76437000  1.0
  H  H10  1  0.60144000  0.04847000  0.39821000  1.0
  H  H11  1  0.39855000  0.54846000  0.60179000  1.0
  H  H12  1  0.76290000  0.96119000  0.48681000  1.0
  H  H13  1  0.23710000  0.46119000  0.51319000  1.0
  H  H14  1  0.94205000  0.83794000  0.00888000  1.0
  H  H15  1  0.05795000  0.33795000  0.99112000  1.0
  H  H16  1  0.98874000  0.89158000  0.13327000  1.0
  H  H17  1  0.01126000  0.39159000  0.86673000  1.0
  H  H18  1  0.80353000  0.99361000  0.06668000  1.0
  H  H19  1  0.19647000  0.49362000  0.93332000  1.0
  H  H20  1  0.93014000  0.55183000  0.19328000  1.0
  H  H21  1  0.06986000  0.05183000  0.80672000  1.0
  H  H22  1  0.86482000  0.49283000  0.07316000  1.0
  H  H23  1  0.13518000  0.99284000  0.92684000  1.0
  H  H24  1  0.70089000  0.45015000  0.17654000  1.0
  H  H25  1  0.29912000  0.95015000  0.82347000  1.0
  H  H26  1  0.51301000  0.67603000  0.96553000  1.0
  H  H27  1  0.48700000  0.17603000  0.03448000  1.0
  H  H28  1  0.38475000  0.82860000  0.03100000  1.0
  H  H29  1  0.61525000  0.32861000  0.96901000  1.0
  H  H30  1  0.34808000  0.63123000  0.06871000  1.0
  H  H31  1  0.65193000  0.13123000  0.93129000  1.0
  C  C32  1  0.27187000  0.80292000  0.39699000  1.0
  C  C33  1  0.72814000  0.30291000  0.60301000  1.0
  C  C34  1  0.57197000  0.80767000  0.24835000  1.0
  C  C35  1  0.42803000  0.30767000  0.75166000  1.0
  C  C36  1  0.65094000  0.93812000  0.43068000  1.0
  C  C37  1  0.34906000  0.43811000  0.56932000  1.0
  C  C38  1  0.87060000  0.87823000  0.07899000  1.0
  C  C39  1  0.12940000  0.37823000  0.92101000  1.0
  C  C40  1  0.80297000  0.53879000  0.14392000  1.0
  C  C41  1  0.19703000  0.03880000  0.85608000  1.0
  C  C42  1  0.46045000  0.71544000  0.03957000  1.0
  C  C43  1  0.53956000  0.21544000  0.96043000  1.0
  C  C44  1  0.76235000  0.73610000  0.75339000  1.0
  C  C45  1  0.23765000  0.23610000  0.24660000  1.0
  S  S46  1  0.44567000  0.83788000  0.49612000  1.0
  S  S47  1  0.55433000  0.33788000  0.50388000  1.0
  S  S48  1  0.36713000  0.68670000  0.29459000  1.0
  S  S49  1  0.63288000  0.18670000  0.70542000  1.0
  S  S50  1  0.77449000  0.82268000  0.33461000  1.0
  S  S51  1  0.22551000  0.32268000  0.66539000  1.0
  S  S52  1  0.96812000  0.76117000  0.65616000  1.0
  S  S53  1  0.03188000  0.26116000  0.34383000  1.0
  O  O54  1  0.94316000  0.92482000  0.62549000  1.0
  O  O55  1  0.05685000  0.42483000  0.37450000  1.0
  O  O56  1  0.91624000  0.64788000  0.57989000  1.0
  O  O57  1  0.08375000  0.14790000  0.42011000  1.0
  O  O58  1  0.15109000  0.72763000  0.70767000  1.0
  O  O59  1  0.84891000  0.22764000  0.29233000  1.0
  F  F60  1  0.57766000  0.75370000  0.71527000  1.0
  F  F61  1  0.42233000  0.25370000  0.28472000  1.0
  F  F62  1  0.77904000  0.84053000  0.82813000  1.0
  F  F63  1  0.22095000  0.34052000  0.17186000  1.0
  F  F64  1  0.76973000  0.58976000  0.79383000  1.0
  F  F65  1  0.23027000  0.08976000  0.20617000  1.0
