# generated using pymatgen
data_AlH7C8N2O5
_symmetry_space_group_name_H-M   'P 1'
_cell_length_a   6.67540000
_cell_length_b   10.87070000
_cell_length_c   18.04790000
_cell_angle_alpha   89.78160000
_cell_angle_beta   87.47880000
_cell_angle_gamma   89.46620000
_symmetry_Int_Tables_number   1
_chemical_formula_structural   AlH7C8N2O5
_chemical_formula_sum   'Al4 H28 C32 N8 O20'
_cell_volume   1308.33668730
_cell_formula_units_Z   4
loop_
 _symmetry_equiv_pos_site_id
 _symmetry_equiv_pos_as_xyz
  1  'x, y, z'
loop_
 _atom_site_type_symbol
 _atom_site_label
 _atom_site_symmetry_multiplicity
 _atom_site_fract_x
 _atom_site_fract_y
 _atom_site_fract_z
 _atom_site_occupancy
  Al  Al0  1  0.99627000  0.00088000  0.49765000  1.0
  Al  Al1  1  0.49573000  0.99967000  0.50040000  1.0
  Al  Al2  1  0.00435000  0.50091000  0.99966000  1.0
  Al  Al3  1  0.50366000  0.49950000  0.00227000  1.0
  H  H4  1  0.23618000  0.15453000  0.52919000  1.0
  H  H5  1  0.74878000  0.83560000  0.50636000  1.0
  H  H6  1  0.26360000  0.34622000  0.97016000  1.0
  H  H7  1  0.75078000  0.66523000  0.99648000  1.0
  H  H8  1  0.44967000  0.35548000  0.20535000  1.0
  H  H9  1  0.04982000  0.14093000  0.29304000  1.0
  H  H10  1  0.95956000  0.74917000  0.84013000  1.0
  H  H11  1  0.54002000  0.75304000  0.66077000  1.0
  H  H12  1  0.54134000  0.74373000  0.16114000  1.0
  H  H13  1  0.95904000  0.75485000  0.33971000  1.0
  H  H14  1  0.46312000  0.25416000  0.84061000  1.0
  H  H15  1  0.03745000  0.24744000  0.65885000  1.0
  H  H16  1  0.37893000  0.20930000  0.38510000  1.0
  H  H17  1  0.27133000  0.29663000  0.31654000  1.0
  H  H18  1  0.12025000  0.28755000  0.11346000  1.0
  H  H19  1  0.22778000  0.19957000  0.18164000  1.0
  H  H20  1  0.87105000  0.90186000  0.66541000  1.0
  H  H21  1  0.77562000  0.86916000  0.75499000  1.0
  H  H22  1  0.63062000  0.60193000  0.83590000  1.0
  H  H23  1  0.72761000  0.63814000  0.74634000  1.0
  H  H24  1  0.62499000  0.90254000  0.33317000  1.0
  H  H25  1  0.72103000  0.86701000  0.24426000  1.0
  H  H26  1  0.87375000  0.59633000  0.16759000  1.0
  H  H27  1  0.77612000  0.63581000  0.25633000  1.0
  H  H28  1  0.37642000  0.09065000  0.67134000  1.0
  H  H29  1  0.28163000  0.13187000  0.75945000  1.0
  H  H30  1  0.12373000  0.41105000  0.82818000  1.0
  H  H31  1  0.21879000  0.37000000  0.74014000  1.0
  C  C32  1  0.72917000  0.13471000  0.60645000  1.0
  C  C33  1  0.75925000  0.13543000  0.39383000  1.0
  C  C34  1  0.26481000  0.86758000  0.39289000  1.0
  C  C35  1  0.23043000  0.86370000  0.60562000  1.0
  C  C36  1  0.77111000  0.36691000  0.89300000  1.0
  C  C37  1  0.74081000  0.36269000  0.10507000  1.0
  C  C38  1  0.23534000  0.63138000  0.10785000  1.0
  C  C39  1  0.26931000  0.63802000  0.89507000  1.0
  C  C40  1  0.74767000  0.19483000  0.32040000  1.0
  C  C41  1  0.75186000  0.30175000  0.17808000  1.0
  C  C42  1  0.56940000  0.25431000  0.29668000  1.0
  C  C43  1  0.92987000  0.24190000  0.20167000  1.0
  C  C44  1  0.57995000  0.30651000  0.22544000  1.0
  C  C45  1  0.91941000  0.18974000  0.27291000  1.0
  C  C46  1  0.23280000  0.80474000  0.67966000  1.0
  C  C47  1  0.26661000  0.69716000  0.82119000  1.0
  C  C48  1  0.06218000  0.80562000  0.73050000  1.0
  C  C49  1  0.43707000  0.69599000  0.77026000  1.0
  C  C50  1  0.08661000  0.75136000  0.80015000  1.0
  C  C51  1  0.41278000  0.75073000  0.70063000  1.0
  C  C52  1  0.26492000  0.80586000  0.32012000  1.0
  C  C53  1  0.23559000  0.69245000  0.18074000  1.0
  C  C54  1  0.43618000  0.80442000  0.26958000  1.0
  C  C55  1  0.06465000  0.69327000  0.23145000  1.0
  C  C56  1  0.41393000  0.74743000  0.20093000  1.0
  C  C57  1  0.08664000  0.75097000  0.30002000  1.0
  C  C58  1  0.73285000  0.19472000  0.67987000  1.0
  C  C59  1  0.76779000  0.30670000  0.81964000  1.0
  C  C60  1  0.56445000  0.19460000  0.73167000  1.0
  C  C61  1  0.93626000  0.30679000  0.76786000  1.0
  C  C62  1  0.58921000  0.25138000  0.80025000  1.0
  C  C63  1  0.91151000  0.25001000  0.69928000  1.0
  N  N64  1  0.39670000  0.26603000  0.34052000  1.0
  N  N65  1  0.10228000  0.22988000  0.15761000  1.0
  N  N66  1  0.87850000  0.85326000  0.71326000  1.0
  N  N67  1  0.61885000  0.64611000  0.78677000  1.0
  N  N68  1  0.61847000  0.85235000  0.28618000  1.0
  N  N69  1  0.88445000  0.64279000  0.21570000  1.0
  N  N70  1  0.38205000  0.14501000  0.71662000  1.0
  N  N71  1  0.11867000  0.35635000  0.78302000  1.0
  O  O72  1  0.89352000  0.12342000  0.56782000  1.0
  O  O73  1  0.59670000  0.12376000  0.43388000  1.0
  O  O74  1  0.43203000  0.90799000  0.41514000  1.0
  O  O75  1  0.06130000  0.90238000  0.58301000  1.0
  O  O76  1  0.09915000  0.87905000  0.43058000  1.0
  O  O77  1  0.39681000  0.87519000  0.56830000  1.0
  O  O78  1  0.55971000  0.09525000  0.58551000  1.0
  O  O79  1  0.93027000  0.09741000  0.41392000  1.0
  O  O80  1  0.24504000  0.07928000  0.50053000  1.0
  O  O81  1  0.74716000  0.92394000  0.49971000  1.0
  O  O82  1  0.94031000  0.40672000  0.91397000  1.0
  O  O83  1  0.56991000  0.40138000  0.08528000  1.0
  O  O84  1  0.40090000  0.62037000  0.06999000  1.0
  O  O85  1  0.10317000  0.62654000  0.93260000  1.0
  O  O86  1  0.06801000  0.59103000  0.08557000  1.0
  O  O87  1  0.43860000  0.59912000  0.91748000  1.0
  O  O88  1  0.60666000  0.37796000  0.93158000  1.0
  O  O89  1  0.90355000  0.37522000  0.06526000  1.0
  O  O90  1  0.25494000  0.42125000  0.99903000  1.0
  O  O91  1  0.75279000  0.57651000  0.00076000  1.0
