# generated using pymatgen
data_SrPH9C2O9
_symmetry_space_group_name_H-M   'P 1'
_cell_length_a   6.98786000
_cell_length_b   11.01840000
_cell_length_c   13.29300000
_cell_angle_alpha   69.95300000
_cell_angle_beta   89.99990000
_cell_angle_gamma   89.99990000
_symmetry_Int_Tables_number   1
_chemical_formula_structural   SrPH9C2O9
_chemical_formula_sum   'Sr4 P4 H36 C8 O36'
_cell_volume   961.48324335
_cell_formula_units_Z   4
loop_
 _symmetry_equiv_pos_site_id
 _symmetry_equiv_pos_as_xyz
  1  'x, y, z'
loop_
 _atom_site_type_symbol
 _atom_site_label
 _atom_site_symmetry_multiplicity
 _atom_site_fract_x
 _atom_site_fract_y
 _atom_site_fract_z
 _atom_site_occupancy
  Sr  Sr0  1  0.06356000  0.84842000  0.65214000  1.0
  Sr  Sr1  1  0.56356000  0.15158000  0.84787000  1.0
  Sr  Sr2  1  0.93644000  0.15159000  0.34786000  1.0
  Sr  Sr3  1  0.43644000  0.84842000  0.15213000  1.0
  P  P4  1  0.21154000  0.63232000  0.40122000  1.0
  P  P5  1  0.71155000  0.36769000  0.09878000  1.0
  P  P6  1  0.78844000  0.36769000  0.59879000  1.0
  P  P7  1  0.28845000  0.63231000  0.90121000  1.0
  H  H8  1  0.48051000  0.73927000  0.44842000  1.0
  H  H9  1  0.98051000  0.26072000  0.05158000  1.0
  H  H10  1  0.51949000  0.26074000  0.55158000  1.0
  H  H11  1  0.01948000  0.73927000  0.94841000  1.0
  H  H12  1  0.30708000  0.62149000  0.60898000  1.0
  H  H13  1  0.80708000  0.37850000  0.89103000  1.0
  H  H14  1  0.69292000  0.37851000  0.39102000  1.0
  H  H15  1  0.19292000  0.62150000  0.10897000  1.0
  H  H16  1  0.15654000  0.44534000  0.53221000  1.0
  H  H17  1  0.65654000  0.55465000  0.96779000  1.0
  H  H18  1  0.84347000  0.55465000  0.46779000  1.0
  H  H19  1  0.34346000  0.44534000  0.03222000  1.0
  H  H20  1  0.29490000  0.09573000  0.53606000  1.0
  H  H21  1  0.79490000  0.90428000  0.96394000  1.0
  H  H22  1  0.70510000  0.90427000  0.46394000  1.0
  H  H23  1  0.20511000  0.09572000  0.03606000  1.0
  H  H24  1  0.70387000  0.89946000  0.74215000  1.0
  H  H25  1  0.20388000  0.10055000  0.75785000  1.0
  H  H26  1  0.29612000  0.10054000  0.25785000  1.0
  H  H27  1  0.79612000  0.89945000  0.24215000  1.0
  H  H28  1  0.73590000  0.68176000  0.58552000  1.0
  H  H29  1  0.23589000  0.31824000  0.91447000  1.0
  H  H30  1  0.26410000  0.31824000  0.41447000  1.0
  H  H31  1  0.76411000  0.68177000  0.08552000  1.0
  H  H32  1  0.65841000  0.75109000  0.80469000  1.0
  H  H33  1  0.15840000  0.24892000  0.69531000  1.0
  H  H34  1  0.34159000  0.24891000  0.19531000  1.0
  H  H35  1  0.84160000  0.75108000  0.30469000  1.0
  H  H36  1  0.88990000  0.72428000  0.49472000  1.0
  H  H37  1  0.38989000  0.27572000  0.00528000  1.0
  H  H38  1  0.11010000  0.27572000  0.50528000  1.0
  H  H39  1  0.61011000  0.72427000  0.99473000  1.0
  H  H40  1  0.42543000  0.03056000  0.63612000  1.0
  H  H41  1  0.92543000  0.96944000  0.86388000  1.0
  H  H42  1  0.57457000  0.96944000  0.36387000  1.0
  H  H43  1  0.07457000  0.03056000  0.13612000  1.0
  C  C44  1  0.32506000  0.74488000  0.45971000  1.0
  C  C45  1  0.82506000  0.25511000  0.04030000  1.0
  C  C46  1  0.67495000  0.25512000  0.54030000  1.0
  C  C47  1  0.17494000  0.74489000  0.95970000  1.0
  C  C48  1  0.25758000  0.88174000  0.39744000  1.0
  C  C49  1  0.75756000  0.11825000  0.10256000  1.0
  C  C50  1  0.74242000  0.11826000  0.60256000  1.0
  C  C51  1  0.24244000  0.88175000  0.89744000  1.0
  O  O52  1  0.27683000  0.71204000  0.57039000  1.0
  O  O53  1  0.77683000  0.28795000  0.92962000  1.0
  O  O54  1  0.72318000  0.28796000  0.42962000  1.0
  O  O55  1  0.22316000  0.71205000  0.07038000  1.0
  O  O56  1  0.99344000  0.65107000  0.40577000  1.0
  O  O57  1  0.49344000  0.34894000  0.09423000  1.0
  O  O58  1  0.00657000  0.34894000  0.59423000  1.0
  O  O59  1  0.50656000  0.65106000  0.90577000  1.0
  O  O60  1  0.26821000  0.49556000  0.48596000  1.0
  O  O61  1  0.76822000  0.50443000  0.01404000  1.0
  O  O62  1  0.73179000  0.50443000  0.51404000  1.0
  O  O63  1  0.23179000  0.49557000  0.98596000  1.0
  O  O64  1  0.29850000  0.65161000  0.29358000  1.0
  O  O65  1  0.79850000  0.34838000  0.20643000  1.0
  O  O66  1  0.70151000  0.34839000  0.70642000  1.0
  O  O67  1  0.20151000  0.65161000  0.79358000  1.0
  O  O68  1  0.12447000  0.93074000  0.43506000  1.0
  O  O69  1  0.62446000  0.06925000  0.06494000  1.0
  O  O70  1  0.87553000  0.06925000  0.56494000  1.0
  O  O71  1  0.37555000  0.93075000  0.93506000  1.0
  O  O72  1  0.34159000  0.93619000  0.30748000  1.0
  O  O73  1  0.84157000  0.06380000  0.19253000  1.0
  O  O74  1  0.65841000  0.06381000  0.69252000  1.0
  O  O75  1  0.15842000  0.93619000  0.80748000  1.0
  O  O76  1  0.33091000  0.01150000  0.58906000  1.0
  O  O77  1  0.83091000  0.98851000  0.91094000  1.0
  O  O78  1  0.66909000  0.98851000  0.41094000  1.0
  O  O79  1  0.16909000  0.01149000  0.08906000  1.0
  O  O80  1  0.75315000  0.81016000  0.75759000  1.0
  O  O81  1  0.25313000  0.18984000  0.74241000  1.0
  O  O82  1  0.24685000  0.18983000  0.24240000  1.0
  O  O83  1  0.74687000  0.81015000  0.25759000  1.0
  O  O84  1  0.81902000  0.75372000  0.54708000  1.0
  O  O85  1  0.31902000  0.24629000  0.95292000  1.0
  O  O86  1  0.18098000  0.24629000  0.45292000  1.0
  O  O87  1  0.68098000  0.75371000  0.04707000  1.0
