# generated using pymatgen
data_CdH15C12NO8
_symmetry_space_group_name_H-M   'P 1'
_cell_length_a   7.74315000
_cell_length_b   9.74510000
_cell_length_c   10.41490000
_cell_angle_alpha   108.37450000
_cell_angle_beta   92.86460000
_cell_angle_gamma   101.63470000
_symmetry_Int_Tables_number   1
_chemical_formula_structural   CdH15C12NO8
_chemical_formula_sum   'Cd2 H30 C24 N2 O16'
_cell_volume   725.02286823
_cell_formula_units_Z   2
loop_
 _symmetry_equiv_pos_site_id
 _symmetry_equiv_pos_as_xyz
  1  'x, y, z'
loop_
 _atom_site_type_symbol
 _atom_site_label
 _atom_site_symmetry_multiplicity
 _atom_site_fract_x
 _atom_site_fract_y
 _atom_site_fract_z
 _atom_site_occupancy
  Cd  Cd0  1  0.94283000  0.27651000  0.58361000  1.0
  Cd  Cd1  1  0.00929000  0.74435000  0.42025000  1.0
  H  H2  1  0.76820000  0.65174000  0.95705000  1.0
  H  H3  1  0.71758000  0.60185000  0.78731000  1.0
  H  H4  1  0.97849000  0.27449000  0.07271000  1.0
  H  H5  1  0.68778000  0.89143000  0.74666000  1.0
  H  H6  1  0.06125000  0.58234000  0.65190000  1.0
  H  H7  1  0.24983000  0.12582000  0.56710000  1.0
  H  H8  1  0.16616000  0.51866000  0.53467000  1.0
  H  H9  1  0.66311000  0.90654000  0.16379000  1.0
  H  H10  1  0.14846000  0.07598000  0.42329000  1.0
  H  H11  1  0.46718000  0.71282000  0.98432000  1.0
  H  H12  1  0.45936000  0.70374000  0.81081000  1.0
  H  H13  1  0.62618000  0.43444000  0.95049000  1.0
  H  H14  1  0.32019000  0.49274000  0.94939000  1.0
  H  H15  1  0.31398000  0.31212000  0.83715000  1.0
  H  H16  1  0.30929000  0.45709000  0.77105000  1.0
  H  H17  1  0.38503000  0.42409000  0.10943000  1.0
  H  H18  1  0.58649000  0.46728000  0.20342000  1.0
  H  H19  1  0.77756000  0.92545000  0.39366000  1.0
  H  H20  1  0.87417000  0.45037000  0.25451000  1.0
  H  H21  1  0.78966000  0.92567000  0.54154000  1.0
  H  H22  1  0.00732000  0.74023000  0.87521000  1.0
  H  H23  1  0.87549000  0.57541000  0.17546000  1.0
  H  H24  1  0.38156000  0.11172000  0.83941000  1.0
  H  H25  1  0.30730000  0.07037000  0.23642000  1.0
  H  H26  1  0.58206000  0.22641000  0.19451000  1.0
  H  H27  1  0.59607000  0.25761000  0.03695000  1.0
  H  H28  1  0.26046000  0.31008000  0.27874000  1.0
  H  H29  1  0.56307000  0.35270000  0.41383000  1.0
  H  H30  1  0.41172000  0.43802000  0.51056000  1.0
  H  H31  1  0.58429000  0.54780000  0.45330000  1.0
  C  C32  1  0.86543000  0.18306000  0.28427000  1.0
  C  C33  1  0.82799000  0.09754000  0.13470000  1.0
  C  C34  1  0.89255000  0.16317000  0.03953000  1.0
  C  C35  1  0.84252000  0.08895000  0.90007000  1.0
  C  C36  1  0.90402000  0.16425000  0.79975000  1.0
  C  C37  1  0.72843000  0.94750000  0.85555000  1.0
  C  C38  1  0.66549000  0.88070000  0.94977000  1.0
  C  C39  1  0.71516000  0.95602000  0.08908000  1.0
  C  C40  1  0.54824000  0.72750000  0.90427000  1.0
  C  C41  1  0.56823000  0.45705000  0.86284000  1.0
  C  C42  1  0.36745000  0.43035000  0.85583000  1.0
  C  C43  1  0.62633000  0.35182000  0.73541000  1.0
  C  C44  1  0.04971000  0.81641000  0.15132000  1.0
  C  C45  1  0.14249000  0.89921000  0.06568000  1.0
  C  C46  1  0.10207000  0.84529000  0.92440000  1.0
  C  C47  1  0.18348000  0.92368000  0.84369000  1.0
  C  C48  1  0.12805000  0.86543000  0.69325000  1.0
  C  C49  1  0.31191000  0.05601000  0.90466000  1.0
  C  C50  1  0.35490000  0.11095000  0.04676000  1.0
  C  C51  1  0.27052000  0.03204000  0.12632000  1.0
  C  C52  1  0.50576000  0.24346000  0.11194000  1.0
  C  C53  1  0.36488000  0.41188000  0.29835000  1.0
  C  C54  1  0.48916000  0.44010000  0.42595000  1.0
  C  C55  1  0.26612000  0.53513000  0.29945000  1.0
  N  N56  1  0.66070000  0.61488000  0.87850000  1.0
  N  N57  1  0.46171000  0.39141000  0.17476000  1.0
  O  O58  1  0.82972000  0.11157000  0.36786000  1.0
  O  O59  1  0.92643000  0.32238000  0.32289000  1.0
  O  O60  1  0.97294000  0.30160000  0.84165000  1.0
  O  O61  1  0.88046000  0.08449000  0.67279000  1.0
  O  O62  1  0.56234000  0.21679000  0.70658000  1.0
  O  O63  1  0.73886000  0.41722000  0.67362000  1.0
  O  O64  1  0.12859000  0.50353000  0.62102000  1.0
  O  O65  1  0.19764000  0.16557000  0.50240000  1.0
  O  O66  1  0.09566000  0.87318000  0.27982000  1.0
  O  O67  1  0.93136000  0.69721000  0.09288000  1.0
  O  O68  1  0.00009000  0.74760000  0.64690000  1.0
  O  O69  1  0.20318000  0.93087000  0.61686000  1.0
  O  O70  1  0.24635000  0.56311000  0.19096000  1.0
  O  O71  1  0.20762000  0.59456000  0.41173000  1.0
  O  O72  1  0.82177000  0.53347000  0.24525000  1.0
  O  O73  1  0.76685000  0.85573000  0.44571000  1.0
