# generated using pymatgen
data_LiH5C8N4OF3
_symmetry_space_group_name_H-M   'P 1'
_cell_length_a   10.20370000
_cell_length_b   14.79570000
_cell_length_c   15.97450000
_cell_angle_alpha   90.00000000
_cell_angle_beta   90.00000000
_cell_angle_gamma   99.83680000
_symmetry_Int_Tables_number   1
_chemical_formula_structural   LiH5C8N4OF3
_chemical_formula_sum   'Li8 H40 C64 N32 O8 F24'
_cell_volume   2376.22870330
_cell_formula_units_Z   8
loop_
 _symmetry_equiv_pos_site_id
 _symmetry_equiv_pos_as_xyz
  1  'x, y, z'
loop_
 _atom_site_type_symbol
 _atom_site_label
 _atom_site_symmetry_multiplicity
 _atom_site_fract_x
 _atom_site_fract_y
 _atom_site_fract_z
 _atom_site_occupancy
  Li  Li0  1  0.34434000  0.17917000  0.66331000  1.0
  Li  Li1  1  0.15566000  0.32083000  0.16331000  1.0
  Li  Li2  1  0.65566000  0.82083000  0.33669000  1.0
  Li  Li3  1  0.84434000  0.67917000  0.83669000  1.0
  Li  Li4  1  0.12104000  0.68669000  0.51816000  1.0
  Li  Li5  1  0.37896000  0.81331000  0.01816000  1.0
  Li  Li6  1  0.87896000  0.31331000  0.48184000  1.0
  Li  Li7  1  0.62104000  0.18669000  0.98184000  1.0
  H  H8  1  0.41630000  0.95935000  0.65452000  1.0
  H  H9  1  0.08370000  0.54065000  0.15452000  1.0
  H  H10  1  0.58370000  0.04065000  0.34548000  1.0
  H  H11  1  0.91630000  0.45935000  0.84548000  1.0
  H  H12  1  0.32418000  0.99502000  0.56804000  1.0
  H  H13  1  0.17582000  0.50498000  0.06804000  1.0
  H  H14  1  0.67582000  0.00498000  0.43196000  1.0
  H  H15  1  0.82418000  0.49502000  0.93196000  1.0
  H  H16  1  0.24314000  0.91292000  0.64176000  1.0
  H  H17  1  0.25686000  0.58708000  0.14176000  1.0
  H  H18  1  0.75686000  0.08708000  0.35824000  1.0
  H  H19  1  0.74314000  0.41292000  0.85824000  1.0
  H  H20  1  0.37965000  0.02687000  0.79221000  1.0
  H  H21  1  0.12035000  0.47313000  0.29221000  1.0
  H  H22  1  0.62035000  0.97313000  0.20779000  1.0
  H  H23  1  0.87965000  0.52687000  0.70779000  1.0
  H  H24  1  0.21020000  0.96859000  0.78353000  1.0
  H  H25  1  0.28980000  0.53141000  0.28353000  1.0
  H  H26  1  0.78980000  0.03141000  0.21647000  1.0
  H  H27  1  0.71020000  0.46859000  0.71647000  1.0
  H  H28  1  0.12491000  0.11350000  0.79152000  1.0
  H  H29  1  0.37509000  0.38650000  0.29152000  1.0
  H  H30  1  0.87508000  0.88650000  0.20848000  1.0
  H  H31  1  0.62491000  0.61350000  0.70848000  1.0
  H  H32  1  0.23098000  0.10459000  0.87915000  1.0
  H  H33  1  0.26902000  0.39541000  0.37915000  1.0
  H  H34  1  0.76902000  0.89541000  0.12085000  1.0
  H  H35  1  0.73098000  0.60459000  0.62085000  1.0
  H  H36  1  0.18278000  0.28667000  0.80791000  1.0
  H  H37  1  0.31722000  0.21332000  0.30791000  1.0
  H  H38  1  0.81722000  0.71332000  0.19209000  1.0
  H  H39  1  0.68278000  0.78668000  0.69209000  1.0
  H  H40  1  0.35744000  0.33280000  0.80528000  1.0
  H  H41  1  0.14256000  0.16720000  0.30528000  1.0
  H  H42  1  0.64256000  0.66720000  0.19472000  1.0
  H  H43  1  0.85744000  0.83280000  0.69472000  1.0
  H  H44  1  0.28861000  0.26693000  0.89377000  1.0
  H  H45  1  0.21139000  0.23307000  0.39377000  1.0
  H  H46  1  0.71139000  0.73307000  0.10623000  1.0
  H  H47  1  0.78861000  0.76693000  0.60623000  1.0
  C  C48  1  0.11384000  0.23895000  0.55924000  1.0
  C  C49  1  0.38616000  0.26105000  0.05924000  1.0
  C  C50  1  0.88616000  0.76105000  0.44076000  1.0
  C  C51  1  0.61384000  0.73895000  0.94076000  1.0
  C  C52  1  0.26362000  0.35048000  0.59592000  1.0
  C  C53  1  0.23638000  0.14952000  0.09592000  1.0
  C  C54  1  0.73638000  0.64952000  0.40408000  1.0
  C  C55  1  0.76362000  0.85048000  0.90408000  1.0
  C  C56  1  0.16051000  0.38460000  0.55425000  1.0
  C  C57  1  0.33949000  0.11540000  0.05425000  1.0
  C  C58  1  0.83949000  0.61540000  0.44575000  1.0
  C  C59  1  0.66051000  0.88460000  0.94575000  1.0
  C  C60  1  0.38184000  0.40085000  0.62965000  1.0
  C  C61  1  0.11816000  0.09915000  0.12965000  1.0
  C  C62  1  0.61816000  0.59915000  0.37035000  1.0
  C  C63  1  0.88184000  0.90085000  0.87035000  1.0
  C  C64  1  0.15199000  0.47710000  0.53956000  1.0
  C  C65  1  0.34802000  0.02290000  0.03956000  1.0
  C  C66  1  0.84801000  0.52291000  0.46044000  1.0
  C  C67  1  0.65199000  0.97710000  0.96044000  1.0
  C  C68  1  0.03992000  0.14266000  0.54956000  1.0
  C  C69  1  0.46008000  0.35734000  0.04956000  1.0
  C  C70  1  0.96008000  0.85734000  0.45044000  1.0
  C  C71  1  0.53992000  0.64266000  0.95044000  1.0
  C  C72  1  0.10812000  0.73662000  0.93136000  1.0
  C  C73  1  0.39188000  0.76338000  0.43136000  1.0
  C  C74  1  0.89188000  0.26338000  0.06864000  1.0
  C  C75  1  0.60812000  0.23662000  0.56864000  1.0
  C  C76  1  0.26252000  0.77116000  0.84139000  1.0
  C  C77  1  0.23748000  0.72884000  0.34139000  1.0
  C  C78  1  0.73748000  0.22884000  0.15861000  1.0
  C  C79  1  0.76252000  0.27116000  0.65861000  1.0
  C  C80  1  0.14122000  0.73901000  0.79992000  1.0
  C  C81  1  0.35878000  0.76099000  0.29992000  1.0
  C  C82  1  0.85878000  0.26099000  0.20008000  1.0
  C  C83  1  0.64122000  0.23901000  0.70008000  1.0
  C  C84  1  0.38724000  0.80277000  0.80369000  1.0
  C  C85  1  0.11276000  0.69722000  0.30369000  1.0
  C  C86  1  0.61276000  0.19722000  0.19631000  1.0
  C  C87  1  0.88724000  0.30277000  0.69631000  1.0
  C  C88  1  0.12308000  0.72842000  0.71294000  1.0
  C  C89  1  0.37692000  0.77158000  0.21294000  1.0
  C  C90  1  0.87692000  0.27158000  0.28706000  1.0
  C  C91  1  0.62308000  0.22842000  0.78706000  1.0
  C  C92  1  0.03648000  0.72658000  0.01366000  1.0
  C  C93  1  0.46352000  0.77342000  0.51366000  1.0
  C  C94  1  0.96353000  0.27342000  0.98634000  1.0
  C  C95  1  0.53648000  0.22658000  0.48634000  1.0
  C  C96  1  0.31936000  0.97458000  0.63401000  1.0
  C  C97  1  0.18064000  0.52542000  0.13401000  1.0
  C  C98  1  0.68064000  0.02542000  0.36599000  1.0
  C  C99  1  0.81936000  0.47458000  0.86599000  1.0
  C  C100  1  0.27904000  0.03252000  0.76949000  1.0
  C  C101  1  0.22096000  0.46748000  0.26949000  1.0
  C  C102  1  0.72096000  0.96748000  0.23051000  1.0
  C  C103  1  0.77904000  0.53252000  0.73051000  1.0
  C  C104  1  0.22842000  0.11175000  0.81043000  1.0
  C  C105  1  0.27158000  0.38825000  0.31043000  1.0
  C  C106  1  0.77158000  0.88825000  0.18957000  1.0
  C  C107  1  0.72842000  0.61175000  0.68957000  1.0
  C  C108  1  0.28269000  0.27466000  0.82543000  1.0
  C  C109  1  0.21731000  0.22534000  0.32543000  1.0
  C  C110  1  0.71731000  0.72534000  0.17457000  1.0
  C  C111  1  0.78269000  0.77466000  0.67457000  1.0
  N  N112  1  0.23232000  0.25706000  0.59870000  1.0
  N  N113  1  0.26768000  0.24294000  0.09869000  1.0
  N  N114  1  0.76768000  0.74294000  0.40130000  1.0
  N  N115  1  0.73232000  0.75706000  0.90130000  1.0
  N  N116  1  0.06503000  0.31230000  0.53116000  1.0
  N  N117  1  0.43497000  0.18770000  0.03115000  1.0
  N  N118  1  0.93497000  0.68770000  0.46885000  1.0
  N  N119  1  0.56503000  0.81230000  0.96885000  1.0
  N  N120  1  0.47917000  0.44347000  0.65733000  1.0
  N  N121  1  0.02083000  0.05653000  0.15733000  1.0
  N  N122  1  0.52083000  0.55653000  0.34267000  1.0
  N  N123  1  0.97917000  0.94347000  0.84268000  1.0
  N  N124  1  0.14716000  0.55441000  0.52888000  1.0
  N  N125  1  0.35283000  0.94559000  0.02888000  1.0
  N  N126  1  0.85284000  0.44559000  0.47112000  1.0
  N  N127  1  0.64716000  0.05441000  0.97112000  1.0
  N  N128  1  0.04309000  0.71742000  0.85844000  1.0
  N  N129  1  0.45691000  0.78258000  0.35844000  1.0
  N  N130  1  0.95691000  0.28258000  0.14156000  1.0
  N  N131  1  0.54309000  0.21742000  0.64156000  1.0
  N  N132  1  0.23965000  0.76884000  0.92571000  1.0
  N  N133  1  0.26035000  0.73116000  0.42571000  1.0
  N  N134  1  0.76035000  0.23116000  0.07429000  1.0
  N  N135  1  0.73965000  0.26884000  0.57429000  1.0
  N  N136  1  0.11693000  0.72111000  0.64034000  1.0
  N  N137  1  0.38307000  0.77889000  0.14034000  1.0
  N  N138  1  0.88307000  0.27889000  0.35966000  1.0
  N  N139  1  0.61693000  0.22111000  0.85966000  1.0
  N  N140  1  0.48736000  0.83002000  0.76933000  1.0
  N  N141  1  0.01264000  0.66998000  0.26933000  1.0
  N  N142  1  0.51264000  0.16998000  0.23067000  1.0
  N  N143  1  0.98736000  0.33002000  0.73067000  1.0
  O  O144  1  0.28387000  0.04936000  0.68075000  1.0
  O  O145  1  0.21613000  0.45064000  0.18075000  1.0
  O  O146  1  0.71613000  0.95064000  0.31925000  1.0
  O  O147  1  0.78387000  0.54936000  0.81925000  1.0
  O  O148  1  0.31378000  0.19457000  0.78458000  1.0
  O  O149  1  0.18622000  0.30543000  0.28458000  1.0
  O  O150  1  0.68621000  0.80543000  0.21542000  1.0
  O  O151  1  0.81379000  0.69457000  0.71542000  1.0
  F  F152  1  0.93384000  0.13960000  0.49714000  1.0
  F  F153  1  0.56616000  0.36040000  0.99714000  1.0
  F  F154  1  0.06616000  0.86040000  0.50286000  1.0
  F  F155  1  0.43384000  0.63960000  0.00286000  1.0
  F  F156  1  0.11950000  0.08574000  0.51767000  1.0
  F  F157  1  0.38051000  0.41426000  0.01767000  1.0
  F  F158  1  0.88051000  0.91426000  0.48233000  1.0
  F  F159  1  0.61949000  0.58574000  0.98233000  1.0
  F  F160  1  0.99203000  0.10602000  0.62439000  1.0
  F  F161  1  0.50797000  0.39398000  0.12439000  1.0
  F  F162  1  0.00797000  0.89398000  0.37561000  1.0
  F  F163  1  0.49203000  0.60602000  0.87561000  1.0
  F  F164  1  0.11856000  0.71142000  0.07711000  1.0
  F  F165  1  0.38144000  0.78858000  0.57711000  1.0
  F  F166  1  0.88144000  0.28858000  0.92289000  1.0
  F  F167  1  0.61856000  0.21142000  0.42289000  1.0
  F  F168  1  0.93183000  0.65527000  0.01218000  1.0
  F  F169  1  0.56817000  0.84473000  0.51218000  1.0
  F  F170  1  0.06818000  0.34473000  0.98782000  1.0
  F  F171  1  0.43183000  0.15527000  0.48782000  1.0
  F  F172  1  0.98549000  0.80355000  0.03448000  1.0
  F  F173  1  0.51451000  0.69645000  0.53448000  1.0
  F  F174  1  0.01450000  0.19645000  0.96552000  1.0
  F  F175  1  0.48550000  0.30355000  0.46552000  1.0
