# generated using pymatgen
data_TbH7(C3O4)2
_symmetry_space_group_name_H-M   'P 1'
_cell_length_a   6.12375000
_cell_length_b   10.08232791
_cell_length_c   15.39060000
_cell_angle_alpha   77.07372510
_cell_angle_beta   89.97640000
_cell_angle_gamma   72.34016046
_symmetry_Int_Tables_number   1
_chemical_formula_structural   TbH7(C3O4)2
_chemical_formula_sum   'Tb4 H28 C24 O32'
_cell_volume   880.18434052
_cell_formula_units_Z   4
loop_
 _symmetry_equiv_pos_site_id
 _symmetry_equiv_pos_as_xyz
  1  'x, y, z'
loop_
 _atom_site_type_symbol
 _atom_site_label
 _atom_site_symmetry_multiplicity
 _atom_site_fract_x
 _atom_site_fract_y
 _atom_site_fract_z
 _atom_site_occupancy
  Tb  Tb0  1  0.53275000  0.81498000  0.20426000  1.0
  Tb  Tb1  1  0.34726000  0.18501000  0.29572000  1.0
  Tb  Tb2  1  0.46725000  0.18502000  0.79573000  1.0
  Tb  Tb3  1  0.65274000  0.81499000  0.70428000  1.0
  H  H4  1  0.29419000  0.50145000  0.48577000  1.0
  H  H5  1  0.79633000  0.49850000  0.01415000  1.0
  H  H6  1  0.70582000  0.49855000  0.51423000  1.0
  H  H7  1  0.20366000  0.50150000  0.98585000  1.0
  H  H8  1  0.01277000  0.57749000  0.43475000  1.0
  H  H9  1  0.59061000  0.42257000  0.06513000  1.0
  H  H10  1  0.98723000  0.42251000  0.56525000  1.0
  H  H11  1  0.40940000  0.57742000  0.93487000  1.0
  H  H12  1  0.07849000  0.80388000  0.46064000  1.0
  H  H13  1  0.88242000  0.19590000  0.03943000  1.0
  H  H14  1  0.92151000  0.19612000  0.53936000  1.0
  H  H15  1  0.11759000  0.80410000  0.96057000  1.0
  H  H16  1  0.36950000  0.71197000  0.49283000  1.0
  H  H17  1  0.08159000  0.28785000  0.00710000  1.0
  H  H18  1  0.63050000  0.28803000  0.50717000  1.0
  H  H19  1  0.91841000  0.71215000  0.99290000  1.0
  H  H20  1  0.48370000  0.54644000  0.31614000  1.0
  H  H21  1  0.03028000  0.45345000  0.18384000  1.0
  H  H22  1  0.51630000  0.45356000  0.68386000  1.0
  H  H23  1  0.96971000  0.54656000  0.81616000  1.0
  H  H24  1  0.76605000  0.94972000  0.04567000  1.0
  H  H25  1  0.71519000  0.05046000  0.45432000  1.0
  H  H26  1  0.23396000  0.05028000  0.95433000  1.0
  H  H27  1  0.28481000  0.94954000  0.54568000  1.0
  H  H28  1  0.93743000  0.87555000  0.13780000  1.0
  H  H29  1  0.81222000  0.12472000  0.36216000  1.0
  H  H30  1  0.06257000  0.12445000  0.86220000  1.0
  H  H31  1  0.18778000  0.87528000  0.63784000  1.0
  C  C32  1  0.25275000  0.67763000  0.36977000  1.0
  C  C33  1  0.93039000  0.32232000  0.13017000  1.0
  C  C34  1  0.74724000  0.32237000  0.63023000  1.0
  C  C35  1  0.06961000  0.67768000  0.86983000  1.0
  C  C36  1  0.19406000  0.54501000  0.42058000  1.0
  C  C37  1  0.73949000  0.45498000  0.07935000  1.0
  C  C38  1  0.80594000  0.45499000  0.57942000  1.0
  C  C39  1  0.26052000  0.54501000  0.92065000  1.0
  C  C40  1  0.23754000  0.42457000  0.37265000  1.0
  C  C41  1  0.66263000  0.57549000  0.12722000  1.0
  C  C42  1  0.76246000  0.57543000  0.62735000  1.0
  C  C43  1  0.33737000  0.42451000  0.87278000  1.0
  C  C44  1  0.24921000  0.77433000  0.43442000  1.0
  C  C45  1  0.02358000  0.22554000  0.06556000  1.0
  C  C46  1  0.75079000  0.22567000  0.56558000  1.0
  C  C47  1  0.97643000  0.77446000  0.93444000  1.0
  C  C48  1  0.31299000  0.90881000  0.39790000  1.0
  C  C49  1  0.22172000  0.09110000  0.10206000  1.0
  C  C50  1  0.68702000  0.09118000  0.60209000  1.0
  C  C51  1  0.77828000  0.90890000  0.89794000  1.0
  C  C52  1  0.07275000  0.76061000  0.28960000  1.0
  C  C53  1  0.83314000  0.23934000  0.21035000  1.0
  C  C54  1  0.92725000  0.23939000  0.71040000  1.0
  C  C55  1  0.16686000  0.76066000  0.78965000  1.0
  O  O56  1  0.37173000  0.42157000  0.30772000  1.0
  O  O57  1  0.79347000  0.57831000  0.19229000  1.0
  O  O58  1  0.62826000  0.57843000  0.69228000  1.0
  O  O59  1  0.20654000  0.42168000  0.80771000  1.0
  O  O60  1  0.14931000  0.32524000  0.39794000  1.0
  O  O61  1  0.47554000  0.67505000  0.10177000  1.0
  O  O62  1  0.85069000  0.67476000  0.60206000  1.0
  O  O63  1  0.52446000  0.32495000  0.89823000  1.0
  O  O64  1  0.41829000  0.92205000  0.32629000  1.0
  O  O65  1  0.33993000  0.07780000  0.17373000  1.0
  O  O66  1  0.58172000  0.07794000  0.67371000  1.0
  O  O67  1  0.66008000  0.92220000  0.82627000  1.0
  O  O68  1  0.26078000  0.01113000  0.43724000  1.0
  O  O69  1  0.27211000  0.98889000  0.06263000  1.0
  O  O70  1  0.73921000  0.98887000  0.56276000  1.0
  O  O71  1  0.72790000  0.01111000  0.93737000  1.0
  O  O72  1  0.14923000  0.81706000  0.21810000  1.0
  O  O73  1  0.96593000  0.18279000  0.28183000  1.0
  O  O74  1  0.85076000  0.18294000  0.78190000  1.0
  O  O75  1  0.03407000  0.81721000  0.71817000  1.0
  O  O76  1  0.86535000  0.76921000  0.29924000  1.0
  O  O77  1  0.63427000  0.23082000  0.20074000  1.0
  O  O78  1  0.13464000  0.23079000  0.70076000  1.0
  O  O79  1  0.36573000  0.76918000  0.79927000  1.0
  O  O80  1  0.47792000  0.63658000  0.33600000  1.0
  O  O81  1  0.11457000  0.36335000  0.16395000  1.0
  O  O82  1  0.52208000  0.36342000  0.66400000  1.0
  O  O83  1  0.88543000  0.63665000  0.83605000  1.0
  O  O84  1  0.77968000  0.89714000  0.10979000  1.0
  O  O85  1  0.67594000  0.10338000  0.39030000  1.0
  O  O86  1  0.22032000  0.10286000  0.89021000  1.0
  O  O87  1  0.32405000  0.89663000  0.60970000  1.0
