# generated using pymatgen
data_ZnH20C20(NO2)2
_symmetry_space_group_name_H-M   'P 1'
_cell_length_a   11.99560000
_cell_length_b   12.34590000
_cell_length_c   13.92770000
_cell_angle_alpha   89.99990000
_cell_angle_beta   90.00000000
_cell_angle_gamma   89.99990000
_symmetry_Int_Tables_number   1
_chemical_formula_structural   ZnH20C20(NO2)2
_chemical_formula_sum   'Zn4 H80 C80 N8 O16'
_cell_volume   2062.64331719
_cell_formula_units_Z   4
loop_
 _symmetry_equiv_pos_site_id
 _symmetry_equiv_pos_as_xyz
  1  'x, y, z'
loop_
 _atom_site_type_symbol
 _atom_site_label
 _atom_site_symmetry_multiplicity
 _atom_site_fract_x
 _atom_site_fract_y
 _atom_site_fract_z
 _atom_site_occupancy
  Zn  Zn0  1  0.19145000  0.75000000  0.00000000  1.0
  Zn  Zn1  1  0.30855000  0.75000000  0.50000000  1.0
  Zn  Zn2  1  0.80855000  0.25000000  0.00000000  1.0
  Zn  Zn3  1  0.69145000  0.25000000  0.50000000  1.0
  H  H4  1  0.57605000  0.38747000  0.82881000  1.0
  H  H5  1  0.57605000  0.11253000  0.17119000  1.0
  H  H6  1  0.92395000  0.11253000  0.32881000  1.0
  H  H7  1  0.92395000  0.38747000  0.67119000  1.0
  H  H8  1  0.42395000  0.61253000  0.17119000  1.0
  H  H9  1  0.42395000  0.88747000  0.82881000  1.0
  H  H10  1  0.07605000  0.88747000  0.67119000  1.0
  H  H11  1  0.07605000  0.61253000  0.32881000  1.0
  H  H12  1  0.67848000  0.27604000  0.70908000  1.0
  H  H13  1  0.67848000  0.22396000  0.29092000  1.0
  H  H14  1  0.82152000  0.22396000  0.20908000  1.0
  H  H15  1  0.82152000  0.27604000  0.79092000  1.0
  H  H16  1  0.32152000  0.72396000  0.29092000  1.0
  H  H17  1  0.32152000  0.77604000  0.70908000  1.0
  H  H18  1  0.17848000  0.77604000  0.79092000  1.0
  H  H19  1  0.17848000  0.72396000  0.20908000  1.0
  H  H20  1  0.47688000  0.37903000  0.48622000  1.0
  H  H21  1  0.47688000  0.12097000  0.51378000  1.0
  H  H22  1  0.02312000  0.12097000  0.98622000  1.0
  H  H23  1  0.02311000  0.37903000  0.01378000  1.0
  H  H24  1  0.52312000  0.62097000  0.51378000  1.0
  H  H25  1  0.52311000  0.87903000  0.48622000  1.0
  H  H26  1  0.97689000  0.87903000  0.01378000  1.0
  H  H27  1  0.97689000  0.62097000  0.98622000  1.0
  H  H28  1  0.36376000  0.49611000  0.59645000  1.0
  H  H29  1  0.36376000  0.00389000  0.40355000  1.0
  H  H30  1  0.13624000  0.00389000  0.09645000  1.0
  H  H31  1  0.13624000  0.49611000  0.90355000  1.0
  H  H32  1  0.63624000  0.50389000  0.40355000  1.0
  H  H33  1  0.63624000  0.99611000  0.59645000  1.0
  H  H34  1  0.86376000  0.99611000  0.90355000  1.0
  H  H35  1  0.86376000  0.50389000  0.09645000  1.0
  H  H36  1  0.33572000  0.57537000  0.75081000  1.0
  H  H37  1  0.33572000  0.92463000  0.24919000  1.0
  H  H38  1  0.16428000  0.92463000  0.25081000  1.0
  H  H39  1  0.16428000  0.57537000  0.74919000  1.0
  H  H40  1  0.66428000  0.42463000  0.24919000  1.0
  H  H41  1  0.66428000  0.07537000  0.75081000  1.0
  H  H42  1  0.83572000  0.07537000  0.74919000  1.0
  H  H43  1  0.83572000  0.42463000  0.25081000  1.0
  H  H44  1  0.46890000  0.47675000  0.91970000  1.0
  H  H45  1  0.46890000  0.02325000  0.08030000  1.0
  H  H46  1  0.03110000  0.02325000  0.41970000  1.0
  H  H47  1  0.03110000  0.47675000  0.58030000  1.0
  H  H48  1  0.53110000  0.52325000  0.08030000  1.0
  H  H49  1  0.53111000  0.97675000  0.91970000  1.0
  H  H50  1  0.96889000  0.97675000  0.58030000  1.0
  H  H51  1  0.96890000  0.52325000  0.41970000  1.0
  H  H52  1  0.26353000  0.19088000  0.16698000  1.0
  H  H53  1  0.26353000  0.30911000  0.83303000  1.0
  H  H54  1  0.23647000  0.30911000  0.66698000  1.0
  H  H55  1  0.23647000  0.19089000  0.33303000  1.0
  H  H56  1  0.73647000  0.80911000  0.83302000  1.0
  H  H57  1  0.73647000  0.69089000  0.16697000  1.0
  H  H58  1  0.76353000  0.69089000  0.33302000  1.0
  H  H59  1  0.76353000  0.80911000  0.66697000  1.0
  H  H60  1  0.34944000  0.36948000  0.10258000  1.0
  H  H61  1  0.34944000  0.13052000  0.89743000  1.0
  H  H62  1  0.15056000  0.13052000  0.60257000  1.0
  H  H63  1  0.15056000  0.36948000  0.39743000  1.0
  H  H64  1  0.65056000  0.63052000  0.89743000  1.0
  H  H65  1  0.65056000  0.86949000  0.10258000  1.0
  H  H66  1  0.84944000  0.86948000  0.39743000  1.0
  H  H67  1  0.84944000  0.63052000  0.60257000  1.0
  H  H68  1  0.25235000  0.44335000  0.17291000  1.0
  H  H69  1  0.25234000  0.05665000  0.82709000  1.0
  H  H70  1  0.24766000  0.05665000  0.67291000  1.0
  H  H71  1  0.24766000  0.44335000  0.32709000  1.0
  H  H72  1  0.74766000  0.55665000  0.82709000  1.0
  H  H73  1  0.74766000  0.94335000  0.17291000  1.0
  H  H74  1  0.75234000  0.94335000  0.32709000  1.0
  H  H75  1  0.75234000  0.55665000  0.67291000  1.0
  H  H76  1  0.20623000  0.35900000  0.07742000  1.0
  H  H77  1  0.20622000  0.14100000  0.92258000  1.0
  H  H78  1  0.29377000  0.14101000  0.57742000  1.0
  H  H79  1  0.29378000  0.35899000  0.42258000  1.0
  H  H80  1  0.79378000  0.64100000  0.92258000  1.0
  H  H81  1  0.79378000  0.85900000  0.07742000  1.0
  H  H82  1  0.70622000  0.85899000  0.42258000  1.0
  H  H83  1  0.70622000  0.64101000  0.57742000  1.0
  C  C84  1  0.55042000  0.38870000  0.75377000  1.0
  C  C85  1  0.55042000  0.11130000  0.24623000  1.0
  C  C86  1  0.94958000  0.11130000  0.25377000  1.0
  C  C87  1  0.94958000  0.38870000  0.74623000  1.0
  C  C88  1  0.44958000  0.61130000  0.24623000  1.0
  C  C89  1  0.44958000  0.88870000  0.75377000  1.0
  C  C90  1  0.05042000  0.88870000  0.74623000  1.0
  C  C91  1  0.05042000  0.61130000  0.25377000  1.0
  C  C92  1  0.60855000  0.32686000  0.68780000  1.0
  C  C93  1  0.60854000  0.17314000  0.31220000  1.0
  C  C94  1  0.89145000  0.17314000  0.18780000  1.0
  C  C95  1  0.89145000  0.32686000  0.81220000  1.0
  C  C96  1  0.39145000  0.67314000  0.31220000  1.0
  C  C97  1  0.39145000  0.82686000  0.68780000  1.0
  C  C98  1  0.10855000  0.82686000  0.81220000  1.0
  C  C99  1  0.10855000  0.67314000  0.18780000  1.0
  C  C100  1  0.49554000  0.38372000  0.56276000  1.0
  C  C101  1  0.49554000  0.11628000  0.43725000  1.0
  C  C102  1  0.00446000  0.11628000  0.06276000  1.0
  C  C103  1  0.00446000  0.38372000  0.93724000  1.0
  C  C104  1  0.50446000  0.61628000  0.43724000  1.0
  C  C105  1  0.50446000  0.88372000  0.56275000  1.0
  C  C106  1  0.99554000  0.88372000  0.93724000  1.0
  C  C107  1  0.99554000  0.61628000  0.06276000  1.0
  C  C108  1  0.43309000  0.44823000  0.62401000  1.0
  C  C109  1  0.43309000  0.05178000  0.37599000  1.0
  C  C110  1  0.06691000  0.05178000  0.12401000  1.0
  C  C111  1  0.06691000  0.44822000  0.87599000  1.0
  C  C112  1  0.56691000  0.55178000  0.37599000  1.0
  C  C113  1  0.56691000  0.94822000  0.62401000  1.0
  C  C114  1  0.93309000  0.94823000  0.87599000  1.0
  C  C115  1  0.93309000  0.55177000  0.12401000  1.0
  C  C116  1  0.46085000  0.45304000  0.72207000  1.0
  C  C117  1  0.46085000  0.04696000  0.27793000  1.0
  C  C118  1  0.03915000  0.04696000  0.22207000  1.0
  C  C119  1  0.03915000  0.45304000  0.77793000  1.0
  C  C120  1  0.53915000  0.54696000  0.27793000  1.0
  C  C121  1  0.53915000  0.95304000  0.72207000  1.0
  C  C122  1  0.96085000  0.95304000  0.77793000  1.0
  C  C123  1  0.96085000  0.54696000  0.22207000  1.0
  C  C124  1  0.39679000  0.52297000  0.78578000  1.0
  C  C125  1  0.39679000  0.97703000  0.21422000  1.0
  C  C126  1  0.10321000  0.97703000  0.28578000  1.0
  C  C127  1  0.10321000  0.52297000  0.71422000  1.0
  C  C128  1  0.60321000  0.47703000  0.21422000  1.0
  C  C129  1  0.60321000  0.02297000  0.78577000  1.0
  C  C130  1  0.89679000  0.02297000  0.71422000  1.0
  C  C131  1  0.89679000  0.47704000  0.28578000  1.0
  C  C132  1  0.40779000  0.52680000  0.88201000  1.0
  C  C133  1  0.40780000  0.97319000  0.11800000  1.0
  C  C134  1  0.09220000  0.97319000  0.38200000  1.0
  C  C135  1  0.09221000  0.52680000  0.61800000  1.0
  C  C136  1  0.59220000  0.47320000  0.11799000  1.0
  C  C137  1  0.59221000  0.02680000  0.88200000  1.0
  C  C138  1  0.90779000  0.02680000  0.61799000  1.0
  C  C139  1  0.90779000  0.47320000  0.38201000  1.0
  C  C140  1  0.34065000  0.60031000  0.94330000  1.0
  C  C141  1  0.34065000  0.89969000  0.05670000  1.0
  C  C142  1  0.15935000  0.89968000  0.44330000  1.0
  C  C143  1  0.15935000  0.60031000  0.55670000  1.0
  C  C144  1  0.65935000  0.39969000  0.05670000  1.0
  C  C145  1  0.65935000  0.10031000  0.94330000  1.0
  C  C146  1  0.84065000  0.10031000  0.55670000  1.0
  C  C147  1  0.84065000  0.39969000  0.44330000  1.0
  C  C148  1  0.25734000  0.26996000  0.20223000  1.0
  C  C149  1  0.25734000  0.23004000  0.79777000  1.0
  C  C150  1  0.24266000  0.23004000  0.70223000  1.0
  C  C151  1  0.24266000  0.26996000  0.29777000  1.0
  C  C152  1  0.74266000  0.73004000  0.79777000  1.0
  C  C153  1  0.74266000  0.76996000  0.20223000  1.0
  C  C154  1  0.75734000  0.76996000  0.29777000  1.0
  C  C155  1  0.75734000  0.73004000  0.70223000  1.0
  C  C156  1  0.26670000  0.36570000  0.13673000  1.0
  C  C157  1  0.26669000  0.13430000  0.86327000  1.0
  C  C158  1  0.23330000  0.13430000  0.63673000  1.0
  C  C159  1  0.23330000  0.36570000  0.36327000  1.0
  C  C160  1  0.73330000  0.63430000  0.86327000  1.0
  C  C161  1  0.73330000  0.86570000  0.13673000  1.0
  C  C162  1  0.76669000  0.86570000  0.36327000  1.0
  C  C163  1  0.76669000  0.63430000  0.63673000  1.0
  N  N164  1  0.58329000  0.32511000  0.59326000  1.0
  N  N165  1  0.58329000  0.17489000  0.40674000  1.0
  N  N166  1  0.91671000  0.17489000  0.09326000  1.0
  N  N167  1  0.91671000  0.32511000  0.90674000  1.0
  N  N168  1  0.41671000  0.67489000  0.40674000  1.0
  N  N169  1  0.41671000  0.82511000  0.59326000  1.0
  N  N170  1  0.08329000  0.82511000  0.90674000  1.0
  N  N171  1  0.08329000  0.67489000  0.09326000  1.0
  O  O172  1  0.36486000  0.61075000  0.03040000  1.0
  O  O173  1  0.36486000  0.88925000  0.96960000  1.0
  O  O174  1  0.13514000  0.88925000  0.53040000  1.0
  O  O175  1  0.13514000  0.61074000  0.46960000  1.0
  O  O176  1  0.63514000  0.38925000  0.96960000  1.0
  O  O177  1  0.63514000  0.11074000  0.03040000  1.0
  O  O178  1  0.86486000  0.11075000  0.46960000  1.0
  O  O179  1  0.86486000  0.38926000  0.53040000  1.0
  O  O180  1  0.25728000  0.65080000  0.90310000  1.0
  O  O181  1  0.25728000  0.84920000  0.09690000  1.0
  O  O182  1  0.24272000  0.84920000  0.40310000  1.0
  O  O183  1  0.24272000  0.65080000  0.59690000  1.0
  O  O184  1  0.74272000  0.34920000  0.09690000  1.0
  O  O185  1  0.74272000  0.15080000  0.90310000  1.0
  O  O186  1  0.75728000  0.15080000  0.59690000  1.0
  O  O187  1  0.75728000  0.34920000  0.40310000  1.0
