# generated using pymatgen
data_HoH6(C2N3)3
_symmetry_space_group_name_H-M   'P 1'
_cell_length_a   9.26006000
_cell_length_b   9.26005000
_cell_length_c   12.60050000
_cell_angle_alpha   91.83280000
_cell_angle_beta   91.83250000
_cell_angle_gamma   119.07700000
_symmetry_Int_Tables_number   1
_chemical_formula_structural   HoH6(C2N3)3
_chemical_formula_sum   'Ho4 H24 C24 N36'
_cell_volume   942.41955903
_cell_formula_units_Z   4
loop_
 _symmetry_equiv_pos_site_id
 _symmetry_equiv_pos_as_xyz
  1  'x, y, z'
loop_
 _atom_site_type_symbol
 _atom_site_label
 _atom_site_symmetry_multiplicity
 _atom_site_fract_x
 _atom_site_fract_y
 _atom_site_fract_z
 _atom_site_occupancy
  Ho  Ho0  1  0.74100000  0.47610000  0.57200000  1.0
  Ho  Ho1  1  0.52390000  0.25900000  0.92800000  1.0
  Ho  Ho2  1  0.25900000  0.52390000  0.42800000  1.0
  Ho  Ho3  1  0.47610000  0.74100000  0.07200000  1.0
  H  H4  1  0.70647000  0.76934000  0.76813000  1.0
  H  H5  1  0.23066000  0.29353000  0.73187000  1.0
  H  H6  1  0.29353000  0.23066000  0.23187000  1.0
  H  H7  1  0.76934000  0.70647000  0.26813000  1.0
  H  H8  1  0.46843000  0.86812000  0.73237000  1.0
  H  H9  1  0.13188000  0.53156000  0.76763000  1.0
  H  H10  1  0.53157000  0.13188000  0.26763000  1.0
  H  H11  1  0.86812000  0.46844000  0.23237000  1.0
  H  H12  1  0.75353000  0.09803000  0.66346000  1.0
  H  H13  1  0.90197000  0.24647000  0.83654000  1.0
  H  H14  1  0.24647000  0.90197000  0.33654000  1.0
  H  H15  1  0.09803000  0.75353000  0.16346000  1.0
  H  H16  1  0.00460000  0.03333000  0.60080000  1.0
  H  H17  1  0.96667000  0.99539000  0.89920000  1.0
  H  H18  1  0.99539000  0.96667000  0.39920000  1.0
  H  H19  1  0.03333000  0.00461000  0.10080000  1.0
  H  H20  1  0.11883000  0.83740000  0.84018000  1.0
  H  H21  1  0.16260000  0.88117000  0.65982000  1.0
  H  H22  1  0.88117000  0.16260000  0.15982000  1.0
  H  H23  1  0.83740000  0.11884000  0.34018000  1.0
  H  H24  1  0.92732000  0.63244000  0.99617000  1.0
  H  H25  1  0.36757000  0.07268000  0.50383000  1.0
  H  H26  1  0.07268000  0.36757000  0.00383000  1.0
  H  H27  1  0.63244000  0.92732000  0.49617000  1.0
  C  C28  1  0.61071000  0.73181000  0.70521000  1.0
  C  C29  1  0.26820000  0.38929000  0.79479000  1.0
  C  C30  1  0.38929000  0.26819000  0.29479000  1.0
  C  C31  1  0.73180000  0.61071000  0.20521000  1.0
  C  C32  1  0.49243000  0.78123000  0.68717000  1.0
  C  C33  1  0.21877000  0.50757000  0.81283000  1.0
  C  C34  1  0.50757000  0.21877000  0.31283000  1.0
  C  C35  1  0.78123000  0.49243000  0.18717000  1.0
  C  C36  1  0.86020000  0.16953000  0.61765000  1.0
  C  C37  1  0.83047000  0.13980000  0.88235000  1.0
  C  C38  1  0.13980000  0.83047000  0.38235000  1.0
  C  C39  1  0.16953000  0.86020000  0.11765000  1.0
  C  C40  1  0.98518000  0.13751000  0.58642000  1.0
  C  C41  1  0.86249000  0.01481000  0.91358000  1.0
  C  C42  1  0.01481000  0.86249000  0.41358000  1.0
  C  C43  1  0.13751000  0.98519000  0.08642000  1.0
  C  C44  1  0.00393000  0.72074000  0.83267000  1.0
  C  C45  1  0.27926000  0.99608000  0.66733000  1.0
  C  C46  1  0.99608000  0.27926000  0.16733000  1.0
  C  C47  1  0.72074000  0.00393000  0.33267000  1.0
  C  C48  1  0.90963000  0.61825000  0.91045000  1.0
  C  C49  1  0.38176000  0.09037000  0.58955000  1.0
  C  C50  1  0.09037000  0.38175000  0.08955000  1.0
  C  C51  1  0.61825000  0.90963000  0.41045000  1.0
  N  N52  1  0.58730000  0.61669000  0.62750000  1.0
  N  N53  1  0.38331000  0.41270000  0.87250000  1.0
  N  N54  1  0.41270000  0.38331000  0.37250000  1.0
  N  N55  1  0.61669000  0.58730000  0.12750000  1.0
  N  N56  1  0.45868000  0.59629000  0.56541000  1.0
  N  N57  1  0.40371000  0.54132000  0.93459000  1.0
  N  N58  1  0.54132000  0.40371000  0.43459000  1.0
  N  N59  1  0.59629000  0.45868000  0.06541000  1.0
  N  N60  1  0.39910000  0.69382000  0.59904000  1.0
  N  N61  1  0.30618000  0.60090000  0.90096000  1.0
  N  N62  1  0.60090000  0.30618000  0.40096000  1.0
  N  N63  1  0.69382000  0.39910000  0.09904000  1.0
  N  N64  1  0.88987000  0.31573000  0.57887000  1.0
  N  N65  1  0.68428000  0.11013000  0.92113000  1.0
  N  N66  1  0.11013000  0.68428000  0.42113000  1.0
  N  N67  1  0.31572000  0.88987000  0.07887000  1.0
  N  N68  1  0.02820000  0.37026000  0.52631000  1.0
  N  N69  1  0.62974000  0.97180000  0.97368000  1.0
  N  N70  1  0.97180000  0.62974000  0.47369000  1.0
  N  N71  1  0.37026000  0.02820000  0.02631000  1.0
  N  N72  1  0.08828000  0.26556000  0.52922000  1.0
  N  N73  1  0.73444000  0.91171000  0.97078000  1.0
  N  N74  1  0.91171000  0.73443000  0.47078000  1.0
  N  N75  1  0.26556000  0.08828000  0.02922000  1.0
  N  N76  1  0.92853000  0.64559000  0.73712000  1.0
  N  N77  1  0.35441000  0.07147000  0.76288000  1.0
  N  N78  1  0.07147000  0.35441000  0.26288000  1.0
  N  N79  1  0.64559000  0.92853000  0.23712000  1.0
  N  N80  1  0.79475000  0.50370000  0.75661000  1.0
  N  N81  1  0.49630000  0.20525000  0.74339000  1.0
  N  N82  1  0.20525000  0.49630000  0.24339000  1.0
  N  N83  1  0.50370000  0.79475000  0.25661000  1.0
  N  N84  1  0.77930000  0.48381000  0.86097000  1.0
  N  N85  1  0.51619000  0.22070000  0.63903000  1.0
  N  N86  1  0.22070000  0.51619000  0.13903000  1.0
  N  N87  1  0.48381000  0.77930000  0.36097000  1.0
