# generated using pymatgen
data_NiH22C22(NO2)4
_symmetry_space_group_name_H-M   'P 1'
_cell_length_a   7.82341000
_cell_length_b   9.84074000
_cell_length_c   15.99190000
_cell_angle_alpha   104.02400000
_cell_angle_beta   99.35830000
_cell_angle_gamma   105.49100000
_symmetry_Int_Tables_number   1
_chemical_formula_structural   NiH22C22(NO2)4
_chemical_formula_sum   'Ni2 H44 C44 N8 O16'
_cell_volume   1116.55216887
_cell_formula_units_Z   2
loop_
 _symmetry_equiv_pos_site_id
 _symmetry_equiv_pos_as_xyz
  1  'x, y, z'
loop_
 _atom_site_type_symbol
 _atom_site_label
 _atom_site_symmetry_multiplicity
 _atom_site_fract_x
 _atom_site_fract_y
 _atom_site_fract_z
 _atom_site_occupancy
  Ni  Ni0  1  0.87099000  0.87048000  0.74105000  1.0
  Ni  Ni1  1  0.12963000  0.12941000  0.25895000  1.0
  H  H2  1  0.58384000  0.79245000  0.58382000  1.0
  H  H3  1  0.00093000  0.79092000  0.58317000  1.0
  H  H4  1  0.41712000  0.20756000  0.41671000  1.0
  H  H5  1  0.99957000  0.20857000  0.41629000  1.0
  H  H6  1  0.58272000  0.91268000  0.67763000  1.0
  H  H7  1  0.09558000  0.76488000  0.67712000  1.0
  H  H8  1  0.41808000  0.08760000  0.32281000  1.0
  H  H9  1  0.90487000  0.23500000  0.32243000  1.0
  H  H10  1  0.04756000  0.13660000  0.88583000  1.0
  H  H11  1  0.83845000  0.74948000  0.88586000  1.0
  H  H12  1  0.95230000  0.86346000  0.11409000  1.0
  H  H13  1  0.16153000  0.25069000  0.11423000  1.0
  H  H14  1  0.12821000  0.53753000  0.66246000  1.0
  H  H15  1  0.53427000  0.12479000  0.66279000  1.0
  H  H16  1  0.87125000  0.46205000  0.33725000  1.0
  H  H17  1  0.46553000  0.87515000  0.33751000  1.0
  H  H18  1  0.16518000  0.41131000  0.90764000  1.0
  H  H19  1  0.74239000  0.49677000  0.90787000  1.0
  H  H20  1  0.83430000  0.58873000  0.09212000  1.0
  H  H21  1  0.25738000  0.50352000  0.09234000  1.0
  H  H22  1  0.16942000  0.49992000  0.77507000  1.0
  H  H23  1  0.60564000  0.27535000  0.77542000  1.0
  H  H24  1  0.83026000  0.49989000  0.22463000  1.0
  H  H25  1  0.39435000  0.72478000  0.22485000  1.0
  H  H26  1  0.95161000  0.04253000  0.61251000  1.0
  H  H27  1  0.66165000  0.56962000  0.61255000  1.0
  H  H28  1  0.04899000  0.95709000  0.38740000  1.0
  H  H29  1  0.33909000  0.43016000  0.38753000  1.0
  H  H30  1  0.15819000  0.44405000  0.47890000  1.0
  H  H31  1  0.32076000  0.03466000  0.47922000  1.0
  H  H32  1  0.84170000  0.55558000  0.52086000  1.0
  H  H33  1  0.67934000  0.96517000  0.52105000  1.0
  H  H34  1  0.18329000  0.62441000  0.54501000  1.0
  H  H35  1  0.36197000  0.92044000  0.54531000  1.0
  H  H36  1  0.81659000  0.37523000  0.45473000  1.0
  H  H37  1  0.63820000  0.07947000  0.45500000  1.0
  H  H38  1  0.18409000  0.94419000  0.00000000  1.0
  H  H39  1  0.81531000  0.05613000  0.99999000  1.0
  H  H40  1  0.45184000  0.67180000  0.85645000  1.0
  H  H41  1  0.40427000  0.18531000  0.85648000  1.0
  H  H42  1  0.54772000  0.32864000  0.14357000  1.0
  H  H43  1  0.59529000  0.81520000  0.14355000  1.0
  H  H44  1  0.63379000  0.67116000  0.00001000  1.0
  H  H45  1  0.36591000  0.32938000  0.00003000  1.0
  C  C46  1  0.05336000  0.18148000  0.83009000  1.0
  C  C47  1  0.77700000  0.64878000  0.83016000  1.0
  C  C48  1  0.94658000  0.81849000  0.16978000  1.0
  C  C49  1  0.22313000  0.35135000  0.16995000  1.0
  C  C50  1  0.11784000  0.33235000  0.84121000  1.0
  C  C51  1  0.72346000  0.50911000  0.84139000  1.0
  C  C52  1  0.88188000  0.66761000  0.15858000  1.0
  C  C53  1  0.27653000  0.49107000  0.15879000  1.0
  C  C54  1  0.12086000  0.38144000  0.76663000  1.0
  C  C55  1  0.64590000  0.38533000  0.76690000  1.0
  C  C56  1  0.87894000  0.61837000  0.23311000  1.0
  C  C57  1  0.35422000  0.61478000  0.23333000  1.0
  C  C58  1  0.06123000  0.27671000  0.68242000  1.0
  C  C59  1  0.62148000  0.40565000  0.68263000  1.0
  C  C60  1  0.93885000  0.72301000  0.31736000  1.0
  C  C61  1  0.37886000  0.59431000  0.31757000  1.0
  C  C62  1  0.99890000  0.12689000  0.67687000  1.0
  C  C63  1  0.67854000  0.54982000  0.67695000  1.0
  C  C64  1  0.00144000  0.87285000  0.32300000  1.0
  C  C65  1  0.32199000  0.45010000  0.32317000  1.0
  C  C66  1  0.05634000  0.31433000  0.59697000  1.0
  C  C67  1  0.54070000  0.28247000  0.59724000  1.0
  C  C68  1  0.94377000  0.68529000  0.40276000  1.0
  C  C69  1  0.45963000  0.71747000  0.40300000  1.0
  C  C70  1  0.09743000  0.50833000  0.52408000  1.0
  C  C71  1  0.42680000  0.01561000  0.52438000  1.0
  C  C72  1  0.90244000  0.49131000  0.47566000  1.0
  C  C73  1  0.57332000  0.98428000  0.47590000  1.0
  C  C74  1  0.19548000  0.80600000  0.83276000  1.0
  C  C75  1  0.63686000  0.02694000  0.83285000  1.0
  C  C76  1  0.80408000  0.19403000  0.16715000  1.0
  C  C77  1  0.36271000  0.97317000  0.16723000  1.0
  C  C78  1  0.30378000  0.80480000  0.91923000  1.0
  C  C79  1  0.61504000  0.11494000  0.91923000  1.0
  C  C80  1  0.69579000  0.19559000  0.08078000  1.0
  C  C81  1  0.38447000  0.88546000  0.08077000  1.0
  C  C82  1  0.28070000  0.88256000  0.00000000  1.0
  C  C83  1  0.71879000  0.11783000  0.00000000  1.0
  C  C84  1  0.43131000  0.72836000  0.91965000  1.0
  C  C85  1  0.48802000  0.19186000  0.91965000  1.0
  C  C86  1  0.56831000  0.27207000  0.08038000  1.0
  C  C87  1  0.51157000  0.80859000  0.08036000  1.0
  C  C88  1  0.53361000  0.72970000  0.00001000  1.0
  C  C89  1  0.46603000  0.27077000  0.00002000  1.0
  N  N90  1  0.99241000  0.08068000  0.74889000  1.0
  N  N91  1  0.75709000  0.66817000  0.74890000  1.0
  N  N92  1  0.00787000  0.91919000  0.25103000  1.0
  N  N93  1  0.24336000  0.33182000  0.25117000  1.0
  N  N94  1  0.09830000  0.45860000  0.60246000  1.0
  N  N95  1  0.50434000  0.14372000  0.60276000  1.0
  N  N96  1  0.90153000  0.54103000  0.39728000  1.0
  N  N97  1  0.49574000  0.85621000  0.39752000  1.0
  O  O98  1  0.65636000  0.86471000  0.64200000  1.0
  O  O99  1  0.98654000  0.77728000  0.64145000  1.0
  O  O100  1  0.34453000  0.13549000  0.35846000  1.0
  O  O101  1  0.01402000  0.22258000  0.35810000  1.0
  O  O102  1  0.01314000  0.21267000  0.52506000  1.0
  O  O103  1  0.51177000  0.31219000  0.52533000  1.0
  O  O104  1  0.98731000  0.78701000  0.47468000  1.0
  O  O105  1  0.48877000  0.68774000  0.47492000  1.0
  O  O106  1  0.09513000  0.88943000  0.83903000  1.0
  O  O107  1  0.74325000  0.94970000  0.83926000  1.0
  O  O108  1  0.90421000  0.11051000  0.16076000  1.0
  O  O109  1  0.25618000  0.05042000  0.16093000  1.0
  O  O110  1  0.20963000  0.72456000  0.76055000  1.0
  O  O111  1  0.55050000  0.03589000  0.76050000  1.0
  O  O112  1  0.79004000  0.27534000  0.23948000  1.0
  O  O113  1  0.44907000  0.96401000  0.23946000  1.0
