# generated using pymatgen
data_ZnH5C5SN5O4
_symmetry_space_group_name_H-M   'P 1'
_cell_length_a   8.96861000
_cell_length_b   9.00760000
_cell_length_c   10.72370000
_cell_angle_alpha   90.00000000
_cell_angle_beta   90.00000000
_cell_angle_gamma   98.64010000
_symmetry_Int_Tables_number   1
_chemical_formula_structural   ZnH5C5SN5O4
_chemical_formula_sum   'Zn4 H20 C20 S4 N20 O16'
_cell_volume   856.48963029
_cell_formula_units_Z   4
loop_
 _symmetry_equiv_pos_site_id
 _symmetry_equiv_pos_as_xyz
  1  'x, y, z'
loop_
 _atom_site_type_symbol
 _atom_site_label
 _atom_site_symmetry_multiplicity
 _atom_site_fract_x
 _atom_site_fract_y
 _atom_site_fract_z
 _atom_site_occupancy
  Zn  Zn0  1  0.14662000  0.81795000  0.34988000  1.0
  Zn  Zn1  1  0.85338000  0.68205000  0.84988000  1.0
  Zn  Zn2  1  0.85338000  0.18205000  0.65012000  1.0
  Zn  Zn3  1  0.14662000  0.31795000  0.15012000  1.0
  H  H4  1  0.59993000  0.28511000  0.24754000  1.0
  H  H5  1  0.40007000  0.21489000  0.74754000  1.0
  H  H6  1  0.40007000  0.71489000  0.75246000  1.0
  H  H7  1  0.59993000  0.78511000  0.25246000  1.0
  H  H8  1  0.57971000  0.26746000  0.03594000  1.0
  H  H9  1  0.42029000  0.23254000  0.53594000  1.0
  H  H10  1  0.42029000  0.73254000  0.96406000  1.0
  H  H11  1  0.57971000  0.76746000  0.46406000  1.0
  H  H12  1  0.68825000  0.39445000  0.93574000  1.0
  H  H13  1  0.31175000  0.10555000  0.43574000  1.0
  H  H14  1  0.31175000  0.60555000  0.06426000  1.0
  H  H15  1  0.68825000  0.89445000  0.56426000  1.0
  H  H16  1  0.08758000  0.83858000  0.04413000  1.0
  H  H17  1  0.91242000  0.66141000  0.54413000  1.0
  H  H18  1  0.91242000  0.16141000  0.95587000  1.0
  H  H19  1  0.08758000  0.33859000  0.45587000  1.0
  H  H20  1  0.69566000  0.39233000  0.43310000  1.0
  H  H21  1  0.30434000  0.10767000  0.93310000  1.0
  H  H22  1  0.30434000  0.60767000  0.56691000  1.0
  H  H23  1  0.69566000  0.89233000  0.06691000  1.0
  C  C24  1  0.01036000  0.75241000  0.09202000  1.0
  C  C25  1  0.98964000  0.74759000  0.59202000  1.0
  C  C26  1  0.98964000  0.24759000  0.90798000  1.0
  C  C27  1  0.01036000  0.25241000  0.40798000  1.0
  C  C28  1  0.83478000  0.56188000  0.12209000  1.0
  C  C29  1  0.16522000  0.93812000  0.62209000  1.0
  C  C30  1  0.16522000  0.43812000  0.87791000  1.0
  C  C31  1  0.83478000  0.06188000  0.37791000  1.0
  C  C32  1  0.72213000  0.43344000  0.12266000  1.0
  C  C33  1  0.27787000  0.06656000  0.62266000  1.0
  C  C34  1  0.27787000  0.56656000  0.87734000  1.0
  C  C35  1  0.72213000  0.93344000  0.37734000  1.0
  C  C36  1  0.74203000  0.44414000  0.34695000  1.0
  C  C37  1  0.25797000  0.05586000  0.84695000  1.0
  C  C38  1  0.25797000  0.55586000  0.65305000  1.0
  C  C39  1  0.74203000  0.94414000  0.15305000  1.0
  C  C40  1  0.89437000  0.61442000  0.23794000  1.0
  C  C41  1  0.10563000  0.88558000  0.73795000  1.0
  C  C42  1  0.10563000  0.38558000  0.76206000  1.0
  C  C43  1  0.89437000  0.11442000  0.26206000  1.0
  S  S44  1  0.35603000  0.06331000  0.19650000  1.0
  S  S45  1  0.64397000  0.43668000  0.69650000  1.0
  S  S46  1  0.64397000  0.93668000  0.80349000  1.0
  S  S47  1  0.35603000  0.56332000  0.30349000  1.0
  N  N48  1  0.00539000  0.73368000  0.21733000  1.0
  N  N49  1  0.99461000  0.76632000  0.71733000  1.0
  N  N50  1  0.99461000  0.26632000  0.78267000  1.0
  N  N51  1  0.00539000  0.23368000  0.28267000  1.0
  N  N52  1  0.90954000  0.65272000  0.02978000  1.0
  N  N53  1  0.09046000  0.84728000  0.52978000  1.0
  N  N54  1  0.09046000  0.34728000  0.97022000  1.0
  N  N55  1  0.90954000  0.15272000  0.47022000  1.0
  N  N56  1  0.68326000  0.38044000  0.23977000  1.0
  N  N57  1  0.31674000  0.11956000  0.73977000  1.0
  N  N58  1  0.31674000  0.61956000  0.76023000  1.0
  N  N59  1  0.68326000  0.88044000  0.26023000  1.0
  N  N60  1  0.84988000  0.55987000  0.35168000  1.0
  N  N61  1  0.15012000  0.94013000  0.85168000  1.0
  N  N62  1  0.15012000  0.44013000  0.64832000  1.0
  N  N63  1  0.84988000  0.05987000  0.14832000  1.0
  N  N64  1  0.65555000  0.36226000  0.02505000  1.0
  N  N65  1  0.34445000  0.13775000  0.52505000  1.0
  N  N66  1  0.34445000  0.63774000  0.97495000  1.0
  N  N67  1  0.65555000  0.86225000  0.47495000  1.0
  O  O68  1  0.23641000  0.02414000  0.29789000  1.0
  O  O69  1  0.76359000  0.47586000  0.79789000  1.0
  O  O70  1  0.76359000  0.97586000  0.70211000  1.0
  O  O71  1  0.23641000  0.52414000  0.20211000  1.0
  O  O72  1  0.36380000  0.93330000  0.11764000  1.0
  O  O73  1  0.63620000  0.56670000  0.61764000  1.0
  O  O74  1  0.63619000  0.06669000  0.88236000  1.0
  O  O75  1  0.36381000  0.43331000  0.38236000  1.0
  O  O76  1  0.30757000  0.18997000  0.12077000  1.0
  O  O77  1  0.69243000  0.31003000  0.62077000  1.0
  O  O78  1  0.69243000  0.81003000  0.87923000  1.0
  O  O79  1  0.30757000  0.68997000  0.37923000  1.0
  O  O80  1  0.49937000  0.12055000  0.25961000  1.0
  O  O81  1  0.50063000  0.37945000  0.75961000  1.0
  O  O82  1  0.50063000  0.87945000  0.74038000  1.0
  O  O83  1  0.49937000  0.62055000  0.24038000  1.0
