# generated using pymatgen
data_ZnH7C11SNO4
_symmetry_space_group_name_H-M   'P 1'
_cell_length_a   7.56693000
_cell_length_b   9.68437000
_cell_length_c   16.37270000
_cell_angle_alpha   89.99980000
_cell_angle_beta   89.99980000
_cell_angle_gamma   97.21840000
_symmetry_Int_Tables_number   1
_chemical_formula_structural   ZnH7C11SNO4
_chemical_formula_sum   'Zn4 H28 C44 S4 N4 O16'
_cell_volume   1190.29781841
_cell_formula_units_Z   4
loop_
 _symmetry_equiv_pos_site_id
 _symmetry_equiv_pos_as_xyz
  1  'x, y, z'
loop_
 _atom_site_type_symbol
 _atom_site_label
 _atom_site_symmetry_multiplicity
 _atom_site_fract_x
 _atom_site_fract_y
 _atom_site_fract_z
 _atom_site_occupancy
  Zn  Zn0  1  0.84319000  0.40057000  0.47599000  1.0
  Zn  Zn1  1  0.65681000  0.09943000  0.97599000  1.0
  Zn  Zn2  1  0.15681000  0.59943000  0.52401000  1.0
  Zn  Zn3  1  0.34320000  0.90057000  0.02401000  1.0
  H  H4  1  0.46095000  0.51630000  0.66676000  1.0
  H  H5  1  0.03906000  0.98370000  0.16676000  1.0
  H  H6  1  0.53906000  0.48369000  0.33324000  1.0
  H  H7  1  0.96094000  0.01631000  0.83324000  1.0
  H  H8  1  0.21888000  0.14599000  0.52206000  1.0
  H  H9  1  0.28111000  0.35401000  0.02206000  1.0
  H  H10  1  0.78111000  0.85402000  0.47793000  1.0
  H  H11  1  0.71890000  0.64598000  0.97794000  1.0
  H  H12  1  0.23526000  0.96801000  0.41284000  1.0
  H  H13  1  0.26473000  0.53199000  0.91284000  1.0
  H  H14  1  0.76473000  0.03200000  0.58716000  1.0
  H  H15  1  0.73528000  0.46800000  0.08717000  1.0
  H  H16  1  0.34739000  0.63030000  0.80077000  1.0
  H  H17  1  0.15263000  0.86970000  0.30077000  1.0
  H  H18  1  0.65263000  0.36969000  0.19923000  1.0
  H  H19  1  0.84737000  0.13031000  0.69923000  1.0
  H  H20  1  0.48116000  0.32842000  0.54391000  1.0
  H  H21  1  0.01883000  0.17158000  0.04391000  1.0
  H  H22  1  0.51884000  0.67158000  0.45609000  1.0
  H  H23  1  0.98117000  0.82842000  0.95609000  1.0
  H  H24  1  0.76261000  0.17186000  0.35537000  1.0
  H  H25  1  0.73738000  0.32814000  0.85538000  1.0
  H  H26  1  0.23738000  0.82814000  0.64462000  1.0
  H  H27  1  0.26262000  0.67187000  0.14463000  1.0
  H  H28  1  0.51235000  0.98395000  0.32497000  1.0
  H  H29  1  0.98763000  0.51605000  0.82497000  1.0
  H  H30  1  0.48763000  0.01605000  0.67502000  1.0
  H  H31  1  0.01237000  0.48395000  0.17503000  1.0
  C  C32  1  0.71953000  0.63570000  0.68901000  1.0
  C  C33  1  0.78048000  0.86430000  0.18900000  1.0
  C  C34  1  0.28047000  0.36429000  0.31099000  1.0
  C  C35  1  0.21952000  0.13570000  0.81100000  1.0
  C  C36  1  0.82313000  0.59571000  0.61832000  1.0
  C  C37  1  0.67687000  0.90430000  0.11832000  1.0
  C  C38  1  0.17687000  0.40430000  0.38168000  1.0
  C  C39  1  0.32313000  0.09570000  0.88168000  1.0
  C  C40  1  0.54316000  0.58845000  0.70612000  1.0
  C  C41  1  0.95685000  0.91155000  0.20612000  1.0
  C  C42  1  0.45685000  0.41154000  0.29388000  1.0
  C  C43  1  0.04315000  0.08846000  0.79389000  1.0
  C  C44  1  0.33716000  0.14774000  0.48409000  1.0
  C  C45  1  0.16283000  0.35226000  0.98409000  1.0
  C  C46  1  0.66283000  0.85227000  0.51591000  1.0
  C  C47  1  0.83718000  0.64773000  0.01591000  1.0
  C  C48  1  0.58933000  0.82871000  0.88684000  1.0
  C  C49  1  0.91067000  0.67129000  0.38683000  1.0
  C  C50  1  0.41067000  0.17129000  0.11316000  1.0
  C  C51  1  0.08933000  0.32871000  0.61316000  1.0
  C  C52  1  0.61296000  0.74212000  0.81396000  1.0
  C  C53  1  0.88705000  0.75789000  0.31396000  1.0
  C  C54  1  0.38704000  0.25788000  0.18604000  1.0
  C  C55  1  0.11295000  0.24212000  0.68604000  1.0
  C  C56  1  0.34604000  0.04996000  0.42226000  1.0
  C  C57  1  0.15395000  0.45004000  0.92226000  1.0
  C  C58  1  0.65395000  0.95004000  0.57774000  1.0
  C  C59  1  0.84606000  0.54996000  0.07774000  1.0
  C  C60  1  0.48270000  0.64891000  0.77744000  1.0
  C  C61  1  0.01732000  0.85109000  0.27743000  1.0
  C  C62  1  0.51731000  0.35108000  0.22257000  1.0
  C  C63  1  0.98269000  0.14892000  0.72257000  1.0
  C  C64  1  0.48198000  0.24904000  0.49678000  1.0
  C  C65  1  0.01801000  0.25096000  0.99678000  1.0
  C  C66  1  0.51802000  0.75097000  0.50322000  1.0
  C  C67  1  0.98199000  0.74903000  0.00322000  1.0
  C  C68  1  0.63913000  0.16157000  0.39046000  1.0
  C  C69  1  0.86085000  0.33843000  0.89046000  1.0
  C  C70  1  0.36085000  0.83843000  0.60953000  1.0
  C  C71  1  0.13915000  0.66157000  0.10954000  1.0
  C  C72  1  0.49929000  0.05778000  0.37417000  1.0
  C  C73  1  0.00070000  0.44222000  0.87417000  1.0
  C  C74  1  0.50070000  0.94222000  0.62583000  1.0
  C  C75  1  0.99931000  0.55778000  0.12583000  1.0
  S  S76  1  0.80980000  0.75611000  0.75984000  1.0
  S  S77  1  0.69021000  0.74389000  0.25984000  1.0
  S  S78  1  0.19020000  0.24390000  0.24016000  1.0
  S  S79  1  0.30980000  0.25610000  0.74016000  1.0
  N  N80  1  0.63092000  0.25490000  0.45112000  1.0
  N  N81  1  0.86907000  0.24509000  0.95112000  1.0
  N  N82  1  0.36907000  0.74509000  0.54888000  1.0
  N  N83  1  0.13094000  0.75490000  0.04889000  1.0
  O  O84  1  0.74229000  0.50523000  0.57058000  1.0
  O  O85  1  0.75772000  0.99478000  0.07058000  1.0
  O  O86  1  0.25771000  0.49477000  0.42942000  1.0
  O  O87  1  0.24229000  0.00523000  0.92942000  1.0
  O  O88  1  0.45595000  0.78823000  0.93211000  1.0
  O  O89  1  0.04405000  0.71177000  0.43211000  1.0
  O  O90  1  0.54405000  0.21177000  0.06789000  1.0
  O  O91  1  0.95594000  0.28823000  0.56789000  1.0
  O  O92  1  0.70275000  0.93620000  0.89782000  1.0
  O  O93  1  0.79726000  0.56380000  0.39781000  1.0
  O  O94  1  0.29726000  0.06379000  0.10219000  1.0
  O  O95  1  0.20274000  0.43621000  0.60219000  1.0
  O  O96  1  0.98315000  0.65471000  0.61098000  1.0
  O  O97  1  0.51686000  0.84529000  0.11098000  1.0
  O  O98  1  0.01685000  0.34529000  0.38902000  1.0
  O  O99  1  0.48315000  0.15470000  0.88902000  1.0
