# generated using pymatgen
data_Mn2H8C10N4O9
_symmetry_space_group_name_H-M   'P 1'
_cell_length_a   7.40243000
_cell_length_b   13.33380000
_cell_length_c   15.66580000
_cell_angle_alpha   81.17430000
_cell_angle_beta   89.99950000
_cell_angle_gamma   89.99690000
_symmetry_Int_Tables_number   1
_chemical_formula_structural   Mn2H8C10N4O9
_chemical_formula_sum   'Mn8 H32 C40 N16 O36'
_cell_volume   1527.94578124
_cell_formula_units_Z   4
loop_
 _symmetry_equiv_pos_site_id
 _symmetry_equiv_pos_as_xyz
  1  'x, y, z'
loop_
 _atom_site_type_symbol
 _atom_site_label
 _atom_site_symmetry_multiplicity
 _atom_site_fract_x
 _atom_site_fract_y
 _atom_site_fract_z
 _atom_site_occupancy
  Mn  Mn0  1  0.91282000  0.40866000  0.92492000  1.0
  Mn  Mn1  1  0.88241000  0.58368000  0.68775000  1.0
  Mn  Mn2  1  0.41281000  0.09133000  0.57509000  1.0
  Mn  Mn3  1  0.38240000  0.91628000  0.81225000  1.0
  Mn  Mn4  1  0.08717000  0.59132000  0.07508000  1.0
  Mn  Mn5  1  0.11759000  0.41631000  0.31225000  1.0
  Mn  Mn6  1  0.58720000  0.90867000  0.42492000  1.0
  Mn  Mn7  1  0.61761000  0.08371000  0.18775000  1.0
  H  H8  1  0.84368000  0.98603000  0.65646000  1.0
  H  H9  1  0.94356000  0.01071000  0.80536000  1.0
  H  H10  1  0.95002000  0.18884000  0.84217000  1.0
  H  H11  1  0.76758000  0.29433000  0.58163000  1.0
  H  H12  1  0.11372000  0.58569000  0.54610000  1.0
  H  H13  1  0.13418000  0.67573000  0.59970000  1.0
  H  H14  1  0.68155000  0.54335000  0.97152000  1.0
  H  H15  1  0.65231000  0.54757000  0.87055000  1.0
  H  H16  1  0.34369000  0.51394000  0.84354000  1.0
  H  H17  1  0.44357000  0.48927000  0.69463000  1.0
  H  H18  1  0.45000000  0.31113000  0.65783000  1.0
  H  H19  1  0.26758000  0.20566000  0.91836000  1.0
  H  H20  1  0.61367000  0.91430000  0.95391000  1.0
  H  H21  1  0.63418000  0.82425000  0.90033000  1.0
  H  H22  1  0.18156000  0.95665000  0.52848000  1.0
  H  H23  1  0.15232000  0.95243000  0.62945000  1.0
  H  H24  1  0.15631000  0.01398000  0.34355000  1.0
  H  H25  1  0.05644000  0.98930000  0.19464000  1.0
  H  H26  1  0.04999000  0.81115000  0.15784000  1.0
  H  H27  1  0.23244000  0.70568000  0.41837000  1.0
  H  H28  1  0.88628000  0.41432000  0.45390000  1.0
  H  H29  1  0.86582000  0.32427000  0.40031000  1.0
  H  H30  1  0.31844000  0.45665000  0.02848000  1.0
  H  H31  1  0.34769000  0.45243000  0.12945000  1.0
  H  H32  1  0.65631000  0.48605000  0.15646000  1.0
  H  H33  1  0.55642000  0.51072000  0.30537000  1.0
  H  H34  1  0.54997000  0.68885000  0.34218000  1.0
  H  H35  1  0.73241000  0.79434000  0.08165000  1.0
  H  H36  1  0.38631000  0.08569000  0.04609000  1.0
  H  H37  1  0.36582000  0.17575000  0.09967000  1.0
  H  H38  1  0.81844000  0.04336000  0.47151000  1.0
  H  H39  1  0.84769000  0.04757000  0.37055000  1.0
  C  C40  1  0.08189000  0.79316000  0.73104000  1.0
  C  C41  1  0.07970000  0.71454000  0.80937000  1.0
  C  C42  1  0.12035000  0.71133000  0.89729000  1.0
  C  C43  1  0.18492000  0.78157000  0.95636000  1.0
  C  C44  1  0.85289000  0.05986000  0.67684000  1.0
  C  C45  1  0.90799000  0.07615000  0.75800000  1.0
  C  C46  1  0.91494000  0.17443000  0.77771000  1.0
  C  C47  1  0.87207000  0.25553000  0.71295000  1.0
  C  C48  1  0.81269000  0.23585000  0.63315000  1.0
  C  C49  1  0.88711000  0.36340000  0.72757000  1.0
  C  C50  1  0.58188000  0.70683000  0.76895000  1.0
  C  C51  1  0.57971000  0.78545000  0.69062000  1.0
  C  C52  1  0.62036000  0.78865000  0.60270000  1.0
  C  C53  1  0.68493000  0.71841000  0.54363000  1.0
  C  C54  1  0.35287000  0.44012000  0.82316000  1.0
  C  C55  1  0.40798000  0.42383000  0.74199000  1.0
  C  C56  1  0.41495000  0.32555000  0.72228000  1.0
  C  C57  1  0.37207000  0.24445000  0.78704000  1.0
  C  C58  1  0.31268000  0.26414000  0.86684000  1.0
  C  C59  1  0.38711000  0.13658000  0.77242000  1.0
  C  C60  1  0.91811000  0.20684000  0.26897000  1.0
  C  C61  1  0.92031000  0.28547000  0.19063000  1.0
  C  C62  1  0.87965000  0.28866000  0.10271000  1.0
  C  C63  1  0.81511000  0.21841000  0.04363000  1.0
  C  C64  1  0.14715000  0.94015000  0.32316000  1.0
  C  C65  1  0.09206000  0.92386000  0.24200000  1.0
  C  C66  1  0.08507000  0.82557000  0.22230000  1.0
  C  C67  1  0.12790000  0.74448000  0.28706000  1.0
  C  C68  1  0.18730000  0.76416000  0.36686000  1.0
  C  C69  1  0.11285000  0.63660000  0.27243000  1.0
  C  C70  1  0.41811000  0.29317000  0.23104000  1.0
  C  C71  1  0.42029000  0.21456000  0.30937000  1.0
  C  C72  1  0.37964000  0.21135000  0.39729000  1.0
  C  C73  1  0.31507000  0.28158000  0.45637000  1.0
  C  C74  1  0.64712000  0.55988000  0.17684000  1.0
  C  C75  1  0.59200000  0.57616000  0.25801000  1.0
  C  C76  1  0.58503000  0.67444000  0.27772000  1.0
  C  C77  1  0.62791000  0.75554000  0.21296000  1.0
  C  C78  1  0.68730000  0.73586000  0.13317000  1.0
  C  C79  1  0.61288000  0.86341000  0.22758000  1.0
  N  N80  1  0.02323000  0.61962000  0.79988000  1.0
  N  N81  1  0.02929000  0.56126000  0.87666000  1.0
  N  N82  1  0.08682000  0.61512000  0.93555000  1.0
  N  N83  1  0.79912000  0.13926000  0.61689000  1.0
  N  N84  1  0.52323000  0.88037000  0.70011000  1.0
  N  N85  1  0.52930000  0.93872000  0.62333000  1.0
  N  N86  1  0.58684000  0.88486000  0.56444000  1.0
  N  N87  1  0.29911000  0.36072000  0.88310000  1.0
  N  N88  1  0.97677000  0.38039000  0.20012000  1.0
  N  N89  1  0.97070000  0.43874000  0.12333000  1.0
  N  N90  1  0.91319000  0.38488000  0.06444000  1.0
  N  N91  1  0.20089000  0.86075000  0.38311000  1.0
  N  N92  1  0.47678000  0.11963000  0.29989000  1.0
  N  N93  1  0.47071000  0.06128000  0.37667000  1.0
  N  N94  1  0.41316000  0.11514000  0.43555000  1.0
  N  N95  1  0.70088000  0.63927000  0.11690000  1.0
  O  O96  1  0.01832000  0.76795000  0.66240000  1.0
  O  O97  1  0.14615000  0.88156000  0.73639000  1.0
  O  O98  1  0.24666000  0.86861000  0.92625000  1.0
  O  O99  1  0.17400000  0.74741000  0.03671000  1.0
  O  O100  1  0.72054000  0.12277000  0.54396000  1.0
  O  O101  1  0.84554000  0.43324000  0.66569000  1.0
  O  O102  1  0.94430000  0.38037000  0.80041000  1.0
  O  O103  1  0.14190000  0.60130000  0.60340000  1.0
  O  O104  1  0.66629000  0.49980000  0.92577000  1.0
  O  O105  1  0.51831000  0.73205000  0.83759000  1.0
  O  O106  1  0.64611000  0.61843000  0.76361000  1.0
  O  O107  1  0.74668000  0.63137000  0.57375000  1.0
  O  O108  1  0.67405000  0.75259000  0.46329000  1.0
  O  O109  1  0.22055000  0.37720000  0.95604000  1.0
  O  O110  1  0.34553000  0.06675000  0.83431000  1.0
  O  O111  1  0.44427000  0.11963000  0.69958000  1.0
  O  O112  1  0.64190000  0.89868000  0.89662000  1.0
  O  O113  1  0.16629000  0.00020000  0.57422000  1.0
  O  O114  1  0.98168000  0.23207000  0.33760000  1.0
  O  O115  1  0.85386000  0.11844000  0.26361000  1.0
  O  O116  1  0.75335000  0.13138000  0.07377000  1.0
  O  O117  1  0.82603000  0.25260000  0.96329000  1.0
  O  O118  1  0.27947000  0.87723000  0.45605000  1.0
  O  O119  1  0.15446000  0.56677000  0.33432000  1.0
  O  O120  1  0.05572000  0.61964000  0.19959000  1.0
  O  O121  1  0.85811000  0.39871000  0.39660000  1.0
  O  O122  1  0.33371000  0.50021000  0.07422000  1.0
  O  O123  1  0.48169000  0.26797000  0.16240000  1.0
  O  O124  1  0.35388000  0.38157000  0.23638000  1.0
  O  O125  1  0.25334000  0.36863000  0.42626000  1.0
  O  O126  1  0.32597000  0.24742000  0.53671000  1.0
  O  O127  1  0.77944000  0.62279000  0.04397000  1.0
  O  O128  1  0.65446000  0.93324000  0.16569000  1.0
  O  O129  1  0.55570000  0.88038000  0.30041000  1.0
  O  O130  1  0.35810000  0.10132000  0.10338000  1.0
  O  O131  1  0.83370000  0.99980000  0.42577000  1.0
