# generated using pymatgen
data_Ag2H8C6SO4
_symmetry_space_group_name_H-M   'P 1'
_cell_length_a   5.14966000
_cell_length_b   8.02737000
_cell_length_c   10.90430000
_cell_angle_alpha   86.70550000
_cell_angle_beta   76.35660000
_cell_angle_gamma   71.31500000
_symmetry_Int_Tables_number   1
_chemical_formula_structural   Ag2H8C6SO4
_chemical_formula_sum   'Ag4 H16 C12 S2 O8'
_cell_volume   414.87729466
_cell_formula_units_Z   2
loop_
 _symmetry_equiv_pos_site_id
 _symmetry_equiv_pos_as_xyz
  1  'x, y, z'
loop_
 _atom_site_type_symbol
 _atom_site_label
 _atom_site_symmetry_multiplicity
 _atom_site_fract_x
 _atom_site_fract_y
 _atom_site_fract_z
 _atom_site_occupancy
  Ag  Ag0  1  0.38877000  0.87266000  0.95296000  1.0
  Ag  Ag1  1  0.71458000  0.62745000  0.54716000  1.0
  Ag  Ag2  1  0.61127000  0.12734000  0.04705000  1.0
  Ag  Ag3  1  0.28540000  0.37255000  0.45283000  1.0
  H  H4  1  0.75150000  0.49144000  0.95006000  1.0
  H  H5  1  0.69288000  0.00840000  0.55000000  1.0
  H  H6  1  0.24853000  0.50854000  0.04993000  1.0
  H  H7  1  0.30709000  0.99159000  0.45000000  1.0
  H  H8  1  0.80769000  0.38354000  0.80626000  1.0
  H  H9  1  0.49679000  0.11656000  0.69361000  1.0
  H  H10  1  0.19237000  0.61644000  0.19373000  1.0
  H  H11  1  0.50318000  0.88343000  0.30639000  1.0
  H  H12  1  0.18613000  0.52538000  0.70867000  1.0
  H  H13  1  0.91897000  0.97537000  0.79167000  1.0
  H  H14  1  0.81388000  0.47463000  0.29133000  1.0
  H  H15  1  0.08101000  0.02464000  0.20832000  1.0
  H  H16  1  0.11368000  0.63915000  0.85504000  1.0
  H  H17  1  0.10726000  0.86150000  0.64541000  1.0
  H  H18  1  0.88632000  0.36086000  0.14496000  1.0
  H  H19  1  0.89272000  0.13852000  0.35459000  1.0
  C  C20  1  0.91252000  0.43600000  0.86388000  1.0
  C  C21  1  0.71180000  0.06415000  0.63620000  1.0
  C  C22  1  0.08752000  0.56398000  0.13611000  1.0
  C  C23  1  0.28817000  0.93586000  0.36379000  1.0
  C  C24  1  0.13911000  0.28337000  0.90304000  1.0
  C  C25  1  0.82487000  0.21682000  0.59697000  1.0
  C  C26  1  0.86095000  0.71663000  0.09696000  1.0
  C  C27  1  0.17510000  0.78319000  0.40304000  1.0
  C  C28  1  0.02511000  0.57737000  0.79520000  1.0
  C  C29  1  0.89694000  0.92313000  0.70509000  1.0
  C  C30  1  0.97491000  0.42263000  0.20479000  1.0
  C  C31  1  0.10303000  0.07687000  0.29491000  1.0
  S  S32  1  0.73593000  0.75009000  0.75011000  1.0
  S  S33  1  0.26408000  0.24990000  0.24989000  1.0
  O  O34  1  0.38521000  0.29219000  0.88787000  1.0
  O  O35  1  0.06467000  0.20801000  0.61216000  1.0
  O  O36  1  0.61479000  0.70781000  0.11214000  1.0
  O  O37  1  0.93527000  0.79201000  0.38784000  1.0
  O  O38  1  0.06249000  0.15300000  0.95374000  1.0
  O  O39  1  0.66875000  0.34712000  0.54625000  1.0
  O  O40  1  0.93756000  0.84698000  0.04627000  1.0
  O  O41  1  0.33118000  0.65289000  0.45376000  1.0
