# generated using pymatgen
data_ZnH24C22(NO)4
_symmetry_space_group_name_H-M   'P 1'
_cell_length_a   5.96339000
_cell_length_b   8.95634000
_cell_length_c   10.55289540
_cell_angle_alpha   88.15712397
_cell_angle_beta   74.72941956
_cell_angle_gamma   89.34770000
_symmetry_Int_Tables_number   1
_chemical_formula_structural   ZnH24C22(NO)4
_chemical_formula_sum   'Zn1 H24 C22 N4 O4'
_cell_volume   543.44772712
_cell_formula_units_Z   1
loop_
 _symmetry_equiv_pos_site_id
 _symmetry_equiv_pos_as_xyz
  1  'x, y, z'
loop_
 _atom_site_type_symbol
 _atom_site_label
 _atom_site_symmetry_multiplicity
 _atom_site_fract_x
 _atom_site_fract_y
 _atom_site_fract_z
 _atom_site_occupancy
  Zn  Zn0  1  0.00002000  0.50000000  0.50000000  1.0
  H  H1  1  0.41846000  0.81088000  0.28875000  1.0
  H  H2  1  0.58152000  0.18910000  0.71128000  1.0
  H  H3  1  0.54386000  0.65573000  0.45587000  1.0
  H  H4  1  0.45618000  0.34427000  0.54415000  1.0
  H  H5  1  0.20040000  0.59090000  0.20829000  1.0
  H  H6  1  0.79961000  0.40913000  0.79171000  1.0
  H  H7  1  0.10366000  0.74546000  0.02769000  1.0
  H  H8  1  0.89632000  0.25455000  0.97231000  1.0
  H  H9  1  0.83656000  0.89956000  0.94634000  1.0
  H  H10  1  0.16339000  0.10042000  0.05367000  1.0
  H  H11  1  0.77117000  0.00447000  0.48819000  1.0
  H  H12  1  0.22883000  0.99553000  0.51179000  1.0
  H  H13  1  0.93835000  0.96980000  0.32477000  1.0
  H  H14  1  0.06164000  0.03022000  0.67521000  1.0
  H  H15  1  0.67972000  0.08122000  0.35417000  1.0
  H  H16  1  0.32028000  0.91880000  0.64582000  1.0
  H  H17  1  0.26543000  0.10903000  0.25040000  1.0
  H  H18  1  0.73458000  0.89096000  0.74959000  1.0
  H  H19  1  0.58503000  0.41596000  0.12185000  1.0
  H  H20  1  0.41494000  0.58406000  0.87815000  1.0
  H  H21  1  0.60999000  0.21798000  0.14468000  1.0
  H  H22  1  0.39001000  0.78203000  0.85530000  1.0
  H  H23  1  0.72102000  0.34547000  0.24130000  1.0
  H  H24  1  0.27899000  0.65453000  0.75868000  1.0
  C  C25  1  0.75207000  0.79225000  0.14312000  1.0
  C  C26  1  0.24791000  0.20773000  0.85690000  1.0
  C  C27  1  0.59373000  0.76478000  0.26577000  1.0
  C  C28  1  0.40626000  0.23521000  0.73425000  1.0
  C  C29  1  0.66380000  0.67759000  0.36004000  1.0
  C  C30  1  0.33622000  0.32241000  0.63998000  1.0
  C  C31  1  0.02926000  0.64156000  0.22062000  1.0
  C  C32  1  0.97076000  0.35845000  0.77938000  1.0
  C  C33  1  0.97423000  0.72733000  0.12105000  1.0
  C  C34  1  0.02578000  0.27267000  0.87896000  1.0
  C  C35  1  0.70106000  0.88723000  0.03962000  1.0
  C  C36  1  0.29891000  0.11276000  0.96038000  1.0
  C  C37  1  0.83453000  0.05356000  0.38845000  1.0
  C  C38  1  0.16548000  0.94644000  0.61153000  1.0
  C  C39  1  0.96947000  0.19425000  0.39219000  1.0
  C  C40  1  0.03053000  0.80575000  0.60780000  1.0
  C  C41  1  0.19928000  0.20462000  0.31068000  1.0
  C  C42  1  0.80074000  0.79539000  0.68931000  1.0
  C  C43  1  0.34871000  0.32810000  0.29706000  1.0
  C  C44  1  0.65131000  0.67191000  0.70293000  1.0
  C  C45  1  0.58027000  0.32447000  0.19480000  1.0
  C  C46  1  0.41973000  0.67554000  0.80518000  1.0
  N  N47  1  0.87799000  0.61748000  0.33882000  1.0
  N  N48  1  0.12203000  0.38253000  0.66119000  1.0
  N  N49  1  0.50439000  0.95692000  0.05531000  1.0
  N  N50  1  0.49556000  0.04308000  0.94471000  1.0
  O  O51  1  0.30677000  0.44769000  0.36253000  1.0
  O  O52  1  0.69325000  0.55230000  0.63747000  1.0
  O  O53  1  0.86154000  0.29477000  0.46834000  1.0
  O  O54  1  0.13848000  0.70523000  0.53165000  1.0
