# generated using pymatgen
data_Al2H17C24N2O10F
_symmetry_space_group_name_H-M   'P 1'
_cell_length_a   6.64032000
_cell_length_b   11.17640000
_cell_length_c   15.22020000
_cell_angle_alpha   82.96380000
_cell_angle_beta   78.22570000
_cell_angle_gamma   72.79770000
_symmetry_Int_Tables_number   1
_chemical_formula_structural   Al2H17C24N2O10F
_chemical_formula_sum   'Al2 H17 C24 N2 O10 F1'
_cell_volume   1053.99664968
_cell_formula_units_Z   1
loop_
 _symmetry_equiv_pos_site_id
 _symmetry_equiv_pos_as_xyz
  1  'x, y, z'
loop_
 _atom_site_type_symbol
 _atom_site_label
 _atom_site_symmetry_multiplicity
 _atom_site_fract_x
 _atom_site_fract_y
 _atom_site_fract_z
 _atom_site_occupancy
  Al  Al0  1  0.50509000  0.50295000  0.49239000  1.0
  Al  Al1  1  0.00893000  0.49777000  0.49131000  1.0
  H  H2  1  0.30433000  0.35478000  0.55143000  1.0
  H  H3  1  0.72812000  0.63692000  0.41973000  1.0
  H  H4  1  0.86900000  0.46229000  0.93825000  1.0
  H  H5  1  0.20496000  0.44538000  0.04354000  1.0
  H  H6  1  0.64477000  0.56163000  0.22744000  1.0
  H  H7  1  0.73663000  0.58354000  0.06045000  1.0
  H  H8  1  0.29673000  0.59501000  0.75390000  1.0
  H  H9  1  0.19793000  0.59419000  0.92110000  1.0
  H  H10  1  0.69971000  0.12484000  0.41696000  1.0
  H  H11  1  0.19563000  0.09396000  0.66050000  1.0
  H  H12  1  0.38679000  0.10753000  0.56112000  1.0
  H  H13  1  0.50443000  0.87274000  0.55488000  1.0
  H  H14  1  0.31314000  0.85918000  0.65373000  1.0
  H  H15  1  0.05681000  0.47868000  0.69845000  1.0
  H  H16  1  0.12478000  0.44605000  0.80530000  1.0
  H  H17  1  0.02424000  0.42058000  0.28348000  1.0
  H  H18  1  0.97496000  0.40741000  0.17711000  1.0
  C  C19  1  0.85873000  0.27350000  0.49764000  1.0
  C  C20  1  0.67991000  0.52268000  0.65310000  1.0
  C  C21  1  0.15014000  0.72588000  0.48580000  1.0
  C  C22  1  0.33184000  0.48650000  0.32967000  1.0
  C  C23  1  0.63456000  0.53001000  0.75145000  1.0
  C  C24  1  0.37717000  0.49096000  0.23067000  1.0
  C  C25  1  0.80196000  0.49640000  0.80333000  1.0
  C  C26  1  0.74203000  0.49366000  0.89803000  1.0
  C  C27  1  0.24674000  0.45885000  0.17844000  1.0
  C  C28  1  0.30172000  0.47216000  0.08361000  1.0
  C  C29  1  0.55266000  0.53416000  0.18576000  1.0
  C  C30  1  0.60444000  0.54553000  0.09298000  1.0
  C  C31  1  0.42025000  0.56490000  0.79573000  1.0
  C  C32  1  0.36515000  0.56303000  0.88858000  1.0
  C  C33  1  0.52893000  0.52406000  0.94113000  1.0
  C  C34  1  0.47696000  0.51398000  0.04042000  1.0
  C  C35  1  0.93219000  0.13463000  0.49567000  1.0
  C  C36  1  0.07408000  0.86462000  0.48739000  1.0
  C  C37  1  0.10237000  0.06008000  0.53574000  1.0
  C  C38  1  0.90243000  0.94205000  0.44710000  1.0
  C  C39  1  0.16894000  0.92994000  0.53179000  1.0
  C  C40  1  0.83185000  0.07182000  0.45072000  1.0
  C  C41  1  0.26452000  0.06005000  0.59303000  1.0
  C  C42  1  0.33930000  0.91241000  0.58882000  1.0
  N  N43  1  0.01352000  0.46030000  0.76566000  1.0
  N  N44  1  0.07760000  0.41324000  0.21624000  1.0
  O  O45  1  0.66767000  0.32861000  0.48606000  1.0
  O  O46  1  0.86465000  0.53061000  0.61136000  1.0
  O  O47  1  0.02217000  0.66779000  0.47239000  1.0
  O  O48  1  0.46694000  0.50873000  0.36986000  1.0
  O  O49  1  0.34080000  0.67498000  0.49961000  1.0
  O  O50  1  0.15629000  0.46322000  0.37096000  1.0
  O  O51  1  0.99394000  0.32704000  0.51075000  1.0
  O  O52  1  0.53635000  0.50539000  0.61545000  1.0
  O  O53  1  0.26443000  0.44472000  0.53667000  1.0
  O  O54  1  0.75269000  0.55209000  0.44735000  1.0
  F  F55  1  0.79977000  0.88986000  0.39989000  1.0
