# generated using pymatgen
data_Ag2PH2CO3
_symmetry_space_group_name_H-M   'P 1'
_cell_length_a   5.71632000
_cell_length_b   8.53294000
_cell_length_c   9.02359000
_cell_angle_alpha   90.00120000
_cell_angle_beta   90.00160000
_cell_angle_gamma   100.37200000
_symmetry_Int_Tables_number   1
_chemical_formula_structural   Ag2PH2CO3
_chemical_formula_sum   'Ag8 P4 H8 C4 O12'
_cell_volume   432.95165164
_cell_formula_units_Z   4
loop_
 _symmetry_equiv_pos_site_id
 _symmetry_equiv_pos_as_xyz
  1  'x, y, z'
loop_
 _atom_site_type_symbol
 _atom_site_label
 _atom_site_symmetry_multiplicity
 _atom_site_fract_x
 _atom_site_fract_y
 _atom_site_fract_z
 _atom_site_occupancy
  Ag  Ag0  1  0.96627000  0.56307000  0.35709000  1.0
  Ag  Ag1  1  0.46624000  0.06306000  0.14292000  1.0
  Ag  Ag2  1  0.03374000  0.43694000  0.64293000  1.0
  Ag  Ag3  1  0.53373000  0.93694000  0.85709000  1.0
  Ag  Ag4  1  0.54752000  0.33315000  0.46881000  1.0
  Ag  Ag5  1  0.04750000  0.83313000  0.03119000  1.0
  Ag  Ag6  1  0.45247000  0.66686000  0.53118000  1.0
  Ag  Ag7  1  0.95248000  0.16686000  0.96881000  1.0
  P  P8  1  0.96550000  0.18422000  0.32905000  1.0
  P  P9  1  0.46550000  0.68422000  0.17096000  1.0
  P  P10  1  0.03449000  0.81579000  0.67094000  1.0
  P  P11  1  0.53450000  0.31576000  0.82902000  1.0
  H  H12  1  0.77359000  0.06244000  0.54598000  1.0
  H  H13  1  0.27361000  0.56245000  0.95398000  1.0
  H  H14  1  0.22641000  0.93756000  0.45401000  1.0
  H  H15  1  0.72642000  0.43755000  0.04600000  1.0
  H  H16  1  0.78939000  0.92162000  0.40172000  1.0
  H  H17  1  0.28941000  0.42162000  0.09826000  1.0
  H  H18  1  0.21057000  0.07838000  0.59829000  1.0
  H  H19  1  0.71064000  0.57837000  0.90174000  1.0
  C  C20  1  0.89151000  0.02330000  0.46259000  1.0
  C  C21  1  0.39153000  0.52334000  0.03742000  1.0
  C  C22  1  0.10854000  0.97671000  0.53739000  1.0
  C  C23  1  0.60849000  0.47666000  0.96258000  1.0
  O  O24  1  0.13385000  0.32557000  0.40117000  1.0
  O  O25  1  0.63384000  0.82558000  0.09885000  1.0
  O  O26  1  0.86612000  0.67443000  0.59884000  1.0
  O  O27  1  0.36616000  0.17444000  0.90116000  1.0
  O  O28  1  0.72699000  0.23653000  0.28413000  1.0
  O  O29  1  0.22702000  0.73650000  0.21587000  1.0
  O  O30  1  0.27301000  0.76347000  0.71587000  1.0
  O  O31  1  0.77297000  0.26349000  0.78413000  1.0
  O  O32  1  0.08150000  0.11967000  0.19249000  1.0
  O  O33  1  0.58146000  0.61969000  0.30749000  1.0
  O  O34  1  0.91850000  0.88033000  0.80751000  1.0
  O  O35  1  0.41854000  0.38033000  0.69252000  1.0
