# generated using pymatgen
data_Zn2MoH8C12N2O9
_symmetry_space_group_name_H-M   'P 1'
_cell_length_a   7.64115000
_cell_length_b   9.65261000
_cell_length_c   10.55070000
_cell_angle_alpha   94.23410000
_cell_angle_beta   105.22000000
_cell_angle_gamma   105.63700000
_symmetry_Int_Tables_number   1
_chemical_formula_structural   Zn2MoH8C12N2O9
_chemical_formula_sum   'Zn4 Mo2 H16 C24 N4 O18'
_cell_volume   714.29358042
_cell_formula_units_Z   2
loop_
 _symmetry_equiv_pos_site_id
 _symmetry_equiv_pos_as_xyz
  1  'x, y, z'
loop_
 _atom_site_type_symbol
 _atom_site_label
 _atom_site_symmetry_multiplicity
 _atom_site_fract_x
 _atom_site_fract_y
 _atom_site_fract_z
 _atom_site_occupancy
  Zn  Zn0  1  0.78676000  0.27366000  0.83801000  1.0
  Zn  Zn1  1  0.21324000  0.72634000  0.16199000  1.0
  Zn  Zn2  1  0.18870000  0.38960000  0.37575000  1.0
  Zn  Zn3  1  0.81130000  0.61040000  0.62425000  1.0
  Mo  Mo4  1  0.16028000  0.42438000  0.70725000  1.0
  Mo  Mo5  1  0.83972000  0.57562000  0.29275000  1.0
  H  H6  1  0.90316000  0.93376000  0.18835000  1.0
  H  H7  1  0.09684000  0.06624000  0.81165000  1.0
  H  H8  1  0.64387000  0.71500000  0.04895000  1.0
  H  H9  1  0.35613000  0.28500000  0.95105000  1.0
  H  H10  1  0.43746000  0.74073000  0.83308000  1.0
  H  H11  1  0.56255000  0.25927000  0.16692000  1.0
  H  H12  1  0.25082000  0.79439000  0.66864000  1.0
  H  H13  1  0.74918000  0.20561000  0.33136000  1.0
  H  H14  1  0.08384000  0.86097000  0.45902000  1.0
  H  H15  1  0.91616000  0.13903000  0.54098000  1.0
  H  H16  1  0.22191000  0.10566000  0.39709000  1.0
  H  H17  1  0.77808000  0.89433000  0.60291000  1.0
  H  H18  1  0.59394000  0.44716000  0.87505000  1.0
  H  H19  1  0.40606000  0.55284000  0.12494000  1.0
  H  H20  1  0.81819000  0.53169000  0.92578000  1.0
  H  H21  1  0.18181000  0.46831000  0.07422000  1.0
  C  C22  1  0.99285000  0.21226000  0.11729000  1.0
  C  C23  1  0.00715000  0.78774000  0.88271000  1.0
  C  C24  1  0.84055000  0.07356000  0.04355000  1.0
  C  C25  1  0.15945000  0.92644000  0.95645000  1.0
  C  C26  1  0.81131000  0.94194000  0.09302000  1.0
  C  C27  1  0.18869000  0.05806000  0.90698000  1.0
  C  C28  1  0.66666667  0.82063000  0.01507000  1.0
  C  C29  1  0.33339000  0.17938000  0.98494000  1.0
  C  C30  1  0.55107000  0.83495000  0.89347000  1.0
  C  C31  1  0.44893000  0.16505000  0.10653000  1.0
  C  C32  1  0.58690000  0.97126000  0.85094000  1.0
  C  C33  1  0.41310000  0.02874000  0.14906000  1.0
  C  C34  1  0.47428000  0.00190000  0.72466000  1.0
  C  C35  1  0.52572000  0.99809000  0.27534000  1.0
  C  C36  1  0.30770000  0.90092000  0.64217000  1.0
  C  C37  1  0.69230000  0.09908000  0.35783000  1.0
  C  C38  1  0.21388000  0.93871000  0.52401000  1.0
  C  C39  1  0.78612000  0.06129000  0.47599000  1.0
  C  C40  1  0.28885000  0.07413000  0.49016000  1.0
  C  C41  1  0.71115000  0.92587000  0.50984000  1.0
  C  C42  1  0.45381000  0.17114000  0.57842000  1.0
  C  C43  1  0.54619000  0.82886000  0.42158000  1.0
  C  C44  1  0.54056000  0.31917000  0.54472000  1.0
  C  C45  1  0.45944000  0.68083000  0.45528000  1.0
  N  N46  1  0.73158000  0.08537000  0.92488000  1.0
  N  N47  1  0.26842000  0.91463000  0.07512000  1.0
  N  N48  1  0.54206000  0.13533000  0.69347000  1.0
  N  N49  1  0.45794000  0.86467000  0.30653000  1.0
  O  O50  1  0.39437000  0.46846000  0.81080000  1.0
  O  O51  1  0.60563000  0.53155000  0.18920000  1.0
  O  O52  1  0.14713000  0.34235000  0.54588000  1.0
  O  O53  1  0.85287000  0.65765000  0.45412000  1.0
  O  O54  1  0.00798000  0.29192000  0.77275000  1.0
  O  O55  1  0.99202000  0.70808000  0.22725000  1.0
  O  O56  1  0.08877000  0.58406000  0.69561000  1.0
  O  O57  1  0.91123000  0.41594000  0.30439000  1.0
  O  O58  1  0.01498000  0.31882000  0.05488000  1.0
  O  O59  1  0.98502000  0.68118000  0.94512000  1.0
  O  O60  1  0.72194000  0.43575000  0.92122000  1.0
  O  O61  1  0.27805000  0.56425000  0.07878000  1.0
  O  O62  1  0.69099000  0.40074000  0.63299000  1.0
  O  O63  1  0.30901000  0.59926000  0.36701000  1.0
  O  O64  1  0.46538000  0.35068000  0.43405000  1.0
  O  O65  1  0.53462000  0.64932000  0.56595000  1.0
  O  O66  1  0.08490000  0.20976000  0.23675000  1.0
  O  O67  1  0.91509000  0.79024000  0.76325000  1.0
