# generated using pymatgen
data_SnH10C8NClO3
_symmetry_space_group_name_H-M   'P 1'
_cell_length_a   9.67482000
_cell_length_b   10.66620000
_cell_length_c   11.10480000
_cell_angle_alpha   90.00000000
_cell_angle_beta   90.00020000
_cell_angle_gamma   104.04700000
_symmetry_Int_Tables_number   1
_chemical_formula_structural   SnH10C8NClO3
_chemical_formula_sum   'Sn4 H40 C32 N4 Cl4 O12'
_cell_volume   1111.67668394
_cell_formula_units_Z   4
loop_
 _symmetry_equiv_pos_site_id
 _symmetry_equiv_pos_as_xyz
  1  'x, y, z'
loop_
 _atom_site_type_symbol
 _atom_site_label
 _atom_site_symmetry_multiplicity
 _atom_site_fract_x
 _atom_site_fract_y
 _atom_site_fract_z
 _atom_site_occupancy
  Sn  Sn0  1  0.23484000  0.30892000  0.90644000  1.0
  Sn  Sn1  1  0.26516000  0.19108000  0.40643000  1.0
  Sn  Sn2  1  0.76516000  0.69108000  0.09357000  1.0
  Sn  Sn3  1  0.73484000  0.80892000  0.59357000  1.0
  H  H4  1  0.35651000  0.95559000  0.19489000  1.0
  H  H5  1  0.14349000  0.54441000  0.69489000  1.0
  H  H6  1  0.64349000  0.04441000  0.80511000  1.0
  H  H7  1  0.85651000  0.45559000  0.30511000  1.0
  H  H8  1  0.33898000  0.74918000  0.93793000  1.0
  H  H9  1  0.16102000  0.75082000  0.43793000  1.0
  H  H10  1  0.66102000  0.25082000  0.06207000  1.0
  H  H11  1  0.83898000  0.24918000  0.56207000  1.0
  H  H12  1  0.28760000  0.83166000  0.73494000  1.0
  H  H13  1  0.21240000  0.66834000  0.23494000  1.0
  H  H14  1  0.71240000  0.16834000  0.26506000  1.0
  H  H15  1  0.78760000  0.33166000  0.76506000  1.0
  H  H16  1  0.25157000  0.05600000  0.71794000  1.0
  H  H17  1  0.24843000  0.44400000  0.21794000  1.0
  H  H18  1  0.74843000  0.94399000  0.28206000  1.0
  H  H19  1  0.75157000  0.55600000  0.78206000  1.0
  H  H20  1  0.45421000  0.30873000  0.75793000  1.0
  H  H21  1  0.04578000  0.19127000  0.25792000  1.0
  H  H22  1  0.54578000  0.69127000  0.24208000  1.0
  H  H23  1  0.95422000  0.80873000  0.74208000  1.0
  H  H24  1  0.52149000  0.36717000  0.90332000  1.0
  H  H25  1  0.97852000  0.13283000  0.40331000  1.0
  H  H26  1  0.47851000  0.63283000  0.09668000  1.0
  H  H27  1  0.02148000  0.86717000  0.59668000  1.0
  H  H28  1  0.45762000  0.47230000  0.80309000  1.0
  H  H29  1  0.04238000  0.02770000  0.30309000  1.0
  H  H30  1  0.54237000  0.52770000  0.19691000  1.0
  H  H31  1  0.95762000  0.97230000  0.69691000  1.0
  H  H32  1  0.99045000  0.15010000  0.83060000  1.0
  H  H33  1  0.50955000  0.34990000  0.33060000  1.0
  H  H34  1  0.00955000  0.84990000  0.16940000  1.0
  H  H35  1  0.49045000  0.65010000  0.66940000  1.0
  H  H36  1  0.95221000  0.28043000  0.91773000  1.0
  H  H37  1  0.54779000  0.21957000  0.41773000  1.0
  H  H38  1  0.04779000  0.71957000  0.08227000  1.0
  H  H39  1  0.45221000  0.78043000  0.58227000  1.0
  H  H40  1  0.99848000  0.14635000  0.99229000  1.0
  H  H41  1  0.50152000  0.35365000  0.49229000  1.0
  H  H42  1  0.00152000  0.85364000  0.00771000  1.0
  H  H43  1  0.49848000  0.64635000  0.50771000  1.0
  C  C44  1  0.31063000  0.14216000  0.11200000  1.0
  C  C45  1  0.18937000  0.35784000  0.61200000  1.0
  C  C46  1  0.68937000  0.85784000  0.88800000  1.0
  C  C47  1  0.81063000  0.64216000  0.38800000  1.0
  C  C48  1  0.30716000  0.05102000  0.01078000  1.0
  C  C49  1  0.19284000  0.44898000  0.51078000  1.0
  C  C50  1  0.69284000  0.94898000  0.98922000  1.0
  C  C51  1  0.80716000  0.55102000  0.48922000  1.0
  C  C52  1  0.33048000  0.92653000  0.02814000  1.0
  C  C53  1  0.16951000  0.57347000  0.52814000  1.0
  C  C54  1  0.66952000  0.07347000  0.97186000  1.0
  C  C55  1  0.83049000  0.42653000  0.47186000  1.0
  C  C56  1  0.32403000  0.84653000  0.92651000  1.0
  C  C57  1  0.17597000  0.65347000  0.42651000  1.0
  C  C58  1  0.67597000  0.15347000  0.07349000  1.0
  C  C59  1  0.82403000  0.34653000  0.57349000  1.0
  C  C60  1  0.29512000  0.89208000  0.81494000  1.0
  C  C61  1  0.20487000  0.60793000  0.31494000  1.0
  C  C62  1  0.70488000  0.10793000  0.18506000  1.0
  C  C63  1  0.79512000  0.39207000  0.68506000  1.0
  C  C64  1  0.27335000  0.01704000  0.80471000  1.0
  C  C65  1  0.22665000  0.48296000  0.30471000  1.0
  C  C66  1  0.72665000  0.98296000  0.19529000  1.0
  C  C67  1  0.77335000  0.51703000  0.69529000  1.0
  C  C68  1  0.44374000  0.37230000  0.83299000  1.0
  C  C69  1  0.05626000  0.12770000  0.33298000  1.0
  C  C70  1  0.55626000  0.62770000  0.16702000  1.0
  C  C71  1  0.94374000  0.87230000  0.66702000  1.0
  C  C72  1  0.01569000  0.20852000  0.91244000  1.0
  C  C73  1  0.48431000  0.29148000  0.41244000  1.0
  C  C74  1  0.98431000  0.79148000  0.08756000  1.0
  C  C75  1  0.51569000  0.70852000  0.58756000  1.0
  N  N76  1  0.27923000  0.09267000  0.90087000  1.0
  N  N77  1  0.22077000  0.40733000  0.40087000  1.0
  N  N78  1  0.72077000  0.90733000  0.09913000  1.0
  N  N79  1  0.77923000  0.59267000  0.59913000  1.0
  Cl  Cl80  1  0.21281000  0.51747000  0.99094000  1.0
  Cl  Cl81  1  0.28719000  0.98254000  0.49093000  1.0
  Cl  Cl82  1  0.78719000  0.48253000  0.00906000  1.0
  Cl  Cl83  1  0.71281000  0.01747000  0.50906000  1.0
  O  O84  1  0.28904000  0.25442000  0.09238000  1.0
  O  O85  1  0.21096000  0.24558000  0.59238000  1.0
  O  O86  1  0.71096000  0.74558000  0.90762000  1.0
  O  O87  1  0.78904000  0.75442000  0.40762000  1.0
  O  O88  1  0.33470000  0.10317000  0.21690000  1.0
  O  O89  1  0.16530000  0.39683000  0.71690000  1.0
  O  O90  1  0.66530000  0.89683000  0.78310000  1.0
  O  O91  1  0.83471000  0.60317000  0.28310000  1.0
  O  O92  1  0.35805000  0.88312000  0.13686000  1.0
  O  O93  1  0.14195000  0.61688000  0.63686000  1.0
  O  O94  1  0.64195000  0.11688000  0.86314000  1.0
  O  O95  1  0.85806000  0.38312000  0.36314000  1.0
