# generated using pymatgen
data_CuH12C14N4O5
_symmetry_space_group_name_H-M   'P 1'
_cell_length_a   7.83005000
_cell_length_b   8.09329000
_cell_length_c   12.07220000
_cell_angle_alpha   102.74700000
_cell_angle_beta   106.12600000
_cell_angle_gamma   94.00200000
_symmetry_Int_Tables_number   1
_chemical_formula_structural   CuH12C14N4O5
_chemical_formula_sum   'Cu2 H24 C28 N8 O10'
_cell_volume   709.76280002
_cell_formula_units_Z   2
loop_
 _symmetry_equiv_pos_site_id
 _symmetry_equiv_pos_as_xyz
  1  'x, y, z'
loop_
 _atom_site_type_symbol
 _atom_site_label
 _atom_site_symmetry_multiplicity
 _atom_site_fract_x
 _atom_site_fract_y
 _atom_site_fract_z
 _atom_site_occupancy
  Cu  Cu0  1  0.36640000  0.33294000  0.47112000  1.0
  Cu  Cu1  1  0.63360000  0.66706000  0.52888000  1.0
  H  H2  1  0.41096000  0.79497000  0.31957000  1.0
  H  H3  1  0.58903000  0.20503000  0.68043000  1.0
  H  H4  1  0.38227000  0.50537000  0.18951000  1.0
  H  H5  1  0.61773000  0.49463000  0.81049000  1.0
  H  H6  1  0.11201000  0.68802000  0.88470000  1.0
  H  H7  1  0.88799000  0.31198000  0.11530000  1.0
  H  H8  1  0.13006000  0.96981000  0.01738000  1.0
  H  H9  1  0.86994000  0.03019000  0.98262000  1.0
  H  H10  1  0.43294000  0.29845000  0.06531000  1.0
  H  H11  1  0.56706000  0.70155000  0.93469000  1.0
  H  H12  1  0.40149000  0.02284000  0.91447000  1.0
  H  H13  1  0.59851000  0.97716000  0.08553000  1.0
  H  H14  1  0.18172000  0.97422000  0.71030000  1.0
  H  H15  1  0.81829000  0.02578000  0.28970000  1.0
  H  H16  1  0.02885000  0.45348000  0.79410000  1.0
  H  H17  1  0.97115000  0.54652000  0.20590000  1.0
  H  H18  1  0.87558000  0.27525000  0.63567000  1.0
  H  H19  1  0.12442000  0.72475000  0.36433000  1.0
  H  H20  1  0.90771000  0.05632000  0.60093000  1.0
  H  H21  1  0.09229000  0.94368000  0.39907000  1.0
  H  H22  1  0.15617000  0.34572000  0.27633000  1.0
  H  H23  1  0.84383000  0.65428000  0.72367000  1.0
  H  H24  1  0.03828000  0.36234000  0.36379000  1.0
  H  H25  1  0.96172000  0.63766000  0.63621000  1.0
  C  C26  1  0.27796000  0.07884000  0.25031000  1.0
  C  C27  1  0.72205000  0.92116000  0.74969000  1.0
  C  C28  1  0.27129000  0.90135000  0.17659000  1.0
  C  C29  1  0.72871000  0.09865000  0.82341000  1.0
  C  C30  1  0.34344000  0.76944000  0.22432000  1.0
  C  C31  1  0.65656000  0.23056000  0.77568000  1.0
  C  C32  1  0.32949000  0.60705000  0.15030000  1.0
  C  C33  1  0.67051000  0.39295000  0.84970000  1.0
  C  C34  1  0.24635000  0.57329000  0.02659000  1.0
  C  C35  1  0.75365000  0.42671000  0.97340000  1.0
  C  C36  1  0.17494000  0.70697000  0.97981000  1.0
  C  C37  1  0.82506000  0.29303000  0.02019000  1.0
  C  C38  1  0.18627000  0.86728000  0.05383000  1.0
  C  C39  1  0.81373000  0.13272000  0.94617000  1.0
  C  C40  1  0.23388000  0.40369000  0.94541000  1.0
  C  C41  1  0.76612000  0.59631000  0.05459000  1.0
  C  C42  1  0.33775000  0.27664000  0.97663000  1.0
  C  C43  1  0.66225000  0.72337000  0.02337000  1.0
  C  C44  1  0.32104000  0.12215000  0.89321000  1.0
  C  C45  1  0.67896000  0.87785000  0.10679000  1.0
  C  C46  1  0.20190000  0.09195000  0.77981000  1.0
  C  C47  1  0.79810000  0.90805000  0.22019000  1.0
  C  C48  1  0.11556000  0.36592000  0.82996000  1.0
  C  C49  1  0.88444000  0.63408000  0.17003000  1.0
  C  C50  1  0.97582000  0.18830000  0.63109000  1.0
  C  C51  1  0.02418000  0.81170000  0.36891000  1.0
  C  C52  1  0.06447000  0.22831000  0.54016000  1.0
  C  C53  1  0.93553000  0.77169000  0.45983000  1.0
  N  N54  1  0.10114000  0.21460000  0.75153000  1.0
  N  N55  1  0.89886000  0.78540000  0.24847000  1.0
  N  N56  1  0.44038000  0.56813000  0.58393000  1.0
  N  N57  1  0.55962000  0.43187000  0.41607000  1.0
  N  N58  1  0.39172000  0.62776000  0.66940000  1.0
  N  N59  1  0.60828000  0.37224000  0.33059000  1.0
  N  N60  1  0.34696000  0.68493000  0.75212000  1.0
  N  N61  1  0.65304000  0.31507000  0.24789000  1.0
  O  O62  1  0.33558000  0.10241000  0.36470000  1.0
  O  O63  1  0.66442000  0.89758000  0.63531000  1.0
  O  O64  1  0.22471000  0.19109000  0.19609000  1.0
  O  O65  1  0.77529000  0.80891000  0.80391000  1.0
  O  O66  1  0.23634000  0.25976000  0.57423000  1.0
  O  O67  1  0.76366000  0.74024000  0.42576000  1.0
  O  O68  1  0.95885000  0.22622000  0.44054000  1.0
  O  O69  1  0.04115000  0.77378000  0.55946000  1.0
  O  O70  1  0.11596000  0.43229000  0.33386000  1.0
  O  O71  1  0.88404000  0.56771000  0.66615000  1.0
