# generated using pymatgen
data_MnH46C42(NO)10
_symmetry_space_group_name_H-M   'P 1'
_cell_length_a   9.30398000
_cell_length_b   10.30230000
_cell_length_c   10.32050000
_cell_angle_alpha   93.73680000
_cell_angle_beta   107.38500000
_cell_angle_gamma   100.95600000
_symmetry_Int_Tables_number   1
_chemical_formula_structural   MnH46C42(NO)10
_chemical_formula_sum   'Mn1 H46 C42 N10 O10'
_cell_volume   918.96167502
_cell_formula_units_Z   1
loop_
 _symmetry_equiv_pos_site_id
 _symmetry_equiv_pos_as_xyz
  1  'x, y, z'
loop_
 _atom_site_type_symbol
 _atom_site_label
 _atom_site_symmetry_multiplicity
 _atom_site_fract_x
 _atom_site_fract_y
 _atom_site_fract_z
 _atom_site_occupancy
  Mn  Mn0  1  0.99999000  0.00000000  0.00000000  1.0
  H  H1  1  0.72119000  0.59611000  0.08259000  1.0
  H  H2  1  0.27881000  0.40390000  0.91740000  1.0
  H  H3  1  0.10571000  0.57198000  0.72272000  1.0
  H  H4  1  0.89428000  0.42802000  0.27726000  1.0
  H  H5  1  0.94605000  0.24750000  0.75430000  1.0
  H  H6  1  0.05394000  0.75249000  0.24569000  1.0
  H  H7  1  0.06291000  0.35922000  0.68704000  1.0
  H  H8  1  0.93707000  0.64077000  0.31294000  1.0
  H  H9  1  0.84279000  0.21823000  0.49890000  1.0
  H  H10  1  0.15719000  0.78175000  0.50109000  1.0
  H  H11  1  0.83088000  0.38819000  0.50020000  1.0
  H  H12  1  0.16908000  0.61180000  0.49979000  1.0
  H  H13  1  0.70812000  0.27711000  0.56640000  1.0
  H  H14  1  0.29187000  0.72287000  0.43361000  1.0
  H  H15  1  0.51352000  0.97444000  0.84957000  1.0
  H  H16  1  0.48647000  0.02556000  0.15043000  1.0
  H  H17  1  0.65708000  0.06821000  0.79455000  1.0
  H  H18  1  0.34292000  0.93179000  0.20545000  1.0
  H  H19  1  0.44627000  0.14329000  0.61285000  1.0
  H  H20  1  0.55373000  0.85670000  0.38715000  1.0
  H  H21  1  0.41883000  0.96568000  0.59671000  1.0
  H  H22  1  0.58116000  0.03432000  0.40330000  1.0
  H  H23  1  0.14699000  0.13170000  0.79104000  1.0
  H  H24  1  0.85301000  0.86830000  0.20896000  1.0
  H  H25  1  0.28019000  0.24555000  0.73554000  1.0
  H  H26  1  0.71981000  0.75446000  0.26447000  1.0
  H  H27  1  0.37912000  0.23614000  0.98972000  1.0
  H  H28  1  0.62088000  0.76386000  0.01028000  1.0
  H  H29  1  0.36333000  0.06286000  0.95569000  1.0
  H  H30  1  0.63667000  0.93714000  0.04431000  1.0
  H  H31  1  0.87586000  0.76863000  0.49678000  1.0
  H  H32  1  0.12416000  0.23138000  0.50326000  1.0
  H  H33  1  0.70188000  0.54843000  0.40405000  1.0
  H  H34  1  0.29817000  0.45156000  0.59599000  1.0
  H  H35  1  0.44688000  0.61640000  0.68118000  1.0
  H  H36  1  0.55312000  0.38363000  0.31881000  1.0
  H  H37  1  0.62338000  0.83219000  0.77199000  1.0
  H  H38  1  0.37660000  0.16784000  0.22799000  1.0
  H  H39  1  0.23870000  0.94714000  0.71641000  1.0
  H  H40  1  0.76129000  0.05285000  0.28359000  1.0
  H  H41  1  0.18320000  0.03585000  0.58155000  1.0
  H  H42  1  0.81681000  0.96416000  0.41845000  1.0
  H  H43  1  0.51194000  0.39489000  0.01004000  1.0
  H  H44  1  0.48806000  0.60511000  0.98996000  1.0
  H  H45  1  0.79420000  0.23612000  0.84627000  1.0
  H  H46  1  0.20579000  0.76387000  0.15372000  1.0
  C  C47  1  0.12824000  0.80885000  0.84418000  1.0
  C  C48  1  0.87177000  0.19114000  0.15581000  1.0
  C  C49  1  0.01687000  0.68677000  0.85027000  1.0
  C  C50  1  0.98314000  0.31323000  0.14973000  1.0
  C  C51  1  0.90535000  0.68436000  0.92158000  1.0
  C  C52  1  0.09467000  0.31563000  0.07842000  1.0
  C  C53  1  0.80571000  0.55480000  0.91607000  1.0
  C  C54  1  0.19429000  0.44520000  0.08392000  1.0
  C  C55  1  0.68748000  0.54105000  0.97997000  1.0
  C  C56  1  0.31253000  0.45895000  0.02002000  1.0
  C  C57  1  0.62680000  0.29965000  0.90800000  1.0
  C  C58  1  0.37320000  0.70035000  0.09200000  1.0
  C  C59  1  0.82901000  0.44297000  0.84860000  1.0
  C  C60  1  0.17098000  0.55702000  0.15139000  1.0
  C  C61  1  0.02409000  0.57060000  0.77914000  1.0
  C  C62  1  0.97591000  0.42939000  0.22084000  1.0
  C  C63  1  0.94711000  0.33365000  0.69696000  1.0
  C  C64  1  0.05288000  0.66635000  0.30303000  1.0
  C  C65  1  0.82445000  0.30237000  0.55735000  1.0
  C  C66  1  0.17554000  0.69762000  0.44264000  1.0
  C  C67  1  0.54192000  0.06464000  0.80281000  1.0
  C  C68  1  0.45808000  0.93536000  0.19720000  1.0
  C  C69  1  0.42183000  0.05459000  0.66293000  1.0
  C  C70  1  0.57817000  0.94541000  0.33707000  1.0
  C  C71  1  0.26153000  0.15156000  0.77894000  1.0
  C  C72  1  0.73846000  0.84844000  0.22107000  1.0
  C  C73  1  0.38609000  0.15803000  0.91581000  1.0
  C  C74  1  0.61390000  0.84197000  0.08419000  1.0
  C  C75  1  0.75576000  0.81922000  0.63469000  1.0
  C  C76  1  0.24425000  0.18078000  0.36532000  1.0
  C  C77  1  0.77866000  0.73479000  0.53382000  1.0
  C  C78  1  0.22135000  0.26521000  0.46620000  1.0
  C  C79  1  0.68060000  0.61070000  0.48286000  1.0
  C  C80  1  0.31942000  0.38931000  0.51717000  1.0
  C  C81  1  0.55437000  0.56458000  0.52980000  1.0
  C  C82  1  0.44565000  0.43542000  0.47021000  1.0
  C  C83  1  0.53799000  0.64765000  0.63647000  1.0
  C  C84  1  0.46201000  0.35237000  0.36353000  1.0
  C  C85  1  0.63689000  0.77146000  0.68805000  1.0
  C  C86  1  0.36312000  0.22857000  0.31194000  1.0
  C  C87  1  0.85034000  0.95919000  0.67604000  1.0
  C  C88  1  0.14968000  0.04083000  0.32396000  1.0
  N  N89  1  0.26633000  0.04214000  0.67933000  1.0
  N  N90  1  0.73367000  0.95787000  0.32067000  1.0
  N  N91  1  0.53707000  0.17662000  0.89471000  1.0
  N  N92  1  0.46293000  0.82338000  0.10529000  1.0
  N  N93  1  0.60643000  0.40515000  0.97417000  1.0
  N  N94  1  0.39357000  0.59485000  0.02582000  1.0
  N  N95  1  0.74026000  0.31401000  0.84525000  1.0
  N  N96  1  0.25974000  0.68599000  0.15475000  1.0
  N  N97  1  0.93281000  0.45108000  0.77810000  1.0
  N  N98  1  0.06718000  0.54891000  0.22189000  1.0
  O  O99  1  0.20213000  0.80343000  0.75859000  1.0
  O  O100  1  0.79787000  0.19658000  0.24141000  1.0
  O  O101  1  0.14900000  0.91538000  0.92535000  1.0
  O  O102  1  0.85100000  0.08459000  0.07467000  1.0
  O  O103  1  0.88793000  0.78655000  0.98920000  1.0
  O  O104  1  0.11208000  0.21345000  0.01080000  1.0
  O  O105  1  0.86139000  0.02066000  0.79242000  1.0
  O  O106  1  0.13862000  0.97936000  0.20759000  1.0
  O  O107  1  0.91086000  0.01146000  0.59153000  1.0
  O  O108  1  0.08913000  0.98856000  0.40848000  1.0
