# generated using pymatgen
data_Zn2H13C43Br10(NO5)2
_symmetry_space_group_name_H-M   'P 1'
_cell_length_a   16.57620000
_cell_length_b   17.75560000
_cell_length_c   28.68320000
_cell_angle_alpha   90.72530000
_cell_angle_beta   90.13900000
_cell_angle_gamma   90.58550000
_symmetry_Int_Tables_number   1
_chemical_formula_structural   Zn2H13C43Br10(NO5)2
_chemical_formula_sum   'Zn4 H26 C86 Br20 N4 O20'
_cell_volume   8440.90551976
_cell_formula_units_Z   2
loop_
 _symmetry_equiv_pos_site_id
 _symmetry_equiv_pos_as_xyz
  1  'x, y, z'
loop_
 _atom_site_type_symbol
 _atom_site_label
 _atom_site_symmetry_multiplicity
 _atom_site_fract_x
 _atom_site_fract_y
 _atom_site_fract_z
 _atom_site_occupancy
  Zn  Zn0  1  0.41873000  0.49999000  0.50106000  1.0
  Zn  Zn1  1  0.58888000  0.50349000  0.50173000  1.0
  Zn  Zn2  1  0.58770000  0.49778000  0.88204000  1.0
  Zn  Zn3  1  0.41688000  0.49440000  0.88127000  1.0
  H  H4  1  0.71663000  0.43780000  0.55858000  1.0
  H  H5  1  0.71762000  0.57982000  0.44481000  1.0
  H  H6  1  0.28851000  0.43101000  0.55950000  1.0
  H  H7  1  0.29311000  0.57702000  0.44761000  1.0
  H  H8  1  0.37263000  0.26377000  0.47181000  1.0
  H  H9  1  0.62811000  0.26769000  0.49749000  1.0
  H  H10  1  0.36595000  0.74306000  0.53720000  1.0
  H  H11  1  0.62120000  0.73725000  0.50945000  1.0
  H  H12  1  0.38333000  0.55702000  0.77565000  1.0
  H  H13  1  0.39590000  0.55679000  0.60324000  1.0
  H  H14  1  0.60670000  0.39347000  0.64802000  1.0
  H  H15  1  0.60336000  0.39443000  0.73506000  1.0
  H  H16  1  0.62123000  0.49102000  0.02895000  1.0
  H  H17  1  0.36782000  0.53930000  0.02791000  1.0
  H  H18  1  0.62677000  0.50768000  0.35508000  1.0
  H  H19  1  0.37106000  0.54549000  0.35789000  1.0
  H  H20  1  0.28807000  0.44370000  0.81323000  1.0
  H  H21  1  0.28979000  0.55945000  0.93984000  1.0
  H  H22  1  0.71547000  0.41300000  0.83397000  1.0
  H  H23  1  0.71677000  0.59253000  0.92803000  1.0
  H  H24  1  0.63019000  0.26221000  0.87751000  1.0
  H  H25  1  0.37534000  0.25703000  0.90425000  1.0
  H  H26  1  0.63050000  0.73382000  0.86731000  1.0
  H  H27  1  0.37294000  0.72975000  0.84894000  1.0
  H  H28  1  0.32665000  0.73566000  0.72776000  1.0
  H  H29  1  0.34201000  0.63600000  0.57805000  1.0
  C  C30  1  0.50135000  0.35831000  0.48325000  1.0
  C  C31  1  0.51154000  0.46947000  0.58932000  1.0
  C  C32  1  0.49330000  0.64664000  0.52355000  1.0
  C  C33  1  0.50355000  0.53174000  0.41380000  1.0
  C  C34  1  0.50379000  0.35208000  0.89429000  1.0
  C  C35  1  0.50457000  0.46879000  0.79206000  1.0
  C  C36  1  0.50285000  0.63952000  0.86372000  1.0
  C  C37  1  0.49760000  0.51930000  0.97114000  1.0
  C  C38  1  0.75302000  0.46908000  0.53372000  1.0
  C  C39  1  0.83684000  0.46889000  0.53527000  1.0
  C  C40  1  0.88250000  0.51141000  0.50296000  1.0
  C  C41  1  0.83742000  0.55245000  0.46992000  1.0
  C  C42  1  0.75350000  0.54948000  0.47018000  1.0
  C  C43  1  0.96733000  0.51224000  0.50368000  1.0
  C  C44  1  0.04092000  0.51167000  0.50466000  1.0
  C  C45  1  0.12574000  0.50997000  0.50482000  1.0
  C  C46  1  0.16970000  0.46631000  0.53704000  1.0
  C  C47  1  0.25349000  0.46420000  0.53514000  1.0
  C  C48  1  0.25600000  0.54639000  0.47246000  1.0
  C  C49  1  0.17233000  0.55107000  0.47224000  1.0
  C  C50  1  0.50048000  0.27387000  0.48447000  1.0
  C  C51  1  0.42793000  0.23361000  0.47919000  1.0
  C  C52  1  0.42726000  0.15593000  0.48418000  1.0
  C  C53  1  0.49821000  0.11512000  0.49469000  1.0
  C  C54  1  0.57074000  0.15809000  0.49854000  1.0
  C  C55  1  0.57214000  0.23569000  0.49363000  1.0
  C  C56  1  0.49685000  0.03671000  0.50165000  1.0
  C  C57  1  0.49630000  0.96893000  0.50849000  1.0
  C  C58  1  0.49592000  0.89044000  0.51509000  1.0
  C  C59  1  0.42418000  0.84982000  0.52586000  1.0
  C  C60  1  0.42261000  0.77189000  0.52982000  1.0
  C  C61  1  0.49377000  0.73112000  0.52350000  1.0
  C  C62  1  0.56625000  0.76933000  0.51424000  1.0
  C  C63  1  0.56704000  0.84705000  0.51022000  1.0
  C  C64  1  0.50202000  0.46753000  0.73979000  1.0
  C  C65  1  0.44434000  0.51109000  0.71510000  1.0
  C  C66  1  0.55907000  0.42633000  0.71552000  1.0
  C  C67  1  0.38608000  0.55675000  0.73777000  1.0
  C  C68  1  0.33286000  0.60086000  0.71332000  1.0
  C  C69  1  0.50598000  0.46705000  0.64134000  1.0
  C  C70  1  0.56109000  0.42591000  0.66652000  1.0
  C  C71  1  0.44694000  0.51106000  0.66516000  1.0
  C  C72  1  0.39282000  0.55790000  0.64104000  1.0
  C  C73  1  0.33688000  0.60242000  0.66356000  1.0
  C  C74  1  0.49505000  0.51671000  0.02338000  1.0
  C  C75  1  0.56558000  0.50057000  0.04805000  1.0
  C  C76  1  0.56364000  0.49624000  0.09626000  1.0
  C  C77  1  0.49188000  0.50855000  0.12218000  1.0
  C  C78  1  0.42145000  0.52363000  0.09563000  1.0
  C  C79  1  0.42265000  0.52779000  0.04735000  1.0
  C  C80  1  0.49117000  0.50765000  0.17128000  1.0
  C  C81  1  0.49160000  0.50973000  0.21390000  1.0
  C  C82  1  0.49380000  0.51477000  0.26292000  1.0
  C  C83  1  0.56699000  0.50733000  0.28833000  1.0
  C  C84  1  0.57009000  0.51421000  0.33648000  1.0
  C  C85  1  0.49954000  0.52842000  0.36169000  1.0
  C  C86  1  0.42598000  0.53547000  0.33819000  1.0
  C  C87  1  0.42354000  0.52865000  0.28993000  1.0
  C  C88  1  0.25244000  0.47086000  0.84039000  1.0
  C  C89  1  0.16877000  0.47487000  0.83747000  1.0
  C  C90  1  0.12422000  0.51094000  0.87327000  1.0
  C  C91  1  0.16991000  0.54292000  0.91052000  1.0
  C  C92  1  0.25334000  0.53633000  0.91131000  1.0
  C  C93  1  0.03935000  0.51314000  0.87284000  1.0
  C  C94  1  0.96580000  0.51288000  0.87417000  1.0
  C  C95  1  0.88107000  0.51009000  0.87624000  1.0
  C  C96  1  0.83541000  0.45624000  0.85017000  1.0
  C  C97  1  0.75177000  0.45385000  0.85365000  1.0
  C  C98  1  0.75245000  0.55455000  0.90644000  1.0
  C  C99  1  0.83621000  0.55997000  0.90490000  1.0
  C  C100  1  0.50289000  0.26771000  0.89126000  1.0
  C  C101  1  0.57446000  0.22995000  0.88095000  1.0
  C  C102  1  0.57331000  0.15247000  0.87447000  1.0
  C  C103  1  0.50124000  0.10903000  0.87814000  1.0
  C  C104  1  0.43028000  0.14947000  0.88967000  1.0
  C  C105  1  0.43063000  0.22712000  0.89608000  1.0
  C  C106  1  0.50030000  0.03050000  0.87066000  1.0
  C  C107  1  0.49998000  0.96233000  0.86431000  1.0
  C  C108  1  0.50079000  0.88327000  0.85989000  1.0
  C  C109  1  0.57359000  0.84218000  0.86336000  1.0
  C  C110  1  0.57425000  0.76414000  0.86340000  1.0
  C  C111  1  0.50173000  0.72356000  0.85923000  1.0
  C  C112  1  0.42895000  0.76163000  0.85320000  1.0
  C  C113  1  0.42897000  0.83987000  0.85355000  1.0
  C  C114  1  0.27240000  0.64275000  0.74285000  1.0
  C  C115  1  0.27821000  0.64802000  0.63643000  1.0
  Br  Br116  1  0.88937000  0.61160000  0.42479000  1.0
  Br  Br117  1  0.88761000  0.41097000  0.58112000  1.0
  Br  Br118  1  0.12295000  0.61247000  0.42770000  1.0
  Br  Br119  1  0.11670000  0.40972000  0.58294000  1.0
  Br  Br120  1  0.66910000  0.10919000  0.51207000  1.0
  Br  Br121  1  0.32785000  0.10314000  0.47716000  1.0
  Br  Br122  1  0.66632000  0.89556000  0.49625000  1.0
  Br  Br123  1  0.32666000  0.90281000  0.53465000  1.0
  Br  Br124  1  0.32185000  0.53857000  0.12661000  1.0
  Br  Br125  1  0.66067000  0.47267000  0.12768000  1.0
  Br  Br126  1  0.32242000  0.53751000  0.25960000  1.0
  Br  Br127  1  0.66424000  0.48690000  0.25628000  1.0
  Br  Br128  1  0.11934000  0.59346000  0.96048000  1.0
  Br  Br129  1  0.11656000  0.43119000  0.78543000  1.0
  Br  Br130  1  0.88836000  0.63485000  0.94136000  1.0
  Br  Br131  1  0.88652000  0.38606000  0.81061000  1.0
  Br  Br132  1  0.33126000  0.09620000  0.89620000  1.0
  Br  Br133  1  0.67161000  0.10445000  0.85914000  1.0
  Br  Br134  1  0.32934000  0.88979000  0.84593000  1.0
  Br  Br135  1  0.67348000  0.89419000  0.86966000  1.0
  N  N136  1  0.71295000  0.50862000  0.50165000  1.0
  N  N137  1  0.29489000  0.50327000  0.50319000  1.0
  N  N138  1  0.29299000  0.50035000  0.87697000  1.0
  N  N139  1  0.71190000  0.50225000  0.88131000  1.0
  O  O140  1  0.43423000  0.39116000  0.47706000  1.0
  O  O141  1  0.56944000  0.39070000  0.48989000  1.0
  O  O142  1  0.58106000  0.48137000  0.57219000  1.0
  O  O143  1  0.44607000  0.46142000  0.56612000  1.0
  O  O144  1  0.55986000  0.61467000  0.51487000  1.0
  O  O145  1  0.42618000  0.61197000  0.53070000  1.0
  O  O146  1  0.43758000  0.54102000  0.43606000  1.0
  O  O147  1  0.57274000  0.52324000  0.43219000  1.0
  O  O148  1  0.57202000  0.38425000  0.88836000  1.0
  O  O149  1  0.43685000  0.38490000  0.90120000  1.0
  O  O150  1  0.43818000  0.45884000  0.81354000  1.0
  O  O151  1  0.57331000  0.48077000  0.81052000  1.0
  O  O152  1  0.43620000  0.60394000  0.85888000  1.0
  O  O153  1  0.57078000  0.61035000  0.87312000  1.0
  O  O154  1  0.56640000  0.51104000  0.95233000  1.0
  O  O155  1  0.43092000  0.52832000  0.94971000  1.0
  O  O156  1  0.28425000  0.71818000  0.74869000  1.0
  O  O157  1  0.22047000  0.61032000  0.76508000  1.0
  O  O158  1  0.29019000  0.65574000  0.58976000  1.0
  O  O159  1  0.21957000  0.67715000  0.65466000  1.0
