# generated using pymatgen
data_ZnH9(CN)7
_symmetry_space_group_name_H-M   'P 1'
_cell_length_a   6.01886000
_cell_length_b   10.95830000
_cell_length_c   16.53810000
_cell_angle_alpha   89.99950000
_cell_angle_beta   89.99950000
_cell_angle_gamma   74.87000000
_symmetry_Int_Tables_number   1
_chemical_formula_structural   ZnH9(CN)7
_chemical_formula_sum   'Zn4 H36 C28 N28'
_cell_volume   1052.98355323
_cell_formula_units_Z   4
loop_
 _symmetry_equiv_pos_site_id
 _symmetry_equiv_pos_as_xyz
  1  'x, y, z'
loop_
 _atom_site_type_symbol
 _atom_site_label
 _atom_site_symmetry_multiplicity
 _atom_site_fract_x
 _atom_site_fract_y
 _atom_site_fract_z
 _atom_site_occupancy
  Zn  Zn0  1  0.76178000  0.26060000  0.78922000  1.0
  Zn  Zn1  1  0.73822000  0.73940000  0.28922000  1.0
  Zn  Zn2  1  0.23822000  0.73940000  0.21078000  1.0
  Zn  Zn3  1  0.26177000  0.26060000  0.71078000  1.0
  H  H4  1  0.46354000  0.35067000  0.93566000  1.0
  H  H5  1  0.03646000  0.64933000  0.43566000  1.0
  H  H6  1  0.53646000  0.64933000  0.06434000  1.0
  H  H7  1  0.96354000  0.35067000  0.56434000  1.0
  H  H8  1  0.20483000  0.10738000  0.04491000  1.0
  H  H9  1  0.29518000  0.89262000  0.54492000  1.0
  H  H10  1  0.79516000  0.89261000  0.95508000  1.0
  H  H11  1  0.70482000  0.10740000  0.45508000  1.0
  H  H12  1  0.13115000  0.13115000  0.89702000  1.0
  H  H13  1  0.36885000  0.86884000  0.39703000  1.0
  H  H14  1  0.86884000  0.86883000  0.10297000  1.0
  H  H15  1  0.63115000  0.13117000  0.60297000  1.0
  H  H16  1  0.30062000  0.39864000  0.06400000  1.0
  H  H17  1  0.19939000  0.60136000  0.56400000  1.0
  H  H18  1  0.69937000  0.60136000  0.93600000  1.0
  H  H19  1  0.80061000  0.39864000  0.43600000  1.0
  H  H20  1  0.40168000  0.27993000  0.13842000  1.0
  H  H21  1  0.09834000  0.72006000  0.63843000  1.0
  H  H22  1  0.59832000  0.72006000  0.86157000  1.0
  H  H23  1  0.90167000  0.27994000  0.36157000  1.0
  H  H24  1  0.49964000  0.41896000  0.13961000  1.0
  H  H25  1  0.00036000  0.58103000  0.63962000  1.0
  H  H26  1  0.50036000  0.58103000  0.86038000  1.0
  H  H27  1  0.99964000  0.41896000  0.36038000  1.0
  H  H28  1  0.07814000  0.15149000  0.18056000  1.0
  H  H29  1  0.42187000  0.84850000  0.68057000  1.0
  H  H30  1  0.92186000  0.84851000  0.81944000  1.0
  H  H31  1  0.57814000  0.15150000  0.31944000  1.0
  H  H32  1  0.78151000  0.15591000  0.19381000  1.0
  H  H33  1  0.71851000  0.84409000  0.69381000  1.0
  H  H34  1  0.21848000  0.84409000  0.80619000  1.0
  H  H35  1  0.28150000  0.15591000  0.30618000  1.0
  H  H36  1  0.86800000  0.29826000  0.19517000  1.0
  H  H37  1  0.63202000  0.70173000  0.69518000  1.0
  H  H38  1  0.13200000  0.70174000  0.80483000  1.0
  H  H39  1  0.36799000  0.29827000  0.30482000  1.0
  C  C40  1  0.62527000  0.29658000  0.96229000  1.0
  C  C41  1  0.87473000  0.70342000  0.46229000  1.0
  C  C42  1  0.37474000  0.70342000  0.03771000  1.0
  C  C43  1  0.12526000  0.29658000  0.53771000  1.0
  C  C44  1  0.64882000  0.28676000  0.04599000  1.0
  C  C45  1  0.85119000  0.71323000  0.54599000  1.0
  C  C46  1  0.35118000  0.71323000  0.95401000  1.0
  C  C47  1  0.14881000  0.28677000  0.45401000  1.0
  C  C48  1  0.86278000  0.21755000  0.07756000  1.0
  C  C49  1  0.63722000  0.78245000  0.57757000  1.0
  C  C50  1  0.13722000  0.78245000  0.92243000  1.0
  C  C51  1  0.36278000  0.21755000  0.42243000  1.0
  C  C52  1  0.03735000  0.16169000  0.02301000  1.0
  C  C53  1  0.46266000  0.83831000  0.52302000  1.0
  C  C54  1  0.96266000  0.83830000  0.97699000  1.0
  C  C55  1  0.53735000  0.16170000  0.47698000  1.0
  C  C56  1  0.99890000  0.17553000  0.94052000  1.0
  C  C57  1  0.50110000  0.82447000  0.44053000  1.0
  C  C58  1  0.00110000  0.82446000  0.05948000  1.0
  C  C59  1  0.49890000  0.17555000  0.55947000  1.0
  C  C60  1  0.45146000  0.34979000  0.09952000  1.0
  C  C61  1  0.04855000  0.65021000  0.59953000  1.0
  C  C62  1  0.54854000  0.65021000  0.90047000  1.0
  C  C63  1  0.95145000  0.34979000  0.40047000  1.0
  C  C64  1  0.90146000  0.20456000  0.16667000  1.0
  C  C65  1  0.59855000  0.79543000  0.66666667  1.0
  C  C66  1  0.09854000  0.79544000  0.83333000  1.0
  C  C67  1  0.40145000  0.20457000  0.33333333  1.0
  N  N68  1  0.01983000  0.14167000  0.72574000  1.0
  N  N69  1  0.48016000  0.85833000  0.22574000  1.0
  N  N70  1  0.98017000  0.85833000  0.27426000  1.0
  N  N71  1  0.51983000  0.14167000  0.77426000  1.0
  N  N72  1  0.00521000  0.05354000  0.68405000  1.0
  N  N73  1  0.49479000  0.94646000  0.18405000  1.0
  N  N74  1  0.99479000  0.94646000  0.31595000  1.0
  N  N75  1  0.50520000  0.05353000  0.81595000  1.0
  N  N76  1  0.99440000  0.96850000  0.64361000  1.0
  N  N77  1  0.50560000  0.03150000  0.14361000  1.0
  N  N78  1  0.00561000  0.03149000  0.35639000  1.0
  N  N79  1  0.49439000  0.96851000  0.85639000  1.0
  N  N80  1  0.01120000  0.38032000  0.77522000  1.0
  N  N81  1  0.48880000  0.61968000  0.27522000  1.0
  N  N82  1  0.98880000  0.61968000  0.22478000  1.0
  N  N83  1  0.51119000  0.38032000  0.72478000  1.0
  N  N84  1  0.06780000  0.43589000  0.83194000  1.0
  N  N85  1  0.43220000  0.56411000  0.33195000  1.0
  N  N86  1  0.93220000  0.56411000  0.16806000  1.0
  N  N87  1  0.56780000  0.43589000  0.66806000  1.0
  N  N88  1  0.11847000  0.48954000  0.88647000  1.0
  N  N89  1  0.38152000  0.51046000  0.38647000  1.0
  N  N90  1  0.88152000  0.51046000  0.11354000  1.0
  N  N91  1  0.61848000  0.48954000  0.61353000  1.0
  N  N92  1  0.79573000  0.24269000  0.91026000  1.0
  N  N93  1  0.70427000  0.75731000  0.41027000  1.0
  N  N94  1  0.20428000  0.75731000  0.08974000  1.0
  N  N95  1  0.29573000  0.24270000  0.58973000  1.0
