# generated using pymatgen
data_DyH12C10NO8
_symmetry_space_group_name_H-M   'P 1'
_cell_length_a   9.14333000
_cell_length_b   11.42330000
_cell_length_c   12.71880000
_cell_angle_alpha   90.00010000
_cell_angle_beta   90.00030000
_cell_angle_gamma   79.57200000
_symmetry_Int_Tables_number   1
_chemical_formula_structural   DyH12C10NO8
_chemical_formula_sum   'Dy4 H48 C40 N4 O32'
_cell_volume   1306.49885110
_cell_formula_units_Z   4
loop_
 _symmetry_equiv_pos_site_id
 _symmetry_equiv_pos_as_xyz
  1  'x, y, z'
loop_
 _atom_site_type_symbol
 _atom_site_label
 _atom_site_symmetry_multiplicity
 _atom_site_fract_x
 _atom_site_fract_y
 _atom_site_fract_z
 _atom_site_occupancy
  Dy  Dy0  1  0.43916000  0.58958000  0.77960000  1.0
  Dy  Dy1  1  0.06084000  0.41042000  0.27960000  1.0
  Dy  Dy2  1  0.56084000  0.41042000  0.22040000  1.0
  Dy  Dy3  1  0.93916000  0.58957000  0.72040000  1.0
  H  H4  1  0.38650000  0.87211000  0.58323000  1.0
  H  H5  1  0.11351000  0.12789000  0.08323000  1.0
  H  H6  1  0.61351000  0.12790000  0.41678000  1.0
  H  H7  1  0.88650000  0.87211000  0.91677000  1.0
  H  H8  1  0.93072000  0.98048000  0.67838000  1.0
  H  H9  1  0.56930000  0.01953000  0.17838000  1.0
  H  H10  1  0.06929000  0.01952000  0.32162000  1.0
  H  H11  1  0.43072000  0.98048000  0.82162000  1.0
  H  H12  1  0.21845000  0.66402000  0.95122000  1.0
  H  H13  1  0.28155000  0.33599000  0.45122000  1.0
  H  H14  1  0.78155000  0.33599000  0.04878000  1.0
  H  H15  1  0.71845000  0.66402000  0.54878000  1.0
  H  H16  1  0.34076000  0.74658000  0.96702000  1.0
  H  H17  1  0.15924000  0.25341000  0.46702000  1.0
  H  H18  1  0.65924000  0.25341000  0.03299000  1.0
  H  H19  1  0.84076000  0.74659000  0.53298000  1.0
  H  H20  1  0.93467000  0.18040000  0.59276000  1.0
  H  H21  1  0.56535000  0.81960000  0.09275000  1.0
  H  H22  1  0.06534000  0.81960000  0.40725000  1.0
  H  H23  1  0.43467000  0.18040000  0.90724000  1.0
  H  H24  1  0.37033000  0.07611000  0.49844000  1.0
  H  H25  1  0.12968000  0.92388000  0.99844000  1.0
  H  H26  1  0.62968000  0.92389000  0.50157000  1.0
  H  H27  1  0.87033000  0.07611000  0.00156000  1.0
  H  H28  1  0.72136000  0.51245000  0.90089000  1.0
  H  H29  1  0.77864000  0.48756000  0.40089000  1.0
  H  H30  1  0.27864000  0.48756000  0.09911000  1.0
  H  H31  1  0.22136000  0.51245000  0.59911000  1.0
  H  H32  1  0.60109000  0.55974000  0.99026000  1.0
  H  H33  1  0.89891000  0.44026000  0.49026000  1.0
  H  H34  1  0.39891000  0.44026000  0.00974000  1.0
  H  H35  1  0.10109000  0.55974000  0.50974000  1.0
  H  H36  1  0.70415000  0.29385000  0.54612000  1.0
  H  H37  1  0.79585000  0.70615000  0.04613000  1.0
  H  H38  1  0.29585000  0.70616000  0.45387000  1.0
  H  H39  1  0.20415000  0.29384000  0.95389000  1.0
  H  H40  1  0.58913000  0.17515000  0.67622000  1.0
  H  H41  1  0.91086000  0.82486000  0.17622000  1.0
  H  H42  1  0.41086000  0.82486000  0.32377000  1.0
  H  H43  1  0.08912000  0.17514000  0.82379000  1.0
  H  H44  1  0.58113000  0.29029000  0.77191000  1.0
  H  H45  1  0.91887000  0.70971000  0.27192000  1.0
  H  H46  1  0.41887000  0.70971000  0.22807000  1.0
  H  H47  1  0.08112000  0.29029000  0.72809000  1.0
  H  H48  1  0.75625000  0.20954000  0.73022000  1.0
  H  H49  1  0.74374000  0.79046000  0.23023000  1.0
  H  H50  1  0.24374000  0.79047000  0.26977000  1.0
  H  H51  1  0.25624000  0.20953000  0.76978000  1.0
  C  C52  1  0.16063000  0.78970000  0.68003000  1.0
  C  C53  1  0.33937000  0.21030000  0.18003000  1.0
  C  C54  1  0.83937000  0.21029000  0.31997000  1.0
  C  C55  1  0.66063000  0.78970000  0.81997000  1.0
  C  C56  1  0.15859000  0.91260000  0.63596000  1.0
  C  C57  1  0.34142000  0.08740000  0.13596000  1.0
  C  C58  1  0.84142000  0.08740000  0.36405000  1.0
  C  C59  1  0.65859000  0.91260000  0.86404000  1.0
  C  C60  1  0.28525000  0.93931000  0.58620000  1.0
  C  C61  1  0.21476000  0.06068000  0.08620000  1.0
  C  C62  1  0.71475000  0.06069000  0.41380000  1.0
  C  C63  1  0.78525000  0.93931000  0.91380000  1.0
  C  C64  1  0.03016000  0.99996000  0.64010000  1.0
  C  C65  1  0.46985000  0.00005000  0.14009000  1.0
  C  C66  1  0.96985000  0.00004000  0.35990000  1.0
  C  C67  1  0.53016000  0.99996000  0.85990000  1.0
  C  C68  1  0.73424000  0.43121000  0.65177000  1.0
  C  C69  1  0.76576000  0.56879000  0.15177000  1.0
  C  C70  1  0.26575000  0.56879000  0.34823000  1.0
  C  C71  1  0.23425000  0.43121000  0.84823000  1.0
  C  C72  1  0.03189000  0.10926000  0.59215000  1.0
  C  C73  1  0.46813000  0.89074000  0.09214000  1.0
  C  C74  1  0.96812000  0.89073000  0.40785000  1.0
  C  C75  1  0.53189000  0.10927000  0.90785000  1.0
  C  C76  1  0.27595000  0.05086000  0.53982000  1.0
  C  C77  1  0.22407000  0.94913000  0.03982000  1.0
  C  C78  1  0.72406000  0.94913000  0.46019000  1.0
  C  C79  1  0.77595000  0.05086000  0.96018000  1.0
  C  C80  1  0.64659000  0.33869000  0.61475000  1.0
  C  C81  1  0.85340000  0.66132000  0.11476000  1.0
  C  C82  1  0.35340000  0.66132000  0.38523000  1.0
  C  C83  1  0.14659000  0.33869000  0.88525000  1.0
  C  C84  1  0.48628000  0.38619000  0.58035000  1.0
  C  C85  1  0.01371000  0.61382000  0.08036000  1.0
  C  C86  1  0.51371000  0.61382000  0.41964000  1.0
  C  C87  1  0.98628000  0.38619000  0.91965000  1.0
  C  C88  1  0.64322000  0.24773000  0.70408000  1.0
  C  C89  1  0.85676000  0.75228000  0.20409000  1.0
  C  C90  1  0.35677000  0.75228000  0.29590000  1.0
  C  C91  1  0.14322000  0.24772000  0.79593000  1.0
  N  N92  1  0.15161000  0.13404000  0.54186000  1.0
  N  N93  1  0.34841000  0.86596000  0.04186000  1.0
  N  N94  1  0.84840000  0.86596000  0.45815000  1.0
  N  N95  1  0.65162000  0.13403000  0.95814000  1.0
  O  O96  1  0.28529000  0.71994000  0.67883000  1.0
  O  O97  1  0.21471000  0.28006000  0.17882000  1.0
  O  O98  1  0.71471000  0.28005000  0.32117000  1.0
  O  O99  1  0.78529000  0.71994000  0.82117000  1.0
  O  O100  1  0.03874000  0.76481000  0.71212000  1.0
  O  O101  1  0.46126000  0.23519000  0.21212000  1.0
  O  O102  1  0.96126000  0.23518000  0.28788000  1.0
  O  O103  1  0.53874000  0.76481000  0.78788000  1.0
  O  O104  1  0.67505000  0.52001000  0.70769000  1.0
  O  O105  1  0.82494000  0.47999000  0.20769000  1.0
  O  O106  1  0.32494000  0.47999000  0.29231000  1.0
  O  O107  1  0.17505000  0.52001000  0.79231000  1.0
  O  O108  1  0.87230000  0.41712000  0.62889000  1.0
  O  O109  1  0.62770000  0.58287000  0.12889000  1.0
  O  O110  1  0.12770000  0.58287000  0.37111000  1.0
  O  O111  1  0.37230000  0.41712000  0.87111000  1.0
  O  O112  1  0.31393000  0.68127000  0.92084000  1.0
  O  O113  1  0.18607000  0.31873000  0.42084000  1.0
  O  O114  1  0.68607000  0.31873000  0.07916000  1.0
  O  O115  1  0.81393000  0.68127000  0.57916000  1.0
  O  O116  1  0.40527000  0.46674000  0.63658000  1.0
  O  O117  1  0.09472000  0.53326000  0.13659000  1.0
  O  O118  1  0.59472000  0.53326000  0.36341000  1.0
  O  O119  1  0.90527000  0.46674000  0.86342000  1.0
  O  O120  1  0.44252000  0.33845000  0.50046000  1.0
  O  O121  1  0.05748000  0.66155000  0.00047000  1.0
  O  O122  1  0.55747000  0.66155000  0.49953000  1.0
  O  O123  1  0.94252000  0.33844000  0.99954000  1.0
  O  O124  1  0.61331000  0.54069000  0.91488000  1.0
  O  O125  1  0.88669000  0.45931000  0.41488000  1.0
  O  O126  1  0.38668000  0.45932000  0.08512000  1.0
  O  O127  1  0.11331000  0.54068000  0.58512000  1.0
