# generated using pymatgen
data_NdH11C13O7
_symmetry_space_group_name_H-M   'P 1'
_cell_length_a   7.32643000
_cell_length_b   13.18500000
_cell_length_c   13.59200000
_cell_angle_alpha   99.02640000
_cell_angle_beta   90.00000000
_cell_angle_gamma   90.00000000
_symmetry_Int_Tables_number   1
_chemical_formula_structural   NdH11C13O7
_chemical_formula_sum   'Nd4 H44 C52 O28'
_cell_volume   1296.71367305
_cell_formula_units_Z   4
loop_
 _symmetry_equiv_pos_site_id
 _symmetry_equiv_pos_as_xyz
  1  'x, y, z'
loop_
 _atom_site_type_symbol
 _atom_site_label
 _atom_site_symmetry_multiplicity
 _atom_site_fract_x
 _atom_site_fract_y
 _atom_site_fract_z
 _atom_site_occupancy
  Nd  Nd0  1  0.08599000  0.81427000  0.52468000  1.0
  Nd  Nd1  1  0.58599000  0.68573000  0.47532000  1.0
  Nd  Nd2  1  0.91401000  0.18573000  0.47532000  1.0
  Nd  Nd3  1  0.41401000  0.31427000  0.52468000  1.0
  H  H4  1  0.92079000  0.01086000  0.65911000  1.0
  H  H5  1  0.42079000  0.48914000  0.34089000  1.0
  H  H6  1  0.07921000  0.98914000  0.34089000  1.0
  H  H7  1  0.57921000  0.51086000  0.65911000  1.0
  H  H8  1  0.03564000  0.93146000  0.71016000  1.0
  H  H9  1  0.53564000  0.56854000  0.28984000  1.0
  H  H10  1  0.96436000  0.06854000  0.28984000  1.0
  H  H11  1  0.46436000  0.43146000  0.71016000  1.0
  H  H12  1  0.67505000  0.87652000  0.74138000  1.0
  H  H13  1  0.17505000  0.62348000  0.25862000  1.0
  H  H14  1  0.32495000  0.12348000  0.25862000  1.0
  H  H15  1  0.82495000  0.37652000  0.74138000  1.0
  H  H16  1  0.33455000  0.86150000  0.87218000  1.0
  H  H17  1  0.83455000  0.63850000  0.12782000  1.0
  H  H18  1  0.66545000  0.13850000  0.12782000  1.0
  H  H19  1  0.16545000  0.36150000  0.87218000  1.0
  H  H20  1  0.85416000  0.90428000  0.87511000  1.0
  H  H21  1  0.35416000  0.59572000  0.12489000  1.0
  H  H22  1  0.14584000  0.09572000  0.12489000  1.0
  H  H23  1  0.64584000  0.40428000  0.87511000  1.0
  H  H24  1  0.03892000  0.90192000  0.02684000  1.0
  H  H25  1  0.53892000  0.59808000  0.97315000  1.0
  H  H26  1  0.96108000  0.09808000  0.97316000  1.0
  H  H27  1  0.46108000  0.40192000  0.02684000  1.0
  H  H28  1  0.37035000  0.84722000  0.03705000  1.0
  H  H29  1  0.87035000  0.65278000  0.96295000  1.0
  H  H30  1  0.62965000  0.15278000  0.96295000  1.0
  H  H31  1  0.12965000  0.34722000  0.03705000  1.0
  H  H32  1  0.89278000  0.86848000  0.18444000  1.0
  H  H33  1  0.39278000  0.63152000  0.81556000  1.0
  H  H34  1  0.10722000  0.13152000  0.81556000  1.0
  H  H35  1  0.60722000  0.36848000  0.18444000  1.0
  H  H36  1  0.62526000  0.81284000  0.26952000  1.0
  H  H37  1  0.12526000  0.68717000  0.73048000  1.0
  H  H38  1  0.37474000  0.18717000  0.73048000  1.0
  H  H39  1  0.87474000  0.31283000  0.26952000  1.0
  H  H40  1  0.26102000  0.87986000  0.18540000  1.0
  H  H41  1  0.76101000  0.62014000  0.81460000  1.0
  H  H42  1  0.73898000  0.12014000  0.81460000  1.0
  H  H43  1  0.23899000  0.37986000  0.18540000  1.0
  H  H44  1  0.44026000  0.06058000  0.56693000  1.0
  H  H45  1  0.94026000  0.43942000  0.43307000  1.0
  H  H46  1  0.55974000  0.93942000  0.43307000  1.0
  H  H47  1  0.05974000  0.56058000  0.56693000  1.0
  C  C48  1  0.40108000  0.84804000  0.68137000  1.0
  C  C49  1  0.90107000  0.65196000  0.31863000  1.0
  C  C50  1  0.59893000  0.15196000  0.31863000  1.0
  C  C51  1  0.09893000  0.34804000  0.68137000  1.0
  C  C52  1  0.53338000  0.86858000  0.76363000  1.0
  C  C53  1  0.03338000  0.63142000  0.23637000  1.0
  C  C54  1  0.46663000  0.13142000  0.23637000  1.0
  C  C55  1  0.96662000  0.36858000  0.76363000  1.0
  C  C56  1  0.48052000  0.87040000  0.85886000  1.0
  C  C57  1  0.98052000  0.62960000  0.14114000  1.0
  C  C58  1  0.51948000  0.12960000  0.14114000  1.0
  C  C59  1  0.01948000  0.37040000  0.85886000  1.0
  C  C60  1  0.59746000  0.87676000  0.94621000  1.0
  C  C61  1  0.09746000  0.62324000  0.05379000  1.0
  C  C62  1  0.40254000  0.12324000  0.05379000  1.0
  C  C63  1  0.90255000  0.37676000  0.94621000  1.0
  C  C64  1  0.78789000  0.89248000  0.94425000  1.0
  C  C65  1  0.28789000  0.60752000  0.05575000  1.0
  C  C66  1  0.21211000  0.10752000  0.05575000  1.0
  C  C67  1  0.71211000  0.39248000  0.94425000  1.0
  C  C68  1  0.89177000  0.89040000  0.02972000  1.0
  C  C69  1  0.39177000  0.60960000  0.97028000  1.0
  C  C70  1  0.10823000  0.10960000  0.97028000  1.0
  C  C71  1  0.60823000  0.39040000  0.02972000  1.0
  C  C72  1  0.51688000  0.86136000  0.03613000  1.0
  C  C73  1  0.01688000  0.63864000  0.96387000  1.0
  C  C74  1  0.48312000  0.13864000  0.96387000  1.0
  C  C75  1  0.98311000  0.36136000  0.03613000  1.0
  C  C76  1  0.81011000  0.87246000  0.11829000  1.0
  C  C77  1  0.31011000  0.62755000  0.88171000  1.0
  C  C78  1  0.18989000  0.12755000  0.88171000  1.0
  C  C79  1  0.68989000  0.37245000  0.11829000  1.0
  C  C80  1  0.61998000  0.85855000  0.12269000  1.0
  C  C81  1  0.11997000  0.64145000  0.87731000  1.0
  C  C82  1  0.38003000  0.14145000  0.87731000  1.0
  C  C83  1  0.88003000  0.35855000  0.12269000  1.0
  C  C84  1  0.53496000  0.83918000  0.21483000  1.0
  C  C85  1  0.03495000  0.66082000  0.78517000  1.0
  C  C86  1  0.46504000  0.16082000  0.78517000  1.0
  C  C87  1  0.96504000  0.33918000  0.21483000  1.0
  C  C88  1  0.35562000  0.85058000  0.23617000  1.0
  C  C89  1  0.85562000  0.64942000  0.76383000  1.0
  C  C90  1  0.64438000  0.14942000  0.76383000  1.0
  C  C91  1  0.14438000  0.35058000  0.23617000  1.0
  C  C92  1  0.27333000  0.83085000  0.32979000  1.0
  C  C93  1  0.77333000  0.66915000  0.67021000  1.0
  C  C94  1  0.72667000  0.16915000  0.67021000  1.0
  C  C95  1  0.22667000  0.33085000  0.32979000  1.0
  C  C96  1  0.29580000  0.06548000  0.54482000  1.0
  C  C97  1  0.79580000  0.43452000  0.45518000  1.0
  C  C98  1  0.70420000  0.93452000  0.45518000  1.0
  C  C99  1  0.20420000  0.56548000  0.54482000  1.0
  O  O100  1  0.22950000  0.84532000  0.69872000  1.0
  O  O101  1  0.72950000  0.65468000  0.30128000  1.0
  O  O102  1  0.77050000  0.15468000  0.30128000  1.0
  O  O103  1  0.27050000  0.34532000  0.69872000  1.0
  O  O104  1  0.46141000  0.83097000  0.59186000  1.0
  O  O105  1  0.96141000  0.66903000  0.40814000  1.0
  O  O106  1  0.53859000  0.16903000  0.40814000  1.0
  O  O107  1  0.03859000  0.33097000  0.59186000  1.0
  O  O108  1  0.10941000  0.86185000  0.34944000  1.0
  O  O109  1  0.60941000  0.63815000  0.65057000  1.0
  O  O110  1  0.89059000  0.13815000  0.65057000  1.0
  O  O111  1  0.39059000  0.36185000  0.34943000  1.0
  O  O112  1  0.20129000  0.98554000  0.52973000  1.0
  O  O113  1  0.70129000  0.51446000  0.47027000  1.0
  O  O114  1  0.79870000  0.01446000  0.47027000  1.0
  O  O115  1  0.29870000  0.48554000  0.52973000  1.0
  O  O116  1  0.23529000  0.15486000  0.53661000  1.0
  O  O117  1  0.73529000  0.34514000  0.46339000  1.0
  O  O118  1  0.76471000  0.84514000  0.46339000  1.0
  O  O119  1  0.26471000  0.65486000  0.53661000  1.0
  O  O120  1  0.36046000  0.78526000  0.39213000  1.0
  O  O121  1  0.86046000  0.71474000  0.60787000  1.0
  O  O122  1  0.63954000  0.21474000  0.60787000  1.0
  O  O123  1  0.13954000  0.28526000  0.39213000  1.0
  O  O124  1  0.92863000  0.93727000  0.66768000  1.0
  O  O125  1  0.42862000  0.56273000  0.33232000  1.0
  O  O126  1  0.07138000  0.06273000  0.33232000  1.0
  O  O127  1  0.57138000  0.43727000  0.66768000  1.0
