# generated using pymatgen
data_CoH16C26(N3O4)2
_symmetry_space_group_name_H-M   'P 1'
_cell_length_a   11.92200000
_cell_length_b   14.03910000
_cell_length_c   17.26340000
_cell_angle_alpha   108.95600000
_cell_angle_beta   90.00000000
_cell_angle_gamma   89.99980000
_symmetry_Int_Tables_number   1
_chemical_formula_structural   CoH16C26(N3O4)2
_chemical_formula_sum   'Co4 H64 C104 N24 O32'
_cell_volume   2732.74733067
_cell_formula_units_Z   4
loop_
 _symmetry_equiv_pos_site_id
 _symmetry_equiv_pos_as_xyz
  1  'x, y, z'
loop_
 _atom_site_type_symbol
 _atom_site_label
 _atom_site_symmetry_multiplicity
 _atom_site_fract_x
 _atom_site_fract_y
 _atom_site_fract_z
 _atom_site_occupancy
  Co  Co0  1  0.40692000  0.25000000  0.25000000  1.0
  Co  Co1  1  0.59308000  0.75000000  0.75001000  1.0
  Co  Co2  1  0.08301000  0.75000000  0.75000000  1.0
  Co  Co3  1  0.91699000  0.25000000  0.25000000  1.0
  H  H4  1  0.46075000  0.31715000  0.00282000  1.0
  H  H5  1  0.46075000  0.18285000  0.49718000  1.0
  H  H6  1  0.53925000  0.68285000  0.99718000  1.0
  H  H7  1  0.53925000  0.81715000  0.50282000  1.0
  H  H8  1  0.82264000  0.48922000  0.09856000  1.0
  H  H9  1  0.82264000  0.01078000  0.40143000  1.0
  H  H10  1  0.17736000  0.51078000  0.90144000  1.0
  H  H11  1  0.17736000  0.98922000  0.59857000  1.0
  H  H12  1  0.70528000  0.43597000  0.19368000  1.0
  H  H13  1  0.70528000  0.06404000  0.30632000  1.0
  H  H14  1  0.29472000  0.56403000  0.80632000  1.0
  H  H15  1  0.29472000  0.93597000  0.69368000  1.0
  H  H16  1  0.73849000  0.62316000  0.00044000  1.0
  H  H17  1  0.73849000  0.87684000  0.49956000  1.0
  H  H18  1  0.26151000  0.37684000  0.99956000  1.0
  H  H19  1  0.26151000  0.12316000  0.50044000  1.0
  H  H20  1  0.86722000  0.69128000  0.91760000  1.0
  H  H21  1  0.86722000  0.80872000  0.58240000  1.0
  H  H22  1  0.13278000  0.30872000  0.08240000  1.0
  H  H23  1  0.13278000  0.19127000  0.41760000  1.0
  H  H24  1  0.00192000  0.39555000  0.80208000  1.0
  H  H25  1  0.00192000  0.10445000  0.69791000  1.0
  H  H26  1  0.99808000  0.60445000  0.19792000  1.0
  H  H27  1  0.99808000  0.89555000  0.30209000  1.0
  H  H28  1  0.32934000  0.02534000  0.26618000  1.0
  H  H29  1  0.32934000  0.47466000  0.23382000  1.0
  H  H30  1  0.67066000  0.97465000  0.73382000  1.0
  H  H31  1  0.67065000  0.52535000  0.76618000  1.0
  H  H32  1  0.15635000  0.92215000  0.16652000  1.0
  H  H33  1  0.15635000  0.57785000  0.33349000  1.0
  H  H34  1  0.84365000  0.07785000  0.83349000  1.0
  H  H35  1  0.84365000  0.42215000  0.66652000  1.0
  H  H36  1  0.22155000  0.19498000  0.11851000  1.0
  H  H37  1  0.22155000  0.30502000  0.38149000  1.0
  H  H38  1  0.77845000  0.80502000  0.88149000  1.0
  H  H39  1  0.77844000  0.69498000  0.61851000  1.0
  H  H40  1  0.96885000  0.95697000  0.12764000  1.0
  H  H41  1  0.96885000  0.54303000  0.37236000  1.0
  H  H42  1  0.03115000  0.04303000  0.87236000  1.0
  H  H43  1  0.03115000  0.45698000  0.62765000  1.0
  H  H44  1  0.17290000  0.09012000  0.98310000  1.0
  H  H45  1  0.17290000  0.40988000  0.51691000  1.0
  H  H46  1  0.82710000  0.90988000  0.01690000  1.0
  H  H47  1  0.82710000  0.59013000  0.48310000  1.0
  H  H48  1  0.31908000  0.87122000  0.80604000  1.0
  H  H49  1  0.31908000  0.62878000  0.69396000  1.0
  H  H50  1  0.68092000  0.12878000  0.19396000  1.0
  H  H51  1  0.68092000  0.37122000  0.30604000  1.0
  H  H52  1  0.25365000  0.84415000  0.04001000  1.0
  H  H53  1  0.25365000  0.65585000  0.45999000  1.0
  H  H54  1  0.74635000  0.15585000  0.95999000  1.0
  H  H55  1  0.74636000  0.34415000  0.54001000  1.0
  H  H56  1  0.08453000  0.75108000  0.93305000  1.0
  H  H57  1  0.08453000  0.74892000  0.56695000  1.0
  H  H58  1  0.91547000  0.24892000  0.06695000  1.0
  H  H59  1  0.91547000  0.25108000  0.43305000  1.0
  H  H60  1  0.42805000  0.88101000  0.06793000  1.0
  H  H61  1  0.42805000  0.61898000  0.43207000  1.0
  H  H62  1  0.57195000  0.11899000  0.93207000  1.0
  H  H63  1  0.57195000  0.38102000  0.56793000  1.0
  H  H64  1  0.41260000  0.00966000  0.87200000  1.0
  H  H65  1  0.41260000  0.49034000  0.62800000  1.0
  H  H66  1  0.58740000  0.99034000  0.12800000  1.0
  H  H67  1  0.58740000  0.50966000  0.37200000  1.0
  C  C68  1  0.50769000  0.33112000  0.15980000  1.0
  C  C69  1  0.50769000  0.16888000  0.34020000  1.0
  C  C70  1  0.49231000  0.66888000  0.84020000  1.0
  C  C71  1  0.49232000  0.83112000  0.65980000  1.0
  C  C72  1  0.57477000  0.37194000  0.10478000  1.0
  C  C73  1  0.57477000  0.12806000  0.39522000  1.0
  C  C74  1  0.42523000  0.62806000  0.89522000  1.0
  C  C75  1  0.42523000  0.87194000  0.60478000  1.0
  C  C76  1  0.53944000  0.35586000  0.02435000  1.0
  C  C77  1  0.53944000  0.14414000  0.47565000  1.0
  C  C78  1  0.46056000  0.64414000  0.97565000  1.0
  C  C79  1  0.46056000  0.85586000  0.52435000  1.0
  C  C80  1  0.60554000  0.38837000  0.97144000  1.0
  C  C81  1  0.60554000  0.11163000  0.52856000  1.0
  C  C82  1  0.39446000  0.61163000  0.02856000  1.0
  C  C83  1  0.39446000  0.88837000  0.47144000  1.0
  C  C84  1  0.71044000  0.43474000  0.99569000  1.0
  C  C85  1  0.71044000  0.06526000  0.50431000  1.0
  C  C86  1  0.28956000  0.56526000  0.00431000  1.0
  C  C87  1  0.28956000  0.93474000  0.49569000  1.0
  C  C88  1  0.74261000  0.45258000  0.07726000  1.0
  C  C89  1  0.74261000  0.04742000  0.42274000  1.0
  C  C90  1  0.25739000  0.54741000  0.92274000  1.0
  C  C91  1  0.25739000  0.95258000  0.57726000  1.0
  C  C92  1  0.67598000  0.42237000  0.13132000  1.0
  C  C93  1  0.67598000  0.07764000  0.36868000  1.0
  C  C94  1  0.32402000  0.57763000  0.86868000  1.0
  C  C95  1  0.32402000  0.92237000  0.63132000  1.0
  C  C96  1  0.78858000  0.46929000  0.94315000  1.0
  C  C97  1  0.78858000  0.03071000  0.55685000  1.0
  C  C98  1  0.21142000  0.53071000  0.05685000  1.0
  C  C99  1  0.21142000  0.96929000  0.44315000  1.0
  C  C100  1  0.79459000  0.57299000  0.95560000  1.0
  C  C101  1  0.79459000  0.92701000  0.54440000  1.0
  C  C102  1  0.20541000  0.42701000  0.04440000  1.0
  C  C103  1  0.20541000  0.07299000  0.45560000  1.0
  C  C104  1  0.86727000  0.61123000  0.91003000  1.0
  C  C105  1  0.86727000  0.88877000  0.58997000  1.0
  C  C106  1  0.13273000  0.38877000  0.08998000  1.0
  C  C107  1  0.13273000  0.11123000  0.41003000  1.0
  C  C108  1  0.94074000  0.54778000  0.85289000  1.0
  C  C109  1  0.94074000  0.95222000  0.64710000  1.0
  C  C110  1  0.05926000  0.45223000  0.14711000  1.0
  C  C111  1  0.05926000  0.04777000  0.35289000  1.0
  C  C112  1  0.94346000  0.44576000  0.84467000  1.0
  C  C113  1  0.94346000  0.05424000  0.65533000  1.0
  C  C114  1  0.05654000  0.55424000  0.15533000  1.0
  C  C115  1  0.05654000  0.94576000  0.34467000  1.0
  C  C116  1  0.86709000  0.40771000  0.88827000  1.0
  C  C117  1  0.86709000  0.09229000  0.61173000  1.0
  C  C118  1  0.13291000  0.59229000  0.11173000  1.0
  C  C119  1  0.13291000  0.90771000  0.38827000  1.0
  C  C120  1  0.01414000  0.58675000  0.79903000  1.0
  C  C121  1  0.01414000  0.91324000  0.70097000  1.0
  C  C122  1  0.98586000  0.41325000  0.20097000  1.0
  C  C123  1  0.98586000  0.08675000  0.29903000  1.0
  C  C124  1  0.28102000  0.04553000  0.22068000  1.0
  C  C125  1  0.28102000  0.45447000  0.27932000  1.0
  C  C126  1  0.71898000  0.95447000  0.77931000  1.0
  C  C127  1  0.71898000  0.54554000  0.72068000  1.0
  C  C128  1  0.19509000  0.99393000  0.17238000  1.0
  C  C129  1  0.19508000  0.50607000  0.32763000  1.0
  C  C130  1  0.80492000  0.00607000  0.82763000  1.0
  C  C131  1  0.80491000  0.49393000  0.67237000  1.0
  C  C132  1  0.22869000  0.13501000  0.14479000  1.0
  C  C133  1  0.22869000  0.36499000  0.35521000  1.0
  C  C134  1  0.77132000  0.86499000  0.85521000  1.0
  C  C135  1  0.77131000  0.63501000  0.64479000  1.0
  C  C136  1  0.07956000  0.02628000  0.06189000  1.0
  C  C137  1  0.07956000  0.47371000  0.43811000  1.0
  C  C138  1  0.92044000  0.97371000  0.93811000  1.0
  C  C139  1  0.92044000  0.52629000  0.56189000  1.0
  C  C140  1  0.98367000  0.97374000  0.07113000  1.0
  C  C141  1  0.98367000  0.52626000  0.42887000  1.0
  C  C142  1  0.01633000  0.02626000  0.92887000  1.0
  C  C143  1  0.01633000  0.47374000  0.57113000  1.0
  C  C144  1  0.09589000  0.05248000  0.99109000  1.0
  C  C145  1  0.09589000  0.44752000  0.50892000  1.0
  C  C146  1  0.90411000  0.94752000  0.00892000  1.0
  C  C147  1  0.90411000  0.55249000  0.49108000  1.0
  C  C148  1  0.27454000  0.85438000  0.85495000  1.0
  C  C149  1  0.27454000  0.64562000  0.64505000  1.0
  C  C150  1  0.72546000  0.14562000  0.14505000  1.0
  C  C151  1  0.72546000  0.35438000  0.35495000  1.0
  C  C152  1  0.24150000  0.83614000  0.97619000  1.0
  C  C153  1  0.24150000  0.66386000  0.52381000  1.0
  C  C154  1  0.75850000  0.16386000  0.02381000  1.0
  C  C155  1  0.75850000  0.33614000  0.47619000  1.0
  C  C156  1  0.15826000  0.79029000  0.92277000  1.0
  C  C157  1  0.15826000  0.70971000  0.57723000  1.0
  C  C158  1  0.84173000  0.20971000  0.07723000  1.0
  C  C159  1  0.84174000  0.29029000  0.42277000  1.0
  C  C160  1  0.40893000  0.93854000  0.96628000  1.0
  C  C161  1  0.40893000  0.56146000  0.53372000  1.0
  C  C162  1  0.59107000  0.06146000  0.03372000  1.0
  C  C163  1  0.59107000  0.43854000  0.46628000  1.0
  C  C164  1  0.45858000  0.93355000  0.03825000  1.0
  C  C165  1  0.45858000  0.56645000  0.46175000  1.0
  C  C166  1  0.54142000  0.06645000  0.96175000  1.0
  C  C167  1  0.54142000  0.43355000  0.53825000  1.0
  C  C168  1  0.45053000  0.00510000  0.92803000  1.0
  C  C169  1  0.45053000  0.49490000  0.57197000  1.0
  C  C170  1  0.54947000  0.99490000  0.07197000  1.0
  C  C171  1  0.54947000  0.50510000  0.42803000  1.0
  N  N172  1  0.30052000  0.13342000  0.20309000  1.0
  N  N173  1  0.30052000  0.36658000  0.29691000  1.0
  N  N174  1  0.69949000  0.86658000  0.79691000  1.0
  N  N175  1  0.69948000  0.63342000  0.70309000  1.0
  N  N176  1  0.16277000  0.05142000  0.12396000  1.0
  N  N177  1  0.16277000  0.44858000  0.37604000  1.0
  N  N178  1  0.83723000  0.94858000  0.87604000  1.0
  N  N179  1  0.83723000  0.55142000  0.62396000  1.0
  N  N180  1  0.17972000  0.80200000  0.84747000  1.0
  N  N181  1  0.17972000  0.69800000  0.65253000  1.0
  N  N182  1  0.82028000  0.19800000  0.15253000  1.0
  N  N183  1  0.82028000  0.30200000  0.34747000  1.0
  N  N184  1  0.31448000  0.87733000  0.93301000  1.0
  N  N185  1  0.31447000  0.62267000  0.56699000  1.0
  N  N186  1  0.68552000  0.12267000  0.06699000  1.0
  N  N187  1  0.68553000  0.37733000  0.43301000  1.0
  N  N188  1  0.56130000  0.37246000  0.88841000  1.0
  N  N189  1  0.56130000  0.12754000  0.61159000  1.0
  N  N190  1  0.43871000  0.62754000  0.11159000  1.0
  N  N191  1  0.43871000  0.87246000  0.38842000  1.0
  N  N192  1  0.87091000  0.29924000  0.87363000  1.0
  N  N193  1  0.87091000  0.20076000  0.62637000  1.0
  N  N194  1  0.12909000  0.70076000  0.12637000  1.0
  N  N195  1  0.12909000  0.79924000  0.37363000  1.0
  O  O196  1  0.53954000  0.34822000  0.23386000  1.0
  O  O197  1  0.53954000  0.15179000  0.26614000  1.0
  O  O198  1  0.46046000  0.65177000  0.76614000  1.0
  O  O199  1  0.46046000  0.84821000  0.73386000  1.0
  O  O200  1  0.42159000  0.27670000  0.13213000  1.0
  O  O201  1  0.42159000  0.22330000  0.36787000  1.0
  O  O202  1  0.57840000  0.72330000  0.86787000  1.0
  O  O203  1  0.57842000  0.77670000  0.63213000  1.0
  O  O204  1  0.98198000  0.67321000  0.79406000  1.0
  O  O205  1  0.98197000  0.82679000  0.70594000  1.0
  O  O206  1  0.01802000  0.32679000  0.20594000  1.0
  O  O207  1  0.01802000  0.17321000  0.29406000  1.0
  O  O208  1  0.09665000  0.53709000  0.76320000  1.0
  O  O209  1  0.09665000  0.96291000  0.73680000  1.0
  O  O210  1  0.90335000  0.46291000  0.23680000  1.0
  O  O211  1  0.90335000  0.03708000  0.26320000  1.0
  O  O212  1  0.47330000  0.32360000  0.86844000  1.0
  O  O213  1  0.47330000  0.17639000  0.63156000  1.0
  O  O214  1  0.52670000  0.67640000  0.13156000  1.0
  O  O215  1  0.52670000  0.82360000  0.36844000  1.0
  O  O216  1  0.61368000  0.41042000  0.84344000  1.0
  O  O217  1  0.61368000  0.08957000  0.65656000  1.0
  O  O218  1  0.38632000  0.58957000  0.15656000  1.0
  O  O219  1  0.38632000  0.91042000  0.34344000  1.0
  O  O220  1  0.78193000  0.25612000  0.88040000  1.0
  O  O221  1  0.78193000  0.24388000  0.61960000  1.0
  O  O222  1  0.21807000  0.74388000  0.11960000  1.0
  O  O223  1  0.21807000  0.75612000  0.38040000  1.0
  O  O224  1  0.96231000  0.25514000  0.85450000  1.0
  O  O225  1  0.96231000  0.24486000  0.64549000  1.0
  O  O226  1  0.03769000  0.74486000  0.14550000  1.0
  O  O227  1  0.03769000  0.75514000  0.35451000  1.0
