# generated using pymatgen
data_CuH12C15SN4O
_symmetry_space_group_name_H-M   'P 1'
_cell_length_a   7.96024000
_cell_length_b   7.96029000
_cell_length_c   11.13230000
_cell_angle_alpha   87.94190000
_cell_angle_beta   87.94140000
_cell_angle_gamma   88.76740000
_symmetry_Int_Tables_number   1
_chemical_formula_structural   CuH12C15SN4O
_chemical_formula_sum   'Cu2 H24 C30 S2 N8 O2'
_cell_volume   704.35287430
_cell_formula_units_Z   2
loop_
 _symmetry_equiv_pos_site_id
 _symmetry_equiv_pos_as_xyz
  1  'x, y, z'
loop_
 _atom_site_type_symbol
 _atom_site_label
 _atom_site_symmetry_multiplicity
 _atom_site_fract_x
 _atom_site_fract_y
 _atom_site_fract_z
 _atom_site_occupancy
  Cu  Cu0  1  0.09361000  0.96141000  0.06231000  1.0
  Cu  Cu1  1  0.96140000  0.09362000  0.56230000  1.0
  H  H2  1  0.24739000  0.45371000  0.90028000  1.0
  H  H3  1  0.45371000  0.24739000  0.40028000  1.0
  H  H4  1  0.37854000  0.73334000  0.86477000  1.0
  H  H5  1  0.73334000  0.37853000  0.36476000  1.0
  H  H6  1  0.57909000  0.83743000  0.01097000  1.0
  H  H7  1  0.83743000  0.57909000  0.51096000  1.0
  H  H8  1  0.64735000  0.66147000  0.19202000  1.0
  H  H9  1  0.66148000  0.64735000  0.69202000  1.0
  H  H10  1  0.51860000  0.37940000  0.22519000  1.0
  H  H11  1  0.37941000  0.51861000  0.72519000  1.0
  H  H12  1  0.50985000  0.95265000  0.33026000  1.0
  H  H13  1  0.95265000  0.50984000  0.83026000  1.0
  H  H14  1  0.43123000  0.76618000  0.40546000  1.0
  H  H15  1  0.76618000  0.43122000  0.90547000  1.0
  H  H16  1  0.34156000  0.96878000  0.43854000  1.0
  H  H17  1  0.96878000  0.34155000  0.93855000  1.0
  H  H18  1  0.23747000  0.58588000  0.41315000  1.0
  H  H19  1  0.58588000  0.23746000  0.91316000  1.0
  H  H20  1  0.06921000  0.34076000  0.36090000  1.0
  H  H21  1  0.34076000  0.06920000  0.86090000  1.0
  H  H22  1  0.90417000  0.35770000  0.17162000  1.0
  H  H23  1  0.35770000  0.90417000  0.67162000  1.0
  H  H24  1  0.91715000  0.62485000  0.04313000  1.0
  H  H25  1  0.62485000  0.91716000  0.54313000  1.0
  C  C26  1  0.85811000  0.02874000  0.30667000  1.0
  C  C27  1  0.02873000  0.85813000  0.80669000  1.0
  C  C28  1  0.29127000  0.23659000  0.08811000  1.0
  C  C29  1  0.23659000  0.29127000  0.58811000  1.0
  C  C30  1  0.37372000  0.40019000  0.06602000  1.0
  C  C31  1  0.40019000  0.37371000  0.56602000  1.0
  C  C32  1  0.33531000  0.50011000  0.96370000  1.0
  C  C33  1  0.50012000  0.33531000  0.46370000  1.0
  C  C34  1  0.40980000  0.65609000  0.94394000  1.0
  C  C35  1  0.65609000  0.40979000  0.44393000  1.0
  C  C36  1  0.52227000  0.71460000  0.02564000  1.0
  C  C37  1  0.71461000  0.52227000  0.52563000  1.0
  C  C38  1  0.56133000  0.61519000  0.12738000  1.0
  C  C39  1  0.61520000  0.56133000  0.62737000  1.0
  C  C40  1  0.48901000  0.45845000  0.14692000  1.0
  C  C41  1  0.45845000  0.48901000  0.64692000  1.0
  C  C42  1  0.39653000  0.89026000  0.36710000  1.0
  C  C43  1  0.89026000  0.39652000  0.86711000  1.0
  C  C44  1  0.27429000  0.87833000  0.27020000  1.0
  C  C45  1  0.87833000  0.27428000  0.77021000  1.0
  C  C46  1  0.17207000  0.73138000  0.25350000  1.0
  C  C47  1  0.73138000  0.17206000  0.75351000  1.0
  C  C48  1  0.16577000  0.58994000  0.33167000  1.0
  C  C49  1  0.58994000  0.16576000  0.83168000  1.0
  C  C50  1  0.06963000  0.45384000  0.30277000  1.0
  C  C51  1  0.45384000  0.06962000  0.80278000  1.0
  C  C52  1  0.97835000  0.46297000  0.19801000  1.0
  C  C53  1  0.46297000  0.97835000  0.69801000  1.0
  C  C54  1  0.98648000  0.60900000  0.12545000  1.0
  C  C55  1  0.60900000  0.98648000  0.62545000  1.0
  S  S56  1  0.79791000  0.04351000  0.16886000  1.0
  S  S57  1  0.04351000  0.79792000  0.66888000  1.0
  N  N58  1  0.90305000  0.01619000  0.40714000  1.0
  N  N59  1  0.01617000  0.90308000  0.90715000  1.0
  N  N60  1  0.33333333  0.14431000  0.18601000  1.0
  N  N61  1  0.14431000  0.33333333  0.68601000  1.0
  N  N62  1  0.25023000  0.99884000  0.18903000  1.0
  N  N63  1  0.99884000  0.25022000  0.68903000  1.0
  N  N64  1  0.08108000  0.73794000  0.15201000  1.0
  N  N65  1  0.73794000  0.08108000  0.65202000  1.0
  O  O66  1  0.18309000  0.18993000  0.01207000  1.0
  O  O67  1  0.18993000  0.18308000  0.51208000  1.0
