# generated using pymatgen
data_CdH16C16(N2O3)2
_symmetry_space_group_name_H-M   'P 1'
_cell_length_a   9.42167000
_cell_length_b   10.05570000
_cell_length_c   11.06440000
_cell_angle_alpha   109.05000000
_cell_angle_beta   111.09300000
_cell_angle_gamma   94.99550000
_symmetry_Int_Tables_number   1
_chemical_formula_structural   CdH16C16(N2O3)2
_chemical_formula_sum   'Cd2 H32 C32 N8 O12'
_cell_volume   899.25149937
_cell_formula_units_Z   2
loop_
 _symmetry_equiv_pos_site_id
 _symmetry_equiv_pos_as_xyz
  1  'x, y, z'
loop_
 _atom_site_type_symbol
 _atom_site_label
 _atom_site_symmetry_multiplicity
 _atom_site_fract_x
 _atom_site_fract_y
 _atom_site_fract_z
 _atom_site_occupancy
  Cd  Cd0  1  0.56326000  0.39814000  0.63321000  1.0
  Cd  Cd1  1  0.43673000  0.60186000  0.36679000  1.0
  H  H2  1  0.15134000  0.47631000  0.79103000  1.0
  H  H3  1  0.84866000  0.52369000  0.20897000  1.0
  H  H4  1  0.05562000  0.42119000  0.60645000  1.0
  H  H5  1  0.94437000  0.57881000  0.39355000  1.0
  H  H6  1  0.29592000  0.39042000  0.93129000  1.0
  H  H7  1  0.70409000  0.60958000  0.06871000  1.0
  H  H8  1  0.38020000  0.27453000  0.10101000  1.0
  H  H9  1  0.61980000  0.72547000  0.89899000  1.0
  H  H10  1  0.23785000  0.02634000  0.04859000  1.0
  H  H11  1  0.76214000  0.97366000  0.95141000  1.0
  H  H12  1  0.93058000  0.00841000  0.64116000  1.0
  H  H13  1  0.06942000  0.99159000  0.35884000  1.0
  H  H14  1  0.87311000  0.78314000  0.60408000  1.0
  H  H15  1  0.12688000  0.21686000  0.39592000  1.0
  H  H16  1  0.77213000  0.87208000  0.70214000  1.0
  H  H17  1  0.22787000  0.12792000  0.29787000  1.0
  H  H18  1  0.66706000  0.07901000  0.59855000  1.0
  H  H19  1  0.33294000  0.92099000  0.40145000  1.0
  H  H20  1  0.65823000  0.02011000  0.19923000  1.0
  H  H21  1  0.34177000  0.97989000  0.80077000  1.0
  H  H22  1  0.59650000  0.28855000  0.31473000  1.0
  H  H23  1  0.40350000  0.71146000  0.68527000  1.0
  H  H24  1  0.92331000  0.38895000  0.86062000  1.0
  H  H25  1  0.07669000  0.61105000  0.13938000  1.0
  H  H26  1  0.71847000  0.23881000  0.08868000  1.0
  H  H27  1  0.28153000  0.76119000  0.91132000  1.0
  H  H28  1  0.48583000  0.27037000  0.86557000  1.0
  H  H29  1  0.51417000  0.72963000  0.13442000  1.0
  H  H30  1  0.69480000  0.90802000  0.38400000  1.0
  H  H31  1  0.30520000  0.09198000  0.61600000  1.0
  H  H32  1  0.97427000  0.32257000  0.07724000  1.0
  H  H33  1  0.02573000  0.67743000  0.92276000  1.0
  C  C34  1  0.28746000  0.38655000  0.67719000  1.0
  C  C35  1  0.71253000  0.61345000  0.32281000  1.0
  C  C36  1  0.13196000  0.39139000  0.69048000  1.0
  C  C37  1  0.86803000  0.60861000  0.30952000  1.0
  C  C38  1  0.10605000  0.20451000  0.77507000  1.0
  C  C39  1  0.89395000  0.79549000  0.22493000  1.0
  C  C40  1  0.23312000  0.28140000  0.90404000  1.0
  C  C41  1  0.76688000  0.71861000  0.09596000  1.0
  C  C42  1  0.28014000  0.21510000  0.00101000  1.0
  C  C43  1  0.71987000  0.78490000  0.99898000  1.0
  C  C44  1  0.20208000  0.07751000  0.97301000  1.0
  C  C45  1  0.79791000  0.92249000  0.02700000  1.0
  C  C46  1  0.07255000  0.00308000  0.84388000  1.0
  C  C47  1  0.92745000  0.99693000  0.15612000  1.0
  C  C48  1  0.02559000  0.06525000  0.74434000  1.0
  C  C49  1  0.97441000  0.93475000  0.25566000  1.0
  C  C50  1  0.85577000  0.80192000  0.70103000  1.0
  C  C51  1  0.14422000  0.19808000  0.29897000  1.0
  C  C52  1  0.78284000  0.65778000  0.69469000  1.0
  C  C53  1  0.21716000  0.34222000  0.30531000  1.0
  C  C54  1  0.65478000  0.10062000  0.50594000  1.0
  C  C55  1  0.34522000  0.89938000  0.49405000  1.0
  C  C56  1  0.64971000  0.07282000  0.29796000  1.0
  C  C57  1  0.35030000  0.92718000  0.70203000  1.0
  C  C58  1  0.61787000  0.20405000  0.35527000  1.0
  C  C59  1  0.38213000  0.79595000  0.64473000  1.0
  C  C60  1  0.83447000  0.35131000  0.88996000  1.0
  C  C61  1  0.16553000  0.64869000  0.11004000  1.0
  C  C62  1  0.72441000  0.27276000  0.00701000  1.0
  C  C63  1  0.27559000  0.72725000  0.99299000  1.0
  C  C64  1  0.61092000  0.28934000  0.89645000  1.0
  C  C65  1  0.38909000  0.71065000  0.10356000  1.0
  N  N66  1  0.62098000  0.21959000  0.48527000  1.0
  N  N67  1  0.37902000  0.78041000  0.51473000  1.0
  N  N68  1  0.67292000  0.00967000  0.39478000  1.0
  N  N69  1  0.32708000  0.99034000  0.60521000  1.0
  N  N70  1  0.68115000  0.33856000  0.82390000  1.0
  N  N71  1  0.31885000  0.66144000  0.17610000  1.0
  N  N72  1  0.86444000  0.31147000  0.00035000  1.0
  N  N73  1  0.13556000  0.68853000  0.99965000  1.0
  O  O74  1  0.31419000  0.26481000  0.62023000  1.0
  O  O75  1  0.68580000  0.73518000  0.37977000  1.0
  O  O76  1  0.38100000  0.50662000  0.71873000  1.0
  O  O77  1  0.61899000  0.49337000  0.28127000  1.0
  O  O78  1  0.04787000  0.25566000  0.67050000  1.0
  O  O79  1  0.95213000  0.74434000  0.32950000  1.0
  O  O80  1  0.99944000  0.86819000  0.82246000  1.0
  O  O81  1  0.00056000  0.13181000  0.17755000  1.0
  O  O82  1  0.85689000  0.59919000  0.77428000  1.0
  O  O83  1  0.14311000  0.40082000  0.22573000  1.0
  O  O84  1  0.64173000  0.60139000  0.60190000  1.0
  O  O85  1  0.35827000  0.39861000  0.39811000  1.0
