# generated using pymatgen
data_FeH13C12S2N
_symmetry_space_group_name_H-M   'P 1'
_cell_length_a   6.94354000
_cell_length_b   7.25084000
_cell_length_c   13.05596086
_cell_angle_alpha   95.78163004
_cell_angle_beta   105.41583175
_cell_angle_gamma   90.01170000
_symmetry_Int_Tables_number   1
_chemical_formula_structural   FeH13C12S2N
_chemical_formula_sum   'Fe2 H26 C24 S4 N2'
_cell_volume   630.19977988
_cell_formula_units_Z   2
loop_
 _symmetry_equiv_pos_site_id
 _symmetry_equiv_pos_as_xyz
  1  'x, y, z'
loop_
 _atom_site_type_symbol
 _atom_site_label
 _atom_site_symmetry_multiplicity
 _atom_site_fract_x
 _atom_site_fract_y
 _atom_site_fract_z
 _atom_site_occupancy
  Fe  Fe0  1  0.34810000  0.16835000  0.71692000  1.0
  Fe  Fe1  1  0.36820000  0.66819000  0.71695000  1.0
  H  H2  1  0.12684000  0.30872000  0.83049000  1.0
  H  H3  1  0.70327000  0.80885000  0.83024000  1.0
  H  H4  1  0.17897000  0.09796000  0.86832000  1.0
  H  H5  1  0.68934000  0.59823000  0.86831000  1.0
  H  H6  1  0.99331000  0.12685000  0.76402000  1.0
  H  H7  1  0.76994000  0.62683000  0.76373000  1.0
  H  H8  1  0.17165000  0.50403000  0.39288000  1.0
  H  H9  1  0.22138000  0.00483000  0.39330000  1.0
  H  H10  1  0.35204000  0.45942000  0.25025000  1.0
  H  H11  1  0.89923000  0.96044000  0.25035000  1.0
  H  H12  1  0.67980000  0.30568000  0.28672000  1.0
  H  H13  1  0.60753000  0.80560000  0.28606000  1.0
  H  H14  1  0.83620000  0.21063000  0.46758000  1.0
  H  H15  1  0.63104000  0.71022000  0.46687000  1.0
  H  H16  1  0.65646000  0.25566000  0.60943000  1.0
  H  H17  1  0.95208000  0.75509000  0.60899000  1.0
  H  H18  1  0.97660000  0.08119000  0.00577000  1.0
  H  H19  1  0.02957000  0.58106000  0.00617000  1.0
  H  H20  1  0.07526000  0.24670000  0.18760000  1.0
  H  H21  1  0.11285000  0.74674000  0.18792000  1.0
  H  H22  1  0.88049000  0.51594000  0.23661000  1.0
  H  H23  1  0.35638000  0.01635000  0.23676000  1.0
  H  H24  1  0.57919000  0.60977000  0.10224000  1.0
  H  H25  1  0.52304000  0.11010000  0.10212000  1.0
  H  H26  1  0.47515000  0.44070000  0.92150000  1.0
  H  H27  1  0.44619000  0.94062000  0.92152000  1.0
  C  C28  1  0.40163000  0.37903000  0.50886000  1.0
  C  C29  1  0.10686000  0.87908000  0.50884000  1.0
  C  C30  1  0.31628000  0.43827000  0.40790000  1.0
  C  C31  1  0.09166000  0.93878000  0.40804000  1.0
  C  C32  1  0.41762000  0.41252000  0.32860000  1.0
  C  C33  1  0.91132000  0.91312000  0.32851000  1.0
  C  C34  1  0.60279000  0.32777000  0.34930000  1.0
  C  C35  1  0.74675000  0.82786000  0.34884000  1.0
  C  C36  1  0.69022000  0.27379000  0.45065000  1.0
  C  C37  1  0.76018000  0.77358000  0.45009000  1.0
  C  C38  1  0.59054000  0.29952000  0.53037000  1.0
  C  C39  1  0.93924000  0.79923000  0.53004000  1.0
  C  C40  1  0.72273000  0.25302000  0.94908000  1.0
  C  C41  1  0.22622000  0.75314000  0.94925000  1.0
  C  C42  1  0.89061000  0.19844000  0.02620000  1.0
  C  C43  1  0.13590000  0.69846000  0.02647000  1.0
  C  C44  1  0.94550000  0.29156000  0.12893000  1.0
  C  C45  1  0.18410000  0.79153000  0.12925000  1.0
  C  C46  1  0.83625000  0.44150000  0.15679000  1.0
  C  C47  1  0.32114000  0.94149000  0.15707000  1.0
  C  C48  1  0.66749000  0.49457000  0.08148000  1.0
  C  C49  1  0.41426000  0.99457000  0.08159000  1.0
  C  C50  1  0.60996000  0.40036000  0.97888000  1.0
  C  C51  1  0.36893000  0.90035000  0.97898000  1.0
  S  S52  1  0.26521000  0.40061000  0.60632000  1.0
  S  S53  1  0.34049000  0.90059000  0.60643000  1.0
  S  S54  1  0.66034000  0.13329000  0.81955000  1.0
  S  S55  1  0.15896000  0.63287000  0.81980000  1.0
  N  N56  1  0.13706000  0.17115000  0.80303000  1.0
  N  N57  1  0.66551000  0.67124000  0.80292000  1.0
