# generated using pymatgen
data_SmH19C30N5O7
_symmetry_space_group_name_H-M   'P 1'
_cell_length_a   10.54560000
_cell_length_b   11.15810000
_cell_length_c   13.59200000
_cell_angle_alpha   110.22000000
_cell_angle_beta   101.26300000
_cell_angle_gamma   107.84800000
_symmetry_Int_Tables_number   1
_chemical_formula_structural   SmH19C30N5O7
_chemical_formula_sum   'Sm2 H38 C60 N10 O14'
_cell_volume   1344.86477486
_cell_formula_units_Z   2
loop_
 _symmetry_equiv_pos_site_id
 _symmetry_equiv_pos_as_xyz
  1  'x, y, z'
loop_
 _atom_site_type_symbol
 _atom_site_label
 _atom_site_symmetry_multiplicity
 _atom_site_fract_x
 _atom_site_fract_y
 _atom_site_fract_z
 _atom_site_occupancy
  Sm  Sm0  1  0.49960000  0.91735000  0.62162000  1.0
  Sm  Sm1  1  0.50040000  0.08265000  0.37838000  1.0
  H  H2  1  0.42176000  0.57188000  0.99921000  1.0
  H  H3  1  0.57824000  0.42812000  0.00079000  1.0
  H  H4  1  0.26949000  0.32753000  0.95991000  1.0
  H  H5  1  0.73051000  0.67247000  0.04009000  1.0
  H  H6  1  0.96020000  0.44952000  0.38288000  1.0
  H  H7  1  0.03980000  0.55048000  0.61712000  1.0
  H  H8  1  0.02977000  0.30736000  0.47310000  1.0
  H  H9  1  0.97023000  0.69264000  0.52690000  1.0
  H  H10  1  0.23423000  0.24431000  0.44273000  1.0
  H  H11  1  0.76576000  0.75569000  0.55727000  1.0
  H  H12  1  0.06029000  0.67839000  0.29326000  1.0
  H  H13  1  0.93971000  0.32161000  0.70674000  1.0
  H  H14  1  0.79534000  0.55514000  0.21778000  1.0
  H  H15  1  0.20466000  0.44487000  0.78222000  1.0
  H  H16  1  0.65460000  0.67877000  0.30249000  1.0
  H  H17  1  0.34540000  0.32123000  0.69751000  1.0
  H  H18  1  0.84859000  0.07848000  0.77477000  1.0
  H  H19  1  0.15141000  0.92152000  0.22523000  1.0
  H  H20  1  0.02899000  0.23161000  0.96872000  1.0
  H  H21  1  0.97101000  0.76839000  0.03128000  1.0
  H  H22  1  0.94533000  0.31803000  0.12739000  1.0
  H  H23  1  0.05467000  0.68197000  0.87261000  1.0
  H  H24  1  0.73883000  0.31480000  0.19641000  1.0
  H  H25  1  0.26117000  0.68520000  0.80359000  1.0
  H  H26  1  0.48214000  0.24473000  0.15544000  1.0
  H  H27  1  0.51786000  0.75527000  0.84456000  1.0
  H  H28  1  0.23589000  0.11485000  0.01609000  1.0
  H  H29  1  0.76411000  0.88515000  0.98391000  1.0
  H  H30  1  0.07757000  0.96242000  0.81568000  1.0
  H  H31  1  0.92243000  0.03759000  0.18432000  1.0
  H  H32  1  0.18938000  0.89699000  0.66993000  1.0
  H  H33  1  0.81062000  0.10301000  0.33007000  1.0
  H  H34  1  0.49780000  0.76090000  0.19462000  1.0
  H  H35  1  0.50221000  0.23910000  0.80538000  1.0
  H  H36  1  0.37117000  0.64712000  0.63556000  1.0
  H  H37  1  0.62883000  0.35288000  0.36444000  1.0
  H  H38  1  0.26016000  0.64395000  0.53737000  1.0
  H  H39  1  0.73984000  0.35605000  0.46263000  1.0
  C  C40  1  0.42695000  0.73762000  0.36517000  1.0
  C  C41  1  0.57305000  0.26237000  0.63483000  1.0
  C  C42  1  0.37949000  0.62204000  0.25077000  1.0
  C  C43  1  0.62051000  0.37796000  0.74922000  1.0
  C  C44  1  0.38719000  0.54925000  0.06371000  1.0
  C  C45  1  0.61281000  0.45075000  0.93629000  1.0
  C  C46  1  0.30215000  0.41367000  0.04219000  1.0
  C  C47  1  0.69785000  0.58633000  0.95780000  1.0
  C  C48  1  0.29252000  0.48229000  0.22054000  1.0
  C  C49  1  0.70748000  0.51771000  0.77946000  1.0
  C  C50  1  0.22837000  0.43790000  0.29783000  1.0
  C  C51  1  0.77163000  0.56210000  0.70217000  1.0
  C  C52  1  0.05015000  0.42294000  0.37380000  1.0
  C  C53  1  0.94985000  0.57706000  0.62620000  1.0
  C  C54  1  0.08832000  0.34287000  0.42357000  1.0
  C  C55  1  0.91168000  0.65713000  0.57643000  1.0
  C  C56  1  0.20161000  0.30876000  0.40755000  1.0
  C  C57  1  0.79839000  0.69124000  0.59245000  1.0
  C  C58  1  0.27474000  0.35829000  0.34457000  1.0
  C  C59  1  0.72526000  0.64171000  0.65543000  1.0
  C  C60  1  0.39875000  0.32418000  0.32896000  1.0
  C  C61  1  0.60125000  0.67581000  0.67104000  1.0
  C  C62  1  0.21861000  0.93198000  0.45453000  1.0
  C  C63  1  0.78139000  0.06803000  0.54547000  1.0
  C  C64  1  0.05918000  0.86706000  0.41118000  1.0
  C  C65  1  0.94082000  0.13295000  0.58882000  1.0
  C  C66  1  0.99500000  0.73116000  0.32478000  1.0
  C  C67  1  0.00500000  0.26885000  0.67523000  1.0
  C  C68  1  0.84818000  0.66176000  0.28346000  1.0
  C  C69  1  0.15182000  0.33824000  0.71654000  1.0
  C  C70  1  0.76960000  0.73118000  0.33029000  1.0
  C  C71  1  0.23040000  0.26883000  0.66971000  1.0
  C  C72  1  0.97107000  0.92904000  0.45325000  1.0
  C  C73  1  0.02894000  0.07097000  0.54675000  1.0
  C  C74  1  0.81672000  0.11781000  0.84701000  1.0
  C  C75  1  0.18328000  0.88219000  0.15299000  1.0
  C  C76  1  0.91645000  0.20288000  0.95471000  1.0
  C  C77  1  0.08355000  0.79712000  0.04529000  1.0
  C  C78  1  0.87008000  0.25008000  0.04308000  1.0
  C  C79  1  0.12991000  0.74992000  0.95691000  1.0
  C  C80  1  0.72345000  0.20970000  0.02360000  1.0
  C  C81  1  0.27655000  0.79030000  0.97640000  1.0
  C  C82  1  0.63038000  0.12299000  0.91192000  1.0
  C  C83  1  0.36962000  0.87701000  0.08808000  1.0
  C  C84  1  0.66648000  0.25179000  0.11074000  1.0
  C  C85  1  0.33352000  0.74821000  0.88926000  1.0
  C  C86  1  0.52393000  0.21155000  0.08826000  1.0
  C  C87  1  0.47607000  0.78845000  0.91174000  1.0
  C  C88  1  0.42717000  0.12504000  0.97667000  1.0
  C  C89  1  0.57283000  0.87496000  0.02333000  1.0
  C  C90  1  0.47967000  0.07955000  0.88808000  1.0
  C  C91  1  0.52034000  0.92045000  0.11192000  1.0
  C  C92  1  0.27900000  0.08141000  0.94965000  1.0
  C  C93  1  0.72100000  0.91859000  0.05035000  1.0
  C  C94  1  0.19232000  0.99897000  0.83984000  1.0
  C  C95  1  0.80768000  0.00103000  0.16016000  1.0
  C  C96  1  0.25384000  0.96051000  0.75752000  1.0
  C  C97  1  0.74616000  0.03949000  0.24248000  1.0
  C  C98  1  0.42736000  0.65375000  0.17039000  1.0
  C  C99  1  0.57264000  0.34625000  0.82961000  1.0
  N  N100  1  0.25590000  0.37978000  0.11825000  1.0
  N  N101  1  0.74410000  0.62022000  0.88175000  1.0
  N  N102  1  0.11760000  0.46935000  0.31132000  1.0
  N  N103  1  0.88240000  0.53065000  0.68868000  1.0
  N  N104  1  0.82912000  0.86102000  0.41181000  1.0
  N  N105  1  0.17088000  0.13898000  0.58819000  1.0
  N  N106  1  0.67792000  0.08014000  0.82564000  1.0
  N  N107  1  0.32208000  0.91986000  0.17436000  1.0
  N  N108  1  0.39300000  0.99907000  0.78028000  1.0
  N  N109  1  0.60700000  0.00092000  0.21972000  1.0
  O  O110  1  0.46325000  0.86182000  0.37391000  1.0
  O  O111  1  0.53675000  0.13818000  0.62609000  1.0
  O  O112  1  0.43143000  0.70913000  0.44795000  1.0
  O  O113  1  0.56856000  0.29087000  0.55205000  1.0
  O  O114  1  0.50878000  0.41534000  0.33333333  1.0
  O  O115  1  0.49122000  0.58466000  0.66666667  1.0
  O  O116  1  0.38175000  0.19915000  0.31210000  1.0
  O  O117  1  0.61825000  0.80085000  0.68790000  1.0
  O  O118  1  0.27447000  0.89296000  0.52262000  1.0
  O  O119  1  0.72553000  0.10704000  0.47738000  1.0
  O  O120  1  0.28120000  0.00419000  0.41054000  1.0
  O  O121  1  0.71880000  0.99581000  0.58946000  1.0
  O  O122  1  0.31377000  0.69915000  0.61670000  1.0
  O  O123  1  0.68623000  0.30085000  0.38330000  1.0
