# generated using pymatgen
data_ZnH24C28(NO2)2
_symmetry_space_group_name_H-M   'P 1'
_cell_length_a   10.16280000
_cell_length_b   10.35920000
_cell_length_c   11.73060000
_cell_angle_alpha   87.58260000
_cell_angle_beta   73.98690000
_cell_angle_gamma   82.03230000
_symmetry_Int_Tables_number   1
_chemical_formula_structural   ZnH24C28(NO2)2
_chemical_formula_sum   'Zn2 H48 C56 N4 O8'
_cell_volume   1175.59130756
_cell_formula_units_Z   2
loop_
 _symmetry_equiv_pos_site_id
 _symmetry_equiv_pos_as_xyz
  1  'x, y, z'
loop_
 _atom_site_type_symbol
 _atom_site_label
 _atom_site_symmetry_multiplicity
 _atom_site_fract_x
 _atom_site_fract_y
 _atom_site_fract_z
 _atom_site_occupancy
  Zn  Zn0  1  0.59270000  0.60346000  0.60303000  1.0
  Zn  Zn1  1  0.40730000  0.39655000  0.39697000  1.0
  H  H2  1  0.62254000  0.38007000  0.77858000  1.0
  H  H3  1  0.37745000  0.61993000  0.22142000  1.0
  H  H4  1  0.75592000  0.15795000  0.76880000  1.0
  H  H5  1  0.24407000  0.84205000  0.23120000  1.0
  H  H6  1  0.04459000  0.28311000  0.45163000  1.0
  H  H7  1  0.95541000  0.71689000  0.54837000  1.0
  H  H8  1  0.89168000  0.49488000  0.47090000  1.0
  H  H9  1  0.10832000  0.50511000  0.52910000  1.0
  H  H10  1  0.43328000  0.16398000  0.56334000  1.0
  H  H11  1  0.56672000  0.83602000  0.43667000  1.0
  H  H12  1  0.61682000  0.99722000  0.60925000  1.0
  H  H13  1  0.38318000  0.00278000  0.39075000  1.0
  H  H14  1  0.91035000  0.15933000  0.31888000  1.0
  H  H15  1  0.08965000  0.84067000  0.68111000  1.0
  H  H16  1  0.71627000  0.31379000  0.28361000  1.0
  H  H17  1  0.28373000  0.68621000  0.71639000  1.0
  H  H18  1  0.96157000  0.00808000  0.66935000  1.0
  H  H19  1  0.03843000  0.99191000  0.33065000  1.0
  H  H20  1  0.84784000  0.89918000  0.56025000  1.0
  H  H21  1  0.15216000  0.10082000  0.43975000  1.0
  H  H22  1  0.80015000  0.91744000  0.76159000  1.0
  H  H23  1  0.19985000  0.08256000  0.23841000  1.0
  H  H24  1  0.83397000  0.03467000  0.93184000  1.0
  H  H25  1  0.16603000  0.96533000  0.06817000  1.0
  H  H26  1  0.51000000  0.85008000  0.16928000  1.0
  H  H27  1  0.49000000  0.14992000  0.83072000  1.0
  H  H28  1  0.47966000  0.73336000  0.99822000  1.0
  H  H29  1  0.52034000  0.26663000  0.00178000  1.0
  H  H30  1  0.65985000  0.96710000  0.24853000  1.0
  H  H31  1  0.34015000  0.03290000  0.75147000  1.0
  H  H32  1  0.63580000  0.11813000  0.17474000  1.0
  H  H33  1  0.36420000  0.88187000  0.82526000  1.0
  H  H34  1  0.80356000  0.03078000  0.15106000  1.0
  H  H35  1  0.19644000  0.96922000  0.84894000  1.0
  H  H36  1  0.37989000  0.51451000  0.85546000  1.0
  H  H37  1  0.62011000  0.48549000  0.14454000  1.0
  H  H38  1  0.23923000  0.48462000  0.06272000  1.0
  H  H39  1  0.76077000  0.51538000  0.93728000  1.0
  H  H40  1  0.99415000  0.24644000  0.93714000  1.0
  H  H41  1  0.00585000  0.75356000  0.06285000  1.0
  H  H42  1  0.13208000  0.28057000  0.72875000  1.0
  H  H43  1  0.86792000  0.71944000  0.27125000  1.0
  H  H44  1  0.94869000  0.43309000  0.16973000  1.0
  H  H45  1  0.05131000  0.56691000  0.83027000  1.0
  H  H46  1  0.08858000  0.32886000  0.20028000  1.0
  H  H47  1  0.91142000  0.67113000  0.79971000  1.0
  H  H48  1  0.96448000  0.26284000  0.14583000  1.0
  H  H49  1  0.03552000  0.73716000  0.85417000  1.0
  C  C50  1  0.71724000  0.35401000  0.70812000  1.0
  C  C51  1  0.28276000  0.64599000  0.29188000  1.0
  C  C52  1  0.79267000  0.23067000  0.70189000  1.0
  C  C53  1  0.20732000  0.76934000  0.29811000  1.0
  C  C54  1  0.90950000  0.19805000  0.60575000  1.0
  C  C55  1  0.09049000  0.80195000  0.39425000  1.0
  C  C56  1  0.95152000  0.29821000  0.52570000  1.0
  C  C57  1  0.04848000  0.70179000  0.47429000  1.0
  C  C58  1  0.86847000  0.41848000  0.53719000  1.0
  C  C59  1  0.13152000  0.58152000  0.46281000  1.0
  C  C60  1  0.54087000  0.15828000  0.51139000  1.0
  C  C61  1  0.45913000  0.84172000  0.48862000  1.0
  C  C62  1  0.64272000  0.06686000  0.53675000  1.0
  C  C63  1  0.35728000  0.93314000  0.46325000  1.0
  C  C64  1  0.78031000  0.06520000  0.46944000  1.0
  C  C65  1  0.21969000  0.93480000  0.53056000  1.0
  C  C66  1  0.80632000  0.15453000  0.37544000  1.0
  C  C67  1  0.19368000  0.84547000  0.62456000  1.0
  C  C68  1  0.69843000  0.24244000  0.35542000  1.0
  C  C69  1  0.30156000  0.75756000  0.64458000  1.0
  C  C70  1  0.96778000  0.05739000  0.58376000  1.0
  C  C71  1  0.03222000  0.94261000  0.41624000  1.0
  C  C72  1  0.89210000  0.98132000  0.50860000  1.0
  C  C73  1  0.10790000  0.01868000  0.49140000  1.0
  C  C74  1  0.62788000  0.74350000  0.76745000  1.0
  C  C75  1  0.37212000  0.25650000  0.23255000  1.0
  C  C76  1  0.63826000  0.81902000  0.86945000  1.0
  C  C77  1  0.36174000  0.18098000  0.13055000  1.0
  C  C78  1  0.73664000  0.90524000  0.85165000  1.0
  C  C79  1  0.26336000  0.09476000  0.14835000  1.0
  C  C80  1  0.75488000  0.96946000  0.94659000  1.0
  C  C81  1  0.24512000  0.03054000  0.05341000  1.0
  C  C82  1  0.67389000  0.95037000  0.06253000  1.0
  C  C83  1  0.32611000  0.04963000  0.93747000  1.0
  C  C84  1  0.57326000  0.86637000  0.07957000  1.0
  C  C85  1  0.42675000  0.13363000  0.92043000  1.0
  C  C86  1  0.55563000  0.80117000  0.98459000  1.0
  C  C87  1  0.44437000  0.19883000  0.01541000  1.0
  C  C88  1  0.69434000  0.01965000  0.16462000  1.0
  C  C89  1  0.30566000  0.98035000  0.83538000  1.0
  C  C90  1  0.34917000  0.41684000  0.65461000  1.0
  C  C91  1  0.65084000  0.58317000  0.34539000  1.0
  C  C92  1  0.26526000  0.39819000  0.77920000  1.0
  C  C93  1  0.73475000  0.60181000  0.22079000  1.0
  C  C94  1  0.29480000  0.45622000  0.87372000  1.0
  C  C95  1  0.70520000  0.54378000  0.12628000  1.0
  C  C96  1  0.21555000  0.43961000  0.98948000  1.0
  C  C97  1  0.78445000  0.56038000  0.01052000  1.0
  C  C98  1  0.10711000  0.36331000  0.01437000  1.0
  C  C99  1  0.89289000  0.63668000  0.98563000  1.0
  C  C100  1  0.07855000  0.30577000  0.91921000  1.0
  C  C101  1  0.92145000  0.69423000  0.08079000  1.0
  C  C102  1  0.15547000  0.32368000  0.80287000  1.0
  C  C103  1  0.84453000  0.67632000  0.19713000  1.0
  C  C104  1  0.02293000  0.34560000  0.13937000  1.0
  C  C105  1  0.97707000  0.65440000  0.86063000  1.0
  N  N106  1  0.75117000  0.44572000  0.62432000  1.0
  N  N107  1  0.24883000  0.55428000  0.37568000  1.0
  N  N108  1  0.56777000  0.24628000  0.42319000  1.0
  N  N109  1  0.43223000  0.75372000  0.57681000  1.0
  O  O110  1  0.70516000  0.76194000  0.66362000  1.0
  O  O111  1  0.29484000  0.23806000  0.33638000  1.0
  O  O112  1  0.54151000  0.66046000  0.78668000  1.0
  O  O113  1  0.45849000  0.33954000  0.21332000  1.0
  O  O114  1  0.46323000  0.46065000  0.63781000  1.0
  O  O115  1  0.53677000  0.53935000  0.36219000  1.0
  O  O116  1  0.30060000  0.38369000  0.57174000  1.0
  O  O117  1  0.69940000  0.61632000  0.42826000  1.0
