# generated using pymatgen
data_LiH8C10N4OF3
_symmetry_space_group_name_H-M   'P 1'
_cell_length_a   8.14975000
_cell_length_b   8.59434000
_cell_length_c   8.63120000
_cell_angle_alpha   73.49370000
_cell_angle_beta   85.06940000
_cell_angle_gamma   88.20960000
_symmetry_Int_Tables_number   1
_chemical_formula_structural   LiH8C10N4OF3
_chemical_formula_sum   'Li2 H16 C20 N8 O2 F6'
_cell_volume   577.47031165
_cell_formula_units_Z   2
loop_
 _symmetry_equiv_pos_site_id
 _symmetry_equiv_pos_as_xyz
  1  'x, y, z'
loop_
 _atom_site_type_symbol
 _atom_site_label
 _atom_site_symmetry_multiplicity
 _atom_site_fract_x
 _atom_site_fract_y
 _atom_site_fract_z
 _atom_site_occupancy
  Li  Li0  1  0.75843000  0.76176000  0.16530000  1.0
  Li  Li1  1  0.24156000  0.23824000  0.83470000  1.0
  H  H2  1  0.75045000  0.89291000  0.49411000  1.0
  H  H3  1  0.24955000  0.10709000  0.50589000  1.0
  H  H4  1  0.94644000  0.89730000  0.38087000  1.0
  H  H5  1  0.05356000  0.10269000  0.61913000  1.0
  H  H6  1  0.90523000  0.78023000  0.72087000  1.0
  H  H7  1  0.09478000  0.21977000  0.27913000  1.0
  H  H8  1  0.06093000  0.70249000  0.60521000  1.0
  H  H9  1  0.93908000  0.29751000  0.39479000  1.0
  H  H10  1  0.92440000  0.45457000  0.67842000  1.0
  H  H11  1  0.07560000  0.54543000  0.32158000  1.0
  H  H12  1  0.76018000  0.53415000  0.78297000  1.0
  H  H13  1  0.23982000  0.46585000  0.21703000  1.0
  H  H14  1  0.72708000  0.46391000  0.48373000  1.0
  H  H15  1  0.27292000  0.53609000  0.51627000  1.0
  H  H16  1  0.60158000  0.60629000  0.55752000  1.0
  H  H17  1  0.39843000  0.39371000  0.44248000  1.0
  C  C18  1  0.73087000  0.14095000  0.10766000  1.0
  C  C19  1  0.26912000  0.85905000  0.89234000  1.0
  C  C20  1  0.62018000  0.25311000  0.15458000  1.0
  C  C21  1  0.37982000  0.74689000  0.84542000  1.0
  C  C22  1  0.50632000  0.02381000  0.21465000  1.0
  C  C23  1  0.49368000  0.97619000  0.78535000  1.0
  C  C24  1  0.89035000  0.17155000  0.03039000  1.0
  C  C25  1  0.10965000  0.82845000  0.96961000  1.0
  C  C26  1  0.64934000  0.41723000  0.14149000  1.0
  C  C27  1  0.35066000  0.58277000  0.85850000  1.0
  C  C28  1  0.38282000  0.89263000  0.28614000  1.0
  C  C29  1  0.61719000  0.10737000  0.71386000  1.0
  C  C30  1  0.85685000  0.81947000  0.46843000  1.0
  C  C31  1  0.14315000  0.18053000  0.53157000  1.0
  C  C32  1  0.92756000  0.71985000  0.62498000  1.0
  C  C33  1  0.07244000  0.28015000  0.37502000  1.0
  C  C34  1  0.83646000  0.55551000  0.66809000  1.0
  C  C35  1  0.16355000  0.44449000  0.33191000  1.0
  C  C36  1  0.72899000  0.57195000  0.52678000  1.0
  C  C37  1  0.27102000  0.42805000  0.47322000  1.0
  N  N38  1  0.65563000  0.99337000  0.14717000  1.0
  N  N39  1  0.34437000  0.00663000  0.85283000  1.0
  N  N40  1  0.02190000  0.20149000  0.96575000  1.0
  N  N41  1  0.97809000  0.79852000  0.03425000  1.0
  N  N42  1  0.67845000  0.55165000  0.13288000  1.0
  N  N43  1  0.32154000  0.44835000  0.86712000  1.0
  N  N44  1  0.47702000  0.17609000  0.22258000  1.0
  N  N45  1  0.52297000  0.82391000  0.77742000  1.0
  O  O46  1  0.80194000  0.70094000  0.39419000  1.0
  O  O47  1  0.19806000  0.29906000  0.60581000  1.0
  F  F48  1  0.37556000  0.84385000  0.45280000  1.0
  F  F49  1  0.62445000  0.15615000  0.54720000  1.0
  F  F50  1  0.42027000  0.75777000  0.23649000  1.0
  F  F51  1  0.57973000  0.24223000  0.76352000  1.0
  F  F52  1  0.22713000  0.94065000  0.24657000  1.0
  F  F53  1  0.77287000  0.05935000  0.75343000  1.0
