# generated using pymatgen
data_Cu2H12C18N4ClO2
_symmetry_space_group_name_H-M   'P 1'
_cell_length_a   7.81636000
_cell_length_b   7.81634000
_cell_length_c   13.25330000
_cell_angle_alpha   89.99990000
_cell_angle_beta   89.99970000
_cell_angle_gamma   98.63860000
_symmetry_Int_Tables_number   1
_chemical_formula_structural   Cu2H12C18N4ClO2
_chemical_formula_sum   'Cu4 H24 C36 N8 Cl2 O4'
_cell_volume   800.52882445
_cell_formula_units_Z   2
loop_
 _symmetry_equiv_pos_site_id
 _symmetry_equiv_pos_as_xyz
  1  'x, y, z'
loop_
 _atom_site_type_symbol
 _atom_site_label
 _atom_site_symmetry_multiplicity
 _atom_site_fract_x
 _atom_site_fract_y
 _atom_site_fract_z
 _atom_site_occupancy
  Cu  Cu0  1  0.12671000  0.72018000  0.75000000  1.0
  Cu  Cu1  1  0.27982000  0.87328000  0.25000000  1.0
  Cu  Cu2  1  0.50894000  0.49106000  0.50000000  1.0
  Cu  Cu3  1  0.50894000  0.49106000  0.00000000  1.0
  H  H4  1  0.06902000  0.69666000  0.52363000  1.0
  H  H5  1  0.30334000  0.93097000  0.47638000  1.0
  H  H6  1  0.30334000  0.93097000  0.02362000  1.0
  H  H7  1  0.06902000  0.69666000  0.97638000  1.0
  H  H8  1  0.83986000  0.76751000  0.40759000  1.0
  H  H9  1  0.23249000  0.16013000  0.59241000  1.0
  H  H10  1  0.23249000  0.16013000  0.90758000  1.0
  H  H11  1  0.83986000  0.76750000  0.09242000  1.0
  H  H12  1  0.58842000  0.89661000  0.48242000  1.0
  H  H13  1  0.10339000  0.41157000  0.51758000  1.0
  H  H14  1  0.10339000  0.41157000  0.98242000  1.0
  H  H15  1  0.58843000  0.89660000  0.01759000  1.0
  H  H16  1  0.57524000  0.93724000  0.66947000  1.0
  H  H17  1  0.06277000  0.42476000  0.33053000  1.0
  H  H18  1  0.06276000  0.42475000  0.16947000  1.0
  H  H19  1  0.57524000  0.93723000  0.83054000  1.0
  H  H20  1  0.76747000  0.34655000  0.56260000  1.0
  H  H21  1  0.65346000  0.23252000  0.43740000  1.0
  H  H22  1  0.65346000  0.23252000  0.06260000  1.0
  H  H23  1  0.76748000  0.34655000  0.93740000  1.0
  H  H24  1  0.99603000  0.22047000  0.65703000  1.0
  H  H25  1  0.77954000  0.00397000  0.34296000  1.0
  H  H26  1  0.77954000  0.00397000  0.15704000  1.0
  H  H27  1  0.99603000  0.22047000  0.84296000  1.0
  C  C28  1  0.95665000  0.74857000  0.55225000  1.0
  C  C29  1  0.25144000  0.04335000  0.44775000  1.0
  C  C30  1  0.25144000  0.04334000  0.05225000  1.0
  C  C31  1  0.95665000  0.74856000  0.94775000  1.0
  C  C32  1  0.82784000  0.79070000  0.48846000  1.0
  C  C33  1  0.20931000  0.17215000  0.51154000  1.0
  C  C34  1  0.20930000  0.17215000  0.98846000  1.0
  C  C35  1  0.82785000  0.79069000  0.01155000  1.0
  C  C36  1  0.69041000  0.86155000  0.53083000  1.0
  C  C37  1  0.13846000  0.30958000  0.46917000  1.0
  C  C38  1  0.13845000  0.30958000  0.03083000  1.0
  C  C39  1  0.69042000  0.86155000  0.96917000  1.0
  C  C40  1  0.68305000  0.88436000  0.63491000  1.0
  C  C41  1  0.11565000  0.31694000  0.36509000  1.0
  C  C42  1  0.11565000  0.31694000  0.13490000  1.0
  C  C43  1  0.68306000  0.88435000  0.86510000  1.0
  C  C44  1  0.81308000  0.83188000  0.69460000  1.0
  C  C45  1  0.16813000  0.18692000  0.30540000  1.0
  C  C46  1  0.16813000  0.18692000  0.19459000  1.0
  C  C47  1  0.81308000  0.83187000  0.80541000  1.0
  C  C48  1  0.38566000  0.54101000  0.69425000  1.0
  C  C49  1  0.45899000  0.61434000  0.30575000  1.0
  C  C50  1  0.45899000  0.61434000  0.19425000  1.0
  C  C51  1  0.38566000  0.54101000  0.80575000  1.0
  C  C52  1  0.63415000  0.40774000  0.69637000  1.0
  C  C53  1  0.59227000  0.36585000  0.30363000  1.0
  C  C54  1  0.59227000  0.36585000  0.19637000  1.0
  C  C55  1  0.63415000  0.40773000  0.80363000  1.0
  C  C56  1  0.76725000  0.34202000  0.64491000  1.0
  C  C57  1  0.65798000  0.23275000  0.35509000  1.0
  C  C58  1  0.65799000  0.23275000  0.14492000  1.0
  C  C59  1  0.76725000  0.34202000  0.85508000  1.0
  C  C60  1  0.89558000  0.27493000  0.69713000  1.0
  C  C61  1  0.72508000  0.10442000  0.30287000  1.0
  C  C62  1  0.72508000  0.10442000  0.19713000  1.0
  C  C63  1  0.89558000  0.27493000  0.80286000  1.0
  N  N64  1  0.94855000  0.76826000  0.65235000  1.0
  N  N65  1  0.23174000  0.05144000  0.34765000  1.0
  N  N66  1  0.23174000  0.05144000  0.15235000  1.0
  N  N67  1  0.94856000  0.76826000  0.84765000  1.0
  N  N68  1  0.50738000  0.47573000  0.64259000  1.0
  N  N69  1  0.52428000  0.49262000  0.35741000  1.0
  N  N70  1  0.52428000  0.49262000  0.14259000  1.0
  N  N71  1  0.50738000  0.47573000  0.85741000  1.0
  Cl  Cl72  1  0.30454000  0.01823000  0.75000000  1.0
  Cl  Cl73  1  0.98177000  0.69546000  0.25000000  1.0
  O  O74  1  0.26628000  0.60977000  0.64944000  1.0
  O  O75  1  0.39023000  0.73372000  0.35056000  1.0
  O  O76  1  0.39023000  0.73372000  0.14944000  1.0
  O  O77  1  0.26628000  0.60977000  0.85056000  1.0
