# generated using pymatgen
data_Cu3H16C8S2(Cl3O)2
_symmetry_space_group_name_H-M   'P 1'
_cell_length_a   7.26984000
_cell_length_b   7.78719000
_cell_length_c   9.34834000
_cell_angle_alpha   66.59590000
_cell_angle_beta   73.22430000
_cell_angle_gamma   67.69240000
_symmetry_Int_Tables_number   1
_chemical_formula_structural   Cu3H16C8S2(Cl3O)2
_chemical_formula_sum   'Cu3 H16 C8 S2 Cl6 O2'
_cell_volume   443.37248279
_cell_formula_units_Z   1
loop_
 _symmetry_equiv_pos_site_id
 _symmetry_equiv_pos_as_xyz
  1  'x, y, z'
loop_
 _atom_site_type_symbol
 _atom_site_label
 _atom_site_symmetry_multiplicity
 _atom_site_fract_x
 _atom_site_fract_y
 _atom_site_fract_z
 _atom_site_occupancy
  Cu  Cu0  1  0.85661000  0.07943000  0.35565000  1.0
  Cu  Cu1  1  0.14257000  0.92086000  0.64560000  1.0
  Cu  Cu2  1  0.00043000  0.99961000  0.99920000  1.0
  H  H3  1  0.14167000  0.54998000  0.31879000  1.0
  H  H4  1  0.85808000  0.45093000  0.68079000  1.0
  H  H5  1  0.12636000  0.52178000  0.14257000  1.0
  H  H6  1  0.87386000  0.47754000  0.85757000  1.0
  H  H7  1  0.32945000  0.20629000  0.30918000  1.0
  H  H8  1  0.66952000  0.79390000  0.69232000  1.0
  H  H9  1  0.48859000  0.30241000  0.13147000  1.0
  H  H10  1  0.51113000  0.69611000  0.86988000  1.0
  H  H11  1  0.71712000  0.50608000  0.11592000  1.0
  H  H12  1  0.28321000  0.49299000  0.88458000  1.0
  H  H13  1  0.71193000  0.57302000  0.27901000  1.0
  H  H14  1  0.28776000  0.42735000  0.72100000  1.0
  H  H15  1  0.48257000  0.84179000  0.09524000  1.0
  H  H16  1  0.51841000  0.15767000  0.90337000  1.0
  H  H17  1  0.34723000  0.75434000  0.28794000  1.0
  H  H18  1  0.65281000  0.24699000  0.71061000  1.0
  C  C19  1  0.39467000  0.32679000  0.24101000  1.0
  C  C20  1  0.60488000  0.67293000  0.75991000  1.0
  C  C21  1  0.22922000  0.52308000  0.20791000  1.0
  C  C22  1  0.77083000  0.47682000  0.79208000  1.0
  C  C23  1  0.43486000  0.71564000  0.18172000  1.0
  C  C24  1  0.56550000  0.28442000  0.81742000  1.0
  C  C25  1  0.62234000  0.54161000  0.22139000  1.0
  C  C26  1  0.37761000  0.45833000  0.77871000  1.0
  S  S27  1  0.55309000  0.32548000  0.35917000  1.0
  S  S28  1  0.44639000  0.67485000  0.64151000  1.0
  Cl  Cl29  1  0.95577000  0.22211000  0.48280000  1.0
  Cl  Cl30  1  0.04433000  0.77843000  0.51730000  1.0
  Cl  Cl31  1  0.77639000  0.92190000  0.23317000  1.0
  Cl  Cl32  1  0.22437000  0.07955000  0.76585000  1.0
  Cl  Cl33  1  0.08466000  0.17969000  0.09682000  1.0
  Cl  Cl34  1  0.91530000  0.81984000  0.90316000  1.0
  O  O35  1  0.30817000  0.68302000  0.10835000  1.0
  O  O36  1  0.69232000  0.31645000  0.89103000  1.0
