# generated using pymatgen
data_Zn3H65C93N9O13
_symmetry_space_group_name_H-M   'P 1'
_cell_length_a   20.90660000
_cell_length_b   21.13900000
_cell_length_c   21.51070000
_cell_angle_alpha   61.09870000
_cell_angle_beta   64.02640000
_cell_angle_gamma   83.76840000
_symmetry_Int_Tables_number   1
_chemical_formula_structural   Zn3H65C93N9O13
_chemical_formula_sum   'Zn6 H130 C186 N18 O26'
_cell_volume   7417.42504837
_cell_formula_units_Z   2
loop_
 _symmetry_equiv_pos_site_id
 _symmetry_equiv_pos_as_xyz
  1  'x, y, z'
loop_
 _atom_site_type_symbol
 _atom_site_label
 _atom_site_symmetry_multiplicity
 _atom_site_fract_x
 _atom_site_fract_y
 _atom_site_fract_z
 _atom_site_occupancy
  Zn  Zn0  1  0.04537000  0.44504000  0.32843000  1.0
  Zn  Zn1  1  0.95462000  0.55496000  0.67157000  1.0
  Zn  Zn2  1  0.10072000  0.27367000  0.36067000  1.0
  Zn  Zn3  1  0.89928000  0.72633000  0.63932000  1.0
  Zn  Zn4  1  0.08400000  0.11316000  0.34671000  1.0
  Zn  Zn5  1  0.91599000  0.88685000  0.65329000  1.0
  H  H6  1  0.09825000  0.79871000  0.37437000  1.0
  H  H7  1  0.90175000  0.20130000  0.62562000  1.0
  H  H8  1  0.05466000  0.71381000  0.43766000  1.0
  H  H9  1  0.94535000  0.28620000  0.56232000  1.0
  H  H10  1  0.21954000  0.48019000  0.50301000  1.0
  H  H11  1  0.78046000  0.51980000  0.49700000  1.0
  H  H12  1  0.21623000  0.24681000  0.60883000  1.0
  H  H13  1  0.78376000  0.75318000  0.39118000  1.0
  H  H14  1  0.03656000  0.62402000  0.42848000  1.0
  H  H15  1  0.96345000  0.37599000  0.57150000  1.0
  H  H16  1  0.05863000  0.51024000  0.41993000  1.0
  H  H17  1  0.94137000  0.48977000  0.58006000  1.0
  H  H18  1  0.06115000  0.94580000  0.45434000  1.0
  H  H19  1  0.93885000  0.05420000  0.54566000  1.0
  H  H20  1  0.59019000  0.29366000  0.72454000  1.0
  H  H21  1  0.40980000  0.70633000  0.27547000  1.0
  H  H22  1  0.68235000  0.41199000  0.45555000  1.0
  H  H23  1  0.31764000  0.58799000  0.54446000  1.0
  H  H24  1  0.16113000  0.47666000  0.42585000  1.0
  H  H25  1  0.83886000  0.52333000  0.57416000  1.0
  H  H26  1  0.46359000  0.45936000  0.57122000  1.0
  H  H27  1  0.53642000  0.54063000  0.42878000  1.0
  H  H28  1  0.83263000  0.35517000  0.59746000  1.0
  H  H29  1  0.16738000  0.64484000  0.40253000  1.0
  H  H30  1  0.70094000  0.34989000  0.66916000  1.0
  H  H31  1  0.29906000  0.65012000  0.33084000  1.0
  H  H32  1  0.00816000  0.58778000  0.23212000  1.0
  H  H33  1  0.99182000  0.41222000  0.76789000  1.0
  H  H34  1  0.81487000  0.42129000  0.38374000  1.0
  H  H35  1  0.18512000  0.57870000  0.61626000  1.0
  H  H36  1  0.99326000  0.98536000  0.24778000  1.0
  H  H37  1  0.00673000  0.01466000  0.75221000  1.0
  H  H38  1  0.40339000  0.29814000  0.64340000  1.0
  H  H39  1  0.59661000  0.70187000  0.35659000  1.0
  H  H40  1  0.42975000  0.43609000  0.77330000  1.0
  H  H41  1  0.57024000  0.56390000  0.22671000  1.0
  H  H42  1  0.27162000  0.49976000  0.95206000  1.0
  H  H43  1  0.72837000  0.50024000  0.04794000  1.0
  H  H44  1  0.26491000  0.44397000  0.70875000  1.0
  H  H45  1  0.73509000  0.55603000  0.29126000  1.0
  H  H46  1  0.45854000  0.29000000  0.79128000  1.0
  H  H47  1  0.54146000  0.71000000  0.20873000  1.0
  H  H48  1  0.16997000  0.27766000  0.08292000  1.0
  H  H49  1  0.83002000  0.72232000  0.91709000  1.0
  H  H50  1  0.02814000  0.83728000  0.45285000  1.0
  H  H51  1  0.97186000  0.16272000  0.54714000  1.0
  H  H52  1  0.15501000  0.24402000  0.53385000  1.0
  H  H53  1  0.84498000  0.75597000  0.46616000  1.0
  H  H54  1  0.17908000  0.31518000  0.95757000  1.0
  H  H55  1  0.82092000  0.68482000  0.04243000  1.0
  H  H56  1  0.33639000  0.29352000  0.57509000  1.0
  H  H57  1  0.66361000  0.70649000  0.42490000  1.0
  H  H58  1  0.36536000  0.44268000  0.89671000  1.0
  H  H59  1  0.63463000  0.55731000  0.10330000  1.0
  H  H60  1  0.98378000  0.70745000  0.23100000  1.0
  H  H61  1  0.01621000  0.29255000  0.76900000  1.0
  H  H62  1  0.09951000  0.29206000  0.20074000  1.0
  H  H63  1  0.90049000  0.70794000  0.79927000  1.0
  H  H64  1  0.59556000  0.46484000  0.50456000  1.0
  H  H65  1  0.40444000  0.53515000  0.49544000  1.0
  H  H66  1  0.19865000  0.44027000  0.63915000  1.0
  H  H67  1  0.80134000  0.55973000  0.36086000  1.0
  H  H68  1  0.24314000  0.30937000  0.83378000  1.0
  H  H69  1  0.75686000  0.69063000  0.16622000  1.0
  H  H70  1  0.19997000  0.51348000  0.07173000  1.0
  H  H71  1  0.80003000  0.48650000  0.92828000  1.0
  H  H72  1  0.02458000  0.08824000  0.26144000  1.0
  H  H73  1  0.97541000  0.91177000  0.73857000  1.0
  H  H74  1  0.30356000  0.22684000  0.44847000  1.0
  H  H75  1  0.69645000  0.77315000  0.55152000  1.0
  H  H76  1  0.74057000  0.05483000  0.53133000  1.0
  H  H77  1  0.25944000  0.94517000  0.46867000  1.0
  H  H78  1  0.74820000  0.25954000  0.52938000  1.0
  H  H79  1  0.25180000  0.74047000  0.47061000  1.0
  H  H80  1  0.25832000  0.19030000  0.87272000  1.0
  H  H81  1  0.74168000  0.80970000  0.12728000  1.0
  H  H82  1  0.87242000  0.07486000  0.45644000  1.0
  H  H83  1  0.12758000  0.92515000  0.54356000  1.0
  H  H84  1  0.46920000  0.06002000  0.81113000  1.0
  H  H85  1  0.53081000  0.93998000  0.18886000  1.0
  H  H86  1  0.51919000  0.21013000  0.68753000  1.0
  H  H87  1  0.48082000  0.78988000  0.31247000  1.0
  H  H88  1  0.50406000  0.05668000  0.61521000  1.0
  H  H89  1  0.49595000  0.94333000  0.38479000  1.0
  H  H90  1  0.14085000  0.14635000  0.12090000  1.0
  H  H91  1  0.85916000  0.85363000  0.87911000  1.0
  H  H92  1  0.20093000  0.01095000  0.63973000  1.0
  H  H93  1  0.79907000  0.98906000  0.36027000  1.0
  H  H94  1  0.63570000  0.07122000  0.54476000  1.0
  H  H95  1  0.36431000  0.92879000  0.45524000  1.0
  H  H96  1  0.22888000  0.23966000  0.24264000  1.0
  H  H97  1  0.77112000  0.76034000  0.75737000  1.0
  H  H98  1  0.23320000  0.22437000  0.38282000  1.0
  H  H99  1  0.76681000  0.77563000  0.61717000  1.0
  H  H100  1  0.19403000  0.13771000  0.99759000  1.0
  H  H101  1  0.80597000  0.86227000  0.00241000  1.0
  H  H102  1  0.39241000  0.19076000  0.47773000  1.0
  H  H103  1  0.60759000  0.80923000  0.52227000  1.0
  H  H104  1  0.41598000  0.06229000  0.93723000  1.0
  H  H105  1  0.58403000  0.93771000  0.06277000  1.0
  H  H106  1  0.31029000  0.18679000  0.74816000  1.0
  H  H107  1  0.68971000  0.81322000  0.25184000  1.0
  H  H108  1  0.13079000  0.00906000  0.57292000  1.0
  H  H109  1  0.86920000  0.99094000  0.42709000  1.0
  H  H110  1  0.46395000  0.19458000  0.54126000  1.0
  H  H111  1  0.53606000  0.80541000  0.45874000  1.0
  H  H112  1  0.34408000  0.12776000  0.12730000  1.0
  H  H113  1  0.65592000  0.87223000  0.87271000  1.0
  H  H114  1  0.40002000  0.12372000  0.00066000  1.0
  H  H115  1  0.59999000  0.87628000  0.99934000  1.0
  H  H116  1  0.88045000  0.27498000  0.45961000  1.0
  H  H117  1  0.11955000  0.72503000  0.54038000  1.0
  H  H118  1  0.29469000  0.05245000  0.77042000  1.0
  H  H119  1  0.70531000  0.94756000  0.22959000  1.0
  H  H120  1  0.22122000  0.05204000  0.70708000  1.0
  H  H121  1  0.77877000  0.94798000  0.29292000  1.0
  H  H122  1  0.65015000  0.22182000  0.62116000  1.0
  H  H123  1  0.34985000  0.77818000  0.37884000  1.0
  H  H124  1  0.28624000  0.43595000  0.15077000  1.0
  H  H125  1  0.71376000  0.56405000  0.84923000  1.0
  H  H126  1  0.37306000  0.42943000  0.08452000  1.0
  H  H127  1  0.62694000  0.57057000  0.91547000  1.0
  H  H128  1  0.35169000  0.39836000  0.18594000  1.0
  H  H129  1  0.64831000  0.60164000  0.81405000  1.0
  H  H130  1  0.40132000  0.29976000  0.10465000  1.0
  H  H131  1  0.59868000  0.70023000  0.89536000  1.0
  H  H132  1  0.34465000  0.33394000  0.05547000  1.0
  H  H133  1  0.65535000  0.66605000  0.94454000  1.0
  H  H134  1  0.32105000  0.24491000  0.14022000  1.0
  H  H135  1  0.67895000  0.75508000  0.85980000  1.0
  C  C136  1  0.00996000  0.67695000  0.32795000  1.0
  C  C137  1  0.99004000  0.32306000  0.67204000  1.0
  C  C138  1  0.22334000  0.36390000  0.56025000  1.0
  C  C139  1  0.77665000  0.63610000  0.43976000  1.0
  C  C140  1  0.99638000  0.74700000  0.32491000  1.0
  C  C141  1  0.00362000  0.25301000  0.67508000  1.0
  C  C142  1  0.15455000  0.35994000  0.47470000  1.0
  C  C143  1  0.84544000  0.64006000  0.52531000  1.0
  C  C144  1  0.01118000  0.90294000  0.34674000  1.0
  C  C145  1  0.98882000  0.09707000  0.65325000  1.0
  C  C146  1  0.68149000  0.38122000  0.56767000  1.0
  C  C147  1  0.31851000  0.61877000  0.43233000  1.0
  C  C148  1  0.20524000  0.42820000  0.51011000  1.0
  C  C149  1  0.79476000  0.57179000  0.48990000  1.0
  C  C150  1  0.26223000  0.36633000  0.60226000  1.0
  C  C151  1  0.73776000  0.63366000  0.39775000  1.0
  C  C152  1  0.10436000  0.41233000  0.21521000  1.0
  C  C153  1  0.89564000  0.58766000  0.78480000  1.0
  C  C154  1  0.99542000  0.84528000  0.33504000  1.0
  C  C155  1  0.00459000  0.15473000  0.66495000  1.0
  C  C156  1  0.20488000  0.29751000  0.56821000  1.0
  C  C157  1  0.79511000  0.70249000  0.43180000  1.0
  C  C158  1  0.91208000  0.39763000  0.44127000  1.0
  C  C159  1  0.08792000  0.60238000  0.55872000  1.0
  C  C160  1  0.03057000  0.62022000  0.38257000  1.0
  C  C161  1  0.96943000  0.37979000  0.61742000  1.0
  C  C162  1  0.22606000  0.38773000  0.00830000  1.0
  C  C163  1  0.77394000  0.61226000  0.99170000  1.0
  C  C164  1  0.04272000  0.55592000  0.37876000  1.0
  C  C165  1  0.95729000  0.44409000  0.62123000  1.0
  C  C166  1  0.60317000  0.37900000  0.60900000  1.0
  C  C167  1  0.39683000  0.62100000  0.39100000  1.0
  C  C168  1  0.33831000  0.37064000  0.68172000  1.0
  C  C169  1  0.66169000  0.62936000  0.31828000  1.0
  C  C170  1  0.04572000  0.95176000  0.40974000  1.0
  C  C171  1  0.95428000  0.04825000  0.59025000  1.0
  C  C172  1  0.56308000  0.33133000  0.69060000  1.0
  C  C173  1  0.43692000  0.66867000  0.30941000  1.0
  C  C174  1  0.71505000  0.40105000  0.48676000  1.0
  C  C175  1  0.28494000  0.59894000  0.51325000  1.0
  C  C176  1  0.17222000  0.42638000  0.46710000  1.0
  C  C177  1  0.82777000  0.57362000  0.53291000  1.0
  C  C178  1  0.12146000  0.35726000  0.42685000  1.0
  C  C179  1  0.87854000  0.64273000  0.57316000  1.0
  C  C180  1  0.49179000  0.42308000  0.60442000  1.0
  C  C181  1  0.50821000  0.57691000  0.39558000  1.0
  C  C182  1  0.26662000  0.38029000  0.93667000  1.0
  C  C183  1  0.73338000  0.61971000  0.06333000  1.0
  C  C184  1  0.34098000  0.37269000  0.79407000  1.0
  C  C185  1  0.65902000  0.62731000  0.20592000  1.0
  C  C186  1  0.79928000  0.36813000  0.56664000  1.0
  C  C187  1  0.20072000  0.63188000  0.43335000  1.0
  C  C188  1  0.72522000  0.36429000  0.60685000  1.0
  C  C189  1  0.27478000  0.63570000  0.39315000  1.0
  C  C190  1  0.01413000  0.59913000  0.27379000  1.0
  C  C191  1  0.98586000  0.40088000  0.72621000  1.0
  C  C192  1  0.78910000  0.40591000  0.44630000  1.0
  C  C193  1  0.21090000  0.59408000  0.55370000  1.0
  C  C194  1  0.00807000  0.97501000  0.29417000  1.0
  C  C195  1  0.99193000  0.02500000  0.70583000  1.0
  C  C196  1  0.35819000  0.32898000  0.64287000  1.0
  C  C197  1  0.64181000  0.67103000  0.35712000  1.0
  C  C198  1  0.37469000  0.40958000  0.81366000  1.0
  C  C199  1  0.62530000  0.59041000  0.18635000  1.0
  C  C200  1  0.23458000  0.45376000  0.00687000  1.0
  C  C201  1  0.76542000  0.54623000  0.99313000  1.0
  C  C202  1  0.14527000  0.40403000  0.14375000  1.0
  C  C203  1  0.85474000  0.59596000  0.85625000  1.0
  C  C204  1  0.28069000  0.41108000  0.67926000  1.0
  C  C205  1  0.71931000  0.58892000  0.32074000  1.0
  C  C206  1  0.45226000  0.37445000  0.68555000  1.0
  C  C207  1  0.54774000  0.62555000  0.31445000  1.0
  C  C208  1  0.48891000  0.32869000  0.72850000  1.0
  C  C209  1  0.51109000  0.67130000  0.27150000  1.0
  C  C210  1  0.17640000  0.33001000  0.07929000  1.0
  C  C211  1  0.82360000  0.66998000  0.92071000  1.0
  C  C212  1  0.02903000  0.89155000  0.40681000  1.0
  C  C213  1  0.97097000  0.10846000  0.59319000  1.0
  C  C214  1  0.83222000  0.39005000  0.48555000  1.0
  C  C215  1  0.16778000  0.60995000  0.51445000  1.0
  C  C216  1  0.17024000  0.29556000  0.52670000  1.0
  C  C217  1  0.82975000  0.70443000  0.47331000  1.0
  C  C218  1  0.23424000  0.34167000  0.91758000  1.0
  C  C219  1  0.76576000  0.65832000  0.08242000  1.0
  C  C220  1  0.32039000  0.32660000  0.60444000  1.0
  C  C221  1  0.67960000  0.67340000  0.39556000  1.0
  C  C222  1  0.33792000  0.41327000  0.88338000  1.0
  C  C223  1  0.66207000  0.58673000  0.11663000  1.0
  C  C224  1  0.00083000  0.66495000  0.27324000  1.0
  C  C225  1  0.99917000  0.33506000  0.72675000  1.0
  C  C226  1  0.13691000  0.33778000  0.14613000  1.0
  C  C227  1  0.86309000  0.66221000  0.85388000  1.0
  C  C228  1  0.56565000  0.42515000  0.56709000  1.0
  C  C229  1  0.43435000  0.57484000  0.43291000  1.0
  C  C230  1  0.24346000  0.40880000  0.64011000  1.0
  C  C231  1  0.75654000  0.59119000  0.35990000  1.0
  C  C232  1  0.27023000  0.33808000  0.84790000  1.0
  C  C233  1  0.72977000  0.66192000  0.15209000  1.0
  C  C234  1  0.19437000  0.46202000  0.07325000  1.0
  C  C235  1  0.80563000  0.53797000  0.92675000  1.0
  C  C236  1  0.02489000  0.03156000  0.30180000  1.0
  C  C237  1  0.97510000  0.96845000  0.69820000  1.0
  C  C238  1  0.13852000  0.11431000  0.43128000  1.0
  C  C239  1  0.86148000  0.88569000  0.56872000  1.0
  C  C240  1  0.73332000  0.15621000  0.53556000  1.0
  C  C241  1  0.26669000  0.84379000  0.46443000  1.0
  C  C242  1  0.17800000  0.11613000  0.47303000  1.0
  C  C243  1  0.82200000  0.88387000  0.52697000  1.0
  C  C244  1  0.88452000  0.17674000  0.45247000  1.0
  C  C245  1  0.11548000  0.82326000  0.54753000  1.0
  C  C246  1  0.26693000  0.17814000  0.47547000  1.0
  C  C247  1  0.73307000  0.82186000  0.52453000  1.0
  C  C248  1  0.96426000  0.18745000  0.40990000  1.0
  C  C249  1  0.03574000  0.81256000  0.59010000  1.0
  C  C250  1  0.30129000  0.13064000  0.98923000  1.0
  C  C251  1  0.69872000  0.86935000  0.01077000  1.0
  C  C252  1  0.77009000  0.10467000  0.51399000  1.0
  C  C253  1  0.22991000  0.89534000  0.48601000  1.0
  C  C254  1  0.77454000  0.21767000  0.51533000  1.0
  C  C255  1  0.22546000  0.78233000  0.48467000  1.0
  C  C256  1  0.30384000  0.16038000  0.86056000  1.0
  C  C257  1  0.69617000  0.83963000  0.13943000  1.0
  C  C258  1  0.30110000  0.12065000  0.58718000  1.0
  C  C259  1  0.69890000  0.87936000  0.41282000  1.0
  C  C260  1  0.25846000  0.11876000  0.54868000  1.0
  C  C261  1  0.74154000  0.88124000  0.45132000  1.0
  C  C262  1  0.84443000  0.11536000  0.47199000  1.0
  C  C263  1  0.15557000  0.88464000  0.52801000  1.0
  C  C264  1  0.65425000  0.14723000  0.57750000  1.0
  C  C265  1  0.34575000  0.85278000  0.42250000  1.0
  C  C266  1  0.42292000  0.08875000  0.82481000  1.0
  C  C267  1  0.57709000  0.91125000  0.17518000  1.0
  C  C268  1  0.54471000  0.17898000  0.65690000  1.0
  C  C269  1  0.45529000  0.82103000  0.34310000  1.0
  C  C270  1  0.53636000  0.09301000  0.61625000  1.0
  C  C271  1  0.46364000  0.90700000  0.38375000  1.0
  C  C272  1  0.50229000  0.13210000  0.65666000  1.0
  C  C273  1  0.49772000  0.86791000  0.34334000  1.0
  C  C274  1  0.33301000  0.12714000  0.91508000  1.0
  C  C275  1  0.66700000  0.87286000  0.08492000  1.0
  C  C276  1  0.19772000  0.14169000  0.09379000  1.0
  C  C277  1  0.80229000  0.85830000  0.90621000  1.0
  C  C278  1  0.20817000  0.05807000  0.58342000  1.0
  C  C279  1  0.79182000  0.94194000  0.41658000  1.0
  C  C280  1  0.23946000  0.13868000  0.13113000  1.0
  C  C281  1  0.76055000  0.86132000  0.86886000  1.0
  C  C282  1  0.61084000  0.10116000  0.57697000  1.0
  C  C283  1  0.38916000  0.89884000  0.42303000  1.0
  C  C284  1  0.38462000  0.12351000  0.66051000  1.0
  C  C285  1  0.61538000  0.87649000  0.33949000  1.0
  C  C286  1  0.24412000  0.29427000  0.23039000  1.0
  C  C287  1  0.75588000  0.70573000  0.76962000  1.0
  C  C288  1  0.22707000  0.17727000  0.43850000  1.0
  C  C289  1  0.77293000  0.82273000  0.56150000  1.0
  C  C290  1  0.22797000  0.13735000  0.02440000  1.0
  C  C291  1  0.77204000  0.86264000  0.97560000  1.0
  C  C292  1  0.36992000  0.16096000  0.54216000  1.0
  C  C293  1  0.63008000  0.83904000  0.45784000  1.0
  C  C294  1  0.39312000  0.09093000  0.89545000  1.0
  C  C295  1  0.60689000  0.90908000  0.10454000  1.0
  C  C296  1  0.33333333  0.15899000  0.78968000  1.0
  C  C297  1  0.66666667  0.84101000  0.21032000  1.0
  C  C298  1  0.16900000  0.05649000  0.54598000  1.0
  C  C299  1  0.83099000  0.94352000  0.45402000  1.0
  C  C300  1  0.39398000  0.12369000  0.77025000  1.0
  C  C301  1  0.60603000  0.87632000  0.22974000  1.0
  C  C302  1  0.41082000  0.16299000  0.57768000  1.0
  C  C303  1  0.58919000  0.83700000  0.42232000  1.0
  C  C304  1  0.31230000  0.13122000  0.09714000  1.0
  C  C305  1  0.68770000  0.86878000  0.90286000  1.0
  C  C306  1  0.20712000  0.14096000  0.20743000  1.0
  C  C307  1  0.79288000  0.85903000  0.79257000  1.0
  C  C308  1  0.34282000  0.12779000  0.02714000  1.0
  C  C309  1  0.65719000  0.87220000  0.97286000  1.0
  C  C310  1  0.84885000  0.22731000  0.47546000  1.0
  C  C311  1  0.15115000  0.77270000  0.52453000  1.0
  C  C312  1  0.31593000  0.08305000  0.70617000  1.0
  C  C313  1  0.68406000  0.91696000  0.29383000  1.0
  C  C314  1  0.27504000  0.08233000  0.67008000  1.0
  C  C315  1  0.72495000  0.91768000  0.32993000  1.0
  C  C316  1  0.61901000  0.18561000  0.61879000  1.0
  C  C317  1  0.38099000  0.81439000  0.38121000  1.0
  C  C318  1  0.33052000  0.40289000  0.14548000  1.0
  C  C319  1  0.66948000  0.59711000  0.85452000  1.0
  C  C320  1  0.34541000  0.30082000  0.11328000  1.0
  C  C321  1  0.65459000  0.69918000  0.88673000  1.0
  N  N322  1  0.02128000  0.77900000  0.35411000  1.0
  N  N323  1  0.97873000  0.22101000  0.64587000  1.0
  N  N324  1  0.04470000  0.02042000  0.35786000  1.0
  N  N325  1  0.95529000  0.97959000  0.64214000  1.0
  N  N326  1  0.95683000  0.85250000  0.29660000  1.0
  N  N327  1  0.04318000  0.14751000  0.70339000  1.0
  N  N328  1  0.07511000  0.75534000  0.37936000  1.0
  N  N329  1  0.92490000  0.24467000  0.62062000  1.0
  N  N330  1  0.37663000  0.37147000  0.72190000  1.0
  N  N331  1  0.62337000  0.62854000  0.27810000  1.0
  N  N332  1  0.03563000  0.54550000  0.32505000  1.0
  N  N333  1  0.96436000  0.45451000  0.67495000  1.0
  N  N334  1  0.95671000  0.79135000  0.29121000  1.0
  N  N335  1  0.04329000  0.20866000  0.70878000  1.0
  N  N336  1  0.42640000  0.12469000  0.69667000  1.0
  N  N337  1  0.57360000  0.87532000  0.30332000  1.0
  N  N338  1  0.30494000  0.33090000  0.16549000  1.0
  N  N339  1  0.69506000  0.66910000  0.83451000  1.0
  O  O340  1  0.10341000  0.47534000  0.20957000  1.0
  O  O341  1  0.89660000  0.52465000  0.79043000  1.0
  O  O342  1  0.10280000  0.29430000  0.44072000  1.0
  O  O343  1  0.89720000  0.70570000  0.55928000  1.0
  O  O344  1  0.93904000  0.42524000  0.36555000  1.0
  O  O345  1  0.06095000  0.57477000  0.63444000  1.0
  O  O346  1  0.06926000  0.35589000  0.28291000  1.0
  O  O347  1  0.93074000  0.64410000  0.71709000  1.0
  O  O348  1  0.95073000  0.37873000  0.47761000  1.0
  O  O349  1  0.04927000  0.62127000  0.52237000  1.0
  O  O350  1  0.11485000  0.41793000  0.37482000  1.0
  O  O351  1  0.88515000  0.58207000  0.62519000  1.0
  O  O352  1  0.99753000  0.22567000  0.42051000  1.0
  O  O353  1  0.00247000  0.77433000  0.57950000  1.0
  O  O354  1  0.13593000  0.17460000  0.37334000  1.0
  O  O355  1  0.86408000  0.82540000  0.62666000  1.0
  O  O356  1  0.10899000  0.05523000  0.44808000  1.0
  O  O357  1  0.89099000  0.94476000  0.55194000  1.0
  O  O358  1  0.14046000  0.15378000  0.23090000  1.0
  O  O359  1  0.85955000  0.84622000  0.76910000  1.0
  O  O360  1  0.20756000  0.32004000  0.27553000  1.0
  O  O361  1  0.79244000  0.67995000  0.72448000  1.0
  O  O362  1  0.99281000  0.15628000  0.36766000  1.0
  O  O363  1  0.00719000  0.84373000  0.63233000  1.0
  O  O364  1  0.24363000  0.13099000  0.24370000  1.0
  O  O365  1  0.75636000  0.86900000  0.75631000  1.0
