# generated using pymatgen
data_AgH6C3N7O3
_symmetry_space_group_name_H-M   'P 1'
_cell_length_a   6.78691000
_cell_length_b   10.31690000
_cell_length_c   11.58630000
_cell_angle_alpha   89.99970000
_cell_angle_beta   89.99990000
_cell_angle_gamma   101.37100000
_symmetry_Int_Tables_number   1
_chemical_formula_structural   AgH6C3N7O3
_chemical_formula_sum   'Ag4 H24 C12 N28 O12'
_cell_volume   795.34687218
_cell_formula_units_Z   4
loop_
 _symmetry_equiv_pos_site_id
 _symmetry_equiv_pos_as_xyz
  1  'x, y, z'
loop_
 _atom_site_type_symbol
 _atom_site_label
 _atom_site_symmetry_multiplicity
 _atom_site_fract_x
 _atom_site_fract_y
 _atom_site_fract_z
 _atom_site_occupancy
  Ag  Ag0  1  0.78119000  0.09980000  0.62356000  1.0
  Ag  Ag1  1  0.71880000  0.40020000  0.12356000  1.0
  Ag  Ag2  1  0.21881000  0.90020000  0.37644000  1.0
  Ag  Ag3  1  0.28119000  0.59980000  0.87644000  1.0
  H  H4  1  0.99884000  0.93662000  0.90926000  1.0
  H  H5  1  0.50115000  0.56338000  0.40926000  1.0
  H  H6  1  0.00116000  0.06338000  0.09075000  1.0
  H  H7  1  0.49885000  0.43662000  0.59074000  1.0
  H  H8  1  0.99212000  0.95751000  0.75702000  1.0
  H  H9  1  0.50788000  0.54249000  0.25703000  1.0
  H  H10  1  0.00788000  0.04248000  0.24297000  1.0
  H  H11  1  0.49213000  0.45752000  0.74298000  1.0
  H  H12  1  0.15885000  0.30427000  0.14092000  1.0
  H  H13  1  0.34114000  0.19573000  0.64092000  1.0
  H  H14  1  0.84115000  0.69573000  0.85908000  1.0
  H  H15  1  0.65885000  0.80428000  0.35908000  1.0
  H  H16  1  0.20233000  0.46145000  0.08031000  1.0
  H  H17  1  0.29766000  0.03855000  0.58031000  1.0
  H  H18  1  0.79766000  0.53854000  0.91969000  1.0
  H  H19  1  0.70233000  0.96146000  0.41969000  1.0
  H  H20  1  0.02332000  0.51289000  0.69597000  1.0
  H  H21  1  0.47669000  0.98711000  0.19598000  1.0
  H  H22  1  0.97669000  0.48710000  0.30403000  1.0
  H  H23  1  0.52331000  0.01289000  0.80403000  1.0
  H  H24  1  0.96511000  0.37191000  0.60852000  1.0
  H  H25  1  0.53490000  0.12809000  0.10853000  1.0
  H  H26  1  0.03490000  0.62808000  0.39148000  1.0
  H  H27  1  0.46510000  0.87191000  0.89148000  1.0
  C  C28  1  0.02534000  0.12744000  0.85237000  1.0
  C  C29  1  0.47466000  0.37257000  0.35237000  1.0
  C  C30  1  0.97467000  0.87257000  0.14764000  1.0
  C  C31  1  0.52534000  0.62744000  0.64763000  1.0
  C  C32  1  0.10543000  0.30932000  0.96735000  1.0
  C  C33  1  0.39457000  0.19068000  0.46735000  1.0
  C  C34  1  0.89457000  0.69067000  0.03264000  1.0
  C  C35  1  0.60542000  0.80933000  0.53264000  1.0
  C  C36  1  0.03493000  0.33530000  0.77553000  1.0
  C  C37  1  0.46506000  0.16470000  0.27553000  1.0
  C  C38  1  0.96507000  0.66469000  0.22447000  1.0
  C  C39  1  0.53493000  0.83531000  0.72447000  1.0
  N  N40  1  0.99318000  0.20235000  0.75955000  1.0
  N  N41  1  0.50682000  0.29765000  0.25955000  1.0
  N  N42  1  0.00682000  0.79764000  0.24045000  1.0
  N  N43  1  0.49318000  0.70236000  0.74045000  1.0
  N  N44  1  0.07147000  0.17731000  0.95880000  1.0
  N  N45  1  0.42852000  0.32269000  0.45880000  1.0
  N  N46  1  0.92853000  0.82269000  0.04120000  1.0
  N  N47  1  0.57148000  0.67732000  0.54120000  1.0
  N  N48  1  0.10226000  0.39349000  0.87718000  1.0
  N  N49  1  0.39773000  0.10650000  0.37718000  1.0
  N  N50  1  0.89774000  0.60650000  0.12282000  1.0
  N  N51  1  0.60226000  0.89349000  0.62282000  1.0
  N  N52  1  0.00828000  0.99752000  0.83792000  1.0
  N  N53  1  0.49172000  0.50247000  0.33792000  1.0
  N  N54  1  0.99172000  0.00246000  0.16208000  1.0
  N  N55  1  0.50829000  0.49754000  0.66208000  1.0
  N  N56  1  0.14289000  0.36309000  0.07277000  1.0
  N  N57  1  0.35710000  0.13690000  0.57277000  1.0
  N  N58  1  0.85712000  0.63691000  0.92723000  1.0
  N  N59  1  0.64289000  0.86310000  0.42723000  1.0
  N  N60  1  0.00733000  0.41272000  0.68708000  1.0
  N  N61  1  0.49268000  0.08728000  0.18708000  1.0
  N  N62  1  0.99267000  0.58728000  0.31292000  1.0
  N  N63  1  0.50732000  0.91272000  0.81292000  1.0
  N  N64  1  0.93237000  0.23319000  0.39128000  1.0
  N  N65  1  0.56764000  0.26680000  0.89128000  1.0
  N  N66  1  0.06763000  0.76680000  0.60872000  1.0
  N  N67  1  0.43237000  0.73320000  0.10872000  1.0
  O  O68  1  0.00631000  0.30052000  0.30538000  1.0
  O  O69  1  0.49370000  0.19948000  0.80538000  1.0
  O  O70  1  0.99370000  0.69948000  0.69461000  1.0
  O  O71  1  0.50631000  0.80052000  0.19462000  1.0
  O  O72  1  0.93193000  0.10986000  0.39566000  1.0
  O  O73  1  0.56807000  0.39013000  0.89566000  1.0
  O  O74  1  0.06807000  0.89014000  0.60434000  1.0
  O  O75  1  0.43193000  0.60987000  0.10434000  1.0
  O  O76  1  0.85561000  0.28728000  0.47406000  1.0
  O  O77  1  0.64440000  0.21272000  0.97405000  1.0
  O  O78  1  0.14439000  0.71272000  0.52594000  1.0
  O  O79  1  0.35561000  0.78728000  0.02594000  1.0
