# generated using pymatgen
data_Zn4H24C42S3O19
_symmetry_space_group_name_H-M   'P 1'
_cell_length_a   24.68960000
_cell_length_b   25.05361138
_cell_length_c   25.16000000
_cell_angle_alpha   90.22073355
_cell_angle_beta   119.30000000
_cell_angle_gamma   119.41385447
_symmetry_Int_Tables_number   1
_chemical_formula_structural   Zn4H24C42S3O19
_chemical_formula_sum   'Zn8 H48 C84 S6 O38'
_cell_volume   11195.07549623
_cell_formula_units_Z   2
loop_
 _symmetry_equiv_pos_site_id
 _symmetry_equiv_pos_as_xyz
  1  'x, y, z'
loop_
 _atom_site_type_symbol
 _atom_site_label
 _atom_site_symmetry_multiplicity
 _atom_site_fract_x
 _atom_site_fract_y
 _atom_site_fract_z
 _atom_site_occupancy
  Zn  Zn0  1  0.92486000  0.88689000  0.93869000  1.0
  Zn  Zn1  1  0.05396000  0.01345000  0.93643000  1.0
  Zn  Zn2  1  0.05175000  0.01356000  0.06271000  1.0
  Zn  Zn3  1  0.92423000  0.01401000  0.93678000  1.0
  Zn  Zn4  1  0.05552000  0.57846000  0.49923000  1.0
  Zn  Zn5  1  0.92428000  0.44912000  0.49747000  1.0
  Zn  Zn6  1  0.05656000  0.45203000  0.49968000  1.0
  Zn  Zn7  1  0.93186000  0.45095000  0.37280000  1.0
  H  H8  1  0.12338000  0.92057000  0.87763000  1.0
  H  H9  1  0.16446000  0.85213000  0.85970000  1.0
  H  H10  1  0.96335000  0.68132000  0.82476000  1.0
  H  H11  1  0.92365000  0.75009000  0.84419000  1.0
  H  H12  1  0.14083000  0.76656000  0.75161000  1.0
  H  H13  1  0.09982000  0.70932000  0.64396000  1.0
  H  H14  1  0.93774000  0.53095000  0.64467000  1.0
  H  H15  1  0.97941000  0.58776000  0.75324000  1.0
  H  H16  1  0.01765000  0.92480000  0.19178000  1.0
  H  H17  1  0.97010000  0.85980000  0.25311000  1.0
  H  H18  1  0.83186000  0.68565000  0.09409000  1.0
  H  H19  1  0.87876000  0.75092000  0.03290000  1.0
  H  H20  1  0.99671000  0.77240000  0.33625000  1.0
  H  H21  1  0.04621000  0.71177000  0.39960000  1.0
  H  H22  1  0.85770000  0.53375000  0.24440000  1.0
  H  H23  1  0.80651000  0.59397000  0.18106000  1.0
  H  H24  1  0.71030000  0.92540000  0.76801000  1.0
  H  H25  1  0.58838000  0.85804000  0.65902000  1.0
  H  H26  1  0.57583000  0.68560000  0.69522000  1.0
  H  H27  1  0.69788000  0.75328000  0.80349000  1.0
  H  H28  1  0.41753000  0.77176000  0.60147000  1.0
  H  H29  1  0.29033000  0.71314000  0.58318000  1.0
  H  H30  1  0.27095000  0.53334000  0.55802000  1.0
  H  H31  1  0.39832000  0.59167000  0.57576000  1.0
  H  H32  1  0.26872000  0.07128000  0.19103000  1.0
  H  H33  1  0.39591000  0.08910000  0.25241000  1.0
  H  H34  1  0.41440000  0.12530000  0.09281000  1.0
  H  H35  1  0.28711000  0.10679000  0.03166000  1.0
  H  H36  1  0.56486000  0.20229000  0.33468000  1.0
  H  H37  1  0.68893000  0.30984000  0.39862000  1.0
  H  H38  1  0.71977000  0.29930000  0.24579000  1.0
  H  H39  1  0.59581000  0.19059000  0.18168000  1.0
  H  H40  1  0.96132000  0.17653000  0.88258000  1.0
  H  H41  1  0.00938000  0.28396000  0.86336000  1.0
  H  H42  1  0.14359000  0.25489000  0.82017000  1.0
  H  H43  1  0.09594000  0.14812000  0.84015000  1.0
  H  H44  1  0.98566000  0.34698000  0.75326000  1.0
  H  H45  1  0.93726000  0.36487000  0.64600000  1.0
  H  H46  1  0.12083000  0.38432000  0.64714000  1.0
  H  H47  1  0.16989000  0.36656000  0.75469000  1.0
  H  H48  1  0.84825000  0.06457000  0.03150000  1.0
  H  H49  1  0.81017000  0.08025000  0.10339000  1.0
  H  H50  1  0.01942000  0.12464000  0.26926000  1.0
  H  H51  1  0.05684000  0.10869000  0.19710000  1.0
  H  H52  1  0.84112000  0.19246000  0.18707000  1.0
  H  H53  1  0.88379000  0.30225000  0.24203000  1.0
  H  H54  1  0.04334000  0.30216000  0.42135000  1.0
  H  H55  1  0.00124000  0.19215000  0.36645000  1.0
  C  C56  1  0.00267000  0.88058000  0.88199000  1.0
  C  C57  1  0.02140000  0.83916000  0.86208000  1.0
  C  C58  1  0.08826000  0.86814000  0.86490000  1.0
  C  C59  1  0.11079000  0.83027000  0.85441000  1.0
  C  C60  1  0.06546000  0.76337000  0.84045000  1.0
  C  C61  1  0.99704000  0.73347000  0.83482000  1.0
  C  C62  1  0.97527000  0.77169000  0.84591000  1.0
  C  C63  1  0.06161000  0.67995000  0.75749000  1.0
  C  C64  1  0.09527000  0.71539000  0.72724000  1.0
  C  C65  1  0.07272000  0.68352000  0.66760000  1.0
  C  C66  1  0.01675000  0.61684000  0.63846000  1.0
  C  C67  1  0.98110000  0.58267000  0.66803000  1.0
  C  C68  1  0.00367000  0.61411000  0.72793000  1.0
  C  C69  1  0.99980000  0.58066000  0.57901000  1.0
  C  C70  1  0.97096000  0.88140000  0.06935000  1.0
  C  C71  1  0.95056000  0.84157000  0.10882000  1.0
  C  C72  1  0.97809000  0.87237000  0.17143000  1.0
  C  C73  1  0.95236000  0.83644000  0.20572000  1.0
  C  C74  1  0.89938000  0.76958000  0.17694000  1.0
  C  C75  1  0.87380000  0.73775000  0.11563000  1.0
  C  C76  1  0.89954000  0.77405000  0.08158000  1.0
  C  C77  1  0.89936000  0.68605000  0.25516000  1.0
  C  C78  1  0.96748000  0.72044000  0.31592000  1.0
  C  C79  1  0.99482000  0.68674000  0.35121000  1.0
  C  C80  1  0.95447000  0.61937000  0.32554000  1.0
  C  C81  1  0.88813000  0.58605000  0.26339000  1.0
  C  C82  1  0.85999000  0.61931000  0.22803000  1.0
  C  C83  1  0.97792000  0.58187000  0.36633000  1.0
  C  C84  1  0.78854000  0.88387000  0.85185000  1.0
  C  C85  1  0.71101000  0.84311000  0.79153000  1.0
  C  C86  1  0.67964000  0.87287000  0.75201000  1.0
  C  C87  1  0.61189000  0.83566000  0.69183000  1.0
  C  C88  1  0.57588000  0.76863000  0.67204000  1.0
  C  C89  1  0.60476000  0.73792000  0.71210000  1.0
  C  C90  1  0.67263000  0.77549000  0.77204000  1.0
  C  C91  1  0.41439000  0.68449000  0.58999000  1.0
  C  C92  1  0.38581000  0.71983000  0.59326000  1.0
  C  C93  1  0.31498000  0.68721000  0.58277000  1.0
  C  C94  1  0.27341000  0.61987000  0.56922000  1.0
  C  C95  1  0.30414000  0.58558000  0.56858000  1.0
  C  C96  1  0.37481000  0.61778000  0.57885000  1.0
  C  C97  1  0.19396000  0.58297000  0.55050000  1.0
  C  C98  1  0.19091000  0.06797000  0.06876000  1.0
  C  C99  1  0.27069000  0.08767000  0.10786000  1.0
  C  C100  1  0.30176000  0.08433000  0.17061000  1.0
  C  C101  1  0.37245000  0.09473000  0.20492000  1.0
  C  C102  1  0.41178000  0.10888000  0.17603000  1.0
  C  C103  1  0.38293000  0.11502000  0.11451000  1.0
  C  C104  1  0.31208000  0.10434000  0.08043000  1.0
  C  C105  1  0.57399000  0.19135000  0.25465000  1.0
  C  C106  1  0.59823000  0.22444000  0.31493000  1.0
  C  C107  1  0.66737000  0.28407000  0.35061000  1.0
  C  C108  1  0.71151000  0.31032000  0.32589000  1.0
  C  C109  1  0.68467000  0.27803000  0.26410000  1.0
  C  C110  1  0.61582000  0.21812000  0.22828000  1.0
  C  C111  1  0.79027000  0.36951000  0.36704000  1.0
  C  C112  1  0.00632000  0.09798000  0.88399000  1.0
  C  C113  1  0.02651000  0.15673000  0.86303000  1.0
  C  C114  1  0.00010000  0.19371000  0.86778000  1.0
  C  C115  1  0.02613000  0.25294000  0.85664000  1.0
  C  C116  1  0.07824000  0.27442000  0.84032000  1.0
  C  C117  1  0.10236000  0.23668000  0.83234000  1.0
  C  C118  1  0.07627000  0.17761000  0.84381000  1.0
  C  C119  1  0.07986000  0.35525000  0.75892000  1.0
  C  C120  1  0.01381000  0.35357000  0.72896000  1.0
  C  C121  1  0.98724000  0.36395000  0.66961000  1.0
  C  C122  1  0.02670000  0.37602000  0.64083000  1.0
  C  C123  1  0.09101000  0.37480000  0.67027000  1.0
  C  C124  1  0.11798000  0.36453000  0.72958000  1.0
  C  C125  1  0.00509000  0.39582000  0.58165000  1.0
  C  C126  1  0.97247000  0.06779000  0.06731000  1.0
  C  C127  1  0.95450000  0.08565000  0.11037000  1.0
  C  C128  1  0.88573000  0.07896000  0.08361000  1.0
  C  C129  1  0.86477000  0.08803000  0.12332000  1.0
  C  C130  1  0.91330000  0.10402000  0.18975000  1.0
  C  C131  1  0.98326000  0.11310000  0.21738000  1.0
  C  C132  1  0.00376000  0.10390000  0.17735000  1.0
  C  C133  1  0.91960000  0.18717000  0.27421000  1.0
  C  C134  1  0.88655000  0.21745000  0.23796000  1.0
  C  C135  1  0.90994000  0.27824000  0.26855000  1.0
  C  C136  1  0.96563000  0.30810000  0.33488000  1.0
  C  C137  1  0.00028000  0.27819000  0.36991000  1.0
  C  C138  1  0.97740000  0.21751000  0.33964000  1.0
  C  C139  1  0.98371000  0.36875000  0.37028000  1.0
  S  S140  1  0.10144000  0.71662000  0.83973000  1.0
  S  S141  1  0.85518000  0.72589000  0.21547000  1.0
  S  S142  1  0.49769000  0.72285000  0.59029000  1.0
  S  S143  1  0.49475000  0.10881000  0.21482000  1.0
  S  S144  1  0.12404000  0.35630000  0.84066000  1.0
  S  S145  1  0.88047000  0.10434000  0.23913000  1.0
  O  O146  1  0.98900000  0.98180000  0.96829000  1.0
  O  O147  1  0.04266000  0.94102000  0.89083000  1.0
  O  O148  1  0.94930000  0.85207000  0.89016000  1.0
  O  O149  1  0.07176000  0.66462000  0.86371000  1.0
  O  O150  1  0.18161000  0.76198000  0.86996000  1.0
  O  O151  1  0.94370000  0.52158000  0.55160000  1.0
  O  O152  1  0.04433000  0.61141000  0.56165000  1.0
  O  O153  1  0.01978000  0.94221000  0.09765000  1.0
  O  O154  1  0.93635000  0.85150000  0.01004000  1.0
  O  O155  1  0.77783000  0.67567000  0.16481000  1.0
  O  O156  1  0.87385000  0.77355000  0.26542000  1.0
  O  O157  1  0.94512000  0.52233000  0.33772000  1.0
  O  O158  1  0.02708000  0.61189000  0.42653000  1.0
  O  O159  1  0.81990000  0.94497000  0.86790000  1.0
  O  O160  1  0.81800000  0.85438000  0.88144000  1.0
  O  O161  1  0.50265000  0.67187000  0.57058000  1.0
  O  O162  1  0.49616000  0.76891000  0.55592000  1.0
  O  O163  1  0.16272000  0.52275000  0.54391000  1.0
  O  O164  1  0.16315000  0.61377000  0.54103000  1.0
  O  O165  1  0.15802000  0.05509000  0.09803000  1.0
  O  O166  1  0.16148000  0.06384000  0.00950000  1.0
  O  O167  1  0.49613000  0.08282000  0.16430000  1.0
  O  O168  1  0.49588000  0.07982000  0.26475000  1.0
  O  O169  1  0.82402000  0.39398000  0.33937000  1.0
  O  O170  1  0.81811000  0.38950000  0.42695000  1.0
  O  O171  1  0.96010000  0.08173000  0.90003000  1.0
  O  O172  1  0.03848000  0.06998000  0.88588000  1.0
  O  O173  1  0.20067000  0.37879000  0.86427000  1.0
  O  O174  1  0.10750000  0.38908000  0.87193000  1.0
  O  O175  1  0.04430000  0.40532000  0.55904000  1.0
  O  O176  1  0.95141000  0.40339000  0.55956000  1.0
  O  O177  1  0.92411000  0.04906000  0.00669000  1.0
  O  O178  1  0.03369000  0.07090000  0.09438000  1.0
  O  O179  1  0.91378000  0.08224000  0.29125000  1.0
  O  O180  1  0.79973000  0.07227000  0.19646000  1.0
  O  O181  1  0.03451000  0.39203000  0.43057000  1.0
  O  O182  1  0.94579000  0.39142000  0.33833000  1.0
  O  O183  1  0.99110000  0.48313000  0.46726000  1.0
