# generated using pymatgen
data_ZnH6C6(NO3)2
_symmetry_space_group_name_H-M   'P 1'
_cell_length_a   7.34588000
_cell_length_b   7.72263920
_cell_length_c   9.13467860
_cell_angle_alpha   70.60870199
_cell_angle_beta   85.72141969
_cell_angle_gamma   64.69936724
_symmetry_Int_Tables_number   1
_chemical_formula_structural   ZnH6C6(NO3)2
_chemical_formula_sum   'Zn2 H12 C12 N4 O12'
_cell_volume   440.54471820
_cell_formula_units_Z   2
loop_
 _symmetry_equiv_pos_site_id
 _symmetry_equiv_pos_as_xyz
  1  'x, y, z'
loop_
 _atom_site_type_symbol
 _atom_site_label
 _atom_site_symmetry_multiplicity
 _atom_site_fract_x
 _atom_site_fract_y
 _atom_site_fract_z
 _atom_site_occupancy
  Zn  Zn0  1  0.41398000  0.21933000  0.25627000  1.0
  Zn  Zn1  1  0.58603000  0.78066000  0.74372000  1.0
  H  H2  1  0.03803000  0.63153000  0.25350000  1.0
  H  H3  1  0.96197000  0.36846000  0.74649000  1.0
  H  H4  1  0.80489000  0.94338000  0.03139000  1.0
  H  H5  1  0.19511000  0.05663000  0.96862000  1.0
  H  H6  1  0.38056000  0.88883000  0.43514000  1.0
  H  H7  1  0.61945000  0.11117000  0.56485000  1.0
  H  H8  1  0.46397000  0.83604000  0.27785000  1.0
  H  H9  1  0.53603000  0.16396000  0.72215000  1.0
  H  H10  1  0.10604000  0.27190000  0.43638000  1.0
  H  H11  1  0.89397000  0.72808000  0.56362000  1.0
  H  H12  1  0.31335000  0.22065000  0.53142000  1.0
  H  H13  1  0.68667000  0.77933000  0.46858000  1.0
  C  C14  1  0.06319000  0.65234000  0.13098000  1.0
  C  C15  1  0.93681000  0.34766000  0.86903000  1.0
  C  C16  1  0.94160000  0.82454000  0.00926000  1.0
  C  C17  1  0.05841000  0.17544000  0.99075000  1.0
  C  C18  1  0.14954000  0.70483000  0.82998000  1.0
  C  C19  1  0.85046000  0.29519000  0.16999000  1.0
  C  C20  1  0.26201000  0.52246000  0.94946000  1.0
  C  C21  1  0.73795000  0.47758000  0.05054000  1.0
  C  C22  1  0.43031000  0.33798000  0.92365000  1.0
  C  C23  1  0.56969000  0.66201000  0.07635000  1.0
  C  C24  1  0.20086000  0.75310000  0.66132000  1.0
  C  C25  1  0.79916000  0.24690000  0.33868000  1.0
  N  N26  1  0.21807000  0.50147000  0.09801000  1.0
  N  N27  1  0.78191000  0.49853000  0.90201000  1.0
  N  N28  1  0.98566000  0.85151000  0.86062000  1.0
  N  N29  1  0.01436000  0.14847000  0.13939000  1.0
  O  O30  1  0.34353000  0.81210000  0.62890000  1.0
  O  O31  1  0.65645000  0.18790000  0.37112000  1.0
  O  O32  1  0.09815000  0.74962000  0.56113000  1.0
  O  O33  1  0.90182000  0.25041000  0.43888000  1.0
  O  O34  1  0.46454000  0.34868000  0.78506000  1.0
  O  O35  1  0.53543000  0.65134000  0.21491000  1.0
  O  O36  1  0.52181000  0.18636000  0.04558000  1.0
  O  O37  1  0.47818000  0.81365000  0.95442000  1.0
  O  O38  1  0.45618000  0.92346000  0.34232000  1.0
  O  O39  1  0.54383000  0.07653000  0.65768000  1.0
  O  O40  1  0.23249000  0.29469000  0.42995000  1.0
  O  O41  1  0.76753000  0.70529000  0.57005000  1.0
