# generated using pymatgen
data_CoH12C15S(NO)4
_symmetry_space_group_name_H-M   'P 1'
_cell_length_a   8.67123000
_cell_length_b   10.33690000
_cell_length_c   10.33690000
_cell_angle_alpha   75.63120000
_cell_angle_beta   71.73570000
_cell_angle_gamma   71.73650000
_symmetry_Int_Tables_number   1
_chemical_formula_structural   CoH12C15S(NO)4
_chemical_formula_sum   'Co2 H24 C30 S2 N8 O8'
_cell_volume   823.90208337
_cell_formula_units_Z   2
loop_
 _symmetry_equiv_pos_site_id
 _symmetry_equiv_pos_as_xyz
  1  'x, y, z'
loop_
 _atom_site_type_symbol
 _atom_site_label
 _atom_site_symmetry_multiplicity
 _atom_site_fract_x
 _atom_site_fract_y
 _atom_site_fract_z
 _atom_site_occupancy
  Co  Co0  1  0.50000000  0.32940000  0.67060000  1.0
  Co  Co1  1  0.50000000  0.67060000  0.32940000  1.0
  H  H2  1  0.80318000  0.49289000  0.73895000  1.0
  H  H3  1  0.19682000  0.26105000  0.50710000  1.0
  H  H4  1  0.19683000  0.50710000  0.26104000  1.0
  H  H5  1  0.80316000  0.73896000  0.49292000  1.0
  H  H6  1  0.66456000  0.43757000  0.98484000  1.0
  H  H7  1  0.33544000  0.01516000  0.56243000  1.0
  H  H8  1  0.33544000  0.56243000  0.01515000  1.0
  H  H9  1  0.66455000  0.98485000  0.43758000  1.0
  H  H10  1  0.82797000  0.32966000  0.15978000  1.0
  H  H11  1  0.17203000  0.84023000  0.67033000  1.0
  H  H12  1  0.17204000  0.67033000  0.84022000  1.0
  H  H13  1  0.82796000  0.15977000  0.32967000  1.0
  H  H14  1  0.11912000  0.44066000  0.65480000  1.0
  H  H15  1  0.88089000  0.34520000  0.55934000  1.0
  H  H16  1  0.88090000  0.55934000  0.34520000  1.0
  H  H17  1  0.11910000  0.65480000  0.44068000  1.0
  H  H18  1  0.46488000  0.22107000  0.99633000  1.0
  H  H19  1  0.53513000  0.00367000  0.77894000  1.0
  H  H20  1  0.53513000  0.77894000  0.00367000  1.0
  H  H21  1  0.46487000  0.99633000  0.22106000  1.0
  H  H22  1  0.27488000  0.24480000  0.24480000  1.0
  H  H23  1  0.72511000  0.75520000  0.75520000  1.0
  H  H24  1  0.05430000  0.27193000  0.27192000  1.0
  H  H25  1  0.94570000  0.72808000  0.72806000  1.0
  C  C26  1  0.88142000  0.44484000  0.81090000  1.0
  C  C27  1  0.11859000  0.18910000  0.55516000  1.0
  C  C28  1  0.11858000  0.55516000  0.18910000  1.0
  C  C29  1  0.88140000  0.81090000  0.44485000  1.0
  C  C30  1  0.80150000  0.41183000  0.95179000  1.0
  C  C31  1  0.19850000  0.04822000  0.58816000  1.0
  C  C32  1  0.19852000  0.58816000  0.04821000  1.0
  C  C33  1  0.80149000  0.95179000  0.41184000  1.0
  C  C34  1  0.89222000  0.34896000  0.05072000  1.0
  C  C35  1  0.10779000  0.94928000  0.65103000  1.0
  C  C36  1  0.10780000  0.65103000  0.94927000  1.0
  C  C37  1  0.89220000  0.05073000  0.34897000  1.0
  C  C38  1  0.06686000  0.31819000  0.00202000  1.0
  C  C39  1  0.93314000  0.99799000  0.68181000  1.0
  C  C40  1  0.93315000  0.68180000  0.99798000  1.0
  C  C41  1  0.06686000  0.00202000  0.31820000  1.0
  C  C42  1  0.14823000  0.34927000  0.86059000  1.0
  C  C43  1  0.85177000  0.13941000  0.65073000  1.0
  C  C44  1  0.85178000  0.65072000  0.13941000  1.0
  C  C45  1  0.14822000  0.86059000  0.34928000  1.0
  C  C46  1  0.05539000  0.41509000  0.76307000  1.0
  C  C47  1  0.94461000  0.23693000  0.58491000  1.0
  C  C48  1  0.94462000  0.58490000  0.23692000  1.0
  C  C49  1  0.05538000  0.76308000  0.41511000  1.0
  C  C50  1  0.34416000  0.25779000  0.97116000  1.0
  C  C51  1  0.65583000  0.02884000  0.74221000  1.0
  C  C52  1  0.65584000  0.74220000  0.02883000  1.0
  C  C53  1  0.34416000  0.97117000  0.25779000  1.0
  C  C54  1  0.17843000  0.21693000  0.21693000  1.0
  C  C55  1  0.82157000  0.78307000  0.78307000  1.0
  S  S56  1  0.50001000  0.62748000  0.62748000  1.0
  S  S57  1  0.49999000  0.37252000  0.37252000  1.0
  N  N58  1  0.19555000  0.26055000  0.06923000  1.0
  N  N59  1  0.80445000  0.93077000  0.73945000  1.0
  N  N60  1  0.80446000  0.73944000  0.93077000  1.0
  N  N61  1  0.19554000  0.06923000  0.26056000  1.0
  N  N62  1  0.32179000  0.30835000  0.84493000  1.0
  N  N63  1  0.67822000  0.15507000  0.69165000  1.0
  N  N64  1  0.67822000  0.69165000  0.15507000  1.0
  N  N65  1  0.32178000  0.84493000  0.30835000  1.0
  O  O66  1  0.32672000  0.63296000  0.63296000  1.0
  O  O67  1  0.67327000  0.36704000  0.36704000  1.0
  O  O68  1  0.59276000  0.47733000  0.66926000  1.0
  O  O69  1  0.40724000  0.33075000  0.52267000  1.0
  O  O70  1  0.40724000  0.52267000  0.33074000  1.0
  O  O71  1  0.59276000  0.66926000  0.47732000  1.0
  O  O72  1  0.51707000  0.71304000  0.71304000  1.0
  O  O73  1  0.48293000  0.28696000  0.28696000  1.0
