# generated using pymatgen
data_CaP2H6C4(N3O4)2
_symmetry_space_group_name_H-M   'P 1'
_cell_length_a   5.27580000
_cell_length_b   10.10720000
_cell_length_c   11.97340000
_cell_angle_alpha   103.17700000
_cell_angle_beta   90.00000000
_cell_angle_gamma   90.00000000
_symmetry_Int_Tables_number   1
_chemical_formula_structural   CaP2H6C4(N3O4)2
_chemical_formula_sum   'Ca2 P4 H12 C8 N12 O16'
_cell_volume   621.65392815
_cell_formula_units_Z   2
loop_
 _symmetry_equiv_pos_site_id
 _symmetry_equiv_pos_as_xyz
  1  'x, y, z'
loop_
 _atom_site_type_symbol
 _atom_site_label
 _atom_site_symmetry_multiplicity
 _atom_site_fract_x
 _atom_site_fract_y
 _atom_site_fract_z
 _atom_site_occupancy
  Ca  Ca0  1  0.50000000  0.00000000  0.00000000  1.0
  Ca  Ca1  1  0.00000000  0.50000000  0.50000000  1.0
  P  P2  1  0.50948000  0.45837000  0.29387000  1.0
  P  P3  1  0.00948000  0.04163000  0.20613000  1.0
  P  P4  1  0.49052000  0.54163000  0.70613000  1.0
  P  P5  1  0.99052000  0.95837000  0.79387000  1.0
  H  H6  1  0.40078000  0.68192000  0.28313000  1.0
  H  H7  1  0.90078000  0.81808000  0.21687000  1.0
  H  H8  1  0.59922000  0.31808000  0.71687000  1.0
  H  H9  1  0.09922000  0.18192000  0.78313000  1.0
  H  H10  1  0.08394000  0.40632000  0.01063000  1.0
  H  H11  1  0.58394000  0.09368000  0.48937000  1.0
  H  H12  1  0.91606000  0.59368000  0.98937000  1.0
  H  H13  1  0.41606000  0.90632000  0.51063000  1.0
  H  H14  1  0.66864000  0.25986000  0.16396000  1.0
  H  H15  1  0.16864000  0.24014000  0.33604000  1.0
  H  H16  1  0.33136000  0.74014000  0.83604000  1.0
  H  H17  1  0.83136000  0.75986000  0.66396000  1.0
  C  C18  1  0.20885000  0.55896000  0.14941000  1.0
  C  C19  1  0.70885000  0.94104000  0.35059000  1.0
  C  C20  1  0.79115000  0.44104000  0.85059000  1.0
  C  C21  1  0.29115000  0.05896000  0.64941000  1.0
  C  C22  1  0.37424000  0.32354000  0.08122000  1.0
  C  C23  1  0.87423000  0.17647000  0.41878000  1.0
  C  C24  1  0.62576000  0.67646000  0.91878000  1.0
  C  C25  1  0.12576000  0.82353000  0.58122000  1.0
  N  N26  1  0.37236000  0.58262000  0.23976000  1.0
  N  N27  1  0.87236000  0.91738000  0.26024000  1.0
  N  N28  1  0.62764000  0.41738000  0.76024000  1.0
  N  N29  1  0.12764000  0.08262000  0.73976000  1.0
  N  N30  1  0.20402000  0.42731000  0.08171000  1.0
  N  N31  1  0.70402000  0.07269000  0.41829000  1.0
  N  N32  1  0.79598000  0.57269000  0.91829000  1.0
  N  N33  1  0.29598000  0.92731000  0.58171000  1.0
  N  N34  1  0.54276000  0.34005000  0.16905000  1.0
  N  N35  1  0.04276000  0.15995000  0.33095000  1.0
  N  N36  1  0.45724000  0.65995000  0.83095000  1.0
  N  N37  1  0.95724000  0.84005000  0.66905000  1.0
  O  O38  1  0.07130000  0.64772000  0.12327000  1.0
  O  O39  1  0.57131000  0.85228000  0.37673000  1.0
  O  O40  1  0.92870000  0.35228000  0.87673000  1.0
  O  O41  1  0.42870000  0.14772000  0.62327000  1.0
  O  O42  1  0.36780000  0.22033000  0.00084000  1.0
  O  O43  1  0.86780000  0.27967000  0.49915000  1.0
  O  O44  1  0.63220000  0.77967000  0.99915000  1.0
  O  O45  1  0.13220000  0.72033000  0.50084000  1.0
  O  O46  1  0.32457000  0.40483000  0.36950000  1.0
  O  O47  1  0.82457000  0.09517000  0.13050000  1.0
  O  O48  1  0.67543000  0.59517000  0.63050000  1.0
  O  O49  1  0.17543000  0.90483000  0.86950000  1.0
  O  O50  1  0.76516000  0.50331000  0.34049000  1.0
  O  O51  1  0.26517000  0.99669000  0.15951000  1.0
  O  O52  1  0.23483000  0.49669000  0.65951000  1.0
  O  O53  1  0.73483000  0.00331000  0.84049000  1.0
