# generated using pymatgen
data_CdH12C8(N2Cl)2
_symmetry_space_group_name_H-M   'P 1'
_cell_length_a   3.96181000
_cell_length_b   9.79806000
_cell_length_c   14.55190000
_cell_angle_alpha   90.00000000
_cell_angle_beta   90.00020000
_cell_angle_gamma   93.76790000
_symmetry_Int_Tables_number   1
_chemical_formula_structural   CdH12C8(N2Cl)2
_chemical_formula_sum   'Cd2 H24 C16 N8 Cl4'
_cell_volume   563.65539888
_cell_formula_units_Z   2
loop_
 _symmetry_equiv_pos_site_id
 _symmetry_equiv_pos_as_xyz
  1  'x, y, z'
loop_
 _atom_site_type_symbol
 _atom_site_label
 _atom_site_symmetry_multiplicity
 _atom_site_fract_x
 _atom_site_fract_y
 _atom_site_fract_z
 _atom_site_occupancy
  Cd  Cd0  1  0.50000000  0.50000000  0.50000000  1.0
  Cd  Cd1  1  0.50000000  0.00000000  0.00000000  1.0
  H  H2  1  0.20979000  0.71361000  0.33526000  1.0
  H  H3  1  0.79021000  0.78639000  0.83526000  1.0
  H  H4  1  0.79021000  0.28639000  0.66474000  1.0
  H  H5  1  0.20979000  0.21361000  0.16474000  1.0
  H  H6  1  0.33369000  0.68390000  0.14672000  1.0
  H  H7  1  0.66631000  0.81610000  0.64672000  1.0
  H  H8  1  0.66631000  0.31610000  0.85328000  1.0
  H  H9  1  0.33369000  0.18390000  0.35328000  1.0
  H  H10  1  0.79425000  0.37535000  0.29730000  1.0
  H  H11  1  0.20575000  0.12465000  0.79730000  1.0
  H  H12  1  0.20575000  0.62465000  0.70270000  1.0
  H  H13  1  0.79425000  0.87535000  0.20270000  1.0
  H  H14  1  0.90822000  0.38459000  0.12641000  1.0
  H  H15  1  0.09178000  0.11541000  0.62641000  1.0
  H  H16  1  0.09177000  0.61541000  0.87359000  1.0
  H  H17  1  0.90822000  0.88459000  0.37359000  1.0
  H  H18  1  0.82683000  0.54083000  0.06912000  1.0
  H  H19  1  0.17317000  0.95917000  0.56912000  1.0
  H  H20  1  0.17317000  0.45917000  0.93088000  1.0
  H  H21  1  0.82683000  0.04083000  0.43088000  1.0
  H  H22  1  0.51051000  0.40090000  0.07365000  1.0
  H  H23  1  0.48949000  0.09910000  0.57365000  1.0
  H  H24  1  0.48949000  0.59910000  0.92635000  1.0
  H  H25  1  0.51051000  0.90090000  0.42635000  1.0
  C  C26  1  0.35162000  0.64016000  0.29851000  1.0
  C  C27  1  0.64838000  0.85984000  0.79851000  1.0
  C  C28  1  0.64838000  0.35984000  0.70149000  1.0
  C  C29  1  0.35162000  0.14016000  0.20149000  1.0
  C  C30  1  0.40885000  0.62577000  0.20594000  1.0
  C  C31  1  0.59116000  0.87423000  0.70594000  1.0
  C  C32  1  0.59116000  0.37424000  0.79406000  1.0
  C  C33  1  0.40884000  0.12577000  0.29406000  1.0
  C  C34  1  0.64884000  0.46264000  0.28258000  1.0
  C  C35  1  0.35117000  0.03736000  0.78258000  1.0
  C  C36  1  0.35116000  0.53737000  0.71742000  1.0
  C  C37  1  0.64883000  0.96264000  0.21742000  1.0
  C  C38  1  0.71628000  0.45660000  0.11141000  1.0
  C  C39  1  0.28372000  0.04340000  0.61141000  1.0
  C  C40  1  0.28372000  0.54340000  0.88859000  1.0
  C  C41  1  0.71628000  0.95660000  0.38859000  1.0
  N  N42  1  0.50284000  0.53808000  0.34534000  1.0
  N  N43  1  0.49716000  0.96192000  0.84534000  1.0
  N  N44  1  0.49716000  0.46192000  0.65466000  1.0
  N  N45  1  0.50284000  0.03808000  0.15466000  1.0
  N  N46  1  0.59488000  0.51193000  0.19709000  1.0
  N  N47  1  0.40511000  0.98807000  0.69709000  1.0
  N  N48  1  0.40511000  0.48807000  0.80291000  1.0
  N  N49  1  0.59489000  0.01193000  0.30291000  1.0
  Cl  Cl50  1  0.04040000  0.69013000  0.52225000  1.0
  Cl  Cl51  1  0.95959000  0.80987000  0.02225000  1.0
  Cl  Cl52  1  0.95959000  0.30987000  0.47775000  1.0
  Cl  Cl53  1  0.04041000  0.19013000  0.97775000  1.0
