# generated using pymatgen
data_CdH8C10N8O
_symmetry_space_group_name_H-M   'P 1'
_cell_length_a   7.44115000
_cell_length_b   10.46330000
_cell_length_c   16.60900000
_cell_angle_alpha   90.00000000
_cell_angle_beta   90.00010000
_cell_angle_gamma   110.35200000
_symmetry_Int_Tables_number   1
_chemical_formula_structural   CdH8C10N8O
_chemical_formula_sum   'Cd4 H32 C40 N32 O4'
_cell_volume   1212.43266553
_cell_formula_units_Z   4
loop_
 _symmetry_equiv_pos_site_id
 _symmetry_equiv_pos_as_xyz
  1  'x, y, z'
loop_
 _atom_site_type_symbol
 _atom_site_label
 _atom_site_symmetry_multiplicity
 _atom_site_fract_x
 _atom_site_fract_y
 _atom_site_fract_z
 _atom_site_occupancy
  Cd  Cd0  1  0.90969000  0.10268000  0.20771000  1.0
  Cd  Cd1  1  0.59031000  0.89732000  0.70771000  1.0
  Cd  Cd2  1  0.09032000  0.89732000  0.79229000  1.0
  Cd  Cd3  1  0.40968000  0.10268000  0.29228000  1.0
  H  H4  1  0.79586000  0.08937000  0.02773000  1.0
  H  H5  1  0.70414000  0.91063000  0.52773000  1.0
  H  H6  1  0.20414000  0.91063000  0.97227000  1.0
  H  H7  1  0.29586000  0.08937000  0.47227000  1.0
  H  H8  1  0.63482000  0.43270000  0.95822000  1.0
  H  H9  1  0.86518000  0.56730000  0.45822000  1.0
  H  H10  1  0.36519000  0.56730000  0.04178000  1.0
  H  H11  1  0.13482000  0.43270000  0.54178000  1.0
  H  H12  1  0.06683000  0.40340000  0.22682000  1.0
  H  H13  1  0.43317000  0.59660000  0.72681000  1.0
  H  H14  1  0.93317000  0.59660000  0.77318000  1.0
  H  H15  1  0.56682000  0.40339000  0.27318000  1.0
  H  H16  1  0.06179000  0.63201000  0.26248000  1.0
  H  H17  1  0.43821000  0.36799000  0.76248000  1.0
  H  H18  1  0.93820000  0.36799000  0.73752000  1.0
  H  H19  1  0.56179000  0.63201000  0.23752000  1.0
  H  H20  1  0.88956000  0.74520000  0.17633000  1.0
  H  H21  1  0.61044000  0.25480000  0.67633000  1.0
  H  H22  1  0.11044000  0.25480000  0.82367000  1.0
  H  H23  1  0.38956000  0.74520000  0.32367000  1.0
  H  H24  1  0.72996000  0.63419000  0.04953000  1.0
  H  H25  1  0.77004000  0.36581000  0.54953000  1.0
  H  H26  1  0.27004000  0.36581000  0.95047000  1.0
  H  H27  1  0.22996000  0.63419000  0.45047000  1.0
  H  H28  1  0.87312000  0.89621000  0.08731000  1.0
  H  H29  1  0.62688000  0.10379000  0.58731000  1.0
  H  H30  1  0.12688000  0.10379000  0.91270000  1.0
  H  H31  1  0.37312000  0.89621000  0.41269000  1.0
  H  H32  1  0.09695000  0.94345000  0.11212000  1.0
  H  H33  1  0.40305000  0.05655000  0.61212000  1.0
  H  H34  1  0.90305000  0.05655000  0.88788000  1.0
  H  H35  1  0.59695000  0.94345000  0.38788000  1.0
  C  C36  1  0.79701000  0.19266000  0.03820000  1.0
  C  C37  1  0.70299000  0.80734000  0.53820000  1.0
  C  C38  1  0.20299000  0.80734000  0.96180000  1.0
  C  C39  1  0.29701000  0.19266000  0.46180000  1.0
  C  C40  1  0.70441000  0.25253000  0.98298000  1.0
  C  C41  1  0.79559000  0.74747000  0.48298000  1.0
  C  C42  1  0.29558000  0.74747000  0.01702000  1.0
  C  C43  1  0.20441000  0.25253000  0.51702000  1.0
  C  C44  1  0.70489000  0.38245000  0.99860000  1.0
  C  C45  1  0.79511000  0.61755000  0.49860000  1.0
  C  C46  1  0.29511000  0.61755000  0.00140000  1.0
  C  C47  1  0.20489000  0.38245000  0.50140000  1.0
  C  C48  1  0.80031000  0.45219000  0.06791000  1.0
  C  C49  1  0.69968000  0.54782000  0.56790000  1.0
  C  C50  1  0.19968000  0.54782000  0.93209000  1.0
  C  C51  1  0.30032000  0.45218000  0.43209000  1.0
  C  C52  1  0.89243000  0.38479000  0.11997000  1.0
  C  C53  1  0.60757000  0.61521000  0.61997000  1.0
  C  C54  1  0.10757000  0.61521000  0.88003000  1.0
  C  C55  1  0.39243000  0.38479000  0.38003000  1.0
  C  C56  1  0.99083000  0.45311000  0.18911000  1.0
  C  C57  1  0.50917000  0.54689000  0.68911000  1.0
  C  C58  1  0.00917000  0.54689000  0.81089000  1.0
  C  C59  1  0.49083000  0.45311000  0.31089000  1.0
  C  C60  1  0.98871000  0.58073000  0.20841000  1.0
  C  C61  1  0.51130000  0.41927000  0.70841000  1.0
  C  C62  1  0.01129000  0.41927000  0.79159000  1.0
  C  C63  1  0.48870000  0.58073000  0.29159000  1.0
  C  C64  1  0.89146000  0.64539000  0.15882000  1.0
  C  C65  1  0.60854000  0.35460000  0.65882000  1.0
  C  C66  1  0.10854000  0.35460000  0.84118000  1.0
  C  C67  1  0.39146000  0.64540000  0.34118000  1.0
  C  C68  1  0.80205000  0.58408000  0.08906000  1.0
  C  C69  1  0.69795000  0.41592000  0.58906000  1.0
  C  C70  1  0.19795000  0.41592000  0.91094000  1.0
  C  C71  1  0.30205000  0.58408000  0.41094000  1.0
  C  C72  1  0.60793000  0.17012000  0.91416000  1.0
  C  C73  1  0.89207000  0.82988000  0.41416000  1.0
  C  C74  1  0.39207000  0.82988000  0.08584000  1.0
  C  C75  1  0.10793000  0.17012000  0.58584000  1.0
  N  N76  1  0.88415000  0.25408000  0.10427000  1.0
  N  N77  1  0.61585000  0.74592000  0.60426000  1.0
  N  N78  1  0.11585000  0.74592000  0.89574000  1.0
  N  N79  1  0.38415000  0.25408000  0.39573000  1.0
  N  N80  1  0.42947000  0.15286000  0.88754000  1.0
  N  N81  1  0.07053000  0.84714000  0.38754000  1.0
  N  N82  1  0.57053000  0.84714000  0.11246000  1.0
  N  N83  1  0.92947000  0.15286000  0.61246000  1.0
  N  N84  1  0.40065000  0.06378000  0.82669000  1.0
  N  N85  1  0.09935000  0.93622000  0.32669000  1.0
  N  N86  1  0.59935000  0.93622000  0.17331000  1.0
  N  N87  1  0.90065000  0.06378000  0.67331000  1.0
  N  N88  1  0.55397000  0.02863000  0.81727000  1.0
  N  N89  1  0.94603000  0.97137000  0.31727000  1.0
  N  N90  1  0.44603000  0.97137000  0.18273000  1.0
  N  N91  1  0.05398000  0.02863000  0.68273000  1.0
  N  N92  1  0.68679000  0.09323000  0.87124000  1.0
  N  N93  1  0.81321000  0.90677000  0.37124000  1.0
  N  N94  1  0.31321000  0.90677000  0.12876000  1.0
  N  N95  1  0.18679000  0.09323000  0.62876000  1.0
  N  N96  1  0.24038000  0.20335000  0.21097000  1.0
  N  N97  1  0.25962000  0.79664000  0.71097000  1.0
  N  N98  1  0.75962000  0.79664000  0.78903000  1.0
  N  N99  1  0.74038000  0.20336000  0.28903000  1.0
  N  N100  1  0.30237000  0.27597000  0.15317000  1.0
  N  N101  1  0.19763000  0.72403000  0.65317000  1.0
  N  N102  1  0.69763000  0.72403000  0.84683000  1.0
  N  N103  1  0.80237000  0.27597000  0.34682000  1.0
  N  N104  1  0.35734000  0.34773000  0.09826000  1.0
  N  N105  1  0.14266000  0.65228000  0.59826000  1.0
  N  N106  1  0.64266000  0.65227000  0.90174000  1.0
  N  N107  1  0.85734000  0.34773000  0.40174000  1.0
  O  O108  1  0.98611000  0.97460000  0.10186000  1.0
  O  O109  1  0.51389000  0.02541000  0.60186000  1.0
  O  O110  1  0.01389000  0.02540000  0.89814000  1.0
  O  O111  1  0.48611000  0.97460000  0.39814000  1.0
