# generated using pymatgen
data_ZnH7C10(NO2)2
_symmetry_space_group_name_H-M   'P 1'
_cell_length_a   8.98062000
_cell_length_b   10.36340000
_cell_length_c   16.72280000
_cell_angle_alpha   74.55300000
_cell_angle_beta   77.08390000
_cell_angle_gamma   68.17490000
_symmetry_Int_Tables_number   1
_chemical_formula_structural   ZnH7C10(NO2)2
_chemical_formula_sum   'Zn4 H28 C40 N8 O16'
_cell_volume   1379.09160372
_cell_formula_units_Z   4
loop_
 _symmetry_equiv_pos_site_id
 _symmetry_equiv_pos_as_xyz
  1  'x, y, z'
loop_
 _atom_site_type_symbol
 _atom_site_label
 _atom_site_symmetry_multiplicity
 _atom_site_fract_x
 _atom_site_fract_y
 _atom_site_fract_z
 _atom_site_occupancy
  Zn  Zn0  1  0.29787000  0.37693000  0.27402000  1.0
  Zn  Zn1  1  0.70213000  0.62307000  0.72598000  1.0
  Zn  Zn2  1  0.47147000  0.11284000  0.22123000  1.0
  Zn  Zn3  1  0.52853000  0.88716000  0.77877000  1.0
  H  H4  1  0.96605000  0.10736000  0.21621000  1.0
  H  H5  1  0.03395000  0.89264000  0.78379000  1.0
  H  H6  1  0.80034000  0.39243000  0.27470000  1.0
  H  H7  1  0.19966000  0.60757000  0.72530000  1.0
  H  H8  1  0.49038000  0.98481000  0.08019000  1.0
  H  H9  1  0.50962000  0.01519000  0.91981000  1.0
  H  H10  1  0.67844000  0.77640000  0.01655000  1.0
  H  H11  1  0.32156000  0.22360000  0.98345000  1.0
  H  H12  1  0.92587000  0.63209000  0.23440000  1.0
  H  H13  1  0.07413000  0.36791000  0.76560000  1.0
  H  H14  1  0.72658000  0.84725000  0.28869000  1.0
  H  H15  1  0.27342000  0.15275000  0.71131000  1.0
  H  H16  1  0.03543000  0.49678000  0.12344000  1.0
  H  H17  1  0.96457000  0.50322000  0.87656000  1.0
  H  H18  1  0.52039000  0.37891000  0.95702000  1.0
  H  H19  1  0.47961000  0.62109000  0.04298000  1.0
  H  H20  1  0.35722000  0.11255000  0.54030000  1.0
  H  H21  1  0.64278000  0.88745000  0.45970000  1.0
  H  H22  1  0.35275000  0.64779000  0.21728000  1.0
  H  H23  1  0.64725000  0.35221000  0.78272000  1.0
  H  H24  1  0.29112000  0.86741000  0.27450000  1.0
  H  H25  1  0.70888000  0.13259000  0.72549000  1.0
  H  H26  1  0.95985000  0.71570000  0.47359000  1.0
  H  H27  1  0.04015000  0.28430000  0.52641000  1.0
  H  H28  1  0.03395000  0.50345000  0.40728000  1.0
  H  H29  1  0.96605000  0.49655000  0.59272000  1.0
  H  H30  1  0.16647000  0.99863000  0.38592000  1.0
  H  H31  1  0.83353000  0.00137000  0.61408000  1.0
  C  C32  1  0.39595000  0.11976000  0.40443000  1.0
  C  C33  1  0.60404000  0.88024000  0.59557000  1.0
  C  C34  1  0.10986000  0.22147000  0.24031000  1.0
  C  C35  1  0.89014000  0.77853000  0.75969000  1.0
  C  C36  1  0.95637000  0.20331000  0.23518000  1.0
  C  C37  1  0.04363000  0.79669000  0.76481000  1.0
  C  C38  1  0.81083000  0.29744000  0.25437000  1.0
  C  C39  1  0.18917000  0.70256000  0.74563000  1.0
  C  C40  1  0.65684000  0.27703000  0.25185000  1.0
  C  C41  1  0.34316000  0.72297000  0.74815000  1.0
  C  C42  1  0.58839000  0.90294000  0.11182000  1.0
  C  C43  1  0.41161000  0.09706000  0.88818000  1.0
  C  C44  1  0.69254000  0.78858000  0.07696000  1.0
  C  C45  1  0.30746000  0.21142000  0.92304000  1.0
  C  C46  1  0.81930000  0.68944000  0.12040000  1.0
  C  C47  1  0.18070000  0.31056000  0.87960000  1.0
  C  C48  1  0.83060000  0.70833000  0.19867000  1.0
  C  C49  1  0.16940000  0.29167000  0.80133000  1.0
  C  C50  1  0.72112000  0.82623000  0.22905000  1.0
  C  C51  1  0.27888000  0.17377000  0.77095000  1.0
  C  C52  1  0.94070000  0.57122000  0.08587000  1.0
  C  C53  1  0.05930000  0.42878000  0.91413000  1.0
  C  C54  1  0.42343000  0.37041000  0.09098000  1.0
  C  C55  1  0.57657000  0.62960000  0.90902000  1.0
  C  C56  1  0.48660000  0.43824000  0.00695000  1.0
  C  C57  1  0.51340000  0.56177000  0.99305000  1.0
  C  C58  1  0.43497000  0.05727000  0.49115000  1.0
  C  C59  1  0.56503000  0.94273000  0.50885000  1.0
  C  C60  1  0.26620000  0.66837000  0.27345000  1.0
  C  C61  1  0.73380000  0.33163000  0.72655000  1.0
  C  C62  1  0.23332000  0.78797000  0.30576000  1.0
  C  C63  1  0.76668000  0.21203000  0.69424000  1.0
  C  C64  1  0.12418000  0.80558000  0.37978000  1.0
  C  C65  1  0.87582000  0.19442000  0.62022000  1.0
  C  C66  1  0.04693000  0.70369000  0.41668000  1.0
  C  C67  1  0.95307000  0.29631000  0.58332000  1.0
  C  C68  1  0.08696000  0.58741000  0.38032000  1.0
  C  C69  1  0.91304000  0.41259000  0.61968000  1.0
  C  C70  1  0.09904000  0.92536000  0.41713000  1.0
  C  C71  1  0.90096000  0.07464000  0.58287000  1.0
  N  N72  1  0.93683000  0.55791000  0.01160000  1.0
  N  N73  1  0.06317000  0.44209000  0.98840000  1.0
  N  N74  1  0.00244000  0.94148000  0.48659000  1.0
  N  N75  1  0.99757000  0.05851000  0.51341000  1.0
  N  N76  1  0.60307000  0.92285000  0.18593000  1.0
  N  N77  1  0.39693000  0.07715000  0.81407000  1.0
  N  N78  1  0.19602000  0.56884000  0.31054000  1.0
  N  N79  1  0.80398000  0.43116000  0.68946000  1.0
  O  O80  1  0.29545000  0.24599000  0.39218000  1.0
  O  O81  1  0.70455000  0.75401000  0.60782000  1.0
  O  O82  1  0.46785000  0.04480000  0.34881000  1.0
  O  O83  1  0.53215000  0.95520000  0.65119000  1.0
  O  O84  1  0.23809000  0.11523000  0.23102000  1.0
  O  O85  1  0.76191000  0.88477000  0.76898000  1.0
  O  O86  1  0.10318000  0.33913000  0.25386000  1.0
  O  O87  1  0.89682000  0.66087000  0.74614000  1.0
  O  O88  1  0.66438000  0.17604000  0.21966000  1.0
  O  O89  1  0.33562000  0.82396000  0.78034000  1.0
  O  O90  1  0.52868000  0.36436000  0.28315000  1.0
  O  O91  1  0.47132000  0.63564000  0.71685000  1.0
  O  O92  1  0.44741000  0.23773000  0.10171000  1.0
  O  O93  1  0.55259000  0.76228000  0.89829000  1.0
  O  O94  1  0.35622000  0.44645000  0.14624000  1.0
  O  O95  1  0.64378000  0.55355000  0.85376000  1.0
