# generated using pymatgen
data_ZnH8C12(IN2)2
_symmetry_space_group_name_H-M   'P 1'
_cell_length_a   14.93610000
_cell_length_b   18.52920000
_cell_length_c   32.86320000
_cell_angle_alpha   103.25600000
_cell_angle_beta   93.12450000
_cell_angle_gamma   109.05900000
_symmetry_Int_Tables_number   1
_chemical_formula_structural   ZnH8C12(IN2)2
_chemical_formula_sum   'Zn12 H96 C144 I24 N48'
_cell_volume   8284.25017170
_cell_formula_units_Z   12
loop_
 _symmetry_equiv_pos_site_id
 _symmetry_equiv_pos_as_xyz
  1  'x, y, z'
loop_
 _atom_site_type_symbol
 _atom_site_label
 _atom_site_symmetry_multiplicity
 _atom_site_fract_x
 _atom_site_fract_y
 _atom_site_fract_z
 _atom_site_occupancy
  Zn  Zn0  1  0.20515000  0.73464000  0.06432000  1.0
  Zn  Zn1  1  0.66867000  0.16493000  0.22342000  1.0
  Zn  Zn2  1  0.29647000  0.33157000  0.89902000  1.0
  Zn  Zn3  1  0.96736000  0.14408000  0.73125000  1.0
  Zn  Zn4  1  0.48569000  0.22905000  0.42820000  1.0
  Zn  Zn5  1  0.04015000  0.73895000  0.55062000  1.0
  Zn  Zn6  1  0.79486000  0.26536000  0.93568000  1.0
  Zn  Zn7  1  0.33133000  0.83507000  0.77658000  1.0
  Zn  Zn8  1  0.70353000  0.66843000  0.10098000  1.0
  Zn  Zn9  1  0.03264000  0.85592000  0.26875000  1.0
  Zn  Zn10  1  0.51431000  0.77095000  0.57180000  1.0
  Zn  Zn11  1  0.95985000  0.26105000  0.44938000  1.0
  H  H12  1  0.32906000  0.87187000  0.13607000  1.0
  H  H13  1  0.31149000  0.98729000  0.18787000  1.0
  H  H14  1  0.01783000  0.90985000  0.12934000  1.0
  H  H15  1  0.04770000  0.79971000  0.07942000  1.0
  H  H16  1  0.28288000  0.22062000  0.40145000  1.0
  H  H17  1  0.16904000  0.17566000  0.33509000  1.0
  H  H18  1  0.39547000  0.13449000  0.26706000  1.0
  H  H19  1  0.50326000  0.18712000  0.33610000  1.0
  H  H20  1  0.74125000  0.04457000  0.16887000  1.0
  H  H21  1  0.89515000  0.01633000  0.16490000  1.0
  H  H22  1  0.02077000  0.21255000  0.27484000  1.0
  H  H23  1  0.86187000  0.23350000  0.27415000  1.0
  H  H24  1  0.80703000  0.31796000  0.21590000  1.0
  H  H25  1  0.83461000  0.40255000  0.16442000  1.0
  H  H26  1  0.57555000  0.23474000  0.08718000  1.0
  H  H27  1  0.56116000  0.15388000  0.14041000  1.0
  H  H28  1  0.03498000  0.62905000  0.99949000  1.0
  H  H29  1  0.87691000  0.52102000  0.99697000  1.0
  H  H30  1  0.94566000  0.55876000  0.13106000  1.0
  H  H31  1  0.09992000  0.66472000  0.12832000  1.0
  H  H32  1  0.34694000  0.25781000  0.96293000  1.0
  H  H33  1  0.48681000  0.27668000  0.01596000  1.0
  H  H34  1  0.63989000  0.48978000  0.98140000  1.0
  H  H35  1  0.49372000  0.46209000  0.92928000  1.0
  H  H36  1  0.46784000  0.30064000  0.87423000  1.0
  H  H37  1  0.51655000  0.21366000  0.81739000  1.0
  H  H38  1  0.21655000  0.08407000  0.77127000  1.0
  H  H39  1  0.17916000  0.17507000  0.83183000  1.0
  H  H40  1  0.78972000  0.02391000  0.67027000  1.0
  H  H41  1  0.61169000  0.99096000  0.66395000  1.0
  H  H42  1  0.65917000  0.17284000  0.78013000  1.0
  H  H43  1  0.83559000  0.20005000  0.78091000  1.0
  H  H44  1  0.04647000  0.84898000  0.63404000  1.0
  H  H45  1  0.16992000  0.94929000  0.69277000  1.0
  H  H46  1  0.38677000  0.89180000  0.62395000  1.0
  H  H47  1  0.25582000  0.79568000  0.56786000  1.0
  H  H48  1  0.08081000  0.13051000  0.66060000  1.0
  H  H49  1  0.15432000  0.20943000  0.61018000  1.0
  H  H50  1  0.00621000  0.36889000  0.65690000  1.0
  H  H51  1  0.94218000  0.28610000  0.70695000  1.0
  H  H52  1  0.45975000  0.38595000  0.46012000  1.0
  H  H53  1  0.35101000  0.43964000  0.50464000  1.0
  H  H54  1  0.24071000  0.21361000  0.53301000  1.0
  H  H55  1  0.35028000  0.16778000  0.48579000  1.0
  H  H56  1  0.02176000  0.64442000  0.61233000  1.0
  H  H57  1  0.06312000  0.52830000  0.62372000  1.0
  H  H58  1  0.15781000  0.50293000  0.50137000  1.0
  H  H59  1  0.11419000  0.62150000  0.49519000  1.0
  H  H60  1  0.67094000  0.12813000  0.86394000  1.0
  H  H61  1  0.68851000  0.01271000  0.81213000  1.0
  H  H62  1  0.98216000  0.09015000  0.87066000  1.0
  H  H63  1  0.95230000  0.20030000  0.92058000  1.0
  H  H64  1  0.71713000  0.77937000  0.59855000  1.0
  H  H65  1  0.83096000  0.82434000  0.66492000  1.0
  H  H66  1  0.60453000  0.86551000  0.73294000  1.0
  H  H67  1  0.49674000  0.81288000  0.66390000  1.0
  H  H68  1  0.25876000  0.95543000  0.83113000  1.0
  H  H69  1  0.10485000  0.98368000  0.83510000  1.0
  H  H70  1  0.97923000  0.78745000  0.72516000  1.0
  H  H71  1  0.13813000  0.76650000  0.72585000  1.0
  H  H72  1  0.19297000  0.68204000  0.78410000  1.0
  H  H73  1  0.16539000  0.59745000  0.83558000  1.0
  H  H74  1  0.42446000  0.76526000  0.91281000  1.0
  H  H75  1  0.43885000  0.84612000  0.85958000  1.0
  H  H76  1  0.96502000  0.37096000  0.00051000  1.0
  H  H77  1  0.12309000  0.47898000  0.00302000  1.0
  H  H78  1  0.05434000  0.44124000  0.86894000  1.0
  H  H79  1  0.90009000  0.33528000  0.87168000  1.0
  H  H80  1  0.65306000  0.74219000  0.03707000  1.0
  H  H81  1  0.51319000  0.72332000  0.98404000  1.0
  H  H82  1  0.36011000  0.51022000  0.01859000  1.0
  H  H83  1  0.50629000  0.53791000  0.07072000  1.0
  H  H84  1  0.53216000  0.69936000  0.12577000  1.0
  H  H85  1  0.48345000  0.78634000  0.18261000  1.0
  H  H86  1  0.78344000  0.91593000  0.22873000  1.0
  H  H87  1  0.82084000  0.82493000  0.16817000  1.0
  H  H88  1  0.21028000  0.97609000  0.32973000  1.0
  H  H89  1  0.38831000  0.00904000  0.33605000  1.0
  H  H90  1  0.34083000  0.82716000  0.21987000  1.0
  H  H91  1  0.16441000  0.79995000  0.21909000  1.0
  H  H92  1  0.95353000  0.15101000  0.36596000  1.0
  H  H93  1  0.83007000  0.05071000  0.30723000  1.0
  H  H94  1  0.61323000  0.10820000  0.37605000  1.0
  H  H95  1  0.74418000  0.20432000  0.43213000  1.0
  H  H96  1  0.91918000  0.86949000  0.33940000  1.0
  H  H97  1  0.84568000  0.79057000  0.38982000  1.0
  H  H98  1  0.99379000  0.63110000  0.34310000  1.0
  H  H99  1  0.05781000  0.71390000  0.29305000  1.0
  H  H100  1  0.54024000  0.61405000  0.53988000  1.0
  H  H101  1  0.64899000  0.56036000  0.49536000  1.0
  H  H102  1  0.75929000  0.78640000  0.46699000  1.0
  H  H103  1  0.64971000  0.83222000  0.51421000  1.0
  H  H104  1  0.97824000  0.35558000  0.38767000  1.0
  H  H105  1  0.93688000  0.47170000  0.37628000  1.0
  H  H106  1  0.84218000  0.49706000  0.49863000  1.0
  H  H107  1  0.88581000  0.37850000  0.50481000  1.0
  C  C108  1  0.26189000  0.88336000  0.13555000  1.0
  C  C109  1  0.25162000  0.94687000  0.16422000  1.0
  C  C110  1  0.16297000  0.95768000  0.16252000  1.0
  C  C111  1  0.08825000  0.90453000  0.13144000  1.0
  C  C112  1  0.10469000  0.84277000  0.10370000  1.0
  C  C113  1  0.14923000  0.02235000  0.19446000  1.0
  C  C114  1  0.20428000  0.11660000  0.25665000  1.0
  C  C115  1  0.06063000  0.09618000  0.22076000  1.0
  C  C116  1  0.30604000  0.20263000  0.37106000  1.0
  C  C117  1  0.24246000  0.17755000  0.33400000  1.0
  C  C118  1  0.27373000  0.15182000  0.29578000  1.0
  C  C119  1  0.36863000  0.15448000  0.29613000  1.0
  C  C120  1  0.42837000  0.18262000  0.33451000  1.0
  C  C121  1  0.80572000  0.08104000  0.19119000  1.0
  C  C122  1  0.89063000  0.06549000  0.18919000  1.0
  C  C123  1  0.97006000  0.11309000  0.21953000  1.0
  C  C124  1  0.96073000  0.17517000  0.25051000  1.0
  C  C125  1  0.87364000  0.18700000  0.25022000  1.0
  C  C126  1  0.75860000  0.30108000  0.18651000  1.0
  C  C127  1  0.77312000  0.34808000  0.15837000  1.0
  C  C128  1  0.70659000  0.32456000  0.12192000  1.0
  C  C129  1  0.62833000  0.25426000  0.11522000  1.0
  C  C130  1  0.61995000  0.20982000  0.14447000  1.0
  C  C131  1  0.71807000  0.37247000  0.09087000  1.0
  C  C132  1  0.80957000  0.46796000  0.06343000  1.0
  C  C133  1  0.65589000  0.39889000  0.03403000  1.0
  C  C134  1  0.01199000  0.61063000  0.02763000  1.0
  C  C135  1  0.92551000  0.55124000  0.02639000  1.0
  C  C136  1  0.90132000  0.53068000  0.06375000  1.0
  C  C137  1  0.96401000  0.57183000  0.10131000  1.0
  C  C138  1  0.04866000  0.63095000  0.09995000  1.0
  C  C139  1  0.41371000  0.30796000  0.96799000  1.0
  C  C140  1  0.49032000  0.31887000  0.99737000  1.0
  C  C141  1  0.57327000  0.38518000  0.00270000  1.0
  C  C142  1  0.57599000  0.43800000  0.97803000  1.0
  C  C143  1  0.49599000  0.42301000  0.94937000  1.0
  C  C144  1  0.41402000  0.25169000  0.85114000  1.0
  C  C145  1  0.44115000  0.20354000  0.81920000  1.0
  C  C146  1  0.37016000  0.14226000  0.78954000  1.0
  C  C147  1  0.27400000  0.13058000  0.79396000  1.0
  C  C148  1  0.25285000  0.18095000  0.82739000  1.0
  C  C149  1  0.39890000  0.09237000  0.75452000  1.0
  C  C150  1  0.51724000  0.06263000  0.72195000  1.0
  C  C151  1  0.36223000  0.98931000  0.69621000  1.0
  C  C152  1  0.75751000  0.05589000  0.69367000  1.0
  C  C153  1  0.65876000  0.03709000  0.69062000  1.0
  C  C154  1  0.62154000  0.07935000  0.72204000  1.0
  C  C155  1  0.68559000  0.13911000  0.75509000  1.0
  C  C156  1  0.78289000  0.15447000  0.75568000  1.0
  C  C157  1  0.12285000  0.86049000  0.63343000  1.0
  C  C158  1  0.19122000  0.91536000  0.66588000  1.0
  C  C159  1  0.28812000  0.92779000  0.66301000  1.0
  C  C160  1  0.31233000  0.88360000  0.62763000  1.0
  C  C161  1  0.23954000  0.83020000  0.59623000  1.0
  C  C162  1  0.06696000  0.18408000  0.65877000  1.0
  C  C163  1  0.10711000  0.22754000  0.63104000  1.0
  C  C164  1  0.08612000  0.29541000  0.63005000  1.0
  C  C165  1  0.02472000  0.31686000  0.65722000  1.0
  C  C166  1  0.98842000  0.27069000  0.68451000  1.0
  C  C167  1  0.12834000  0.34168000  0.60024000  1.0
  C  C168  1  0.22183000  0.35660000  0.54851000  1.0
  C  C169  1  0.14127000  0.44018000  0.56861000  1.0
  C  C170  1  0.40903000  0.35002000  0.47663000  1.0
  C  C171  1  0.35001000  0.37954000  0.50147000  1.0
  C  C172  1  0.28818000  0.33004000  0.52221000  1.0
  C  C173  1  0.28851000  0.25312000  0.51733000  1.0
  C  C174  1  0.34827000  0.22762000  0.49134000  1.0
  C  C175  1  0.05271000  0.61139000  0.58884000  1.0
  C  C176  1  0.07461000  0.54709000  0.59481000  1.0
  C  C177  1  0.11363000  0.50731000  0.56313000  1.0
  C  C178  1  0.12762000  0.53301000  0.52637000  1.0
  C  C179  1  0.10356000  0.59793000  0.52282000  1.0
  C  C180  1  0.73811000  0.11664000  0.86445000  1.0
  C  C181  1  0.74838000  0.05313000  0.83578000  1.0
  C  C182  1  0.83703000  0.04232000  0.83748000  1.0
  C  C183  1  0.91175000  0.09547000  0.86856000  1.0
  C  C184  1  0.89531000  0.15723000  0.89630000  1.0
  C  C185  1  0.85077000  0.97765000  0.80554000  1.0
  C  C186  1  0.79571000  0.88339000  0.74335000  1.0
  C  C187  1  0.93937000  0.90382000  0.77924000  1.0
  C  C188  1  0.69396000  0.79737000  0.62894000  1.0
  C  C189  1  0.75754000  0.82245000  0.66600000  1.0
  C  C190  1  0.72627000  0.84818000  0.70422000  1.0
  C  C191  1  0.63137000  0.84551000  0.70387000  1.0
  C  C192  1  0.57163000  0.81737000  0.66549000  1.0
  C  C193  1  0.19429000  0.91897000  0.80880000  1.0
  C  C194  1  0.10937000  0.93451000  0.81080000  1.0
  C  C195  1  0.02994000  0.88692000  0.78047000  1.0
  C  C196  1  0.03927000  0.82483000  0.74949000  1.0
  C  C197  1  0.12636000  0.81300000  0.74978000  1.0
  C  C198  1  0.24140000  0.69892000  0.81349000  1.0
  C  C199  1  0.22688000  0.65192000  0.84163000  1.0
  C  C200  1  0.29341000  0.67544000  0.87808000  1.0
  C  C201  1  0.37168000  0.74575000  0.88478000  1.0
  C  C202  1  0.38006000  0.79018000  0.85553000  1.0
  C  C203  1  0.28194000  0.62753000  0.90913000  1.0
  C  C204  1  0.19043000  0.53204000  0.93657000  1.0
  C  C205  1  0.34411000  0.60111000  0.96597000  1.0
  C  C206  1  0.98801000  0.38938000  0.97237000  1.0
  C  C207  1  0.07450000  0.44876000  0.97361000  1.0
  C  C208  1  0.09869000  0.46932000  0.93625000  1.0
  C  C209  1  0.03599000  0.42817000  0.89869000  1.0
  C  C210  1  0.95134000  0.36905000  0.90005000  1.0
  C  C211  1  0.58630000  0.69204000  0.03201000  1.0
  C  C212  1  0.50968000  0.68113000  0.00263000  1.0
  C  C213  1  0.42673000  0.61482000  0.99730000  1.0
  C  C214  1  0.42401000  0.56200000  0.02197000  1.0
  C  C215  1  0.50401000  0.57699000  0.05063000  1.0
  C  C216  1  0.58598000  0.74831000  0.14886000  1.0
  C  C217  1  0.55885000  0.79646000  0.18080000  1.0
  C  C218  1  0.62983000  0.85774000  0.21046000  1.0
  C  C219  1  0.72600000  0.86942000  0.20604000  1.0
  C  C220  1  0.74714000  0.81905000  0.17261000  1.0
  C  C221  1  0.60110000  0.90763000  0.24548000  1.0
  C  C222  1  0.48276000  0.93738000  0.27805000  1.0
  C  C223  1  0.63777000  0.01069000  0.30379000  1.0
  C  C224  1  0.24249000  0.94411000  0.30633000  1.0
  C  C225  1  0.34124000  0.96291000  0.30939000  1.0
  C  C226  1  0.37846000  0.92065000  0.27796000  1.0
  C  C227  1  0.31441000  0.86089000  0.24491000  1.0
  C  C228  1  0.21711000  0.84553000  0.24433000  1.0
  C  C229  1  0.87715000  0.13951000  0.36657000  1.0
  C  C230  1  0.80878000  0.08464000  0.33412000  1.0
  C  C231  1  0.71188000  0.07221000  0.33699000  1.0
  C  C232  1  0.68767000  0.11640000  0.37237000  1.0
  C  C233  1  0.76046000  0.16980000  0.40377000  1.0
  C  C234  1  0.93304000  0.81592000  0.34123000  1.0
  C  C235  1  0.89289000  0.77246000  0.36896000  1.0
  C  C236  1  0.91388000  0.70459000  0.36995000  1.0
  C  C237  1  0.97527000  0.68313000  0.34278000  1.0
  C  C238  1  0.01157000  0.72931000  0.31549000  1.0
  C  C239  1  0.87166000  0.65832000  0.39976000  1.0
  C  C240  1  0.77817000  0.64340000  0.45149000  1.0
  C  C241  1  0.85872000  0.55982000  0.43139000  1.0
  C  C242  1  0.59096000  0.64998000  0.52337000  1.0
  C  C243  1  0.64999000  0.62046000  0.49853000  1.0
  C  C244  1  0.71182000  0.66996000  0.47779000  1.0
  C  C245  1  0.71149000  0.74688000  0.48267000  1.0
  C  C246  1  0.65174000  0.77238000  0.50866000  1.0
  C  C247  1  0.94729000  0.38860000  0.41116000  1.0
  C  C248  1  0.92539000  0.45291000  0.40519000  1.0
  C  C249  1  0.88637000  0.49269000  0.43687000  1.0
  C  C250  1  0.87238000  0.46698000  0.47363000  1.0
  C  C251  1  0.89644000  0.40207000  0.47718000  1.0
  I  I252  1  0.32340000  0.69377000  0.10535000  1.0
  I  I253  1  0.21345000  0.76215000  0.99207000  1.0
  I  I254  1  0.52961000  0.03596000  0.18911000  1.0
  I  I255  1  0.68351000  0.25547000  0.29657000  1.0
  I  I256  1  0.15609000  0.27108000  0.93599000  1.0
  I  I257  1  0.33070000  0.44176000  0.86167000  1.0
  I  I258  1  0.03779000  0.24590000  0.80224000  1.0
  I  I259  1  0.00921000  0.01852000  0.70653000  1.0
  I  I260  1  0.63842000  0.34158000  0.42777000  1.0
  I  I261  1  0.46975000  0.09090000  0.43511000  1.0
  I  I262  1  0.87969000  0.71849000  0.57991000  1.0
  I  I263  1  0.07790000  0.76969000  0.48082000  1.0
  I  I264  1  0.67659000  0.30623000  0.89465000  1.0
  I  I265  1  0.78655000  0.23785000  0.00793000  1.0
  I  I266  1  0.47038000  0.96404000  0.81090000  1.0
  I  I267  1  0.31650000  0.74454000  0.70343000  1.0
  I  I268  1  0.84391000  0.72893000  0.06401000  1.0
  I  I269  1  0.66930000  0.55824000  0.13833000  1.0
  I  I270  1  0.96221000  0.75410000  0.19776000  1.0
  I  I271  1  0.99079000  0.98148000  0.29347000  1.0
  I  I272  1  0.36159000  0.65841000  0.57223000  1.0
  I  I273  1  0.53026000  0.90910000  0.56489000  1.0
  I  I274  1  0.12031000  0.28151000  0.42009000  1.0
  I  I275  1  0.92211000  0.23031000  0.51918000  1.0
  N  N276  1  0.18934000  0.83176000  0.10597000  1.0
  N  N277  1  0.21943000  0.06004000  0.22732000  1.0
  N  N278  1  0.12782000  0.13908000  0.25419000  1.0
  N  N279  1  0.06755000  0.03740000  0.18992000  1.0
  N  N280  1  0.39712000  0.20509000  0.37140000  1.0
  N  N281  1  0.79723000  0.14079000  0.22115000  1.0
  N  N282  1  0.68389000  0.23277000  0.17959000  1.0
  N  N283  1  0.80288000  0.42959000  0.09380000  1.0
  N  N284  1  0.73899000  0.45430000  0.03250000  1.0
  N  N285  1  0.64201000  0.35532000  0.06207000  1.0
  N  N286  1  0.07265000  0.64946000  0.06371000  1.0
  N  N287  1  0.41632000  0.35915000  0.94442000  1.0
  N  N288  1  0.32173000  0.24101000  0.85525000  1.0
  N  N289  1  0.49282000  0.11211000  0.75208000  1.0
  N  N290  1  0.45497000  0.00062000  0.69278000  1.0
  N  N291  1  0.33072000  0.03147000  0.72743000  1.0
  N  N292  1  0.81873000  0.11370000  0.72553000  1.0
  N  N293  1  0.14640000  0.81878000  0.59906000  1.0
  N  N294  1  0.00890000  0.20529000  0.68527000  1.0
  N  N295  1  0.18698000  0.31558000  0.57630000  1.0
  N  N296  1  0.19971000  0.41837000  0.54266000  1.0
  N  N297  1  0.10574000  0.40547000  0.59880000  1.0
  N  N298  1  0.40722000  0.27515000  0.47120000  1.0
  N  N299  1  0.06732000  0.63651000  0.55356000  1.0
  N  N300  1  0.81066000  0.16824000  0.89403000  1.0
  N  N301  1  0.78057000  0.93996000  0.77268000  1.0
  N  N302  1  0.87218000  0.86092000  0.74581000  1.0
  N  N303  1  0.93245000  0.96260000  0.81008000  1.0
  N  N304  1  0.60288000  0.79491000  0.62859000  1.0
  N  N305  1  0.20278000  0.85921000  0.77885000  1.0
  N  N306  1  0.31611000  0.76723000  0.82041000  1.0
  N  N307  1  0.19712000  0.57041000  0.90620000  1.0
  N  N308  1  0.26101000  0.54570000  0.96750000  1.0
  N  N309  1  0.35799000  0.64468000  0.93793000  1.0
  N  N310  1  0.92735000  0.35054000  0.93629000  1.0
  N  N311  1  0.58368000  0.64085000  0.05557000  1.0
  N  N312  1  0.67827000  0.75899000  0.14476000  1.0
  N  N313  1  0.50717000  0.88789000  0.24792000  1.0
  N  N314  1  0.54503000  0.99938000  0.30722000  1.0
  N  N315  1  0.66928000  0.96853000  0.27257000  1.0
  N  N316  1  0.18126000  0.88630000  0.27447000  1.0
  N  N317  1  0.85360000  0.18122000  0.40094000  1.0
  N  N318  1  0.99110000  0.79471000  0.31473000  1.0
  N  N319  1  0.81302000  0.68442000  0.42370000  1.0
  N  N320  1  0.80029000  0.58163000  0.45734000  1.0
  N  N321  1  0.89425000  0.59453000  0.40120000  1.0
  N  N322  1  0.59278000  0.72485000  0.52880000  1.0
  N  N323  1  0.93268000  0.36349000  0.44644000  1.0
