# generated using pymatgen
data_NaH10C5N3O8
_symmetry_space_group_name_H-M   'P 1'
_cell_length_a   7.69969000
_cell_length_b   7.78460000
_cell_length_c   9.19666603
_cell_angle_alpha   104.94721244
_cell_angle_beta   110.86718349
_cell_angle_gamma   96.95870000
_symmetry_Int_Tables_number   1
_chemical_formula_structural   NaH10C5N3O8
_chemical_formula_sum   'Na2 H20 C10 N6 O16'
_cell_volume   483.60091711
_cell_formula_units_Z   2
loop_
 _symmetry_equiv_pos_site_id
 _symmetry_equiv_pos_as_xyz
  1  'x, y, z'
loop_
 _atom_site_type_symbol
 _atom_site_label
 _atom_site_symmetry_multiplicity
 _atom_site_fract_x
 _atom_site_fract_y
 _atom_site_fract_z
 _atom_site_occupancy
  Na  Na0  1  0.44206000  0.20098000  0.38179000  1.0
  Na  Na1  1  0.55795000  0.79901000  0.61821000  1.0
  H  H2  1  0.28506000  0.63481000  0.79671000  1.0
  H  H3  1  0.14612000  0.30647000  0.93505000  1.0
  H  H4  1  0.71495000  0.36521000  0.20329000  1.0
  H  H5  1  0.85386000  0.69353000  0.06493000  1.0
  H  H6  1  0.12233000  0.40537000  0.46335000  1.0
  H  H7  1  0.87767000  0.11715000  0.53210000  1.0
  H  H8  1  0.87767000  0.59463000  0.53665000  1.0
  H  H9  1  0.12234000  0.88286000  0.46791000  1.0
  H  H10  1  0.20662000  0.29169000  0.61092000  1.0
  H  H11  1  0.88178000  0.35455000  0.57955000  1.0
  H  H12  1  0.79339000  0.70832000  0.38909000  1.0
  H  H13  1  0.11822000  0.64545000  0.42045000  1.0
  H  H14  1  0.97653000  0.21538000  0.16919000  1.0
  H  H15  1  0.75148000  0.93014000  0.25513000  1.0
  H  H16  1  0.02347000  0.78461000  0.83081000  1.0
  H  H17  1  0.24851000  0.06986000  0.74487000  1.0
  H  H18  1  0.98477000  0.98059000  0.12587000  1.0
  H  H19  1  0.65556000  0.02861000  0.09629000  1.0
  H  H20  1  0.01524000  0.01941000  0.87414000  1.0
  H  H21  1  0.34443000  0.97138000  0.90371000  1.0
  C  C22  1  0.29654000  0.60312000  0.11854000  1.0
  C  C23  1  0.70349000  0.39688000  0.88146000  1.0
  C  C24  1  0.09556000  0.27742000  0.49097000  1.0
  C  C25  1  0.89951000  0.23830000  0.49394000  1.0
  C  C26  1  0.90444000  0.72258000  0.50904000  1.0
  C  C27  1  0.10049000  0.76171000  0.50607000  1.0
  C  C28  1  0.96402000  0.09548000  0.21098000  1.0
  C  C29  1  0.76985000  0.05160000  0.21662000  1.0
  C  C30  1  0.03598000  0.90452000  0.78903000  1.0
  C  C31  1  0.23015000  0.94839000  0.78338000  1.0
  N  N32  1  0.32977000  0.47647000  0.19893000  1.0
  N  N33  1  0.35359000  0.79036000  0.20607000  1.0
  N  N34  1  0.67023000  0.52353000  0.80106000  1.0
  N  N35  1  0.64642000  0.20962000  0.79393000  1.0
  N  N36  1  0.19642000  0.55742000  0.94727000  1.0
  N  N37  1  0.80355000  0.44258000  0.05274000  1.0
  O  O38  1  0.29839000  0.30887000  0.10994000  1.0
  O  O39  1  0.30032000  0.89908000  0.12796000  1.0
  O  O40  1  0.70161000  0.69114000  0.89006000  1.0
  O  O41  1  0.69965000  0.10091000  0.87205000  1.0
  O  O42  1  0.37824000  0.51251000  0.35268000  1.0
  O  O43  1  0.46281000  0.85197000  0.35734000  1.0
  O  O44  1  0.62176000  0.48748000  0.64730000  1.0
  O  O45  1  0.53723000  0.14800000  0.64265000  1.0
  O  O46  1  0.33507000  0.56772000  0.87488000  1.0
  O  O47  1  0.07324000  0.38293000  0.87326000  1.0
  O  O48  1  0.66493000  0.43230000  0.12513000  1.0
  O  O49  1  0.92676000  0.61708000  0.12673000  1.0
  O  O50  1  0.11626000  0.13109000  0.37018000  1.0
  O  O51  1  0.74946000  0.20577000  0.33260000  1.0
  O  O52  1  0.88375000  0.86892000  0.62984000  1.0
  O  O53  1  0.25054000  0.79423000  0.66740000  1.0
