# generated using pymatgen
data_GaP2H11C10(NO4)2
_symmetry_space_group_name_H-M   'P 1'
_cell_length_a   8.39345000
_cell_length_b   10.91480000
_cell_length_c   15.82530000
_cell_angle_alpha   90.00000000
_cell_angle_beta   90.00000000
_cell_angle_gamma   108.88900000
_symmetry_Int_Tables_number   1
_chemical_formula_structural   GaP2H11C10(NO4)2
_chemical_formula_sum   'Ga4 P8 H44 C40 N8 O32'
_cell_volume   1371.72514927
_cell_formula_units_Z   4
loop_
 _symmetry_equiv_pos_site_id
 _symmetry_equiv_pos_as_xyz
  1  'x, y, z'
loop_
 _atom_site_type_symbol
 _atom_site_label
 _atom_site_symmetry_multiplicity
 _atom_site_fract_x
 _atom_site_fract_y
 _atom_site_fract_z
 _atom_site_occupancy
  Ga  Ga0  1  0.54466000  0.67059000  0.38699000  1.0
  Ga  Ga1  1  0.04466000  0.67059000  0.11301000  1.0
  Ga  Ga2  1  0.45534000  0.32941000  0.61301000  1.0
  Ga  Ga3  1  0.95534000  0.32941000  0.88699000  1.0
  P  P4  1  0.62834000  0.64702000  0.58373000  1.0
  P  P5  1  0.12834000  0.64702000  0.91627000  1.0
  P  P6  1  0.37166000  0.35298000  0.41627000  1.0
  P  P7  1  0.87166000  0.35298000  0.08373000  1.0
  P  P8  1  0.31565000  0.56221000  0.21237000  1.0
  P  P9  1  0.81565000  0.56221000  0.28763000  1.0
  P  P10  1  0.68435000  0.43779000  0.78763000  1.0
  P  P11  1  0.18435000  0.43779000  0.71237000  1.0
  H  H12  1  0.43024000  0.62665000  0.68263000  1.0
  H  H13  1  0.93024000  0.62665000  0.81737000  1.0
  H  H14  1  0.56976000  0.37335000  0.31737000  1.0
  H  H15  1  0.06976000  0.37335000  0.18263000  1.0
  H  H16  1  0.80913000  0.64356000  0.68051000  1.0
  H  H17  1  0.30913000  0.64356000  0.81949000  1.0
  H  H18  1  0.19087000  0.35644000  0.31949000  1.0
  H  H19  1  0.69087000  0.35644000  0.18051000  1.0
  H  H20  1  0.51995000  0.48338000  0.19112000  1.0
  H  H21  1  0.01996000  0.48338000  0.30888000  1.0
  H  H22  1  0.48004000  0.51663000  0.80888000  1.0
  H  H23  1  0.98004000  0.51662000  0.69112000  1.0
  H  H24  1  0.87345000  0.85244000  0.31083000  1.0
  H  H25  1  0.37345000  0.85245000  0.18917000  1.0
  H  H26  1  0.12655000  0.14756000  0.68917000  1.0
  H  H27  1  0.62655000  0.14756000  0.81083000  1.0
  H  H28  1  0.00376000  0.09435000  0.29043000  1.0
  H  H29  1  0.50376000  0.09435000  0.20957000  1.0
  H  H30  1  0.99624000  0.90565000  0.70957000  1.0
  H  H31  1  0.49624000  0.90565000  0.79043000  1.0
  H  H32  1  0.82919000  0.23665000  0.32643000  1.0
  H  H33  1  0.32919000  0.23666000  0.17357000  1.0
  H  H34  1  0.17081000  0.76335000  0.67357000  1.0
  H  H35  1  0.67081000  0.76334000  0.82643000  1.0
  H  H36  1  0.54191000  0.13663000  0.38089000  1.0
  H  H37  1  0.04191000  0.13663000  0.11911000  1.0
  H  H38  1  0.45809000  0.86337000  0.61911000  1.0
  H  H39  1  0.95809000  0.86337000  0.88089000  1.0
  H  H40  1  0.28868000  0.03393000  0.41154000  1.0
  H  H41  1  0.78868000  0.03393000  0.08846000  1.0
  H  H42  1  0.71132000  0.96607000  0.58846000  1.0
  H  H43  1  0.21132000  0.96607000  0.91154000  1.0
  H  H44  1  0.00837000  0.89907000  0.46885000  1.0
  H  H45  1  0.50837000  0.89907000  0.03115000  1.0
  H  H46  1  0.99163000  0.10092000  0.53116000  1.0
  H  H47  1  0.49163000  0.10093000  0.96884000  1.0
  H  H48  1  0.95834000  0.66666667  0.50082000  1.0
  H  H49  1  0.45834000  0.66666667  0.99918000  1.0
  H  H50  1  0.04166000  0.33333333  0.49918000  1.0
  H  H51  1  0.54166000  0.33333333  0.00082000  1.0
  H  H52  1  0.19246000  0.57352000  0.47306000  1.0
  H  H53  1  0.69245000  0.57352000  0.02694000  1.0
  H  H54  1  0.80755000  0.42648000  0.52694000  1.0
  H  H55  1  0.30755000  0.42648000  0.97306000  1.0
  C  C56  1  0.80624000  0.92008000  0.32583000  1.0
  C  C57  1  0.30624000  0.92008000  0.17417000  1.0
  C  C58  1  0.19376000  0.07992000  0.67417000  1.0
  C  C59  1  0.69376000  0.07992000  0.82583000  1.0
  C  C60  1  0.87567000  0.05315000  0.31365000  1.0
  C  C61  1  0.37567000  0.05315000  0.18635000  1.0
  C  C62  1  0.12433000  0.94685000  0.68635000  1.0
  C  C63  1  0.62433000  0.94685000  0.81365000  1.0
  C  C64  1  0.77924000  0.13183000  0.33384000  1.0
  C  C65  1  0.27924000  0.13183000  0.16616000  1.0
  C  C66  1  0.22076000  0.86817000  0.66616000  1.0
  C  C67  1  0.72076000  0.86817000  0.83384000  1.0
  C  C68  1  0.61691000  0.07522000  0.36515000  1.0
  C  C69  1  0.11691000  0.07523000  0.13485000  1.0
  C  C70  1  0.38309000  0.92477000  0.63485000  1.0
  C  C71  1  0.88309000  0.92478000  0.86515000  1.0
  C  C72  1  0.55528000  0.94133000  0.37666000  1.0
  C  C73  1  0.05527000  0.94133000  0.12334000  1.0
  C  C74  1  0.44472000  0.05867000  0.62334000  1.0
  C  C75  1  0.94472000  0.05867000  0.87666000  1.0
  C  C76  1  0.38580000  0.87246000  0.41067000  1.0
  C  C77  1  0.88580000  0.87246000  0.08933000  1.0
  C  C78  1  0.61420000  0.12754000  0.58933000  1.0
  C  C79  1  0.11420000  0.12754000  0.91067000  1.0
  C  C80  1  0.26310000  0.93152000  0.42506000  1.0
  C  C81  1  0.76310000  0.93152000  0.07494000  1.0
  C  C82  1  0.73690000  0.06848000  0.57494000  1.0
  C  C83  1  0.23690000  0.06848000  0.92506000  1.0
  C  C84  1  0.10740000  0.85677000  0.45732000  1.0
  C  C85  1  0.60740000  0.85677000  0.04268000  1.0
  C  C86  1  0.89260000  0.14323000  0.54268000  1.0
  C  C87  1  0.39260000  0.14323000  0.95732000  1.0
  C  C88  1  0.07848000  0.72662000  0.47557000  1.0
  C  C89  1  0.57848000  0.72662000  0.02443000  1.0
  C  C90  1  0.92152000  0.27338000  0.52443000  1.0
  C  C91  1  0.42152000  0.27338000  0.97557000  1.0
  C  C92  1  0.20626000  0.67421000  0.45997000  1.0
  C  C93  1  0.70626000  0.67421000  0.04003000  1.0
  C  C94  1  0.79375000  0.32578000  0.54003000  1.0
  C  C95  1  0.29374000  0.32579000  0.95997000  1.0
  N  N96  1  0.65095000  0.86666000  0.35753000  1.0
  N  N97  1  0.15095000  0.86666000  0.14247000  1.0
  N  N98  1  0.34905000  0.13334000  0.64247000  1.0
  N  N99  1  0.84905000  0.13334000  0.85753000  1.0
  N  N100  1  0.35459000  0.74538000  0.42736000  1.0
  N  N101  1  0.85459000  0.74538000  0.07264000  1.0
  N  N102  1  0.64541000  0.25462000  0.57264000  1.0
  N  N103  1  0.14541000  0.25462000  0.92736000  1.0
  O  O104  1  0.43741000  0.65443000  0.27349000  1.0
  O  O105  1  0.93741000  0.65443000  0.22650000  1.0
  O  O106  1  0.56259000  0.34557000  0.72650000  1.0
  O  O107  1  0.06259000  0.34557000  0.77350000  1.0
  O  O108  1  0.65503000  0.71871000  0.50008000  1.0
  O  O109  1  0.15503000  0.71871000  0.99992000  1.0
  O  O110  1  0.34497000  0.28129000  0.49992000  1.0
  O  O111  1  0.84497000  0.28129000  0.00008000  1.0
  O  O112  1  0.59429000  0.50136000  0.57873000  1.0
  O  O113  1  0.09429000  0.50136000  0.92127000  1.0
  O  O114  1  0.40571000  0.49864000  0.42127000  1.0
  O  O115  1  0.90571000  0.49864000  0.07873000  1.0
  O  O116  1  0.24572000  0.63529000  0.14770000  1.0
  O  O117  1  0.74572000  0.63529000  0.35230000  1.0
  O  O118  1  0.75428000  0.36471000  0.85230000  1.0
  O  O119  1  0.25428000  0.36471000  0.64770000  1.0
  O  O120  1  0.48194000  0.68084000  0.63061000  1.0
  O  O121  1  0.98194000  0.68084000  0.86939000  1.0
  O  O122  1  0.51806000  0.31916000  0.36939000  1.0
  O  O123  1  0.01806000  0.31916000  0.13061000  1.0
  O  O124  1  0.79548000  0.70877000  0.63665000  1.0
  O  O125  1  0.29548000  0.70877000  0.86335000  1.0
  O  O126  1  0.20452000  0.29123000  0.36335000  1.0
  O  O127  1  0.70452000  0.29123000  0.13665000  1.0
  O  O128  1  0.41535000  0.48603000  0.15985000  1.0
  O  O129  1  0.91535000  0.48603000  0.34015000  1.0
  O  O130  1  0.58464000  0.51397000  0.84015000  1.0
  O  O131  1  0.08464000  0.51397000  0.65985000  1.0
  O  O132  1  0.16656000  0.45702000  0.25702000  1.0
  O  O133  1  0.66656000  0.45702000  0.24298000  1.0
  O  O134  1  0.83344000  0.54298000  0.74298000  1.0
  O  O135  1  0.33344000  0.54298000  0.75702000  1.0
