# generated using pymatgen
data_Zn2H24C35(NO4)2
_symmetry_space_group_name_H-M   'P 1'
_cell_length_a   10.96750000
_cell_length_b   11.66240000
_cell_length_c   13.22080000
_cell_angle_alpha   96.52020000
_cell_angle_beta   96.22330000
_cell_angle_gamma   104.83800000
_symmetry_Int_Tables_number   1
_chemical_formula_structural   Zn2H24C35(NO4)2
_chemical_formula_sum   'Zn2 H24 C35 N2 O8'
_cell_volume   1607.34816641
_cell_formula_units_Z   1
loop_
 _symmetry_equiv_pos_site_id
 _symmetry_equiv_pos_as_xyz
  1  'x, y, z'
loop_
 _atom_site_type_symbol
 _atom_site_label
 _atom_site_symmetry_multiplicity
 _atom_site_fract_x
 _atom_site_fract_y
 _atom_site_fract_z
 _atom_site_occupancy
  Zn  Zn0  1  0.53785000  0.63330000  0.52471000  1.0
  Zn  Zn1  1  0.46353000  0.38394000  0.50403000  1.0
  H  H2  1  0.85414000  0.35739000  0.57513000  1.0
  H  H3  1  0.58011000  0.20623000  0.41130000  1.0
  H  H4  1  0.82824000  0.71735000  0.44698000  1.0
  H  H5  1  0.95782000  0.85450000  0.34356000  1.0
  H  H6  1  0.14291000  0.80284000  0.27605000  1.0
  H  H7  1  0.07654000  0.34590000  0.55800000  1.0
  H  H8  1  0.66495000  0.69857000  0.84920000  1.0
  H  H9  1  0.27807000  0.31420000  0.99094000  1.0
  H  H10  1  0.33656000  0.66849000  0.34257000  1.0
  H  H11  1  0.23224000  0.52635000  0.29443000  1.0
  H  H12  1  0.23243000  0.64794000  0.22532000  1.0
  H  H13  1  0.69789000  0.71499000  0.04048000  1.0
  H  H14  1  0.18572000  0.50717000  0.79561000  1.0
  H  H15  1  0.16274000  0.43467000  0.90569000  1.0
  H  H16  1  0.09073000  0.35652000  0.78138000  1.0
  H  H17  1  0.30743000  0.36626000  0.73048000  1.0
  H  H18  1  0.28278000  0.28804000  0.83608000  1.0
  H  H19  1  0.32178000  0.32310000  0.17894000  1.0
  H  H20  1  0.63309000  0.63848000  0.19848000  1.0
  H  H21  1  0.41411000  0.80800000  0.60959000  1.0
  H  H22  1  0.67127000  0.81609000  0.40169000  1.0
  H  H23  1  0.31844000  0.98754000  0.64724000  1.0
  H  H24  1  0.66816000  0.02327000  0.36758000  1.0
  H  H25  1  0.31736000  0.19558000  0.61482000  1.0
  C  C26  1  0.49711000  0.48913000  0.31445000  1.0
  C  C27  1  0.37996000  0.38974000  0.13989000  1.0
  C  C28  1  0.55611000  0.56723000  0.15219000  1.0
  C  C29  1  0.74335000  0.52099000  0.52520000  1.0
  C  C30  1  0.53816000  0.56144000  0.04382000  1.0
  C  C31  1  0.43466000  0.46981000  0.98281000  1.0
  C  C32  1  0.41460000  0.46372000  0.87314000  1.0
  C  C33  1  0.60202000  0.63606000  0.88871000  1.0
  C  C34  1  0.61999000  0.64484000  0.99399000  1.0
  C  C35  1  0.37725000  0.03252000  0.59437000  1.0
  C  C36  1  0.37557000  0.14610000  0.57676000  1.0
  C  C37  1  0.95464000  0.60328000  0.45531000  1.0
  C  C38  1  0.52315000  0.15352000  0.46140000  1.0
  C  C39  1  0.53191000  0.03677000  0.47385000  1.0
  C  C40  1  0.45743000  0.97533000  0.54327000  1.0
  C  C41  1  0.49822000  0.53959000  0.71328000  1.0
  C  C42  1  0.46878000  0.85981000  0.55773000  1.0
  C  C43  1  0.61466000  0.86648000  0.44085000  1.0
  C  C44  1  0.61119000  0.97915000  0.42192000  1.0
  C  C45  1  0.25442000  0.48739000  0.48466000  1.0
  C  C46  1  0.91565000  0.70250000  0.42387000  1.0
  C  C47  1  0.98722000  0.77730000  0.36598000  1.0
  C  C48  1  0.87575000  0.51806000  0.50765000  1.0
  C  C49  1  0.09428000  0.74999000  0.33031000  1.0
  C  C50  1  0.13722000  0.65429000  0.35797000  1.0
  C  C51  1  0.07390000  0.58457000  0.42961000  1.0
  C  C52  1  0.24031000  0.62280000  0.30289000  1.0
  C  C53  1  0.29589000  0.37722000  0.81188000  1.0
  C  C54  1  0.17681000  0.42120000  0.82464000  1.0
  C  C55  1  0.91704000  0.42304000  0.53819000  1.0
  C  C56  1  0.03960000  0.41419000  0.52559000  1.0
  C  C57  1  0.11866000  0.49357000  0.47445000  1.0
  C  C58  1  0.50120000  0.54454000  0.82763000  1.0
  C  C59  1  0.47926000  0.48290000  0.20007000  1.0
  C  C60  1  0.35676000  0.38527000  0.03495000  1.0
  N  N61  1  0.54501000  0.80885000  0.50888000  1.0
  N  N62  1  0.44848000  0.20536000  0.51144000  1.0
  O  O63  1  0.54848000  0.59156000  0.36844000  1.0
  O  O64  1  0.45668000  0.39114000  0.34963000  1.0
  O  O65  1  0.72093000  0.62140000  0.55150000  1.0
  O  O66  1  0.66116000  0.41918000  0.51139000  1.0
  O  O67  1  0.52104000  0.63928000  0.67852000  1.0
  O  O68  1  0.47915000  0.43676000  0.65979000  1.0
  O  O69  1  0.34034000  0.58686000  0.49765000  1.0
  O  O70  1  0.27477000  0.38471000  0.48687000  1.0
