# generated using pymatgen
data_MnH16C14(NO3)2
_symmetry_space_group_name_H-M   'P 1'
_cell_length_a   6.98417000
_cell_length_b   9.75372000
_cell_length_c   9.84725000
_cell_angle_alpha   89.99980000
_cell_angle_beta   90.00000000
_cell_angle_gamma   102.50100000
_symmetry_Int_Tables_number   1
_chemical_formula_structural   MnH16C14(NO3)2
_chemical_formula_sum   'Mn2 H32 C28 N4 O12'
_cell_volume   654.90737711
_cell_formula_units_Z   2
loop_
 _symmetry_equiv_pos_site_id
 _symmetry_equiv_pos_as_xyz
  1  'x, y, z'
loop_
 _atom_site_type_symbol
 _atom_site_label
 _atom_site_symmetry_multiplicity
 _atom_site_fract_x
 _atom_site_fract_y
 _atom_site_fract_z
 _atom_site_occupancy
  Mn  Mn0  1  0.00000000  0.00000000  0.50000000  1.0
  Mn  Mn1  1  0.50000000  0.00000000  0.00000000  1.0
  H  H2  1  0.12841000  0.16524000  0.27860000  1.0
  H  H3  1  0.37158000  0.83476000  0.77861000  1.0
  H  H4  1  0.87159000  0.83476000  0.72139000  1.0
  H  H5  1  0.62842000  0.16524000  0.22139000  1.0
  H  H6  1  0.30880000  0.17361000  0.38442000  1.0
  H  H7  1  0.19120000  0.82639000  0.88442000  1.0
  H  H8  1  0.69120000  0.82639000  0.61558000  1.0
  H  H9  1  0.80880000  0.17361000  0.11558000  1.0
  H  H10  1  0.03436000  0.30776000  0.52301000  1.0
  H  H11  1  0.46564000  0.69225000  0.02302000  1.0
  H  H12  1  0.96564000  0.69224000  0.47698000  1.0
  H  H13  1  0.53436000  0.30775000  0.97698000  1.0
  H  H14  1  0.07659000  0.40174000  0.95136000  1.0
  H  H15  1  0.42340000  0.59826000  0.45137000  1.0
  H  H16  1  0.92340000  0.59825000  0.04864000  1.0
  H  H17  1  0.57660000  0.40174000  0.54864000  1.0
  H  H18  1  0.13541000  0.00312000  0.78796000  1.0
  H  H19  1  0.36459000  0.99688000  0.28796000  1.0
  H  H20  1  0.86459000  0.99688000  0.21204000  1.0
  H  H21  1  0.63541000  0.00312000  0.71204000  1.0
  H  H22  1  0.18328000  0.58505000  0.65658000  1.0
  H  H23  1  0.31672000  0.41495000  0.15658000  1.0
  H  H24  1  0.81672000  0.41495000  0.34342000  1.0
  H  H25  1  0.68328000  0.58505000  0.84342000  1.0
  H  H26  1  0.02022000  0.58233000  0.79378000  1.0
  H  H27  1  0.47978000  0.41767000  0.29379000  1.0
  H  H28  1  0.97979000  0.41767000  0.20622000  1.0
  H  H29  1  0.52022000  0.58233000  0.70621000  1.0
  H  H30  1  0.92692000  0.52864000  0.63039000  1.0
  H  H31  1  0.57308000  0.47136000  0.13039000  1.0
  H  H32  1  0.07308000  0.47136000  0.36961000  1.0
  H  H33  1  0.42692000  0.52864000  0.86961000  1.0
  C  C34  1  0.05447000  0.28019000  0.62821000  1.0
  C  C35  1  0.44552000  0.71981000  0.12821000  1.0
  C  C36  1  0.94553000  0.71981000  0.37179000  1.0
  C  C37  1  0.55448000  0.28019000  0.87179000  1.0
  C  C38  1  0.06034000  0.37776000  0.73280000  1.0
  C  C39  1  0.43967000  0.62225000  0.23280000  1.0
  C  C40  1  0.93966000  0.62224000  0.26720000  1.0
  C  C41  1  0.56034000  0.37775000  0.76720000  1.0
  C  C42  1  0.08026000  0.33217000  0.86518000  1.0
  C  C43  1  0.41974000  0.66783000  0.36518000  1.0
  C  C44  1  0.91974000  0.66783000  0.13482000  1.0
  C  C45  1  0.58026000  0.33217000  0.63482000  1.0
  C  C46  1  0.11482000  0.19736000  0.88695000  1.0
  C  C47  1  0.38518000  0.80263000  0.38695000  1.0
  C  C48  1  0.88518000  0.80263000  0.11305000  1.0
  C  C49  1  0.61482000  0.19737000  0.61305000  1.0
  C  C50  1  0.11071000  0.10835000  0.77592000  1.0
  C  C51  1  0.38929000  0.89166000  0.27593000  1.0
  C  C52  1  0.88929000  0.89165000  0.22408000  1.0
  C  C53  1  0.61071000  0.10835000  0.72407000  1.0
  C  C54  1  0.04640000  0.52572000  0.70193000  1.0
  C  C55  1  0.45361000  0.47429000  0.20194000  1.0
  C  C56  1  0.95361000  0.47428000  0.29807000  1.0
  C  C57  1  0.54640000  0.52572000  0.79807000  1.0
  C  C58  1  0.15250000  0.15258000  0.02728000  1.0
  C  C59  1  0.34750000  0.84741000  0.52728000  1.0
  C  C60  1  0.84749000  0.84741000  0.97272000  1.0
  C  C61  1  0.65250000  0.15259000  0.47272000  1.0
  N  N62  1  0.06956000  0.14550000  0.64899000  1.0
  N  N63  1  0.43044000  0.85450000  0.14899000  1.0
  N  N64  1  0.93044000  0.85451000  0.35101000  1.0
  N  N65  1  0.56956000  0.14550000  0.85101000  1.0
  O  O66  1  0.06134000  0.19929000  0.12424000  1.0
  O  O67  1  0.43866000  0.80071000  0.62424000  1.0
  O  O68  1  0.93866000  0.80071000  0.87576000  1.0
  O  O69  1  0.56134000  0.19929000  0.37576000  1.0
  O  O70  1  0.27203000  0.07316000  0.05067000  1.0
  O  O71  1  0.22797000  0.92684000  0.55067000  1.0
  O  O72  1  0.72797000  0.92684000  0.94933000  1.0
  O  O73  1  0.77203000  0.07316000  0.44933000  1.0
  O  O74  1  0.16322000  0.15644000  0.37736000  1.0
  O  O75  1  0.33677000  0.84355000  0.87736000  1.0
  O  O76  1  0.83678000  0.84356000  0.62264000  1.0
  O  O77  1  0.66322000  0.15645000  0.12264000  1.0
