# generated using pymatgen
data_CdH18C24SN3O4
_symmetry_space_group_name_H-M   'P 1'
_cell_length_a   9.48061000
_cell_length_b   11.06390000
_cell_length_c   11.44920000
_cell_angle_alpha   96.19310000
_cell_angle_beta   103.80500000
_cell_angle_gamma   106.09100000
_symmetry_Int_Tables_number   1
_chemical_formula_structural   CdH18C24SN3O4
_chemical_formula_sum   'Cd2 H36 C48 S2 N6 O8'
_cell_volume   1100.89437874
_cell_formula_units_Z   2
loop_
 _symmetry_equiv_pos_site_id
 _symmetry_equiv_pos_as_xyz
  1  'x, y, z'
loop_
 _atom_site_type_symbol
 _atom_site_label
 _atom_site_symmetry_multiplicity
 _atom_site_fract_x
 _atom_site_fract_y
 _atom_site_fract_z
 _atom_site_occupancy
  Cd  Cd0  1  0.45150000  0.95674000  0.83486000  1.0
  Cd  Cd1  1  0.54850000  0.04326000  0.16515000  1.0
  H  H2  1  0.10580000  0.83299000  0.58593000  1.0
  H  H3  1  0.89419000  0.16701000  0.41407000  1.0
  H  H4  1  0.92192000  0.80704000  0.38165000  1.0
  H  H5  1  0.07808000  0.19296000  0.61835000  1.0
  H  H6  1  0.98343000  0.95313000  0.23814000  1.0
  H  H7  1  0.01658000  0.04688000  0.76186000  1.0
  H  H8  1  0.23463000  0.12134000  0.28656000  1.0
  H  H9  1  0.76537000  0.87866000  0.71345000  1.0
  H  H10  1  0.78771000  0.35447000  0.66570000  1.0
  H  H11  1  0.21229000  0.64553000  0.33430000  1.0
  H  H12  1  0.84120000  0.16491000  0.99983000  1.0
  H  H13  1  0.15880000  0.83509000  0.00017000  1.0
  H  H14  1  0.50080000  0.20900000  0.36274000  1.0
  H  H15  1  0.49920000  0.79100000  0.63726000  1.0
  H  H16  1  0.66108000  0.25646000  0.49014000  1.0
  H  H17  1  0.33891000  0.74354000  0.50986000  1.0
  H  H18  1  0.52808000  0.38550000  0.67466000  1.0
  H  H19  1  0.47191000  0.61449000  0.32534000  1.0
  H  H20  1  0.49662000  0.39760000  0.29435000  1.0
  H  H21  1  0.50338000  0.60240000  0.70564000  1.0
  H  H22  1  0.14823000  0.53847000  0.81511000  1.0
  H  H23  1  0.85177000  0.46153000  0.18488000  1.0
  H  H24  1  0.99602000  0.60794000  0.79670000  1.0
  H  H25  1  0.00399000  0.39206000  0.20330000  1.0
  H  H26  1  0.21222000  0.44854000  0.63700000  1.0
  H  H27  1  0.78778000  0.55146000  0.36300000  1.0
  H  H28  1  0.85990000  0.62938000  0.58693000  1.0
  H  H29  1  0.14011000  0.37062000  0.41307000  1.0
  H  H30  1  0.71516000  0.80486000  0.16569000  1.0
  H  H31  1  0.28484000  0.19514000  0.83432000  1.0
  H  H32  1  0.82906000  0.76251000  0.07418000  1.0
  H  H33  1  0.17095000  0.23749000  0.92583000  1.0
  H  H34  1  0.74208000  0.55313000  0.94044000  1.0
  H  H35  1  0.25792000  0.44687000  0.05956000  1.0
  H  H36  1  0.43970000  0.66749000  0.12277000  1.0
  H  H37  1  0.56029000  0.33252000  0.87722000  1.0
  C  C38  1  0.27406000  0.99247000  0.55091000  1.0
  C  C39  1  0.72594000  0.00753000  0.44909000  1.0
  C  C40  1  0.13392000  0.89452000  0.52134000  1.0
  C  C41  1  0.86608000  0.10548000  0.47866000  1.0
  C  C42  1  0.03240000  0.88178000  0.40737000  1.0
  C  C43  1  0.96760000  0.11822000  0.59263000  1.0
  C  C44  1  0.06756000  0.96408000  0.32523000  1.0
  C  C45  1  0.93244000  0.03592000  0.67477000  1.0
  C  C46  1  0.20718000  0.06080000  0.35230000  1.0
  C  C47  1  0.79282000  0.93920000  0.64770000  1.0
  C  C48  1  0.30933000  0.07230000  0.46629000  1.0
  C  C49  1  0.69067000  0.92771000  0.53371000  1.0
  C  C50  1  0.50570000  0.12511000  0.63418000  1.0
  C  C51  1  0.49430000  0.87488000  0.36582000  1.0
  C  C52  1  0.65186000  0.18517000  0.72641000  1.0
  C  C53  1  0.34814000  0.81483000  0.27359000  1.0
  C  C54  1  0.77268000  0.29168000  0.73132000  1.0
  C  C55  1  0.22732000  0.70832000  0.26867000  1.0
  C  C56  1  0.80449000  0.19006000  0.91023000  1.0
  C  C57  1  0.19551000  0.80994000  0.08977000  1.0
  C  C58  1  0.53921000  0.24829000  0.46096000  1.0
  C  C59  1  0.46079000  0.75170000  0.53904000  1.0
  C  C60  1  0.51500000  0.37710000  0.48209000  1.0
  C  C61  1  0.48500000  0.62290000  0.51791000  1.0
  C  C62  1  0.51613000  0.43512000  0.59735000  1.0
  C  C63  1  0.48387000  0.56488000  0.40265000  1.0
  C  C64  1  0.49777000  0.44263000  0.38434000  1.0
  C  C65  1  0.50223000  0.55737000  0.61566000  1.0
  C  C66  1  0.21131000  0.73112000  0.78603000  1.0
  C  C67  1  0.78869000  0.26888000  0.21396000  1.0
  C  C68  1  0.09235000  0.59867000  0.76299000  1.0
  C  C69  1  0.90765000  0.40132000  0.23701000  1.0
  C  C70  1  0.04037000  0.54309000  0.62790000  1.0
  C  C71  1  0.95963000  0.45691000  0.37210000  1.0
  C  C72  1  0.11807000  0.47026000  0.57703000  1.0
  C  C73  1  0.88193000  0.52974000  0.42297000  1.0
  C  C74  1  0.92142000  0.57224000  0.54911000  1.0
  C  C75  1  0.07858000  0.42775000  0.45088000  1.0
  C  C76  1  0.65823000  0.83907000  0.98060000  1.0
  C  C77  1  0.34178000  0.16094000  0.01941000  1.0
  C  C78  1  0.71299000  0.76119000  0.07417000  1.0
  C  C79  1  0.28700000  0.23881000  0.92583000  1.0
  C  C80  1  0.60521000  0.62559000  0.03840000  1.0
  C  C81  1  0.39479000  0.37441000  0.96160000  1.0
  C  C82  1  0.63620000  0.53002000  0.96751000  1.0
  C  C83  1  0.36379000  0.46998000  0.03249000  1.0
  C  C84  1  0.46710000  0.59364000  0.06974000  1.0
  C  C85  1  0.53290000  0.40637000  0.93026000  1.0
  S  S86  1  0.91191000  0.32061000  0.86635000  1.0
  S  S87  1  0.08809000  0.67939000  0.13365000  1.0
  N  N88  1  0.39769000  0.02870000  0.65441000  1.0
  N  N89  1  0.60231000  0.97130000  0.34559000  1.0
  N  N90  1  0.45735000  0.15407000  0.52112000  1.0
  N  N91  1  0.54265000  0.84593000  0.47888000  1.0
  N  N92  1  0.67306000  0.12977000  0.82938000  1.0
  N  N93  1  0.32694000  0.87023000  0.17063000  1.0
  O  O94  1  0.18082000  0.83024000  0.82505000  1.0
  O  O95  1  0.81918000  0.16976000  0.17494000  1.0
  O  O96  1  0.33687000  0.73517000  0.76212000  1.0
  O  O97  1  0.66314000  0.26482000  0.23788000  1.0
  O  O98  1  0.56860000  0.90081000  0.00873000  1.0
  O  O99  1  0.43140000  0.09919000  0.99127000  1.0
  O  O100  1  0.69093000  0.83517000  0.88157000  1.0
  O  O101  1  0.30909000  0.16484000  0.11844000  1.0
