# generated using pymatgen
data_CuH6C10(SN3)2
_symmetry_space_group_name_H-M   'P 1'
_cell_length_a   7.84436000
_cell_length_b   8.91215000
_cell_length_c   8.91203000
_cell_angle_alpha   103.65300000
_cell_angle_beta   91.50810000
_cell_angle_gamma   91.51030000
_symmetry_Int_Tables_number   1
_chemical_formula_structural   CuH6C10(SN3)2
_chemical_formula_sum   'Cu2 H12 C20 S4 N12'
_cell_volume   604.88582350
_cell_formula_units_Z   2
loop_
 _symmetry_equiv_pos_site_id
 _symmetry_equiv_pos_as_xyz
  1  'x, y, z'
loop_
 _atom_site_type_symbol
 _atom_site_label
 _atom_site_symmetry_multiplicity
 _atom_site_fract_x
 _atom_site_fract_y
 _atom_site_fract_z
 _atom_site_occupancy
  Cu  Cu0  1  0.75000000  0.36919000  0.63079000  1.0
  Cu  Cu1  1  0.25001000  0.63080000  0.36920000  1.0
  H  H2  1  0.40462000  0.45504000  0.78263000  1.0
  H  H3  1  0.09538000  0.21737000  0.54496000  1.0
  H  H4  1  0.59538000  0.54497000  0.21737000  1.0
  H  H5  1  0.90462000  0.78263000  0.45505000  1.0
  H  H6  1  0.23918000  0.35799000  0.98463000  1.0
  H  H7  1  0.26082000  0.01538000  0.64201000  1.0
  H  H8  1  0.76081000  0.64202000  0.01537000  1.0
  H  H9  1  0.73919000  0.98462000  0.35799000  1.0
  H  H10  1  0.37478000  0.15167000  0.09666000  1.0
  H  H11  1  0.12520000  0.90334000  0.84833000  1.0
  H  H12  1  0.62521000  0.84833000  0.90333000  1.0
  H  H13  1  0.87480000  0.09666000  0.15167000  1.0
  C  C14  1  0.45208000  0.36628000  0.83720000  1.0
  C  C15  1  0.04792000  0.16281000  0.63372000  1.0
  C  C16  1  0.54793000  0.63373000  0.16281000  1.0
  C  C17  1  0.95208000  0.83720000  0.36628000  1.0
  C  C18  1  0.36261000  0.31263000  0.94758000  1.0
  C  C19  1  0.13738000  0.05242000  0.68738000  1.0
  C  C20  1  0.63739000  0.68738000  0.05242000  1.0
  C  C21  1  0.86262000  0.94758000  0.31263000  1.0
  C  C22  1  0.43815000  0.20014000  0.01053000  1.0
  C  C23  1  0.06183000  0.98947000  0.79986000  1.0
  C  C24  1  0.56184000  0.79986000  0.98946000  1.0
  C  C25  1  0.93816000  0.01053000  0.20014000  1.0
  C  C26  1  0.66698000  0.19982000  0.85893000  1.0
  C  C27  1  0.83301000  0.14107000  0.80018000  1.0
  C  C28  1  0.33302000  0.80018000  0.14107000  1.0
  C  C29  1  0.16699000  0.85893000  0.19982000  1.0
  C  C30  1  0.39334000  0.32125000  0.39078000  1.0
  C  C31  1  0.10666000  0.60923000  0.67875000  1.0
  C  C32  1  0.60666000  0.67874000  0.60924000  1.0
  C  C33  1  0.89334000  0.39077000  0.32124000  1.0
  S  S34  1  0.44674000  0.16052000  0.42975000  1.0
  S  S35  1  0.05327000  0.57026000  0.83947000  1.0
  S  S36  1  0.55326000  0.83945000  0.57027000  1.0
  S  S37  1  0.94674000  0.42975000  0.16051000  1.0
  N  N38  1  0.60436000  0.30958000  0.79321000  1.0
  N  N39  1  0.89563000  0.20679000  0.69041000  1.0
  N  N40  1  0.39563000  0.69042000  0.20679000  1.0
  N  N41  1  0.10437000  0.79321000  0.30958000  1.0
  N  N42  1  0.59068000  0.14418000  0.96687000  1.0
  N  N43  1  0.90931000  0.03313000  0.85581000  1.0
  N  N44  1  0.40931000  0.85581000  0.03312000  1.0
  N  N45  1  0.09069000  0.96687000  0.14419000  1.0
  N  N46  1  0.64303000  0.56293000  0.64464000  1.0
  N  N47  1  0.85698000  0.35537000  0.43706000  1.0
  N  N48  1  0.35698000  0.43706000  0.35538000  1.0
  N  N49  1  0.14303000  0.64464000  0.56294000  1.0
