# generated using pymatgen
data_AlH6C21N(ClO)6
_symmetry_space_group_name_H-M   'P 1'
_cell_length_a   4.15363000
_cell_length_b   13.50090000
_cell_length_c   13.50095000
_cell_angle_alpha   119.99963247
_cell_angle_beta   89.99970000
_cell_angle_gamma   89.99950000
_symmetry_Int_Tables_number   1
_chemical_formula_structural   AlH6C21N(ClO)6
_chemical_formula_sum   'Al1 H6 C21 N1 Cl6 O6'
_cell_volume   655.67269314
_cell_formula_units_Z   1
loop_
 _symmetry_equiv_pos_site_id
 _symmetry_equiv_pos_as_xyz
  1  'x, y, z'
loop_
 _atom_site_type_symbol
 _atom_site_label
 _atom_site_symmetry_multiplicity
 _atom_site_fract_x
 _atom_site_fract_y
 _atom_site_fract_z
 _atom_site_occupancy
  Al  Al0  1  0.99999000  0.00000000  0.50000000  1.0
  H  H1  1  0.76912000  0.12739000  0.09863000  1.0
  H  H2  1  0.23089000  0.40138000  0.37261000  1.0
  H  H3  1  0.23091000  0.12738000  0.02877000  1.0
  H  H4  1  0.76912000  0.40137000  0.02876000  1.0
  H  H5  1  0.23092000  0.47123000  0.09862000  1.0
  H  H6  1  0.76911000  0.47123000  0.37261000  1.0
  C  C7  1  0.49995000  0.08707000  0.67414000  1.0
  C  C8  1  0.50002000  0.82585000  0.41291000  1.0
  C  C9  1  0.50001000  0.08707000  0.41294000  1.0
  C  C10  1  0.64068000  0.10530000  0.24000000  1.0
  C  C11  1  0.65004000  0.16554000  0.18127000  1.0
  C  C12  1  0.49998000  0.27267000  0.22735000  1.0
  C  C13  1  0.34996000  0.31874000  0.33447000  1.0
  C  C14  1  0.35935000  0.26001000  0.39471000  1.0
  C  C15  1  0.50001000  0.15141000  0.34859000  1.0
  C  C16  1  0.34992000  0.16553000  0.98428000  1.0
  C  C17  1  0.35931000  0.10529000  0.86530000  1.0
  C  C18  1  0.49999000  0.15141000  0.80283000  1.0
  C  C19  1  0.64069000  0.25999000  0.86530000  1.0
  C  C20  1  0.65004000  0.31873000  0.98428000  1.0
  C  C21  1  0.49998000  0.27266000  0.04532000  1.0
  C  C22  1  0.34994000  0.51572000  0.18127000  1.0
  C  C23  1  0.35933000  0.63470000  0.23999000  1.0
  C  C24  1  0.50002000  0.69717000  0.34858000  1.0
  C  C25  1  0.64069000  0.63470000  0.39470000  1.0
  C  C26  1  0.65007000  0.51572000  0.33446000  1.0
  C  C27  1  0.49999000  0.45468000  0.22734000  1.0
  N  N28  1  0.49998000  0.33333000  0.16667000  1.0
  Cl  Cl29  1  0.19203000  0.32399000  0.52989000  1.0
  Cl  Cl30  1  0.80802000  0.97012000  0.17601000  1.0
  Cl  Cl31  1  0.19198000  0.97011000  0.79411000  1.0
  Cl  Cl32  1  0.80799000  0.32399000  0.79412000  1.0
  Cl  Cl33  1  0.19203000  0.70589000  0.17600000  1.0
  Cl  Cl34  1  0.80797000  0.70590000  0.52988000  1.0
  O  O35  1  0.26324000  0.02105000  0.39569000  1.0
  O  O36  1  0.26322000  0.10431000  0.62537000  1.0
  O  O37  1  0.26324000  0.87463000  0.47893000  1.0
  O  O38  1  0.73675000  0.10432000  0.47895000  1.0
  O  O39  1  0.73677000  0.87463000  0.39567000  1.0
  O  O40  1  0.73673000  0.02105000  0.62537000  1.0
