# generated using pymatgen
data_CdH8C12S2(N2Cl)2
_symmetry_space_group_name_H-M   'P 1'
_cell_length_a   5.78498000
_cell_length_b   9.46621000
_cell_length_c   14.75350000
_cell_angle_alpha   80.01810000
_cell_angle_beta   90.00290000
_cell_angle_gamma   90.00030000
_symmetry_Int_Tables_number   1
_chemical_formula_structural   CdH8C12S2(N2Cl)2
_chemical_formula_sum   'Cd2 H16 C24 S4 N8 Cl4'
_cell_volume   795.69876668
_cell_formula_units_Z   2
loop_
 _symmetry_equiv_pos_site_id
 _symmetry_equiv_pos_as_xyz
  1  'x, y, z'
loop_
 _atom_site_type_symbol
 _atom_site_label
 _atom_site_symmetry_multiplicity
 _atom_site_fract_x
 _atom_site_fract_y
 _atom_site_fract_z
 _atom_site_occupancy
  Cd  Cd0  1  0.50001000  0.50000000  0.50000000  1.0
  Cd  Cd1  1  0.99999000  0.00000000  0.00000000  1.0
  H  H2  1  0.26308000  0.18826000  0.53811000  1.0
  H  H3  1  0.76309000  0.31174000  0.96189000  1.0
  H  H4  1  0.73694000  0.81174000  0.46188000  1.0
  H  H5  1  0.23690000  0.68826000  0.03812000  1.0
  H  H6  1  0.66473000  0.87497000  0.72049000  1.0
  H  H7  1  0.16471000  0.62502000  0.77952000  1.0
  H  H8  1  0.33527000  0.12503000  0.27951000  1.0
  H  H9  1  0.83528000  0.37497000  0.22049000  1.0
  H  H10  1  0.94376000  0.07180000  0.73703000  1.0
  H  H11  1  0.44375000  0.42820000  0.76298000  1.0
  H  H12  1  0.05624000  0.92821000  0.26297000  1.0
  H  H13  1  0.55625000  0.57179000  0.23702000  1.0
  H  H14  1  0.87019000  0.31900000  0.64910000  1.0
  H  H15  1  0.37018000  0.18099000  0.85091000  1.0
  H  H16  1  0.12982000  0.68100000  0.35090000  1.0
  H  H17  1  0.62981000  0.81901000  0.14910000  1.0
  C  C18  1  0.00623000  0.42901000  0.39949000  1.0
  C  C19  1  0.50625000  0.07098000  0.10050000  1.0
  C  C20  1  0.99380000  0.57098000  0.60051000  1.0
  C  C21  1  0.49373000  0.92902000  0.89949000  1.0
  C  C22  1  0.41152000  0.15931000  0.58314000  1.0
  C  C23  1  0.91152000  0.34069000  0.91686000  1.0
  C  C24  1  0.58849000  0.84069000  0.41686000  1.0
  C  C25  1  0.08846000  0.65931000  0.08314000  1.0
  C  C26  1  0.44395000  0.01844000  0.62845000  1.0
  C  C27  1  0.94395000  0.48156000  0.87155000  1.0
  C  C28  1  0.55606000  0.98156000  0.37155000  1.0
  C  C29  1  0.05604000  0.51844000  0.12845000  1.0
  C  C30  1  0.63651000  0.98424000  0.68484000  1.0
  C  C31  1  0.13650000  0.51575000  0.81517000  1.0
  C  C32  1  0.36349000  0.01576000  0.31516000  1.0
  C  C33  1  0.86350000  0.48425000  0.18484000  1.0
  C  C34  1  0.79157000  0.09390000  0.69332000  1.0
  C  C35  1  0.29156000  0.40610000  0.80668000  1.0
  C  C36  1  0.20843000  0.90611000  0.30668000  1.0
  C  C37  1  0.70844000  0.59390000  0.19333000  1.0
  C  C38  1  0.75028000  0.23152000  0.64520000  1.0
  C  C39  1  0.25027000  0.26847000  0.85481000  1.0
  C  C40  1  0.24973000  0.76848000  0.35480000  1.0
  C  C41  1  0.74973000  0.73153000  0.14521000  1.0
  S  S42  1  0.26074000  0.37414000  0.37319000  1.0
  S  S43  1  0.76075000  0.12589000  0.12680000  1.0
  S  S44  1  0.73927000  0.62586000  0.62681000  1.0
  S  S45  1  0.23923000  0.87412000  0.87319000  1.0
  N  N46  1  0.82191000  0.47198000  0.41610000  1.0
  N  N47  1  0.32188000  0.02804000  0.08388000  1.0
  N  N48  1  0.17814000  0.52801000  0.58389000  1.0
  N  N49  1  0.67809000  0.97196000  0.91610000  1.0
  N  N50  1  0.56331000  0.26350000  0.59116000  1.0
  N  N51  1  0.06330000  0.23650000  0.90885000  1.0
  N  N52  1  0.43671000  0.73650000  0.40884000  1.0
  N  N53  1  0.93669000  0.76350000  0.09116000  1.0
  Cl  Cl54  1  0.24523000  0.88880000  0.61285000  1.0
  Cl  Cl55  1  0.74523000  0.61120000  0.88715000  1.0
  Cl  Cl56  1  0.75477000  0.11120000  0.38714000  1.0
  Cl  Cl57  1  0.25476000  0.38881000  0.11286000  1.0
