# generated using pymatgen
data_Cd2H33C40(NO3)3
_symmetry_space_group_name_H-M   'P 1'
_cell_length_a   9.58954000
_cell_length_b   14.51400000
_cell_length_c   19.91060000
_cell_angle_alpha   80.31900000
_cell_angle_beta   77.45710000
_cell_angle_gamma   82.65600000
_symmetry_Int_Tables_number   1
_chemical_formula_structural   Cd2H33C40(NO3)3
_chemical_formula_sum   'Cd4 H66 C80 N6 O18'
_cell_volume   2654.51594037
_cell_formula_units_Z   2
loop_
 _symmetry_equiv_pos_site_id
 _symmetry_equiv_pos_as_xyz
  1  'x, y, z'
loop_
 _atom_site_type_symbol
 _atom_site_label
 _atom_site_symmetry_multiplicity
 _atom_site_fract_x
 _atom_site_fract_y
 _atom_site_fract_z
 _atom_site_occupancy
  Cd  Cd0  1  0.47763000  0.05220000  0.19555000  1.0
  Cd  Cd1  1  0.52237000  0.94780000  0.80445000  1.0
  Cd  Cd2  1  0.17132000  0.22352000  0.25222000  1.0
  Cd  Cd3  1  0.82869000  0.77647000  0.74780000  1.0
  H  H4  1  0.87336000  0.13450000  0.14139000  1.0
  H  H5  1  0.12665000  0.86551000  0.85861000  1.0
  H  H6  1  0.24755000  0.96374000  0.05489000  1.0
  H  H7  1  0.75246000  0.03628000  0.94510000  1.0
  H  H8  1  0.75008000  0.11025000  0.05002000  1.0
  H  H9  1  0.24993000  0.88977000  0.94997000  1.0
  H  H10  1  0.33798000  0.42397000  0.12681000  1.0
  H  H11  1  0.66200000  0.57603000  0.87319000  1.0
  H  H12  1  0.67821000  0.26514000  0.00450000  1.0
  H  H13  1  0.32178000  0.73487000  0.99550000  1.0
  H  H14  1  0.72603000  0.40699000  0.91568000  1.0
  H  H15  1  0.27395000  0.59301000  0.08432000  1.0
  H  H16  1  0.00478000  0.81020000  0.48983000  1.0
  H  H17  1  0.99524000  0.18978000  0.51016000  1.0
  H  H18  1  0.19550000  0.84116000  0.38329000  1.0
  H  H19  1  0.80453000  0.15883000  0.61672000  1.0
  H  H20  1  0.16796000  0.13072000  0.41072000  1.0
  H  H21  1  0.83208000  0.86926000  0.58929000  1.0
  H  H22  1  0.21604000  0.44164000  0.39282000  1.0
  H  H23  1  0.78394000  0.55837000  0.60719000  1.0
  H  H24  1  0.81235000  0.32314000  0.45873000  1.0
  H  H25  1  0.18763000  0.67687000  0.54127000  1.0
  H  H26  1  0.73284000  0.43048000  0.54853000  1.0
  H  H27  1  0.26713000  0.56954000  0.45147000  1.0
  H  H28  1  0.11112000  0.44816000  0.23895000  1.0
  H  H29  1  0.88889000  0.55185000  0.76105000  1.0
  H  H30  1  0.96588000  0.58657000  0.18697000  1.0
  H  H31  1  0.03413000  0.41343000  0.81303000  1.0
  H  H32  1  0.78792000  0.39517000  0.09142000  1.0
  H  H33  1  0.21208000  0.60483000  0.90858000  1.0
  H  H34  1  0.93970000  0.26479000  0.14862000  1.0
  H  H35  1  0.06029000  0.73522000  0.85138000  1.0
  H  H36  1  0.72856000  0.63152000  0.13642000  1.0
  H  H37  1  0.27143000  0.36849000  0.86358000  1.0
  H  H38  1  0.69778000  0.56040000  0.07802000  1.0
  H  H39  1  0.30221000  0.43960000  0.92199000  1.0
  H  H40  1  0.97155000  0.66013000  0.05824000  1.0
  H  H41  1  0.02844000  0.33988000  0.94176000  1.0
  H  H42  1  0.93250000  0.59433000  0.99953000  1.0
  H  H43  1  0.06749000  0.40567000  0.00047000  1.0
  H  H44  1  0.72541000  0.70637000  0.97752000  1.0
  H  H45  1  0.27459000  0.29364000  0.02248000  1.0
  H  H46  1  0.88450000  0.76200000  0.95981000  1.0
  H  H47  1  0.11550000  0.23800000  0.04019000  1.0
  H  H48  1  0.89243000  0.78239000  0.11397000  1.0
  H  H49  1  0.10757000  0.21761000  0.88603000  1.0
  H  H50  1  0.76531000  0.90535000  0.18469000  1.0
  H  H51  1  0.23470000  0.09465000  0.81532000  1.0
  H  H52  1  0.44433000  0.96258000  0.07095000  1.0
  H  H53  1  0.55568000  0.03743000  0.92905000  1.0
  H  H54  1  0.55683000  0.84136000  0.99433000  1.0
  H  H55  1  0.44318000  0.15865000  0.00567000  1.0
  H  H56  1  0.51535000  0.10629000  0.33650000  1.0
  H  H57  1  0.48464000  0.89370000  0.66348000  1.0
  H  H58  1  0.55736000  0.12013000  0.43698000  1.0
  H  H59  1  0.44260000  0.87986000  0.56301000  1.0
  H  H60  1  0.73164000  0.15620000  0.43301000  1.0
  H  H61  1  0.26832000  0.84379000  0.56699000  1.0
  H  H62  1  0.69634000  0.03739000  0.46462000  1.0
  H  H63  1  0.30363000  0.96259000  0.53537000  1.0
  H  H64  1  0.90078000  0.97931000  0.36246000  1.0
  H  H65  1  0.09921000  0.02067000  0.63754000  1.0
  H  H66  1  0.93291000  0.10044000  0.34450000  1.0
  H  H67  1  0.06707000  0.89956000  0.65550000  1.0
  H  H68  1  0.89379000  0.04486000  0.27800000  1.0
  H  H69  1  0.10620000  0.95514000  0.72199000  1.0
  C  C70  1  0.15318000  0.07867000  0.15123000  1.0
  C  C71  1  0.84683000  0.92132000  0.84878000  1.0
  C  C72  1  0.07124000  0.05320000  0.10170000  1.0
  C  C73  1  0.92877000  0.94680000  0.89830000  1.0
  C  C74  1  0.92853000  0.09349000  0.10072000  1.0
  C  C75  1  0.07149000  0.90651000  0.89928000  1.0
  C  C76  1  0.13877000  0.99515000  0.05346000  1.0
  C  C77  1  0.86125000  0.00487000  0.94653000  1.0
  C  C78  1  0.07075000  0.97777000  0.00132000  1.0
  C  C79  1  0.92926000  0.02224000  0.99868000  1.0
  C  C80  1  0.85995000  0.07930000  0.04989000  1.0
  C  C81  1  0.14007000  0.92071000  0.95010000  1.0
  C  C82  1  0.44395000  0.50278000  0.03032000  1.0
  C  C83  1  0.55603000  0.49721000  0.96968000  1.0
  C  C84  1  0.42152000  0.42151000  0.08009000  1.0
  C  C85  1  0.57846000  0.57849000  0.91991000  1.0
  C  C86  1  0.50400000  0.33744000  0.07068000  1.0
  C  C87  1  0.49599000  0.66256000  0.92932000  1.0
  C  C88  1  0.61461000  0.33209000  0.01064000  1.0
  C  C89  1  0.38539000  0.66792000  0.98936000  1.0
  C  C90  1  0.64045000  0.41032000  0.96167000  1.0
  C  C91  1  0.35954000  0.58968000  0.03833000  1.0
  C  C92  1  0.47324000  0.25223000  0.12408000  1.0
  C  C93  1  0.52676000  0.74777000  0.87592000  1.0
  C  C94  1  0.04008000  0.88030000  0.47219000  1.0
  C  C95  1  0.95993000  0.11968000  0.52781000  1.0
  C  C96  1  0.14568000  0.89679000  0.41374000  1.0
  C  C97  1  0.85434000  0.10319000  0.58626000  1.0
  C  C98  1  0.19092000  0.98833000  0.39082000  1.0
  C  C99  1  0.80911000  0.01165000  0.60918000  1.0
  C  C100  1  0.13264000  0.06079000  0.42864000  1.0
  C  C101  1  0.86739000  0.93919000  0.57136000  1.0
  C  C102  1  0.02425000  0.04595000  0.48907000  1.0
  C  C103  1  0.97578000  0.95402000  0.51093000  1.0
  C  C104  1  0.29750000  0.00635000  0.32437000  1.0
  C  C105  1  0.70254000  0.99362000  0.67564000  1.0
  C  C106  1  0.11093000  0.44002000  0.42742000  1.0
  C  C107  1  0.88904000  0.55999000  0.57258000  1.0
  C  C108  1  0.01963000  0.37681000  0.42088000  1.0
  C  C109  1  0.98035000  0.62321000  0.57912000  1.0
  C  C110  1  0.88201000  0.37336000  0.46519000  1.0
  C  C111  1  0.11797000  0.62666000  0.53481000  1.0
  C  C112  1  0.83876000  0.43262000  0.51461000  1.0
  C  C113  1  0.16121000  0.56740000  0.48539000  1.0
  C  C114  1  0.93036000  0.49818000  0.52234000  1.0
  C  C115  1  0.06960000  0.50184000  0.47766000  1.0
  C  C116  1  0.06594000  0.31357000  0.36619000  1.0
  C  C117  1  0.93406000  0.68644000  0.63381000  1.0
  C  C118  1  0.03884000  0.44002000  0.20532000  1.0
  C  C119  1  0.96117000  0.55999000  0.79468000  1.0
  C  C120  1  0.95753000  0.51641000  0.17619000  1.0
  C  C121  1  0.04247000  0.48360000  0.82381000  1.0
  C  C122  1  0.86502000  0.50287000  0.13365000  1.0
  C  C123  1  0.13497000  0.49714000  0.86636000  1.0
  C  C124  1  0.85846000  0.41051000  0.12356000  1.0
  C  C125  1  0.14154000  0.58950000  0.87644000  1.0
  C  C126  1  0.94276000  0.33759000  0.15493000  1.0
  C  C127  1  0.05724000  0.66241000  0.84508000  1.0
  C  C128  1  0.78235000  0.58483000  0.09832000  1.0
  C  C129  1  0.21764000  0.41517000  0.90168000  1.0
  C  C130  1  0.88240000  0.64045000  0.03846000  1.0
  C  C131  1  0.11759000  0.35955000  0.96154000  1.0
  C  C132  1  0.80575000  0.72747000  0.00237000  1.0
  C  C133  1  0.19426000  0.27254000  0.99763000  1.0
  C  C134  1  0.73433000  0.79971000  0.04816000  1.0
  C  C135  1  0.26568000  0.20029000  0.95184000  1.0
  C  C136  1  0.79220000  0.81949000  0.10249000  1.0
  C  C137  1  0.20780000  0.18051000  0.89751000  1.0
  C  C138  1  0.72230000  0.88807000  0.14239000  1.0
  C  C139  1  0.27771000  0.11194000  0.85761000  1.0
  C  C140  1  0.54360000  0.92005000  0.07820000  1.0
  C  C141  1  0.45640000  0.07996000  0.92180000  1.0
  C  C142  1  0.60654000  0.85224000  0.03644000  1.0
  C  C143  1  0.39347000  0.14776000  0.96356000  1.0
  C  C144  1  0.62689000  0.08188000  0.31416000  1.0
  C  C145  1  0.37310000  0.91813000  0.68583000  1.0
  C  C146  1  0.67305000  0.09890000  0.42674000  1.0
  C  C147  1  0.32692000  0.90109000  0.57326000  1.0
  C  C148  1  0.87098000  0.04802000  0.33379000  1.0
  C  C149  1  0.12902000  0.95197000  0.66621000  1.0
  N  N150  1  0.03275000  0.35158000  0.19464000  1.0
  N  N151  1  0.96725000  0.64843000  0.80536000  1.0
  N  N152  1  0.59927000  0.93761000  0.13079000  1.0
  N  N153  1  0.40074000  0.06240000  0.86921000  1.0
  N  N154  1  0.71912000  0.07614000  0.35638000  1.0
  N  N155  1  0.28086000  0.92385000  0.64360000  1.0
  O  O156  1  0.28414000  0.04767000  0.14458000  1.0
  O  O157  1  0.71587000  0.95232000  0.85542000  1.0
  O  O158  1  0.08352000  0.13244000  0.19444000  1.0
  O  O159  1  0.91650000  0.86755000  0.80557000  1.0
  O  O160  1  0.54127000  0.17407000  0.10947000  1.0
  O  O161  1  0.45873000  0.82593000  0.89053000  1.0
  O  O162  1  0.38288000  0.26346000  0.17940000  1.0
  O  O163  1  0.61711000  0.73654000  0.82060000  1.0
  O  O164  1  0.31435000  0.09325000  0.29713000  1.0
  O  O165  1  0.68567000  0.90673000  0.70287000  1.0
  O  O166  1  0.36895000  0.93900000  0.29621000  1.0
  O  O167  1  0.63109000  0.06097000  0.70379000  1.0
  O  O168  1  0.98175000  0.25648000  0.35922000  1.0
  O  O169  1  0.01826000  0.74350000  0.64079000  1.0
  O  O170  1  0.19128000  0.32104000  0.32733000  1.0
  O  O171  1  0.80872000  0.67898000  0.67267000  1.0
  O  O172  1  0.66105000  0.06174000  0.25318000  1.0
  O  O173  1  0.33898000  0.93826000  0.74679000  1.0
