# generated using pymatgen
data_CdH28C26(NO)4
_symmetry_space_group_name_H-M   'P 1'
_cell_length_a   9.21335000
_cell_length_b   10.72210000
_cell_length_c   13.15680000
_cell_angle_alpha   74.71280000
_cell_angle_beta   73.91240000
_cell_angle_gamma   83.09290000
_symmetry_Int_Tables_number   1
_chemical_formula_structural   CdH28C26(NO)4
_chemical_formula_sum   'Cd2 H56 C52 N8 O8'
_cell_volume   1203.06515840
_cell_formula_units_Z   2
loop_
 _symmetry_equiv_pos_site_id
 _symmetry_equiv_pos_as_xyz
  1  'x, y, z'
loop_
 _atom_site_type_symbol
 _atom_site_label
 _atom_site_symmetry_multiplicity
 _atom_site_fract_x
 _atom_site_fract_y
 _atom_site_fract_z
 _atom_site_occupancy
  Cd  Cd0  1  0.18232000  0.38474000  0.99481000  1.0
  Cd  Cd1  1  0.81768000  0.61526000  0.00519000  1.0
  H  H2  1  0.42788000  0.65927000  0.59310000  1.0
  H  H3  1  0.57212000  0.34073000  0.40690000  1.0
  H  H4  1  0.90367000  0.11176000  0.39272000  1.0
  H  H5  1  0.09633000  0.88824000  0.60728000  1.0
  H  H6  1  0.40050000  0.61002000  0.98012000  1.0
  H  H7  1  0.59950000  0.38998000  0.01988000  1.0
  H  H8  1  0.25269000  0.50848000  0.74362000  1.0
  H  H9  1  0.74732000  0.49152000  0.25637000  1.0
  H  H10  1  0.08059000  0.26943000  0.24935000  1.0
  H  H11  1  0.91940000  0.73057000  0.75065000  1.0
  H  H12  1  0.57423000  0.76689000  0.84264000  1.0
  H  H13  1  0.42577000  0.23311000  0.15736000  1.0
  H  H14  1  0.32810000  0.67220000  0.14810000  1.0
  H  H15  1  0.67190000  0.32780000  0.85190000  1.0
  H  H16  1  0.20695000  0.81434000  0.13981000  1.0
  H  H17  1  0.79305000  0.18566000  0.86018000  1.0
  H  H18  1  0.79245000  0.99956000  0.13237000  1.0
  H  H19  1  0.20755000  0.00044000  0.86763000  1.0
  H  H20  1  0.27496000  0.48971000  0.32205000  1.0
  H  H21  1  0.72504000  0.51029000  0.67795000  1.0
  H  H22  1  0.11807000  0.50631000  0.43273000  1.0
  H  H23  1  0.88193000  0.49369000  0.56727000  1.0
  H  H24  1  0.33325000  0.93932000  0.34037000  1.0
  H  H25  1  0.66675000  0.06068000  0.65962000  1.0
  H  H26  1  0.21272000  0.97459000  0.25044000  1.0
  H  H27  1  0.78728000  0.02541000  0.74956000  1.0
  H  H28  1  0.69584000  0.86390000  0.64718000  1.0
  H  H29  1  0.30416000  0.13610000  0.35282000  1.0
  H  H30  1  0.97241000  0.16402000  0.99980000  1.0
  H  H31  1  0.02759000  0.83597000  0.00020000  1.0
  H  H32  1  0.66570000  0.89493000  0.32312000  1.0
  H  H33  1  0.33430000  0.10507000  0.67688000  1.0
  H  H34  1  0.95039000  0.54312000  0.31258000  1.0
  H  H35  1  0.04961000  0.45688000  0.68742000  1.0
  H  H36  1  0.95090000  0.68529000  0.20882000  1.0
  H  H37  1  0.04911000  0.31471000  0.79118000  1.0
  H  H38  1  0.42890000  0.94160000  0.08660000  1.0
  H  H39  1  0.57110000  0.05839000  0.91340000  1.0
  H  H40  1  0.53196000  0.94382000  0.18195000  1.0
  H  H41  1  0.46804000  0.05618000  0.81805000  1.0
  H  H42  1  0.50507000  0.73845000  0.35324000  1.0
  H  H43  1  0.49493000  0.26156000  0.64676000  1.0
  H  H44  1  0.50195000  0.62709000  0.27571000  1.0
  H  H45  1  0.49804000  0.37291000  0.72429000  1.0
  H  H46  1  0.98528000  0.83439000  0.29570000  1.0
  H  H47  1  0.01472000  0.16561000  0.70430000  1.0
  H  H48  1  0.94562000  0.71049000  0.41749000  1.0
  H  H49  1  0.05439000  0.28951000  0.58251000  1.0
  H  H50  1  0.06529000  0.89327000  0.44279000  1.0
  H  H51  1  0.93471000  0.10673000  0.55722000  1.0
  H  H52  1  0.35883000  0.54681000  0.46919000  1.0
  H  H53  1  0.64117000  0.45319000  0.53082000  1.0
  H  H54  1  0.12049000  0.66767000  0.54512000  1.0
  H  H55  1  0.87952000  0.33233000  0.45488000  1.0
  H  H56  1  0.27858000  0.76485000  0.51040000  1.0
  H  H57  1  0.72142000  0.23516000  0.48960000  1.0
  C  C58  1  0.51407000  0.72696000  0.70514000  1.0
  C  C59  1  0.48593000  0.27305000  0.29486000  1.0
  C  C60  1  0.42186000  0.65218000  0.67808000  1.0
  C  C61  1  0.57814000  0.34782000  0.32192000  1.0
  C  C62  1  0.91554000  0.12177000  0.30643000  1.0
  C  C63  1  0.08446000  0.87823000  0.69357000  1.0
  C  C64  1  0.13351000  0.66410000  0.28837000  1.0
  C  C65  1  0.86649000  0.33591000  0.71163000  1.0
  C  C66  1  0.40754000  0.62477000  0.89367000  1.0
  C  C67  1  0.59246000  0.37523000  0.10633000  1.0
  C  C68  1  0.83146000  0.04601000  0.27343000  1.0
  C  C69  1  0.16854000  0.95400000  0.72657000  1.0
  C  C70  1  0.32609000  0.56839000  0.76094000  1.0
  C  C71  1  0.67391000  0.43161000  0.23906000  1.0
  C  C72  1  0.09447000  0.52981000  0.15933000  1.0
  C  C73  1  0.90553000  0.47019000  0.84067000  1.0
  C  C74  1  0.01326000  0.20807000  0.22781000  1.0
  C  C75  1  0.98674000  0.79193000  0.77219000  1.0
  C  C76  1  0.50556000  0.71270000  0.81560000  1.0
  C  C77  1  0.49444000  0.28730000  0.18440000  1.0
  C  C78  1  0.61112000  0.79590000  0.09463000  1.0
  C  C79  1  0.38888000  0.20410000  0.90537000  1.0
  C  C80  1  0.36060000  0.80182000  0.24122000  1.0
  C  C81  1  0.63940000  0.19818000  0.75878000  1.0
  C  C82  1  0.25889000  0.73827000  0.19584000  1.0
  C  C83  1  0.74110000  0.26173000  0.80416000  1.0
  C  C84  1  0.85194000  0.05988000  0.16121000  1.0
  C  C85  1  0.14805000  0.94012000  0.83878000  1.0
  C  C86  1  0.20749000  0.55961000  0.36638000  1.0
  C  C87  1  0.79251000  0.44039000  0.63362000  1.0
  C  C88  1  0.26155000  0.89561000  0.30591000  1.0
  C  C89  1  0.73845000  0.10439000  0.69409000  1.0
  C  C90  1  0.61593000  0.81787000  0.62189000  1.0
  C  C91  1  0.38407000  0.18213000  0.37812000  1.0
  C  C92  1  0.95257000  0.14929000  0.08778000  1.0
  C  C93  1  0.04743000  0.85071000  0.91222000  1.0
  C  C94  1  0.72768000  0.95303000  0.35294000  1.0
  C  C95  1  0.27232000  0.04697000  0.64707000  1.0
  C  C96  1  0.02580000  0.60780000  0.24346000  1.0
  C  C97  1  0.97420000  0.39219000  0.75654000  1.0
  C  C98  1  0.48335000  0.87994000  0.14828000  1.0
  C  C99  1  0.51665000  0.12005000  0.85172000  1.0
  C  C100  1  0.43083000  0.69534000  0.32033000  1.0
  C  C101  1  0.56917000  0.30466000  0.67967000  1.0
  C  C102  1  0.03808000  0.76039000  0.35177000  1.0
  C  C103  1  0.96192000  0.23961000  0.64823000  1.0
  C  C104  1  0.13606000  0.82387000  0.39862000  1.0
  C  C105  1  0.86393000  0.17613000  0.60138000  1.0
  C  C106  1  0.30630000  0.62281000  0.41367000  1.0
  C  C107  1  0.69371000  0.37719000  0.58633000  1.0
  C  C108  1  0.20874000  0.71880000  0.47637000  1.0
  C  C109  1  0.79126000  0.28120000  0.52363000  1.0
  N  N110  1  0.03123000  0.22230000  0.12024000  1.0
  N  N111  1  0.96877000  0.77770000  0.87976000  1.0
  N  N112  1  0.31946000  0.55386000  0.86708000  1.0
  N  N113  1  0.68054000  0.44614000  0.13292000  1.0
  N  N114  1  0.61118000  0.84640000  0.52083000  1.0
  N  N115  1  0.38882000  0.15360000  0.47917000  1.0
  N  N116  1  0.71316000  0.93813000  0.45604000  1.0
  N  N117  1  0.28684000  0.06187000  0.54396000  1.0
  O  O118  1  0.21350000  0.45798000  0.16143000  1.0
  O  O119  1  0.78650000  0.54202000  0.83857000  1.0
  O  O120  1  0.02306000  0.53659000  0.08649000  1.0
  O  O121  1  0.97695000  0.46341000  0.91351000  1.0
  O  O122  1  0.73395000  0.77683000  0.12452000  1.0
  O  O123  1  0.26605000  0.22317000  0.87548000  1.0
  O  O124  1  0.58850000  0.74394000  0.02345000  1.0
  O  O125  1  0.41150000  0.25606000  0.97655000  1.0
