# generated using pymatgen
data_AgH18C26(NO)3
_symmetry_space_group_name_H-M   'P 1'
_cell_length_a   7.20243000
_cell_length_b   10.89230000
_cell_length_c   29.48350000
_cell_angle_alpha   90.00010000
_cell_angle_beta   89.99970000
_cell_angle_gamma   90.00000000
_symmetry_Int_Tables_number   1
_chemical_formula_structural   AgH18C26(NO)3
_chemical_formula_sum   'Ag4 H72 C104 N12 O12'
_cell_volume   2313.01089252
_cell_formula_units_Z   4
loop_
 _symmetry_equiv_pos_site_id
 _symmetry_equiv_pos_as_xyz
  1  'x, y, z'
loop_
 _atom_site_type_symbol
 _atom_site_label
 _atom_site_symmetry_multiplicity
 _atom_site_fract_x
 _atom_site_fract_y
 _atom_site_fract_z
 _atom_site_occupancy
  Ag  Ag0  1  0.38445000  0.13228000  0.48549000  1.0
  Ag  Ag1  1  0.88442000  0.36771000  0.98549000  1.0
  Ag  Ag2  1  0.38443000  0.63229000  0.01451000  1.0
  Ag  Ag3  1  0.88444000  0.86771000  0.51451000  1.0
  H  H4  1  0.28325000  0.95362000  0.41006000  1.0
  H  H5  1  0.78323000  0.54638000  0.91007000  1.0
  H  H6  1  0.28326000  0.45362000  0.08993000  1.0
  H  H7  1  0.78325000  0.04638000  0.58993000  1.0
  H  H8  1  0.27950000  0.94501000  0.32537000  1.0
  H  H9  1  0.77947000  0.55499000  0.82537000  1.0
  H  H10  1  0.27950000  0.44499000  0.17462000  1.0
  H  H11  1  0.77950000  0.05499000  0.67463000  1.0
  H  H12  1  0.55503000  0.29048000  0.17431000  1.0
  H  H13  1  0.05502000  0.20952000  0.67432000  1.0
  H  H14  1  0.55502000  0.79048000  0.32568000  1.0
  H  H15  1  0.05501000  0.70951000  0.82569000  1.0
  H  H16  1  0.56126000  0.28568000  0.08963000  1.0
  H  H17  1  0.06130000  0.21431000  0.58964000  1.0
  H  H18  1  0.56127000  0.78569000  0.41036000  1.0
  H  H19  1  0.06127000  0.71432000  0.91037000  1.0
  H  H20  1  0.42579000  0.10822000  0.04829000  1.0
  H  H21  1  0.92584000  0.39177000  0.54829000  1.0
  H  H22  1  0.42580000  0.60823000  0.45171000  1.0
  H  H23  1  0.92583000  0.89179000  0.95171000  1.0
  H  H24  1  0.27125000  0.94004000  0.09110000  1.0
  H  H25  1  0.77129000  0.55995000  0.59110000  1.0
  H  H26  1  0.27127000  0.44005000  0.40890000  1.0
  H  H27  1  0.77129000  0.05997000  0.90890000  1.0
  H  H28  1  0.26321000  0.94465000  0.17538000  1.0
  H  H29  1  0.76321000  0.55535000  0.67537000  1.0
  H  H30  1  0.26322000  0.44464000  0.32463000  1.0
  H  H31  1  0.76323000  0.05535000  0.82462000  1.0
  H  H32  1  0.56499000  0.29469000  0.32524000  1.0
  H  H33  1  0.06498000  0.20531000  0.82524000  1.0
  H  H34  1  0.56496000  0.79469000  0.17476000  1.0
  H  H35  1  0.06498000  0.70530000  0.67476000  1.0
  H  H36  1  0.55598000  0.28864000  0.40949000  1.0
  H  H37  1  0.05597000  0.21136000  0.90949000  1.0
  H  H38  1  0.55596000  0.78865000  0.09051000  1.0
  H  H39  1  0.05596000  0.71135000  0.59051000  1.0
  H  H40  1  0.27561000  0.96620000  0.56194000  1.0
  H  H41  1  0.77559000  0.53379000  0.06194000  1.0
  H  H42  1  0.27560000  0.46621000  0.93806000  1.0
  H  H43  1  0.77562000  0.03379000  0.43806000  1.0
  H  H44  1  0.27340000  0.96084000  0.64671000  1.0
  H  H45  1  0.77338000  0.53916000  0.14672000  1.0
  H  H46  1  0.27338000  0.46086000  0.85328000  1.0
  H  H47  1  0.77341000  0.03916000  0.35329000  1.0
  H  H48  1  0.54520000  0.31028000  0.79804000  1.0
  H  H49  1  0.04520000  0.18972000  0.29805000  1.0
  H  H50  1  0.54521000  0.81030000  0.70196000  1.0
  H  H51  1  0.04520000  0.68972000  0.20196000  1.0
  H  H52  1  0.54199000  0.30257000  0.88269000  1.0
  H  H53  1  0.04201000  0.19744000  0.38270000  1.0
  H  H54  1  0.54201000  0.80256000  0.61730000  1.0
  H  H55  1  0.04200000  0.69744000  0.11730000  1.0
  H  H56  1  0.40642000  0.12466000  0.92259000  1.0
  H  H57  1  0.90646000  0.37536000  0.42259000  1.0
  H  H58  1  0.40643000  0.62464000  0.57741000  1.0
  H  H59  1  0.90641000  0.87535000  0.07741000  1.0
  H  H60  1  0.27383000  0.94977000  0.87791000  1.0
  H  H61  1  0.77386000  0.55024000  0.37792000  1.0
  H  H62  1  0.27382000  0.44977000  0.62210000  1.0
  H  H63  1  0.77381000  0.05023000  0.12209000  1.0
  H  H64  1  0.28515000  0.95362000  0.79362000  1.0
  H  H65  1  0.78516000  0.54638000  0.29363000  1.0
  H  H66  1  0.28512000  0.45365000  0.70638000  1.0
  H  H67  1  0.78514000  0.04638000  0.20637000  1.0
  H  H68  1  0.57310000  0.30527000  0.64491000  1.0
  H  H69  1  0.07308000  0.19473000  0.14492000  1.0
  H  H70  1  0.57309000  0.80529000  0.85509000  1.0
  H  H71  1  0.07308000  0.69472000  0.35508000  1.0
  H  H72  1  0.56634000  0.29472000  0.56043000  1.0
  H  H73  1  0.06629000  0.20527000  0.06043000  1.0
  H  H74  1  0.56632000  0.79473000  0.93958000  1.0
  H  H75  1  0.06630000  0.70526000  0.43957000  1.0
  C  C76  1  0.34188000  0.02776000  0.38979000  1.0
  C  C77  1  0.84186000  0.47223000  0.88979000  1.0
  C  C78  1  0.34188000  0.52776000  0.11021000  1.0
  C  C79  1  0.84188000  0.97223000  0.61021000  1.0
  C  C80  1  0.34126000  0.02297000  0.34280000  1.0
  C  C81  1  0.84123000  0.47703000  0.84280000  1.0
  C  C82  1  0.34125000  0.52296000  0.15719000  1.0
  C  C83  1  0.84125000  0.97702000  0.65720000  1.0
  C  C84  1  0.42031000  0.12024000  0.31776000  1.0
  C  C85  1  0.92030000  0.37976000  0.81776000  1.0
  C  C86  1  0.42029000  0.62024000  0.18224000  1.0
  C  C87  1  0.92031000  0.87975000  0.68224000  1.0
  C  C88  1  0.41806000  0.11974000  0.26986000  1.0
  C  C89  1  0.91804000  0.38026000  0.76987000  1.0
  C  C90  1  0.41804000  0.61972000  0.23013000  1.0
  C  C91  1  0.91805000  0.88025000  0.73014000  1.0
  C  C92  1  0.41179000  0.11896000  0.22846000  1.0
  C  C93  1  0.91177000  0.38104000  0.72847000  1.0
  C  C94  1  0.41177000  0.61895000  0.27153000  1.0
  C  C95  1  0.91179000  0.88103000  0.77154000  1.0
  C  C96  1  0.41016000  0.11755000  0.18044000  1.0
  C  C97  1  0.91016000  0.38246000  0.68044000  1.0
  C  C98  1  0.41015000  0.61754000  0.31956000  1.0
  C  C99  1  0.91016000  0.88245000  0.81956000  1.0
  C  C100  1  0.49301000  0.21431000  0.15578000  1.0
  C  C101  1  0.99301000  0.28569000  0.65578000  1.0
  C  C102  1  0.49300000  0.71430000  0.34422000  1.0
  C  C103  1  0.99300000  0.78569000  0.84422000  1.0
  C  C104  1  0.49732000  0.21091000  0.10859000  1.0
  C  C105  1  0.99734000  0.28909000  0.60860000  1.0
  C  C106  1  0.49732000  0.71091000  0.39140000  1.0
  C  C107  1  0.99733000  0.78909000  0.89141000  1.0
  C  C108  1  0.41969000  0.11146000  0.08521000  1.0
  C  C109  1  0.91973000  0.38853000  0.58521000  1.0
  C  C110  1  0.41970000  0.61147000  0.41479000  1.0
  C  C111  1  0.91972000  0.88855000  0.91479000  1.0
  C  C112  1  0.33467000  0.01634000  0.10933000  1.0
  C  C113  1  0.83470000  0.48365000  0.60933000  1.0
  C  C114  1  0.33468000  0.51635000  0.39067000  1.0
  C  C115  1  0.83470000  0.98367000  0.89067000  1.0
  C  C116  1  0.32938000  0.01874000  0.15655000  1.0
  C  C117  1  0.82939000  0.48126000  0.65655000  1.0
  C  C118  1  0.32938000  0.51873000  0.34345000  1.0
  C  C119  1  0.82940000  0.98127000  0.84345000  1.0
  C  C120  1  0.49965000  0.21773000  0.34253000  1.0
  C  C121  1  0.99964000  0.28228000  0.84254000  1.0
  C  C122  1  0.49963000  0.71772000  0.15747000  1.0
  C  C123  1  0.99964000  0.78227000  0.65747000  1.0
  C  C124  1  0.49403000  0.21512000  0.38956000  1.0
  C  C125  1  0.99402000  0.28488000  0.88956000  1.0
  C  C126  1  0.49401000  0.71513000  0.11044000  1.0
  C  C127  1  0.99402000  0.78487000  0.61044000  1.0
  C  C128  1  0.33984000  0.03924000  0.58181000  1.0
  C  C129  1  0.83982000  0.46075000  0.08182000  1.0
  C  C130  1  0.33983000  0.53925000  0.91819000  1.0
  C  C131  1  0.83984000  0.96074000  0.41819000  1.0
  C  C132  1  0.33823000  0.03697000  0.62882000  1.0
  C  C133  1  0.83821000  0.46303000  0.12883000  1.0
  C  C134  1  0.33821000  0.53698000  0.87118000  1.0
  C  C135  1  0.83823000  0.96303000  0.37118000  1.0
  C  C136  1  0.42168000  0.13387000  0.65315000  1.0
  C  C137  1  0.92167000  0.36613000  0.15316000  1.0
  C  C138  1  0.42167000  0.63389000  0.84685000  1.0
  C  C139  1  0.92168000  0.86613000  0.34685000  1.0
  C  C140  1  0.42140000  0.13493000  0.70102000  1.0
  C  C141  1  0.92139000  0.36506000  0.20102000  1.0
  C  C142  1  0.42137000  0.63497000  0.79898000  1.0
  C  C143  1  0.92140000  0.86506000  0.29898000  1.0
  C  C144  1  0.41942000  0.13460000  0.74243000  1.0
  C  C145  1  0.91943000  0.36540000  0.24243000  1.0
  C  C146  1  0.41941000  0.63464000  0.75757000  1.0
  C  C147  1  0.91942000  0.86540000  0.25757000  1.0
  C  C148  1  0.41570000  0.13229000  0.79037000  1.0
  C  C149  1  0.91572000  0.36771000  0.29038000  1.0
  C  C150  1  0.41570000  0.63232000  0.70963000  1.0
  C  C151  1  0.91570000  0.86771000  0.20962000  1.0
  C  C152  1  0.48744000  0.23138000  0.81586000  1.0
  C  C153  1  0.98746000  0.26862000  0.31587000  1.0
  C  C154  1  0.48745000  0.73139000  0.68413000  1.0
  C  C155  1  0.98744000  0.76862000  0.18413000  1.0
  C  C156  1  0.48449000  0.22686000  0.86303000  1.0
  C  C157  1  0.98452000  0.27315000  0.36304000  1.0
  C  C158  1  0.48451000  0.72686000  0.63696000  1.0
  C  C159  1  0.98449000  0.77314000  0.13696000  1.0
  C  C160  1  0.40772000  0.12588000  0.88559000  1.0
  C  C161  1  0.90775000  0.37413000  0.38559000  1.0
  C  C162  1  0.40773000  0.62588000  0.61441000  1.0
  C  C163  1  0.90771000  0.87412000  0.11441000  1.0
  C  C164  1  0.33491000  0.02819000  0.86052000  1.0
  C  C165  1  0.83494000  0.47182000  0.36053000  1.0
  C  C166  1  0.33492000  0.52819000  0.63949000  1.0
  C  C167  1  0.83490000  0.97181000  0.13948000  1.0
  C  C168  1  0.33992000  0.03012000  0.81332000  1.0
  C  C169  1  0.83994000  0.46989000  0.31333000  1.0
  C  C170  1  0.33991000  0.53014000  0.68668000  1.0
  C  C171  1  0.83991000  0.96988000  0.18667000  1.0
  C  C172  1  0.50543000  0.22872000  0.62793000  1.0
  C  C173  1  0.00541000  0.27128000  0.12793000  1.0
  C  C174  1  0.50542000  0.72873000  0.87207000  1.0
  C  C175  1  0.00542000  0.77127000  0.37207000  1.0
  C  C176  1  0.50098000  0.22356000  0.58090000  1.0
  C  C177  1  0.00094000  0.27643000  0.08091000  1.0
  C  C178  1  0.50097000  0.72357000  0.91910000  1.0
  C  C179  1  0.00096000  0.77642000  0.41909000  1.0
  N  N180  1  0.96023000  0.20972000  0.49217000  1.0
  N  N181  1  0.46021000  0.29027000  0.99216000  1.0
  N  N182  1  0.96022000  0.70973000  0.00784000  1.0
  N  N183  1  0.46022000  0.79028000  0.50783000  1.0
  N  N184  1  0.41545000  0.12261000  0.41323000  1.0
  N  N185  1  0.91544000  0.37739000  0.91323000  1.0
  N  N186  1  0.41544000  0.62261000  0.08677000  1.0
  N  N187  1  0.91544000  0.87738000  0.58677000  1.0
  N  N188  1  0.41922000  0.13117000  0.55798000  1.0
  N  N189  1  0.91919000  0.36882000  0.05798000  1.0
  N  N190  1  0.41921000  0.63118000  0.94202000  1.0
  N  N191  1  0.91921000  0.86881000  0.44202000  1.0
  O  O192  1  0.01268000  0.10780000  0.50935000  1.0
  O  O193  1  0.51265000  0.39219000  0.00935000  1.0
  O  O194  1  0.01266000  0.60780000  0.99066000  1.0
  O  O195  1  0.51264000  0.89218000  0.49063000  1.0
  O  O196  1  0.78954000  0.23109000  0.48578000  1.0
  O  O197  1  0.28952000  0.26889000  0.98578000  1.0
  O  O198  1  0.78952000  0.73111000  0.01422000  1.0
  O  O199  1  0.28953000  0.76890000  0.51422000  1.0
  O  O200  1  0.08179000  0.28971000  0.48155000  1.0
  O  O201  1  0.58177000  0.21028000  0.98155000  1.0
  O  O202  1  0.08178000  0.78972000  0.01845000  1.0
  O  O203  1  0.58179000  0.71030000  0.51846000  1.0
