# generated using pymatgen
data_CuH12C11S(N2O3)2
_symmetry_space_group_name_H-M   'P 1'
_cell_length_a   5.00801000
_cell_length_b   16.81640000
_cell_length_c   18.18700000
_cell_angle_alpha   90.00000000
_cell_angle_beta   91.96380000
_cell_angle_gamma   89.99990000
_symmetry_Int_Tables_number   1
_chemical_formula_structural   CuH12C11S(N2O3)2
_chemical_formula_sum   'Cu4 H48 C44 S4 N16 O24'
_cell_volume   1530.74953915
_cell_formula_units_Z   4
loop_
 _symmetry_equiv_pos_site_id
 _symmetry_equiv_pos_as_xyz
  1  'x, y, z'
loop_
 _atom_site_type_symbol
 _atom_site_label
 _atom_site_symmetry_multiplicity
 _atom_site_fract_x
 _atom_site_fract_y
 _atom_site_fract_z
 _atom_site_occupancy
  Cu  Cu0  1  0.63218000  0.36578000  0.88159000  1.0
  Cu  Cu1  1  0.36782000  0.86578000  0.61841000  1.0
  Cu  Cu2  1  0.36781000  0.63422000  0.11841000  1.0
  Cu  Cu3  1  0.63219000  0.13422000  0.38159000  1.0
  H  H4  1  0.27678000  0.49391000  0.88066000  1.0
  H  H5  1  0.72322000  0.99391000  0.61934000  1.0
  H  H6  1  0.72323000  0.50609000  0.11934000  1.0
  H  H7  1  0.27677000  0.00609000  0.38066000  1.0
  H  H8  1  0.41761000  0.63836000  0.68959000  1.0
  H  H9  1  0.58239000  0.13837000  0.81041000  1.0
  H  H10  1  0.58239000  0.36164000  0.31040000  1.0
  H  H11  1  0.41760000  0.86163000  0.18960000  1.0
  H  H12  1  0.75676000  0.53805000  0.65329000  1.0
  H  H13  1  0.24325000  0.03805000  0.84671000  1.0
  H  H14  1  0.24324000  0.46195000  0.34671000  1.0
  H  H15  1  0.75675000  0.96194000  0.15330000  1.0
  H  H16  1  0.84209000  0.41769000  0.73517000  1.0
  H  H17  1  0.15791000  0.91769000  0.76484000  1.0
  H  H18  1  0.15790000  0.58231000  0.26483000  1.0
  H  H19  1  0.84210000  0.08231000  0.23517000  1.0
  H  H20  1  0.06699000  0.66729000  0.76041000  1.0
  H  H21  1  0.93301000  0.16729000  0.73959000  1.0
  H  H22  1  0.93301000  0.33271000  0.23958000  1.0
  H  H23  1  0.06699000  0.83271000  0.26042000  1.0
  H  H24  1  0.84778000  0.74408000  0.82600000  1.0
  H  H25  1  0.15222000  0.24408000  0.67400000  1.0
  H  H26  1  0.15222000  0.25592000  0.17400000  1.0
  H  H27  1  0.84777000  0.75592000  0.32600000  1.0
  H  H28  1  0.69746000  0.62729000  0.99782000  1.0
  H  H29  1  0.30254000  0.12729000  0.50218000  1.0
  H  H30  1  0.30255000  0.37271000  0.00218000  1.0
  H  H31  1  0.69745000  0.87271000  0.49782000  1.0
  H  H32  1  0.12744000  0.78876000  0.06282000  1.0
  H  H33  1  0.87255000  0.28876000  0.43718000  1.0
  H  H34  1  0.87255000  0.21124000  0.93718000  1.0
  H  H35  1  0.12744000  0.71125000  0.56282000  1.0
  H  H36  1  0.17928000  0.87022000  0.94662000  1.0
  H  H37  1  0.82072000  0.37022000  0.55338000  1.0
  H  H38  1  0.82072000  0.12978000  0.05338000  1.0
  H  H39  1  0.17927000  0.62978000  0.44662000  1.0
  H  H40  1  0.50737000  0.82507000  0.85414000  1.0
  H  H41  1  0.49263000  0.32507000  0.64586000  1.0
  H  H42  1  0.49263000  0.17492000  0.14586000  1.0
  H  H43  1  0.50736000  0.67492000  0.35414000  1.0
  H  H44  1  0.82283000  0.49863000  0.93674000  1.0
  H  H45  1  0.17718000  0.99863000  0.56326000  1.0
  H  H46  1  0.17717000  0.50138000  0.06326000  1.0
  H  H47  1  0.82283000  0.00137000  0.43674000  1.0
  H  H48  1  0.82902000  0.43260000  0.00068000  1.0
  H  H49  1  0.17098000  0.93260000  0.49932000  1.0
  H  H50  1  0.17098000  0.56740000  0.99932000  1.0
  H  H51  1  0.82902000  0.06740000  0.50068000  1.0
  C  C52  1  0.37626000  0.50613000  0.82997000  1.0
  C  C53  1  0.62374000  0.00613000  0.67004000  1.0
  C  C54  1  0.62374000  0.49387000  0.17003000  1.0
  C  C55  1  0.37626000  0.99387000  0.32996000  1.0
  C  C56  1  0.31369000  0.57342000  0.78732000  1.0
  C  C57  1  0.68631000  0.07342000  0.71268000  1.0
  C  C58  1  0.68631000  0.42658000  0.21268000  1.0
  C  C59  1  0.31369000  0.92658000  0.28732000  1.0
  C  C60  1  0.45379000  0.58486000  0.72232000  1.0
  C  C61  1  0.54621000  0.08486000  0.77768000  1.0
  C  C62  1  0.54621000  0.41514000  0.27767000  1.0
  C  C63  1  0.45379000  0.91514000  0.22233000  1.0
  C  C64  1  0.64280000  0.52906000  0.70257000  1.0
  C  C65  1  0.35721000  0.02906000  0.79743000  1.0
  C  C66  1  0.35720000  0.47094000  0.29743000  1.0
  C  C67  1  0.64280000  0.97094000  0.20257000  1.0
  C  C68  1  0.69437000  0.46316000  0.74739000  1.0
  C  C69  1  0.30564000  0.96316000  0.75261000  1.0
  C  C70  1  0.30563000  0.53684000  0.25261000  1.0
  C  C71  1  0.69437000  0.03684000  0.24739000  1.0
  C  C72  1  0.97765000  0.63535000  0.86657000  1.0
  C  C73  1  0.02235000  0.13535000  0.63343000  1.0
  C  C74  1  0.02235000  0.36465000  0.13343000  1.0
  C  C75  1  0.97765000  0.86465000  0.36657000  1.0
  C  C76  1  0.63370000  0.72304000  0.91893000  1.0
  C  C77  1  0.36630000  0.22304000  0.58107000  1.0
  C  C78  1  0.36630000  0.27696000  0.08107000  1.0
  C  C79  1  0.63369000  0.77696000  0.41893000  1.0
  C  C80  1  0.58852000  0.68118000  0.98399000  1.0
  C  C81  1  0.41148000  0.18118000  0.51601000  1.0
  C  C82  1  0.41149000  0.31882000  0.01601000  1.0
  C  C83  1  0.58851000  0.81883000  0.48399000  1.0
  C  C84  1  0.26652000  0.77264000  0.02039000  1.0
  C  C85  1  0.73348000  0.27264000  0.47961000  1.0
  C  C86  1  0.73348000  0.22736000  0.97961000  1.0
  C  C87  1  0.26652000  0.72736000  0.52039000  1.0
  C  C88  1  0.29965000  0.81705000  0.95651000  1.0
  C  C89  1  0.70035000  0.31704000  0.54349000  1.0
  C  C90  1  0.70035000  0.18295000  0.04349000  1.0
  C  C91  1  0.29964000  0.68296000  0.45651000  1.0
  C  C92  1  0.48145000  0.79234000  0.90519000  1.0
  C  C93  1  0.51855000  0.29234000  0.59481000  1.0
  C  C94  1  0.51855000  0.20765000  0.09481000  1.0
  C  C95  1  0.48144000  0.70766000  0.40519000  1.0
  S  S96  1  0.16764000  0.28710000  0.80807000  1.0
  S  S97  1  0.83235000  0.78710000  0.69193000  1.0
  S  S98  1  0.83236000  0.71290000  0.19193000  1.0
  S  S99  1  0.16764000  0.21290000  0.30807000  1.0
  N  N100  1  0.56304000  0.45369000  0.80998000  1.0
  N  N101  1  0.43696000  0.95369000  0.69002000  1.0
  N  N102  1  0.43696000  0.54631000  0.19002000  1.0
  N  N103  1  0.56304000  0.04631000  0.30998000  1.0
  N  N104  1  0.12307000  0.63015000  0.80461000  1.0
  N  N105  1  0.87693000  0.13015000  0.69539000  1.0
  N  N106  1  0.87694000  0.36986000  0.19539000  1.0
  N  N107  1  0.12307000  0.86985000  0.30461000  1.0
  N  N108  1  0.81734000  0.70101000  0.86711000  1.0
  N  N109  1  0.18266000  0.20101000  0.63289000  1.0
  N  N110  1  0.18266000  0.29899000  0.13289000  1.0
  N  N111  1  0.81734000  0.79899000  0.36711000  1.0
  N  N112  1  0.40817000  0.70580000  0.03202000  1.0
  N  N113  1  0.59183000  0.20580000  0.46798000  1.0
  N  N114  1  0.59183000  0.29420000  0.96798000  1.0
  N  N115  1  0.40816000  0.79420000  0.53202000  1.0
  O  O116  1  0.99080000  0.58483000  0.91808000  1.0
  O  O117  1  0.00920000  0.08483000  0.58192000  1.0
  O  O118  1  0.00919000  0.41517000  0.08192000  1.0
  O  O119  1  0.99081000  0.91517000  0.41808000  1.0
  O  O120  1  0.47133000  0.28406000  0.81556000  1.0
  O  O121  1  0.52867000  0.78406000  0.68444000  1.0
  O  O122  1  0.52867000  0.71594000  0.18444000  1.0
  O  O123  1  0.47132000  0.21594000  0.31556000  1.0
  O  O124  1  0.09257000  0.31494000  0.73223000  1.0
  O  O125  1  0.90742000  0.81494000  0.76777000  1.0
  O  O126  1  0.90741000  0.68506000  0.26777000  1.0
  O  O127  1  0.09258000  0.18506000  0.23223000  1.0
  O  O128  1  0.06569000  0.20534000  0.81947000  1.0
  O  O129  1  0.93431000  0.70534000  0.68053000  1.0
  O  O130  1  0.93431000  0.79466000  0.18053000  1.0
  O  O131  1  0.06568000  0.29466000  0.31947000  1.0
  O  O132  1  0.06896000  0.34339000  0.86394000  1.0
  O  O133  1  0.93103000  0.84339000  0.63605000  1.0
  O  O134  1  0.93104000  0.65661000  0.13606000  1.0
  O  O135  1  0.06896000  0.15661000  0.36394000  1.0
  O  O136  1  0.72753000  0.45200000  0.95654000  1.0
  O  O137  1  0.27248000  0.95200000  0.54346000  1.0
  O  O138  1  0.27246000  0.54800000  0.04346000  1.0
  O  O139  1  0.72754000  0.04800000  0.45654000  1.0
