# generated using pymatgen
data_CuH6C7IN2
_symmetry_space_group_name_H-M   'P 1'
_cell_length_a   4.22403000
_cell_length_b   11.88220000
_cell_length_c   15.70808393
_cell_angle_alpha   89.99963799
_cell_angle_beta   82.99242635
_cell_angle_gamma   89.99940000
_symmetry_Int_Tables_number   1
_chemical_formula_structural   CuH6C7IN2
_chemical_formula_sum   'Cu4 H24 C28 I4 N8'
_cell_volume   782.51148861
_cell_formula_units_Z   4
loop_
 _symmetry_equiv_pos_site_id
 _symmetry_equiv_pos_as_xyz
  1  'x, y, z'
loop_
 _atom_site_type_symbol
 _atom_site_label
 _atom_site_symmetry_multiplicity
 _atom_site_fract_x
 _atom_site_fract_y
 _atom_site_fract_z
 _atom_site_occupancy
  Cu  Cu0  1  0.26362000  0.45152000  0.45780000  1.0
  Cu  Cu1  1  0.23634000  0.95152000  0.04220000  1.0
  Cu  Cu2  1  0.73637000  0.54849000  0.54221000  1.0
  Cu  Cu3  1  0.76367000  0.04849000  0.95780000  1.0
  H  H4  1  0.98571000  0.27358000  0.33199000  1.0
  H  H5  1  0.51426000  0.77358000  0.16801000  1.0
  H  H6  1  0.01427000  0.72643000  0.66802000  1.0
  H  H7  1  0.48574000  0.22642000  0.83198000  1.0
  H  H8  1  0.15207000  0.26891000  0.16932000  1.0
  H  H9  1  0.34793000  0.76891000  0.33067000  1.0
  H  H10  1  0.84792000  0.73109000  0.83069000  1.0
  H  H11  1  0.65207000  0.23109000  0.66932000  1.0
  H  H12  1  0.55650000  0.40541000  0.04791000  1.0
  H  H13  1  0.94350000  0.90540000  0.45209000  1.0
  H  H14  1  0.44349000  0.59459000  0.95210000  1.0
  H  H15  1  0.05651000  0.09459000  0.54790000  1.0
  H  H16  1  0.91889000  0.57262000  0.04771000  1.0
  H  H17  1  0.58111000  0.07262000  0.45229000  1.0
  H  H18  1  0.08111000  0.42738000  0.95229000  1.0
  H  H19  1  0.41891000  0.92738000  0.54770000  1.0
  H  H20  1  0.02173000  0.66266000  0.18213000  1.0
  H  H21  1  0.47826000  0.16267000  0.31788000  1.0
  H  H22  1  0.97827000  0.33734000  0.81787000  1.0
  H  H23  1  0.52174000  0.83733000  0.68212000  1.0
  H  H24  1  0.75683000  0.59506000  0.32452000  1.0
  H  H25  1  0.74315000  0.09507000  0.17549000  1.0
  H  H26  1  0.24316000  0.40494000  0.67549000  1.0
  H  H27  1  0.25685000  0.90493000  0.82451000  1.0
  C  C28  1  0.15600000  0.33040000  0.29700000  1.0
  C  C29  1  0.34399000  0.83040000  0.20299000  1.0
  C  C30  1  0.84400000  0.66960000  0.70300000  1.0
  C  C31  1  0.65602000  0.16960000  0.79700000  1.0
  C  C32  1  0.59742000  0.44733000  0.10726000  1.0
  C  C33  1  0.90258000  0.94733000  0.39274000  1.0
  C  C34  1  0.40257000  0.55266000  0.89275000  1.0
  C  C35  1  0.09744000  0.05266000  0.60725000  1.0
  C  C36  1  0.79877000  0.53995000  0.10795000  1.0
  C  C37  1  0.70123000  0.03995000  0.39205000  1.0
  C  C38  1  0.20122000  0.46005000  0.89206000  1.0
  C  C39  1  0.29879000  0.96005000  0.60794000  1.0
  C  C40  1  0.85464000  0.59267000  0.18513000  1.0
  C  C41  1  0.64534000  0.09267000  0.31488000  1.0
  C  C42  1  0.14535000  0.40733000  0.81488000  1.0
  C  C43  1  0.35466000  0.90732000  0.68512000  1.0
  C  C44  1  0.70742000  0.55646000  0.26452000  1.0
  C  C45  1  0.79255000  0.05647000  0.23549000  1.0
  C  C46  1  0.29256000  0.44354000  0.73549000  1.0
  C  C47  1  0.20745000  0.94353000  0.76451000  1.0
  C  C48  1  0.49717000  0.46531000  0.26479000  1.0
  C  C49  1  0.00281000  0.96532000  0.23521000  1.0
  C  C50  1  0.50282000  0.53469000  0.73522000  1.0
  C  C51  1  0.99720000  0.03468000  0.76478000  1.0
  C  C52  1  0.44816000  0.41141000  0.18686000  1.0
  C  C53  1  0.05185000  0.91142000  0.31313000  1.0
  C  C54  1  0.55185000  0.58858000  0.81314000  1.0
  C  C55  1  0.94816000  0.08858000  0.68686000  1.0
  I  I56  1  0.26540000  0.66708000  0.48220000  1.0
  I  I57  1  0.23463000  0.16708000  0.01780000  1.0
  I  I58  1  0.73460000  0.33292000  0.51780000  1.0
  I  I59  1  0.76538000  0.83292000  0.98220000  1.0
  N  N60  1  0.31036000  0.41222000  0.33235000  1.0
  N  N61  1  0.18961000  0.91222000  0.16765000  1.0
  N  N62  1  0.68964000  0.58779000  0.66765000  1.0
  N  N63  1  0.81039000  0.08778000  0.83235000  1.0
  N  N64  1  0.23215000  0.32618000  0.21041000  1.0
  N  N65  1  0.26785000  0.82619000  0.28958000  1.0
  N  N66  1  0.76784000  0.67382000  0.78960000  1.0
  N  N67  1  0.73216000  0.17381000  0.71041000  1.0
