# generated using pymatgen
data_ZnH17C24N3O4
_symmetry_space_group_name_H-M   'P 1'
_cell_length_a   5.81440000
_cell_length_b   11.35583003
_cell_length_c   18.86940000
_cell_angle_alpha   95.59438918
_cell_angle_beta   98.86440000
_cell_angle_gamma   104.83779270
_symmetry_Int_Tables_number   1
_chemical_formula_structural   ZnH17C24N3O4
_chemical_formula_sum   'Zn2 H34 C48 N6 O8'
_cell_volume   1177.67072757
_cell_formula_units_Z   2
loop_
 _symmetry_equiv_pos_site_id
 _symmetry_equiv_pos_as_xyz
  1  'x, y, z'
loop_
 _atom_site_type_symbol
 _atom_site_label
 _atom_site_symmetry_multiplicity
 _atom_site_fract_x
 _atom_site_fract_y
 _atom_site_fract_z
 _atom_site_occupancy
  Zn  Zn0  1  0.69302000  0.22054000  0.88530000  1.0
  Zn  Zn1  1  0.91325000  0.72079000  0.38537000  1.0
  H  H2  1  0.98445000  0.69013000  0.53978000  1.0
  H  H3  1  0.74497000  0.18986000  0.03954000  1.0
  H  H4  1  0.59508000  0.24495000  0.72878000  1.0
  H  H5  1  0.87894000  0.74497000  0.22895000  1.0
  H  H6  1  0.39586000  0.34170000  0.02802000  1.0
  H  H7  1  0.47284000  0.84225000  0.52788000  1.0
  H  H8  1  0.89141000  0.27803000  0.60143000  1.0
  H  H9  1  0.48830000  0.77742000  0.10161000  1.0
  H  H10  1  0.26403000  0.61015000  0.23228000  1.0
  H  H11  1  0.07917000  0.10958000  0.73219000  1.0
  H  H12  1  0.26274000  0.61886000  0.62762000  1.0
  H  H13  1  0.48331000  0.11861000  0.12737000  1.0
  H  H14  1  0.30417000  0.31789000  0.64604000  1.0
  H  H15  1  0.15975000  0.81758000  0.14607000  1.0
  H  H16  1  0.56141000  0.49587000  0.44684000  1.0
  H  H17  1  0.88113000  0.99477000  0.94653000  1.0
  H  H18  1  0.97462000  0.56121000  0.11324000  1.0
  H  H19  1  0.19970000  0.06081000  0.61300000  1.0
  H  H20  1  0.69048000  0.39489000  0.14610000  1.0
  H  H21  1  0.35026000  0.89532000  0.64612000  1.0
  H  H22  1  0.26359000  0.56759000  0.36632000  1.0
  H  H23  1  0.17019000  0.06677000  0.86604000  1.0
  H  H24  1  0.38489000  0.38954000  0.91052000  1.0
  H  H25  1  0.41560000  0.89062000  0.41056000  1.0
  H  H26  1  0.01690000  0.60124000  0.75847000  1.0
  H  H27  1  0.84217000  0.10159000  0.25802000  1.0
  H  H28  1  0.58884000  0.34968000  0.52355000  1.0
  H  H29  1  0.78434000  0.84882000  0.02359000  1.0
  H  H30  1  0.07444000  0.46291000  0.83549000  1.0
  H  H31  1  0.72412000  0.96380000  0.33537000  1.0
  H  H32  1  0.83736000  0.75303000  0.72850000  1.0
  H  H33  1  0.14330000  0.25306000  0.22789000  1.0
  H  H34  1  0.63727000  0.74478000  0.65152000  1.0
  H  H35  1  0.25819000  0.24461000  0.15094000  1.0
  C  C36  1  0.49444000  0.50557000  0.19640000  1.0
  C  C37  1  0.70786000  0.00549000  0.69637000  1.0
  C  C38  1  0.16525000  0.44685000  0.06385000  1.0
  C  C39  1  0.84484000  0.94684000  0.56369000  1.0
  C  C40  1  0.67456000  0.53978000  0.26668000  1.0
  C  C41  1  0.63269000  0.03973000  0.76670000  1.0
  C  C42  1  0.97313000  0.40549000  0.99635000  1.0
  C  C43  1  0.92790000  0.90551000  0.49616000  1.0
  C  C44  1  0.11495000  0.64580000  0.52169000  1.0
  C  C45  1  0.55211000  0.14538000  0.02146000  1.0
  C  C46  1  0.47686000  0.29428000  0.75008000  1.0
  C  C47  1  0.06774000  0.79440000  0.25019000  1.0
  C  C48  1  0.15990000  0.39618000  0.73332000  1.0
  C  C49  1  0.46965000  0.89634000  0.23328000  1.0
  C  C50  1  0.36842000  0.40080000  0.07288000  1.0
  C  C51  1  0.60461000  0.90107000  0.57277000  1.0
  C  C52  1  0.85599000  0.36518000  0.61843000  1.0
  C  C53  1  0.62763000  0.86471000  0.11845000  1.0
  C  C54  1  0.29338000  0.55291000  0.18694000  1.0
  C  C55  1  0.94682000  0.05255000  0.68686000  1.0
  C  C56  1  0.44469000  0.55298000  0.54574000  1.0
  C  C57  1  0.15364000  0.05229000  0.04546000  1.0
  C  C58  1  0.27370000  0.60698000  0.57046000  1.0
  C  C59  1  0.40329000  0.10651000  0.07022000  1.0
  C  C60  1  0.62617000  0.51541000  0.59538000  1.0
  C  C61  1  0.98432000  0.01486000  0.09515000  1.0
  C  C62  1  0.97578000  0.43552000  0.68589000  1.0
  C  C63  1  0.64546000  0.93541000  0.18576000  1.0
  C  C64  1  0.74954000  0.58759000  0.66334000  1.0
  C  C65  1  0.00091000  0.08739000  0.16298000  1.0
  C  C66  1  0.31256000  0.33468000  0.70423000  1.0
  C  C67  1  0.22642000  0.83464000  0.20426000  1.0
  C  C68  1  0.43427000  0.53621000  0.47032000  1.0
  C  C69  1  0.07203000  0.03532000  0.97003000  1.0
  C  C70  1  0.13206000  0.52529000  0.12105000  1.0
  C  C71  1  0.01418000  0.02499000  0.62090000  1.0
  C  C72  1  0.53219000  0.43019000  0.13837000  1.0
  C  C73  1  0.53615000  0.93041000  0.63834000  1.0
  C  C74  1  0.26955000  0.57708000  0.42461000  1.0
  C  C75  1  0.23196000  0.07632000  0.92432000  1.0
  C  C76  1  0.35907000  0.37503000  0.85171000  1.0
  C  C77  1  0.36800000  0.87579000  0.35174000  1.0
  C  C78  1  0.92008000  0.54442000  0.70726000  1.0
  C  C79  1  0.83111000  0.04447000  0.20693000  1.0
  C  C80  1  0.68538000  0.40585000  0.57495000  1.0
  C  C81  1  0.79531000  0.90520000  0.07489000  1.0
  C  C82  1  0.18925000  0.41744000  0.80915000  1.0
  C  C83  1  0.53752000  0.91811000  0.30910000  1.0
  N  N84  1  0.49838000  0.31223000  0.82276000  1.0
  N  N85  1  0.13701000  0.81270000  0.32287000  1.0
  N  N86  1  0.11440000  0.63364000  0.44985000  1.0
  N  N87  1  0.46880000  0.13313000  0.94960000  1.0
  N  N88  1  0.71031000  0.69746000  0.68766000  1.0
  N  N89  1  0.17415000  0.19739000  0.18715000  1.0
  O  O90  1  0.98612000  0.30754000  0.95621000  1.0
  O  O91  1  0.77686000  0.80752000  0.45604000  1.0
  O  O92  1  0.63501000  0.62283000  0.31281000  1.0
  O  O93  1  0.80145000  0.12297000  0.81272000  1.0
  O  O94  1  0.81170000  0.45877000  0.98376000  1.0
  O  O95  1  0.12995000  0.95886000  0.48352000  1.0
  O  O96  1  0.84894000  0.49445000  0.27647000  1.0
  O  O97  1  0.42298000  0.99425000  0.77663000  1.0
