# generated using pymatgen
data_NaH10C6NO3
_symmetry_space_group_name_H-M   'P 1'
_cell_length_a   6.87698000
_cell_length_b   8.25485000
_cell_length_c   13.76040000
_cell_angle_alpha   89.99990000
_cell_angle_beta   92.70390000
_cell_angle_gamma   89.99980000
_symmetry_Int_Tables_number   1
_chemical_formula_structural   NaH10C6NO3
_chemical_formula_sum   'Na4 H40 C24 N4 O12'
_cell_volume   780.28673127
_cell_formula_units_Z   4
loop_
 _symmetry_equiv_pos_site_id
 _symmetry_equiv_pos_as_xyz
  1  'x, y, z'
loop_
 _atom_site_type_symbol
 _atom_site_label
 _atom_site_symmetry_multiplicity
 _atom_site_fract_x
 _atom_site_fract_y
 _atom_site_fract_z
 _atom_site_occupancy
  Na  Na0  1  0.75293000  0.50225000  0.48409000  1.0
  Na  Na1  1  0.74707000  0.00225000  0.51591000  1.0
  Na  Na2  1  0.24707000  0.49775000  0.51591000  1.0
  Na  Na3  1  0.25293000  0.99775000  0.48409000  1.0
  H  H4  1  0.30884000  0.68354000  0.74730000  1.0
  H  H5  1  0.19116000  0.18354000  0.25270000  1.0
  H  H6  1  0.69115000  0.31646000  0.25270000  1.0
  H  H7  1  0.80884000  0.81646000  0.74730000  1.0
  H  H8  1  0.40830000  0.67943000  0.92393000  1.0
  H  H9  1  0.09170000  0.17942000  0.07607000  1.0
  H  H10  1  0.59170000  0.32057000  0.07607000  1.0
  H  H11  1  0.90830000  0.82057000  0.92393000  1.0
  H  H12  1  0.71479000  0.53270000  0.97973000  1.0
  H  H13  1  0.78521000  0.03270000  0.02027000  1.0
  H  H14  1  0.28521000  0.46730000  0.02027000  1.0
  H  H15  1  0.21479000  0.96730000  0.97973000  1.0
  H  H16  1  0.93877000  0.23874000  0.83831000  1.0
  H  H17  1  0.56124000  0.73873000  0.16169000  1.0
  H  H18  1  0.06124000  0.76127000  0.16169000  1.0
  H  H19  1  0.43876000  0.26127000  0.83831000  1.0
  H  H20  1  0.98845000  0.36726000  0.94019000  1.0
  H  H21  1  0.51155000  0.86726000  0.05981000  1.0
  H  H22  1  0.01155000  0.63274000  0.05982000  1.0
  H  H23  1  0.48845000  0.13274000  0.94019000  1.0
  H  H24  1  0.08587000  0.41257000  0.82534000  1.0
  H  H25  1  0.41413000  0.91257000  0.17466000  1.0
  H  H26  1  0.91413000  0.58744000  0.17466000  1.0
  H  H27  1  0.58587000  0.08744000  0.82534000  1.0
  H  H28  1  0.00122000  0.26786000  0.39783000  1.0
  H  H29  1  0.49878000  0.76787000  0.60217000  1.0
  H  H30  1  0.99878000  0.73213000  0.60217000  1.0
  H  H31  1  0.50122000  0.23213000  0.39783000  1.0
  H  H32  1  0.07446000  0.42788000  0.34531000  1.0
  H  H33  1  0.42554000  0.92789000  0.65469000  1.0
  H  H34  1  0.92554000  0.57211000  0.65469000  1.0
  H  H35  1  0.57446000  0.07211000  0.34531000  1.0
  H  H36  1  0.95182000  0.23128000  0.59947000  1.0
  H  H37  1  0.54818000  0.73128000  0.40053000  1.0
  H  H38  1  0.04818000  0.76871000  0.40053000  1.0
  H  H39  1  0.45182000  0.26871000  0.59947000  1.0
  H  H40  1  0.79312000  0.33285000  0.65175000  1.0
  H  H41  1  0.70688000  0.83285000  0.34825000  1.0
  H  H42  1  0.20687000  0.66715000  0.34825000  1.0
  H  H43  1  0.29312000  0.16715000  0.65175000  1.0
  C  C44  1  0.56520000  0.55234000  0.70490000  1.0
  C  C45  1  0.93480000  0.05234000  0.29510000  1.0
  C  C46  1  0.43480000  0.44766000  0.29510000  1.0
  C  C47  1  0.06520000  0.94766000  0.70490000  1.0
  C  C48  1  0.44277000  0.62444000  0.77369000  1.0
  C  C49  1  0.05722000  0.12445000  0.22631000  1.0
  C  C50  1  0.55722000  0.37555000  0.22631000  1.0
  C  C51  1  0.94278000  0.87555000  0.77369000  1.0
  C  C52  1  0.49838000  0.61968000  0.87147000  1.0
  C  C53  1  0.00162000  0.11967000  0.12853000  1.0
  C  C54  1  0.50162000  0.38033000  0.12853000  1.0
  C  C55  1  0.99838000  0.88033000  0.87147000  1.0
  C  C56  1  0.66982000  0.53881000  0.90289000  1.0
  C  C57  1  0.83018000  0.03881000  0.09711000  1.0
  C  C58  1  0.33018000  0.46119000  0.09711000  1.0
  C  C59  1  0.16982000  0.96119000  0.90289000  1.0
  C  C60  1  0.77912000  0.46249000  0.83365000  1.0
  C  C61  1  0.72088000  0.96248000  0.16634000  1.0
  C  C62  1  0.22088000  0.53751000  0.16634000  1.0
  C  C63  1  0.27911000  0.03752000  0.83366000  1.0
  C  C64  1  0.95785000  0.36560000  0.86125000  1.0
  C  C65  1  0.54216000  0.86560000  0.13875000  1.0
  C  C66  1  0.04216000  0.63440000  0.13875000  1.0
  C  C67  1  0.45784000  0.13440000  0.86125000  1.0
  N  N68  1  0.72866000  0.47032000  0.73738000  1.0
  N  N69  1  0.77134000  0.97032000  0.26262000  1.0
  N  N70  1  0.27134000  0.52968000  0.26262000  1.0
  N  N71  1  0.22866000  0.02967000  0.73738000  1.0
  O  O72  1  0.52986000  0.56481000  0.61153000  1.0
  O  O73  1  0.97014000  0.06481000  0.38846000  1.0
  O  O74  1  0.47014000  0.43519000  0.38847000  1.0
  O  O75  1  0.02986000  0.93519000  0.61153000  1.0
  O  O76  1  0.00436000  0.38898000  0.40143000  1.0
  O  O77  1  0.49565000  0.88898000  0.59856000  1.0
  O  O78  1  0.99565000  0.61101000  0.59857000  1.0
  O  O79  1  0.50435000  0.11102000  0.40143000  1.0
  O  O80  1  0.81456000  0.26127000  0.59326000  1.0
  O  O81  1  0.68544000  0.76127000  0.40674000  1.0
  O  O82  1  0.18543000  0.73873000  0.40674000  1.0
  O  O83  1  0.31456000  0.23873000  0.59326000  1.0
