# generated using pymatgen
data_CoH10C14N3O5
_symmetry_space_group_name_H-M   'P 1'
_cell_length_a   7.57126000
_cell_length_b   7.68105000
_cell_length_c   11.74420000
_cell_angle_alpha   98.34970000
_cell_angle_beta   95.30340000
_cell_angle_gamma   96.72400000
_symmetry_Int_Tables_number   1
_chemical_formula_structural   CoH10C14N3O5
_chemical_formula_sum   'Co2 H20 C28 N6 O10'
_cell_volume   666.92413281
_cell_formula_units_Z   2
loop_
 _symmetry_equiv_pos_site_id
 _symmetry_equiv_pos_as_xyz
  1  'x, y, z'
loop_
 _atom_site_type_symbol
 _atom_site_label
 _atom_site_symmetry_multiplicity
 _atom_site_fract_x
 _atom_site_fract_y
 _atom_site_fract_z
 _atom_site_occupancy
  Co  Co0  1  0.47711000  0.08401000  0.68449000  1.0
  Co  Co1  1  0.56589000  0.90546000  0.31617000  1.0
  H  H2  1  0.72395000  0.09695000  0.89277000  1.0
  H  H3  1  0.26244000  0.91462000  0.11451000  1.0
  H  H4  1  0.21495000  0.48002000  0.12312000  1.0
  H  H5  1  0.76417000  0.51988000  0.87745000  1.0
  H  H6  1  0.73153000  0.21238000  0.10464000  1.0
  H  H7  1  0.24289000  0.78874000  0.90306000  1.0
  H  H8  1  0.43224000  0.19628000  0.48756000  1.0
  H  H9  1  0.58508000  0.80309000  0.51349000  1.0
  H  H10  1  0.26812000  0.04096000  0.49745000  1.0
  H  H11  1  0.75248000  0.95983000  0.51301000  1.0
  H  H12  1  0.47356000  0.36098000  0.17396000  1.0
  H  H13  1  0.49440000  0.63556000  0.82901000  1.0
  H  H14  1  0.21491000  0.23355000  0.82313000  1.0
  H  H15  1  0.78017000  0.79017000  0.17058000  1.0
  H  H16  1  0.00602000  0.10109000  0.59237000  1.0
  H  H17  1  0.02050000  0.89592000  0.40861000  1.0
  H  H18  1  0.44478000  0.50566000  0.58347000  1.0
  H  H19  1  0.56801000  0.50318000  0.41584000  1.0
  H  H20  1  0.94415000  0.65171000  0.68713000  1.0
  H  H21  1  0.06083000  0.34091000  0.30841000  1.0
  C  C22  1  0.61192000  0.15477000  0.92780000  1.0
  C  C23  1  0.37229000  0.85580000  0.07757000  1.0
  C  C24  1  0.61604000  0.22254000  0.04455000  1.0
  C  C25  1  0.36180000  0.78143000  0.96106000  1.0
  C  C26  1  0.47313000  0.30337000  0.08353000  1.0
  C  C27  1  0.50153000  0.69810000  0.91909000  1.0
  C  C28  1  0.32601000  0.31287000  0.00331000  1.0
  C  C29  1  0.65409000  0.69389000  0.99613000  1.0
  C  C30  1  0.32745000  0.23539000  0.88773000  1.0
  C  C31  1  0.66086000  0.78154000  0.11012000  1.0
  C  C32  1  0.03867000  0.42684000  0.97315000  1.0
  C  C33  1  0.94060000  0.57744000  0.02589000  1.0
  C  C34  1  0.95444000  0.37090000  0.63892000  1.0
  C  C35  1  0.06138000  0.62290000  0.35751000  1.0
  C  C36  1  0.05811000  0.24068000  0.59919000  1.0
  C  C37  1  0.96256000  0.75729000  0.39896000  1.0
  C  C38  1  0.23295000  0.28847000  0.57636000  1.0
  C  C39  1  0.78570000  0.71445000  0.42255000  1.0
  C  C40  1  0.30563000  0.46697000  0.59516000  1.0
  C  C41  1  0.70739000  0.53731000  0.40263000  1.0
  C  C42  1  0.20105000  0.59692000  0.63440000  1.0
  C  C43  1  0.80575000  0.40155000  0.36241000  1.0
  C  C44  1  0.02462000  0.54999000  0.65586000  1.0
  C  C45  1  0.98300000  0.44459000  0.34036000  1.0
  C  C46  1  0.77238000  0.31475000  0.66932000  1.0
  C  C47  1  0.24834000  0.66295000  0.32400000  1.0
  C  C48  1  0.28101000  0.78565000  0.65602000  1.0
  C  C49  1  0.71213000  0.21603000  0.34451000  1.0
  N  N50  1  0.46928000  0.16177000  0.85171000  1.0
  N  N51  1  0.52042000  0.85582000  0.15062000  1.0
  N  N52  1  0.19007000  0.40872000  0.03976000  1.0
  N  N53  1  0.78885000  0.59596000  0.95904000  1.0
  N  N54  1  0.34099000  0.15548000  0.54187000  1.0
  N  N55  1  0.67916000  0.84932000  0.46278000  1.0
  O  O56  1  0.98092000  0.33555000  0.87863000  1.0
  O  O57  1  0.99882000  0.66912000  0.12029000  1.0
  O  O58  1  0.71876000  0.14501000  0.64511000  1.0
  O  O59  1  0.32876000  0.82443000  0.35323000  1.0
  O  O60  1  0.67890000  0.42381000  0.71588000  1.0
  O  O61  1  0.31739000  0.54026000  0.26934000  1.0
  O  O62  1  0.19273000  0.90902000  0.68947000  1.0
  O  O63  1  0.78841000  0.07907000  0.30965000  1.0
  O  O64  1  0.44929000  0.82138000  0.64158000  1.0
  O  O65  1  0.54820000  0.18890000  0.36277000  1.0
