# generated using pymatgen
data_Cd3H24(C14N13)2
_symmetry_space_group_name_H-M   'P 1'
_cell_length_a   9.48749000
_cell_length_b   10.63720000
_cell_length_c   10.88200000
_cell_angle_alpha   62.15740000
_cell_angle_beta   79.49650000
_cell_angle_gamma   71.30890000
_symmetry_Int_Tables_number   1
_chemical_formula_structural   Cd3H24(C14N13)2
_chemical_formula_sum   'Cd3 H24 C28 N26'
_cell_volume   919.16637780
_cell_formula_units_Z   1
loop_
 _symmetry_equiv_pos_site_id
 _symmetry_equiv_pos_as_xyz
  1  'x, y, z'
loop_
 _atom_site_type_symbol
 _atom_site_label
 _atom_site_symmetry_multiplicity
 _atom_site_fract_x
 _atom_site_fract_y
 _atom_site_fract_z
 _atom_site_occupancy
  Cd  Cd0  1  0.00000000  0.00000000  0.00000000  1.0
  Cd  Cd1  1  0.69708000  0.81495000  0.10405000  1.0
  Cd  Cd2  1  0.30292000  0.18506000  0.89595000  1.0
  H  H3  1  0.43572000  0.64998000  0.81234000  1.0
  H  H4  1  0.56428000  0.35002000  0.18766000  1.0
  H  H5  1  0.67081000  0.07840000  0.52171000  1.0
  H  H6  1  0.32919000  0.92160000  0.47830000  1.0
  H  H7  1  0.85230000  0.96839000  0.56543000  1.0
  H  H8  1  0.14771000  0.03161000  0.43457000  1.0
  H  H9  1  0.80143000  0.89225000  0.80265000  1.0
  H  H10  1  0.19857000  0.10775000  0.19735000  1.0
  H  H11  1  0.55198000  0.79383000  0.58146000  1.0
  H  H12  1  0.44803000  0.20617000  0.41854000  1.0
  H  H13  1  0.50139000  0.64685000  0.02643000  1.0
  H  H14  1  0.49861000  0.35316000  0.97357000  1.0
  H  H15  1  0.73512000  0.63113000  0.43710000  1.0
  H  H16  1  0.26490000  0.36886000  0.56290000  1.0
  H  H17  1  0.91937000  0.16721000  0.54793000  1.0
  H  H18  1  0.08062000  0.83278000  0.45206000  1.0
  H  H19  1  0.81975000  0.49225000  0.12540000  1.0
  H  H20  1  0.18024000  0.50776000  0.87460000  1.0
  H  H21  1  0.79103000  0.46558000  0.67457000  1.0
  H  H22  1  0.20898000  0.53441000  0.32543000  1.0
  H  H23  1  0.94536000  0.31066000  0.69988000  1.0
  H  H24  1  0.05464000  0.68933000  0.30012000  1.0
  H  H25  1  0.90996000  0.22746000  0.29613000  1.0
  H  H26  1  0.09002000  0.77254000  0.70386000  1.0
  C  C27  1  0.51641000  0.70670000  0.80547000  1.0
  C  C28  1  0.48360000  0.29330000  0.19453000  1.0
  C  C29  1  0.73723000  0.26106000  0.75487000  1.0
  C  C30  1  0.26278000  0.73894000  0.24513000  1.0
  C  C31  1  0.76558000  0.95017000  0.41148000  1.0
  C  C32  1  0.23442000  0.04984000  0.58853000  1.0
  C  C33  1  0.74472000  0.96687000  0.54277000  1.0
  C  C34  1  0.25528000  0.03313000  0.45723000  1.0
  C  C35  1  0.68199000  0.85976000  0.67265000  1.0
  C  C36  1  0.31801000  0.14024000  0.32735000  1.0
  C  C37  1  0.71836000  0.84281000  0.79923000  1.0
  C  C38  1  0.28164000  0.15719000  0.20078000  1.0
  C  C39  1  0.58047000  0.78663000  0.67751000  1.0
  C  C40  1  0.41953000  0.21337000  0.32249000  1.0
  C  C41  1  0.55334000  0.70332000  0.92516000  1.0
  C  C42  1  0.44666000  0.29668000  0.07484000  1.0
  C  C43  1  0.77748000  0.53819000  0.41048000  1.0
  C  C44  1  0.22253000  0.46181000  0.58952000  1.0
  C  C45  1  0.82990000  0.39453000  0.51241000  1.0
  C  C46  1  0.17010000  0.60546000  0.48758000  1.0
  C  C47  1  0.87839000  0.28094000  0.47055000  1.0
  C  C48  1  0.12161000  0.71905000  0.52944000  1.0
  C  C49  1  0.82312000  0.46133000  0.23594000  1.0
  C  C50  1  0.17688000  0.53868000  0.76406000  1.0
  C  C51  1  0.83109000  0.36233000  0.66307000  1.0
  C  C52  1  0.16892000  0.63767000  0.33692000  1.0
  C  C53  1  0.87499000  0.31412000  0.33113000  1.0
  C  C54  1  0.12500000  0.68588000  0.66886000  1.0
  N  N55  1  0.77482000  0.57084000  0.27546000  1.0
  N  N56  1  0.22518000  0.42917000  0.72454000  1.0
  N  N57  1  0.74257000  0.90773000  0.24532000  1.0
  N  N58  1  0.25743000  0.09227000  0.75469000  1.0
  N  N59  1  0.85113000  0.97311000  0.20980000  1.0
  N  N60  1  0.14886000  0.02689000  0.79020000  1.0
  N  N61  1  0.86877000  0.00148000  0.31226000  1.0
  N  N62  1  0.13123000  0.99852000  0.68775000  1.0
  N  N63  1  0.68588000  0.89160000  0.37209000  1.0
  N  N64  1  0.31412000  0.10840000  0.62792000  1.0
  N  N65  1  0.59406000  0.28459000  0.73331000  1.0
  N  N66  1  0.40594000  0.71541000  0.26669000  1.0
  N  N67  1  0.78361000  0.13296000  0.86850000  1.0
  N  N68  1  0.21639000  0.86704000  0.13150000  1.0
  N  N69  1  0.66656000  0.07665000  0.91820000  1.0
  N  N70  1  0.33343000  0.92335000  0.08181000  1.0
  N  N71  1  0.55426000  0.16764000  0.83624000  1.0
  N  N72  1  0.44574000  0.83236000  0.16376000  1.0
  N  N73  1  0.94919000  0.79269000  0.01901000  1.0
  N  N74  1  0.05081000  0.20730000  0.98099000  1.0
  N  N75  1  0.04882000  0.68129000  0.03982000  1.0
  N  N76  1  0.95116000  0.31871000  0.96018000  1.0
  N  N77  1  0.14575000  0.57441000  0.05894000  1.0
  N  N78  1  0.85425000  0.42559000  0.94106000  1.0
  N  N79  1  0.65426000  0.76938000  0.92188000  1.0
  N  N80  1  0.34574000  0.23062000  0.07812000  1.0
