# generated using pymatgen
data_CuH16C20S3(N2O)4
_symmetry_space_group_name_H-M   'P 1'
_cell_length_a   10.50510000
_cell_length_b   10.50530000
_cell_length_c   13.24380000
_cell_angle_alpha   89.40610000
_cell_angle_beta   89.40500000
_cell_angle_gamma   69.39250000
_symmetry_Int_Tables_number   1
_chemical_formula_structural   CuH16C20S3(N2O)4
_chemical_formula_sum   'Cu2 H32 C40 S6 N16 O8'
_cell_volume   1367.94546233
_cell_formula_units_Z   2
loop_
 _symmetry_equiv_pos_site_id
 _symmetry_equiv_pos_as_xyz
  1  'x, y, z'
loop_
 _atom_site_type_symbol
 _atom_site_label
 _atom_site_symmetry_multiplicity
 _atom_site_fract_x
 _atom_site_fract_y
 _atom_site_fract_z
 _atom_site_occupancy
  Cu  Cu0  1  0.00000000  0.99999000  0.00000000  1.0
  Cu  Cu1  1  0.99999000  1.00000000  0.50000000  1.0
  H  H2  1  0.97253000  0.15009000  0.21297000  1.0
  H  H3  1  0.84992000  0.02746000  0.28701000  1.0
  H  H4  1  0.02746000  0.84990000  0.78701000  1.0
  H  H5  1  0.15009000  0.97254000  0.71299000  1.0
  H  H6  1  0.83657000  0.30964000  0.92329000  1.0
  H  H7  1  0.69035000  0.16343000  0.57669000  1.0
  H  H8  1  0.16347000  0.69035000  0.07669000  1.0
  H  H9  1  0.30965000  0.83657000  0.42331000  1.0
  H  H10  1  0.77391000  0.52524000  0.05997000  1.0
  H  H11  1  0.47475000  0.22608000  0.44001000  1.0
  H  H12  1  0.22610000  0.47476000  0.94000000  1.0
  H  H13  1  0.52525000  0.77391000  0.55999000  1.0
  H  H14  1  0.75625000  0.31450000  0.34840000  1.0
  H  H15  1  0.68549000  0.24374000  0.15160000  1.0
  H  H16  1  0.24374000  0.68549000  0.65159000  1.0
  H  H17  1  0.31450000  0.75627000  0.84842000  1.0
  H  H18  1  0.77042000  0.46335000  0.50300000  1.0
  H  H19  1  0.53664000  0.22960000  0.99700000  1.0
  H  H20  1  0.22961000  0.53663000  0.49699000  1.0
  H  H21  1  0.46337000  0.77041000  0.00300000  1.0
  H  H22  1  0.02300000  0.73512000  0.37209000  1.0
  H  H23  1  0.26488000  0.97699000  0.12790000  1.0
  H  H24  1  0.97699000  0.26486000  0.62791000  1.0
  H  H25  1  0.73514000  0.02300000  0.87211000  1.0
  H  H26  1  0.84100000  0.87219000  0.65633000  1.0
  H  H27  1  0.12777000  0.15905000  0.84370000  1.0
  H  H28  1  0.15900000  0.12781000  0.34368000  1.0
  H  H29  1  0.87222000  0.84096000  0.15632000  1.0
  H  H30  1  0.76148000  0.65711000  0.59461000  1.0
  H  H31  1  0.34287000  0.23855000  0.90540000  1.0
  H  H32  1  0.23855000  0.34287000  0.40539000  1.0
  H  H33  1  0.65713000  0.76144000  0.09461000  1.0
  C  C34  1  0.92558000  0.22186000  0.15280000  1.0
  C  C35  1  0.77815000  0.07440000  0.34719000  1.0
  C  C36  1  0.07440000  0.77815000  0.84719000  1.0
  C  C37  1  0.22185000  0.92561000  0.65281000  1.0
  C  C38  1  0.85292000  0.30977000  0.00424000  1.0
  C  C39  1  0.69022000  0.14708000  0.49575000  1.0
  C  C40  1  0.14710000  0.69023000  0.99574000  1.0
  C  C41  1  0.30977000  0.85292000  0.50426000  1.0
  C  C42  1  0.82304000  0.41654000  0.07018000  1.0
  C  C43  1  0.58345000  0.17695000  0.42981000  1.0
  C  C44  1  0.17696000  0.58346000  0.92980000  1.0
  C  C45  1  0.41655000  0.82305000  0.57019000  1.0
  C  C46  1  0.85240000  0.42811000  0.25736000  1.0
  C  C47  1  0.57188000  0.14758000  0.24262000  1.0
  C  C48  1  0.14759000  0.57189000  0.74262000  1.0
  C  C49  1  0.42812000  0.85243000  0.75738000  1.0
  C  C50  1  0.79824000  0.39506000  0.34412000  1.0
  C  C51  1  0.60493000  0.20176000  0.15587000  1.0
  C  C52  1  0.20173000  0.60495000  0.65586000  1.0
  C  C53  1  0.39507000  0.79826000  0.84413000  1.0
  C  C54  1  0.80602000  0.47558000  0.42733000  1.0
  C  C55  1  0.52441000  0.19400000  0.07266000  1.0
  C  C56  1  0.19398000  0.52442000  0.57265000  1.0
  C  C57  1  0.47560000  0.80601000  0.92734000  1.0
  C  C58  1  0.86594000  0.56866000  0.40126000  1.0
  C  C59  1  0.43134000  0.13406000  0.09874000  1.0
  C  C60  1  0.13407000  0.43133000  0.59874000  1.0
  C  C61  1  0.56867000  0.86594000  0.90127000  1.0
  C  C62  1  0.96107000  0.74580000  0.44122000  1.0
  C  C63  1  0.25419000  0.03896000  0.05878000  1.0
  C  C64  1  0.03895000  0.25419000  0.55878000  1.0
  C  C65  1  0.74582000  0.96104000  0.94123000  1.0
  C  C66  1  0.86698000  0.80930000  0.58944000  1.0
  C  C67  1  0.19069000  0.13305000  0.91056000  1.0
  C  C68  1  0.13302000  0.19070000  0.41056000  1.0
  C  C69  1  0.80931000  0.86695000  0.08945000  1.0
  C  C70  1  0.82480000  0.70650000  0.55856000  1.0
  C  C71  1  0.29349000  0.17523000  0.94145000  1.0
  C  C72  1  0.17521000  0.29349000  0.44144000  1.0
  C  C73  1  0.70652000  0.82477000  0.05856000  1.0
  S  S74  1  0.91527000  0.55855000  0.27519000  1.0
  S  S75  1  0.44145000  0.08471000  0.22481000  1.0
  S  S76  1  0.08467000  0.44148000  0.72479000  1.0
  S  S77  1  0.55854000  0.91531000  0.77520000  1.0
  S  S78  1  0.14571000  0.85430000  0.25000000  1.0
  S  S79  1  0.85430000  0.14570000  0.75000000  1.0
  N  N80  1  0.91527000  0.19029000  0.05731000  1.0
  N  N81  1  0.80971000  0.08471000  0.44269000  1.0
  N  N82  1  0.08473000  0.80972000  0.94268000  1.0
  N  N83  1  0.19028000  0.91529000  0.55732000  1.0
  N  N84  1  0.86903000  0.36010000  0.16446000  1.0
  N  N85  1  0.63991000  0.13095000  0.33553000  1.0
  N  N86  1  0.13096000  0.63991000  0.83553000  1.0
  N  N87  1  0.36009000  0.86905000  0.66447000  1.0
  N  N88  1  0.95124000  0.83177000  0.51595000  1.0
  N  N89  1  0.16822000  0.04878000  0.98405000  1.0
  N  N90  1  0.04876000  0.16822000  0.48405000  1.0
  N  N91  1  0.83178000  0.95122000  0.01596000  1.0
  N  N92  1  0.88409000  0.66757000  0.46380000  1.0
  N  N93  1  0.33241000  0.11593000  0.03620000  1.0
  N  N94  1  0.11592000  0.33241000  0.53620000  1.0
  N  N95  1  0.66760000  0.88407000  0.96381000  1.0
  O  O96  1  0.05965000  0.91837000  0.16058000  1.0
  O  O97  1  0.08164000  0.94036000  0.33942000  1.0
  O  O98  1  0.94036000  0.08163000  0.83941000  1.0
  O  O99  1  0.91834000  0.05965000  0.66059000  1.0
  O  O100  1  0.14597000  0.71339000  0.26442000  1.0
  O  O101  1  0.28662000  0.85404000  0.23558000  1.0
  O  O102  1  0.85404000  0.28660000  0.73558000  1.0
  O  O103  1  0.71339000  0.14597000  0.76444000  1.0
