# generated using pymatgen
data_AgH4C7NO
_symmetry_space_group_name_H-M   'P 1'
_cell_length_a   7.25490000
_cell_length_b   10.92990000
_cell_length_c   13.25780000
_cell_angle_alpha   113.74600000
_cell_angle_beta   105.02400000
_cell_angle_gamma   91.97450000
_symmetry_Int_Tables_number   1
_chemical_formula_structural   AgH4C7NO
_chemical_formula_sum   'Ag6 H24 C42 N6 O6'
_cell_volume   917.85344195
_cell_formula_units_Z   6
loop_
 _symmetry_equiv_pos_site_id
 _symmetry_equiv_pos_as_xyz
  1  'x, y, z'
loop_
 _atom_site_type_symbol
 _atom_site_label
 _atom_site_symmetry_multiplicity
 _atom_site_fract_x
 _atom_site_fract_y
 _atom_site_fract_z
 _atom_site_occupancy
  Ag  Ag0  1  0.72560000  0.93835000  0.32657000  1.0
  Ag  Ag1  1  0.89885000  0.61159000  0.67350000  1.0
  Ag  Ag2  1  0.94310000  0.63566000  0.16099000  1.0
  Ag  Ag3  1  0.28201000  0.47462000  0.83892000  1.0
  Ag  Ag4  1  0.63138000  0.80170000  0.99575000  1.0
  Ag  Ag5  1  0.13573000  0.80569000  0.00426000  1.0
  H  H6  1  0.13339000  0.59799000  0.35303000  1.0
  H  H7  1  0.28040000  0.24497000  0.64693000  1.0
  H  H8  1  0.29237000  0.58312000  0.53629000  1.0
  H  H9  1  0.25606000  0.04672000  0.46361000  1.0
  H  H10  1  0.11897000  0.96156000  0.72649000  1.0
  H  H11  1  0.89283000  0.23518000  0.27346000  1.0
  H  H12  1  0.96252000  0.97695000  0.54336000  1.0
  H  H13  1  0.91961000  0.43373000  0.45660000  1.0
  H  H14  1  0.01478000  0.42807000  0.96063000  1.0
  H  H15  1  0.55469000  0.46752000  0.03918000  1.0
  H  H16  1  0.96082000  0.22027000  0.77916000  1.0
  H  H17  1  0.68217000  0.44101000  0.22055000  1.0
  H  H18  1  0.54406000  0.39176000  0.59753000  1.0
  H  H19  1  0.44670000  0.79394000  0.40233000  1.0
  H  H20  1  0.59886000  0.59979000  0.77937000  1.0
  H  H21  1  0.31983000  0.82032000  0.22060000  1.0
  H  H22  1  0.40733000  0.98955000  0.97492000  1.0
  H  H23  1  0.93260000  0.01472000  0.02528000  1.0
  H  H24  1  0.19674000  0.16203000  0.97140000  1.0
  H  H25  1  0.72565000  0.19071000  0.02877000  1.0
  H  H26  1  0.36030000  0.34347000  0.34442000  1.0
  H  H27  1  0.51594000  0.99914000  0.65579000  1.0
  H  H28  1  0.57209000  0.17198000  0.34751000  1.0
  H  H29  1  0.72433000  0.82446000  0.65275000  1.0
  C  C30  1  0.03814000  0.78968000  0.43380000  1.0
  C  C31  1  0.10444000  0.35585000  0.56614000  1.0
  C  C32  1  0.13230000  0.67784000  0.43513000  1.0
  C  C33  1  0.19723000  0.24267000  0.56480000  1.0
  C  C34  1  0.22043000  0.66916000  0.53717000  1.0
  C  C35  1  0.18331000  0.13196000  0.46277000  1.0
  C  C36  1  0.21692000  0.77143000  0.64390000  1.0
  C  C37  1  0.07313000  0.12753000  0.35607000  1.0
  C  C38  1  0.12297000  0.88291000  0.64451000  1.0
  C  C39  1  0.97874000  0.23848000  0.35545000  1.0
  C  C40  1  0.03578000  0.89140000  0.54239000  1.0
  C  C41  1  0.99368000  0.34907000  0.45756000  1.0
  C  C42  1  0.31278000  0.76510000  0.74809000  1.0
  C  C43  1  0.06467000  0.01696000  0.25187000  1.0
  C  C44  1  0.80932000  0.52917000  0.88443000  1.0
  C  C45  1  0.42529000  0.64470000  0.11547000  1.0
  C  C46  1  0.91481000  0.42037000  0.88047000  1.0
  C  C47  1  0.53485000  0.53988000  0.11934000  1.0
  C  C48  1  0.88254000  0.30368000  0.77936000  1.0
  C  C49  1  0.60358000  0.52419000  0.22044000  1.0
  C  C50  1  0.74673000  0.29102000  0.67623000  1.0
  C  C51  1  0.57071000  0.61452000  0.32356000  1.0
  C  C52  1  0.64824000  0.40057000  0.67678000  1.0
  C  C53  1  0.47167000  0.72353000  0.32308000  1.0
  C  C54  1  0.67954000  0.51719000  0.77823000  1.0
  C  C55  1  0.40162000  0.73881000  0.22167000  1.0
  C  C56  1  0.70788000  0.17129000  0.57415000  1.0
  C  C57  1  0.63399000  0.59695000  0.42569000  1.0
  C  C58  1  0.50530000  0.06646000  0.16147000  1.0
  C  C59  1  0.84379000  0.90493000  0.83869000  1.0
  C  C60  1  0.39506000  0.06652000  0.05543000  1.0
  C  C61  1  0.83982000  0.01117000  0.94476000  1.0
  C  C62  1  0.27842000  0.16333000  0.05340000  1.0
  C  C63  1  0.72525000  0.11000000  0.94676000  1.0
  C  C64  1  0.26288000  0.26409000  0.15755000  1.0
  C  C65  1  0.60551000  0.10677000  0.84270000  1.0
  C  C66  1  0.37167000  0.26616000  0.26374000  1.0
  C  C67  1  0.60796000  0.00254000  0.73649000  1.0
  C  C68  1  0.49009000  0.17053000  0.26549000  1.0
  C  C69  1  0.72445000  0.90505000  0.73474000  1.0
  C  C70  1  0.14088000  0.36052000  0.15504000  1.0
  C  C71  1  0.48602000  0.20571000  0.84521000  1.0
  N  N72  1  0.39525000  0.76035000  0.83474000  1.0
  N  N73  1  0.06040000  0.92547000  0.16523000  1.0
  N  N74  1  0.66969000  0.07039000  0.48929000  1.0
  N  N75  1  0.68071000  0.58125000  0.51072000  1.0
  N  N76  1  0.03603000  0.43913000  0.15180000  1.0
  N  N77  1  0.38427000  0.28746000  0.84832000  1.0
  O  O78  1  0.95864000  0.80008000  0.33714000  1.0
  O  O79  1  0.12146000  0.46286000  0.66280000  1.0
  O  O80  1  0.83031000  0.63637000  0.98157000  1.0
  O  O81  1  0.34910000  0.65476000  0.01831000  1.0
  O  O82  1  0.61699000  0.97485000  0.16318000  1.0
  O  O83  1  0.95359000  0.81150000  0.83690000  1.0
