# generated using pymatgen
data_CuH18C26(NO4)2
_symmetry_space_group_name_H-M   'P 1'
_cell_length_a   7.67180000
_cell_length_b   7.67143000
_cell_length_c   19.67500000
_cell_angle_alpha   95.45690000
_cell_angle_beta   95.45660000
_cell_angle_gamma   92.74720000
_symmetry_Int_Tables_number   1
_chemical_formula_structural   CuH18C26(NO4)2
_chemical_formula_sum   'Cu2 H36 C52 N4 O16'
_cell_volume   1145.57688686
_cell_formula_units_Z   2
loop_
 _symmetry_equiv_pos_site_id
 _symmetry_equiv_pos_as_xyz
  1  'x, y, z'
loop_
 _atom_site_type_symbol
 _atom_site_label
 _atom_site_symmetry_multiplicity
 _atom_site_fract_x
 _atom_site_fract_y
 _atom_site_fract_z
 _atom_site_occupancy
  Cu  Cu0  1  0.64540000  0.35460000  0.75000000  1.0
  Cu  Cu1  1  0.35460000  0.64540000  0.25000000  1.0
  H  H2  1  0.64852000  0.29448000  0.49430000  1.0
  H  H3  1  0.70555000  0.35148000  0.00570000  1.0
  H  H4  1  0.35148000  0.70553000  0.50570000  1.0
  H  H5  1  0.29446000  0.64853000  0.99430000  1.0
  H  H6  1  0.41740000  0.91298000  0.61166000  1.0
  H  H7  1  0.08702000  0.58261000  0.88834000  1.0
  H  H8  1  0.58260000  0.08703000  0.38834000  1.0
  H  H9  1  0.91298000  0.41739000  0.11166000  1.0
  H  H10  1  0.35135000  0.44454000  0.65138000  1.0
  H  H11  1  0.55544000  0.64865000  0.84862000  1.0
  H  H12  1  0.64866000  0.55546000  0.34862000  1.0
  H  H13  1  0.44455000  0.35134000  0.15138000  1.0
  H  H14  1  0.12115000  0.65795000  0.64853000  1.0
  H  H15  1  0.34205000  0.87886000  0.85147000  1.0
  H  H16  1  0.87885000  0.34205000  0.35147000  1.0
  H  H17  1  0.65795000  0.12114000  0.14853000  1.0
  H  H18  1  0.85797000  0.73480000  0.75245000  1.0
  H  H19  1  0.26518000  0.14203000  0.74756000  1.0
  H  H20  1  0.14203000  0.26520000  0.24756000  1.0
  H  H21  1  0.73482000  0.85797000  0.25244000  1.0
  H  H22  1  0.64077000  0.96836000  0.75078000  1.0
  H  H23  1  0.03164000  0.35926000  0.74922000  1.0
  H  H24  1  0.35924000  0.03164000  0.24922000  1.0
  H  H25  1  0.96836000  0.64074000  0.25078000  1.0
  H  H26  1  0.23212000  0.48272000  0.41190000  1.0
  H  H27  1  0.51729000  0.76788000  0.08810000  1.0
  H  H28  1  0.76788000  0.51728000  0.58810000  1.0
  H  H29  1  0.48271000  0.23212000  0.91190000  1.0
  H  H30  1  0.08446000  0.06077000  0.38548000  1.0
  H  H31  1  0.93923000  0.91553000  0.11452000  1.0
  H  H32  1  0.91553000  0.93923000  0.61452000  1.0
  H  H33  1  0.06076000  0.08447000  0.88548000  1.0
  H  H34  1  0.05794000  0.23075000  0.59831000  1.0
  H  H35  1  0.76926000  0.94206000  0.90169000  1.0
  H  H36  1  0.94205000  0.76924000  0.40169000  1.0
  H  H37  1  0.23074000  0.05794000  0.09830000  1.0
  C  C38  1  0.58066000  0.23264000  0.62290000  1.0
  C  C39  1  0.76736000  0.41935000  0.87710000  1.0
  C  C40  1  0.41934000  0.76736000  0.37710000  1.0
  C  C41  1  0.23264000  0.58066000  0.12289000  1.0
  C  C42  1  0.53609000  0.11456000  0.55904000  1.0
  C  C43  1  0.88544000  0.46391000  0.94096000  1.0
  C  C44  1  0.46391000  0.88544000  0.44096000  1.0
  C  C45  1  0.11456000  0.53609000  0.05904000  1.0
  C  C46  1  0.58363000  0.16587000  0.49654000  1.0
  C  C47  1  0.83414000  0.41637000  0.00346000  1.0
  C  C48  1  0.41636000  0.83413000  0.50346000  1.0
  C  C49  1  0.16586000  0.58363000  0.99654000  1.0
  C  C50  1  0.45264000  0.94938000  0.56239000  1.0
  C  C51  1  0.05062000  0.54737000  0.93761000  1.0
  C  C52  1  0.54736000  0.05063000  0.43761000  1.0
  C  C53  1  0.94938000  0.45263000  0.06239000  1.0
  C  C54  1  0.34454000  0.54037000  0.69530000  1.0
  C  C55  1  0.45962000  0.65546000  0.80470000  1.0
  C  C56  1  0.65547000  0.45963000  0.30470000  1.0
  C  C57  1  0.54037000  0.34453000  0.19530000  1.0
  C  C58  1  0.21563000  0.66154000  0.69377000  1.0
  C  C59  1  0.33845000  0.78437000  0.80623000  1.0
  C  C60  1  0.78438000  0.33846000  0.30623000  1.0
  C  C61  1  0.66155000  0.21562000  0.19377000  1.0
  C  C62  1  0.21251000  0.78749000  0.75000000  1.0
  C  C63  1  0.78749000  0.21251000  0.25000000  1.0
  C  C64  1  0.07934000  0.92065000  0.75000000  1.0
  C  C65  1  0.92066000  0.07935000  0.25000000  1.0
  C  C66  1  0.90133000  0.87138000  0.75055000  1.0
  C  C67  1  0.12861000  0.09868000  0.74945000  1.0
  C  C68  1  0.09867000  0.12862000  0.24945000  1.0
  C  C69  1  0.87139000  0.90133000  0.25055000  1.0
  C  C70  1  0.78047000  0.00059000  0.75057000  1.0
  C  C71  1  0.99942000  0.21954000  0.74943000  1.0
  C  C72  1  0.21953000  0.99942000  0.24943000  1.0
  C  C73  1  0.00059000  0.78046000  0.25057000  1.0
  C  C74  1  0.16268000  0.33831000  0.48300000  1.0
  C  C75  1  0.66170000  0.83731000  0.01700000  1.0
  C  C76  1  0.83731000  0.66169000  0.51700000  1.0
  C  C77  1  0.33829000  0.16268000  0.98299000  1.0
  C  C78  1  0.07860000  0.16334000  0.49098000  1.0
  C  C79  1  0.83667000  0.92140000  0.00902000  1.0
  C  C80  1  0.92140000  0.83666000  0.50902000  1.0
  C  C81  1  0.16333000  0.07860000  0.99098000  1.0
  C  C82  1  0.04578000  0.03365000  0.43534000  1.0
  C  C83  1  0.96635000  0.95421000  0.06466000  1.0
  C  C84  1  0.95422000  0.96635000  0.56466000  1.0
  C  C85  1  0.03365000  0.04578000  0.93534000  1.0
  C  C86  1  0.03274000  0.12842000  0.55572000  1.0
  C  C87  1  0.87158000  0.96727000  0.94428000  1.0
  C  C88  1  0.96726000  0.87158000  0.44428000  1.0
  C  C89  1  0.12841000  0.03273000  0.05572000  1.0
  N  N90  1  0.46405000  0.53595000  0.75000000  1.0
  N  N91  1  0.53595000  0.46405000  0.25000000  1.0
  N  N92  1  0.82860000  0.17141000  0.75000000  1.0
  N  N93  1  0.17140000  0.82859000  0.25000000  1.0
  O  O94  1  0.50736000  0.19464000  0.67674000  1.0
  O  O95  1  0.80536000  0.49265000  0.82326000  1.0
  O  O96  1  0.49264000  0.80536000  0.32326000  1.0
  O  O97  1  0.19464000  0.50735000  0.17673000  1.0
  O  O98  1  0.69040000  0.36239000  0.62606000  1.0
  O  O99  1  0.63762000  0.30961000  0.87395000  1.0
  O  O100  1  0.30960000  0.63762000  0.37395000  1.0
  O  O101  1  0.36238000  0.69040000  0.12605000  1.0
  O  O102  1  0.21535000  0.44681000  0.53185000  1.0
  O  O103  1  0.55320000  0.78465000  0.96814000  1.0
  O  O104  1  0.78465000  0.55319000  0.46815000  1.0
  O  O105  1  0.44680000  0.21535000  0.03186000  1.0
  O  O106  1  0.17372000  0.36410000  0.41725000  1.0
  O  O107  1  0.63590000  0.82627000  0.08275000  1.0
  O  O108  1  0.82628000  0.63590000  0.58275000  1.0
  O  O109  1  0.36410000  0.17373000  0.91725000  1.0
