# generated using pymatgen
data_ZnH15C14N2O5
_symmetry_space_group_name_H-M   'P 1'
_cell_length_a   8.30314000
_cell_length_b   10.74890000
_cell_length_c   16.31850000
_cell_angle_alpha   90.00000000
_cell_angle_beta   90.00000000
_cell_angle_gamma   89.91320000
_symmetry_Int_Tables_number   1
_chemical_formula_structural   ZnH15C14N2O5
_chemical_formula_sum   'Zn4 H60 C56 N8 O20'
_cell_volume   1456.41827791
_cell_formula_units_Z   4
loop_
 _symmetry_equiv_pos_site_id
 _symmetry_equiv_pos_as_xyz
  1  'x, y, z'
loop_
 _atom_site_type_symbol
 _atom_site_label
 _atom_site_symmetry_multiplicity
 _atom_site_fract_x
 _atom_site_fract_y
 _atom_site_fract_z
 _atom_site_occupancy
  Zn  Zn0  1  0.46524000  0.39793000  0.91825000  1.0
  Zn  Zn1  1  0.03476000  0.60207000  0.41825000  1.0
  Zn  Zn2  1  0.53476000  0.60207000  0.08175000  1.0
  Zn  Zn3  1  0.96524000  0.39793000  0.58175000  1.0
  H  H4  1  0.84834000  0.29681000  0.05131000  1.0
  H  H5  1  0.65165000  0.70319000  0.55130000  1.0
  H  H6  1  0.15166000  0.70319000  0.94870000  1.0
  H  H7  1  0.34834000  0.29681000  0.44869000  1.0
  H  H8  1  0.72237000  0.21098000  0.11925000  1.0
  H  H9  1  0.77763000  0.78902000  0.61925000  1.0
  H  H10  1  0.27763000  0.78902000  0.88075000  1.0
  H  H11  1  0.22236000  0.21098000  0.38075000  1.0
  H  H12  1  0.64766000  0.34631000  0.07098000  1.0
  H  H13  1  0.85235000  0.65369000  0.57098000  1.0
  H  H14  1  0.35234000  0.65369000  0.92902000  1.0
  H  H15  1  0.14765000  0.34631000  0.42902000  1.0
  H  H16  1  0.68293000  0.82699000  0.90212000  1.0
  H  H17  1  0.81707000  0.17301000  0.40213000  1.0
  H  H18  1  0.31707000  0.17301000  0.09787000  1.0
  H  H19  1  0.18293000  0.82699000  0.59787000  1.0
  H  H20  1  0.54014000  0.80977000  0.76806000  1.0
  H  H21  1  0.95986000  0.19023000  0.26806000  1.0
  H  H22  1  0.45986000  0.19023000  0.23194000  1.0
  H  H23  1  0.04014000  0.80977000  0.73194000  1.0
  H  H24  1  0.41409000  0.99492000  0.70355000  1.0
  H  H25  1  0.08591000  0.00508000  0.20355000  1.0
  H  H26  1  0.58591000  0.00508000  0.29645000  1.0
  H  H27  1  0.91409000  0.99492000  0.79645000  1.0
  H  H28  1  0.42631000  0.20248000  0.77000000  1.0
  H  H29  1  0.07369000  0.79752000  0.27000000  1.0
  H  H30  1  0.57369000  0.79752000  0.23000000  1.0
  H  H31  1  0.92631000  0.20248000  0.73000000  1.0
  H  H32  1  0.70633000  0.90130000  0.05198000  1.0
  H  H33  1  0.79367000  0.09869000  0.55198000  1.0
  H  H34  1  0.29367000  0.09869000  0.94802000  1.0
  H  H35  1  0.20633000  0.90131000  0.44802000  1.0
  H  H36  1  0.79204000  0.03207000  0.09987000  1.0
  H  H37  1  0.70796000  0.96793000  0.59987000  1.0
  H  H38  1  0.20796000  0.96793000  0.90013000  1.0
  H  H39  1  0.29204000  0.03207000  0.40013000  1.0
  H  H40  1  0.00054000  0.88449000  0.05618000  1.0
  H  H41  1  0.49947000  0.11551000  0.55617000  1.0
  H  H42  1  0.99947000  0.11551000  0.94383000  1.0
  H  H43  1  0.50054000  0.88449000  0.44382000  1.0
  H  H44  1  0.93204000  0.88617000  0.95441000  1.0
  H  H45  1  0.56797000  0.11383000  0.45441000  1.0
  H  H46  1  0.06797000  0.11382000  0.04559000  1.0
  H  H47  1  0.43204000  0.88617000  0.54559000  1.0
  H  H48  1  0.20920000  0.59534000  0.13755000  1.0
  H  H49  1  0.29081000  0.40466000  0.63756000  1.0
  H  H50  1  0.79081000  0.40466000  0.86244000  1.0
  H  H51  1  0.70919000  0.59534000  0.36245000  1.0
  H  H52  1  0.01361000  0.35785000  0.17363000  1.0
  H  H53  1  0.48639000  0.64215000  0.67363000  1.0
  H  H54  1  0.98638000  0.64216000  0.82637000  1.0
  H  H55  1  0.51362000  0.35785000  0.32637000  1.0
  H  H56  1  0.19036000  0.31183000  0.93728000  1.0
  H  H57  1  0.30964000  0.68817000  0.43728000  1.0
  H  H58  1  0.80964000  0.68817000  0.06272000  1.0
  H  H59  1  0.69036000  0.31183000  0.56272000  1.0
  H  H60  1  0.18201000  0.34157000  0.83858000  1.0
  H  H61  1  0.31799000  0.65843000  0.33858000  1.0
  H  H62  1  0.81799000  0.65843000  0.16142000  1.0
  H  H63  1  0.68201000  0.34157000  0.66142000  1.0
  C  C64  1  0.72413000  0.26474000  0.06219000  1.0
  C  C65  1  0.77587000  0.73526000  0.56219000  1.0
  C  C66  1  0.27587000  0.73526000  0.93781000  1.0
  C  C67  1  0.22413000  0.26474000  0.43781000  1.0
  C  C68  1  0.66688000  0.18934000  0.99208000  1.0
  C  C69  1  0.83312000  0.81065000  0.49208000  1.0
  C  C70  1  0.33313000  0.81065000  0.00791000  1.0
  C  C71  1  0.16687000  0.18934000  0.50791000  1.0
  C  C72  1  0.56241000  0.13240000  0.87370000  1.0
  C  C73  1  0.93760000  0.86760000  0.37370000  1.0
  C  C74  1  0.43759000  0.86760000  0.12630000  1.0
  C  C75  1  0.06240000  0.13240000  0.62630000  1.0
  C  C76  1  0.63344000  0.02589000  0.90955000  1.0
  C  C77  1  0.86656000  0.97411000  0.40955000  1.0
  C  C78  1  0.36656000  0.97411000  0.09045000  1.0
  C  C79  1  0.13344000  0.02589000  0.59045000  1.0
  C  C80  1  0.62827000  0.90815000  0.87327000  1.0
  C  C81  1  0.87174000  0.09185000  0.37327000  1.0
  C  C82  1  0.37173000  0.09185000  0.12673000  1.0
  C  C83  1  0.12827000  0.90815000  0.62673000  1.0
  C  C84  1  0.54870000  0.90001000  0.79824000  1.0
  C  C85  1  0.95130000  0.09999000  0.29825000  1.0
  C  C86  1  0.45130000  0.09999000  0.20175000  1.0
  C  C87  1  0.04870000  0.90001000  0.70176000  1.0
  C  C88  1  0.47769000  0.00534000  0.76158000  1.0
  C  C89  1  0.02231000  0.99466000  0.26158000  1.0
  C  C90  1  0.52231000  0.99466000  0.23842000  1.0
  C  C91  1  0.97769000  0.00534000  0.73842000  1.0
  C  C92  1  0.48283000  0.12227000  0.79835000  1.0
  C  C93  1  0.01717000  0.87773000  0.29835000  1.0
  C  C94  1  0.51717000  0.87773000  0.20165000  1.0
  C  C95  1  0.98283000  0.12227000  0.70165000  1.0
  C  C96  1  0.78141000  0.98335000  0.04112000  1.0
  C  C97  1  0.71859000  0.01665000  0.54112000  1.0
  C  C98  1  0.21859000  0.01665000  0.95888000  1.0
  C  C99  1  0.28141000  0.98335000  0.45888000  1.0
  C  C100  1  0.94608000  0.94470000  0.00915000  1.0
  C  C101  1  0.55392000  0.05530000  0.50915000  1.0
  C  C102  1  0.05392000  0.05530000  0.99085000  1.0
  C  C103  1  0.44608000  0.94470000  0.49085000  1.0
  C  C104  1  0.22369000  0.42935000  0.05804000  1.0
  C  C105  1  0.27631000  0.57065000  0.55804000  1.0
  C  C106  1  0.77631000  0.57065000  0.94196000  1.0
  C  C107  1  0.72369000  0.42935000  0.44196000  1.0
  C  C108  1  0.16081000  0.50218000  0.12810000  1.0
  C  C109  1  0.33919000  0.49782000  0.62810000  1.0
  C  C110  1  0.83919000  0.49782000  0.87190000  1.0
  C  C111  1  0.66081000  0.50218000  0.37190000  1.0
  C  C112  1  0.05541000  0.45345000  0.18136000  1.0
  C  C113  1  0.44459000  0.54655000  0.68136000  1.0
  C  C114  1  0.94459000  0.54655000  0.81864000  1.0
  C  C115  1  0.55541000  0.45345000  0.31865000  1.0
  C  C116  1  0.99955000  0.52429000  0.25469000  1.0
  C  C117  1  0.50045000  0.47571000  0.75469000  1.0
  C  C118  1  0.00045000  0.47572000  0.74531000  1.0
  C  C119  1  0.49955000  0.52429000  0.24532000  1.0
  N  N120  1  0.69714000  0.06505000  0.98392000  1.0
  N  N121  1  0.80286000  0.93495000  0.48392000  1.0
  N  N122  1  0.30286000  0.93495000  0.01608000  1.0
  N  N123  1  0.19714000  0.06505000  0.51608000  1.0
  N  N124  1  0.58428000  0.23290000  0.92726000  1.0
  N  N125  1  0.91572000  0.76710000  0.42726000  1.0
  N  N126  1  0.41572000  0.76710000  0.07274000  1.0
  N  N127  1  0.08428000  0.23290000  0.57274000  1.0
  O  O128  1  0.35496000  0.47125000  0.02354000  1.0
  O  O129  1  0.14504000  0.52875000  0.52354000  1.0
  O  O130  1  0.64504000  0.52875000  0.97646000  1.0
  O  O131  1  0.85496000  0.47125000  0.47646000  1.0
  O  O132  1  0.15095000  0.33299000  0.03467000  1.0
  O  O133  1  0.34905000  0.66701000  0.53467000  1.0
  O  O134  1  0.84905000  0.66702000  0.96533000  1.0
  O  O135  1  0.65095000  0.33299000  0.46533000  1.0
  O  O136  1  0.91373000  0.61974000  0.24570000  1.0
  O  O137  1  0.58627000  0.38026000  0.74570000  1.0
  O  O138  1  0.08627000  0.38027000  0.75430000  1.0
  O  O139  1  0.41372000  0.61973000  0.25430000  1.0
  O  O140  1  0.04854000  0.48202000  0.32418000  1.0
  O  O141  1  0.45146000  0.51798000  0.82418000  1.0
  O  O142  1  0.95146000  0.51799000  0.67582000  1.0
  O  O143  1  0.54854000  0.48202000  0.17582000  1.0
  O  O144  1  0.25065000  0.30769000  0.88422000  1.0
  O  O145  1  0.24934000  0.69231000  0.38422000  1.0
  O  O146  1  0.74935000  0.69231000  0.11578000  1.0
  O  O147  1  0.75066000  0.30769000  0.61578000  1.0
