# generated using pymatgen
data_FePH9C2N2O4F
_symmetry_space_group_name_H-M   'P 1'
_cell_length_a   7.40203000
_cell_length_b   9.09546000
_cell_length_c   9.81811000
_cell_angle_alpha   79.33600000
_cell_angle_beta   89.55540000
_cell_angle_gamma   89.27840000
_symmetry_Int_Tables_number   1
_chemical_formula_structural   FePH9C2N2O4F
_chemical_formula_sum   'Fe4 P4 H36 C8 N8 O16 F4'
_cell_volume   649.52551696
_cell_formula_units_Z   4
loop_
 _symmetry_equiv_pos_site_id
 _symmetry_equiv_pos_as_xyz
  1  'x, y, z'
loop_
 _atom_site_type_symbol
 _atom_site_label
 _atom_site_symmetry_multiplicity
 _atom_site_fract_x
 _atom_site_fract_y
 _atom_site_fract_z
 _atom_site_occupancy
  Fe  Fe0  1  0.88090000  0.99618000  0.26139000  1.0
  Fe  Fe1  1  0.38264000  0.01323000  0.23492000  1.0
  Fe  Fe2  1  0.11911000  0.00382000  0.73861000  1.0
  Fe  Fe3  1  0.61736000  0.98677000  0.76508000  1.0
  P  P4  1  0.13822000  0.20679000  0.41807000  1.0
  P  P5  1  0.63148000  0.80125000  0.08213000  1.0
  P  P6  1  0.86178000  0.79321000  0.58192000  1.0
  P  P7  1  0.36852000  0.19875000  0.91788000  1.0
  H  H8  1  0.20352000  0.44315000  0.53606000  1.0
  H  H9  1  0.68595000  0.58547000  0.93784000  1.0
  H  H10  1  0.79648000  0.55684000  0.46394000  1.0
  H  H11  1  0.31405000  0.41453000  0.06217000  1.0
  H  H12  1  0.83308000  0.31862000  0.83517000  1.0
  H  H13  1  0.33931000  0.70438000  0.64990000  1.0
  H  H14  1  0.16692000  0.68138000  0.16483000  1.0
  H  H15  1  0.66069000  0.29562000  0.35010000  1.0
  H  H16  1  0.97096000  0.44806000  0.89832000  1.0
  H  H17  1  0.48696000  0.57955000  0.58428000  1.0
  H  H18  1  0.02904000  0.55195000  0.10168000  1.0
  H  H19  1  0.51304000  0.42045000  0.41573000  1.0
  H  H20  1  0.84611000  0.36876000  0.13467000  1.0
  H  H21  1  0.35997000  0.65415000  0.34891000  1.0
  H  H22  1  0.15389000  0.63124000  0.86533000  1.0
  H  H23  1  0.64003000  0.34585000  0.65109000  1.0
  H  H24  1  0.66751000  0.27356000  0.07122000  1.0
  H  H25  1  0.17502000  0.74711000  0.41393000  1.0
  H  H26  1  0.33250000  0.72644000  0.92879000  1.0
  H  H27  1  0.82498000  0.25289000  0.58607000  1.0
  H  H28  1  0.05454000  0.18853000  0.06883000  1.0
  H  H29  1  0.55911000  0.83729000  0.41057000  1.0
  H  H30  1  0.94546000  0.81147000  0.93117000  1.0
  H  H31  1  0.44088000  0.16271000  0.58943000  1.0
  H  H32  1  0.89252000  0.11238000  0.99350000  1.0
  H  H33  1  0.39156000  0.91361000  0.48563000  1.0
  H  H34  1  0.10748000  0.88762000  0.00651000  1.0
  H  H35  1  0.60844000  0.08639000  0.51437000  1.0
  H  H36  1  0.73617000  0.57196000  0.77158000  1.0
  H  H37  1  0.25951000  0.43896000  0.70692000  1.0
  H  H38  1  0.26383000  0.42804000  0.22843000  1.0
  H  H39  1  0.74049000  0.56104000  0.29308000  1.0
  H  H40  1  0.56969000  0.46009000  0.86460000  1.0
  H  H41  1  0.08673000  0.55228000  0.62647000  1.0
  H  H42  1  0.43031000  0.53991000  0.13540000  1.0
  H  H43  1  0.91327000  0.44772000  0.37353000  1.0
  C  C44  1  0.83824000  0.39462000  0.90967000  1.0
  C  C45  1  0.35086000  0.62957000  0.57454000  1.0
  C  C46  1  0.16176000  0.60539000  0.09033000  1.0
  C  C47  1  0.64913000  0.37043000  0.42546000  1.0
  C  C48  1  0.80980000  0.30459000  0.05477000  1.0
  C  C49  1  0.31866000  0.71821000  0.42837000  1.0
  C  C50  1  0.19020000  0.69541000  0.94524000  1.0
  C  C51  1  0.68134000  0.28179000  0.57163000  1.0
  N  N52  1  0.91864000  0.16734000  0.07336000  1.0
  N  N53  1  0.42151000  0.85829000  0.40600000  1.0
  N  N54  1  0.08137000  0.83268000  0.92661000  1.0
  N  N55  1  0.57849000  0.14170000  0.59400000  1.0
  N  N56  1  0.69715000  0.51160000  0.86953000  1.0
  N  N57  1  0.21731000  0.50751000  0.61335000  1.0
  N  N58  1  0.30285000  0.48841000  0.13047000  1.0
  N  N59  1  0.78269000  0.49249000  0.38666000  1.0
  O  O60  1  0.96079000  0.13929000  0.37655000  1.0
  O  O61  1  0.45334000  0.87779000  0.12097000  1.0
  O  O62  1  0.03922000  0.86072000  0.62345000  1.0
  O  O63  1  0.54666000  0.12221000  0.87904000  1.0
  O  O64  1  0.13308000  0.37990000  0.37239000  1.0
  O  O65  1  0.62406000  0.63049000  0.13894000  1.0
  O  O66  1  0.86692000  0.62010000  0.62761000  1.0
  O  O67  1  0.37595000  0.36951000  0.86106000  1.0
  O  O68  1  0.30885000  0.14405000  0.35434000  1.0
  O  O69  1  0.80091000  0.86550000  0.13853000  1.0
  O  O70  1  0.69115000  0.85596000  0.64565000  1.0
  O  O71  1  0.19908000  0.13450000  0.86147000  1.0
  O  O72  1  0.16323000  0.17560000  0.57757000  1.0
  O  O73  1  0.64758000  0.81965000  0.92149000  1.0
  O  O74  1  0.83676000  0.82439000  0.42244000  1.0
  O  O75  1  0.35242000  0.18036000  0.07852000  1.0
  F  F76  1  0.14393000  0.94320000  0.21484000  1.0
  F  F77  1  0.62104000  0.07671000  0.27084000  1.0
  F  F78  1  0.85609000  0.05679000  0.78516000  1.0
  F  F79  1  0.37894000  0.92328000  0.72915000  1.0
