# generated using pymatgen
data_ZnH6C11(NO2)2
_symmetry_space_group_name_H-M   'P 1'
_cell_length_a   5.21899000
_cell_length_b   9.04721000
_cell_length_c   23.65920000
_cell_angle_alpha   84.41990000
_cell_angle_beta   83.65540000
_cell_angle_gamma   73.22990000
_symmetry_Int_Tables_number   1
_chemical_formula_structural   ZnH6C11(NO2)2
_chemical_formula_sum   'Zn4 H24 C44 N8 O16'
_cell_volume   1060.55150230
_cell_formula_units_Z   4
loop_
 _symmetry_equiv_pos_site_id
 _symmetry_equiv_pos_as_xyz
  1  'x, y, z'
loop_
 _atom_site_type_symbol
 _atom_site_label
 _atom_site_symmetry_multiplicity
 _atom_site_fract_x
 _atom_site_fract_y
 _atom_site_fract_z
 _atom_site_occupancy
  Zn  Zn0  1  0.88717000  0.66767000  0.67914000  1.0
  Zn  Zn1  1  0.23366000  0.83263000  0.82082000  1.0
  Zn  Zn2  1  0.11283000  0.33233000  0.32086000  1.0
  Zn  Zn3  1  0.76633000  0.16737000  0.17918000  1.0
  H  H4  1  0.67017000  0.16180000  0.69183000  1.0
  H  H5  1  0.52585000  0.33753000  0.80809000  1.0
  H  H6  1  0.32983000  0.83820000  0.30817000  1.0
  H  H7  1  0.47416000  0.66247000  0.19191000  1.0
  H  H8  1  0.45375000  0.42064000  0.68391000  1.0
  H  H9  1  0.55892000  0.07933000  0.81598000  1.0
  H  H10  1  0.54626000  0.57936000  0.31609000  1.0
  H  H11  1  0.44108000  0.92066000  0.18402000  1.0
  H  H12  1  0.96046000  0.57524000  0.54858000  1.0
  H  H13  1  0.08577000  0.92445000  0.95144000  1.0
  H  H14  1  0.03954000  0.42476000  0.45142000  1.0
  H  H15  1  0.91422000  0.07555000  0.04856000  1.0
  H  H16  1  0.40464000  0.33114000  0.51290000  1.0
  H  H17  1  0.25134000  0.16789000  0.98717000  1.0
  H  H18  1  0.59535000  0.66886000  0.48710000  1.0
  H  H19  1  0.74866000  0.83211000  0.01283000  1.0
  H  H20  1  0.85646000  0.23835000  0.51090000  1.0
  H  H21  1  0.60496000  0.26225000  0.98913000  1.0
  H  H22  1  0.14354000  0.76165000  0.48910000  1.0
  H  H23  1  0.39504000  0.73775000  0.01087000  1.0
  H  H24  1  0.27169000  0.02121000  0.51605000  1.0
  H  H25  1  0.80699000  0.47995000  0.98394000  1.0
  H  H26  1  0.72831000  0.97879000  0.48395000  1.0
  H  H27  1  0.19301000  0.52005000  0.01606000  1.0
  C  C28  1  0.47122000  0.84339000  0.60740000  1.0
  C  C29  1  0.92133000  0.65696000  0.89259000  1.0
  C  C30  1  0.52878000  0.15662000  0.39260000  1.0
  C  C31  1  0.07866000  0.34304000  0.10741000  1.0
  C  C32  1  0.20984000  0.96975000  0.60622000  1.0
  C  C33  1  0.78533000  0.53065000  0.89374000  1.0
  C  C34  1  0.79016000  0.03025000  0.39378000  1.0
  C  C35  1  0.21467000  0.46935000  0.10627000  1.0
  C  C36  1  0.03963000  0.01170000  0.65620000  1.0
  C  C37  1  0.70749000  0.48851000  0.84376000  1.0
  C  C38  1  0.96038000  0.98830000  0.34380000  1.0
  C  C39  1  0.29251000  0.51149000  0.15624000  1.0
  C  C40  1  0.08843000  0.92050000  0.71245000  1.0
  C  C41  1  0.72132000  0.57966000  0.78748000  1.0
  C  C42  1  0.91157000  0.07950000  0.28755000  1.0
  C  C43  1  0.27867000  0.42034000  0.21252000  1.0
  C  C44  1  0.80588000  0.13419000  0.65350000  1.0
  C  C45  1  0.59454000  0.36561000  0.84646000  1.0
  C  C46  1  0.19412000  0.86581000  0.34650000  1.0
  C  C47  1  0.40547000  0.63438000  0.15354000  1.0
  C  C48  1  0.74066000  0.21545000  0.60132000  1.0
  C  C49  1  0.55824000  0.28442000  0.89866000  1.0
  C  C50  1  0.25934000  0.78455000  0.39868000  1.0
  C  C51  1  0.44176000  0.71558000  0.10134000  1.0
  C  C52  1  0.37627000  0.42918000  0.64271000  1.0
  C  C53  1  0.44907000  0.07070000  0.85723000  1.0
  C  C54  1  0.62373000  0.57082000  0.35729000  1.0
  C  C55  1  0.55094000  0.92930000  0.14277000  1.0
  C  C56  1  0.13231000  0.50605000  0.57028000  1.0
  C  C57  1  0.21004000  0.99361000  0.92973000  1.0
  C  C58  1  0.86769000  0.49395000  0.42972000  1.0
  C  C59  1  0.78996000  0.00639000  0.07027000  1.0
  C  C60  1  0.34932000  0.38831000  0.55259000  1.0
  C  C61  1  0.29209000  0.11106000  0.94744000  1.0
  C  C62  1  0.65068000  0.61169000  0.44741000  1.0
  C  C63  1  0.70792000  0.88894000  0.05256000  1.0
  C  C64  1  0.90641000  0.17453000  0.55151000  1.0
  C  C65  1  0.63215000  0.32585000  0.94849000  1.0
  C  C66  1  0.09359000  0.82547000  0.44848000  1.0
  C  C67  1  0.36786000  0.67415000  0.05151000  1.0
  C  C68  1  0.13879000  0.05198000  0.55449000  1.0
  C  C69  1  0.74426000  0.44868000  0.94549000  1.0
  C  C70  1  0.86122000  0.94802000  0.44550000  1.0
  C  C71  1  0.25574000  0.55132000  0.05451000  1.0
  N  N72  1  0.50183000  0.34005000  0.59904000  1.0
  N  N73  1  0.44221000  0.15959000  0.90095000  1.0
  N  N74  1  0.49817000  0.65995000  0.40096000  1.0
  N  N75  1  0.55779000  0.84041000  0.09905000  1.0
  N  N76  1  0.15192000  0.52990000  0.62632000  1.0
  N  N77  1  0.30920000  0.96990000  0.87366000  1.0
  N  N78  1  0.84808000  0.47009000  0.37368000  1.0
  N  N79  1  0.69080000  0.03010000  0.12634000  1.0
  O  O80  1  0.57084000  0.82227000  0.65628000  1.0
  O  O81  1  0.04781000  0.67860000  0.84363000  1.0
  O  O82  1  0.42916000  0.17773000  0.34372000  1.0
  O  O83  1  0.95219000  0.32141000  0.15637000  1.0
  O  O84  1  0.57304000  0.77286000  0.56387000  1.0
  O  O85  1  0.91047000  0.72692000  0.93618000  1.0
  O  O86  1  0.42696000  0.22714000  0.43613000  1.0
  O  O87  1  0.08951000  0.27309000  0.06382000  1.0
  O  O88  1  0.11487000  0.99077000  0.75481000  1.0
  O  O89  1  0.86103000  0.50947000  0.74516000  1.0
  O  O90  1  0.88513000  0.00923000  0.24519000  1.0
  O  O91  1  0.13897000  0.49054000  0.25484000  1.0
  O  O92  1  0.08989000  0.77933000  0.71738000  1.0
  O  O93  1  0.58586000  0.72069000  0.78248000  1.0
  O  O94  1  0.91011000  0.22067000  0.28262000  1.0
  O  O95  1  0.41414000  0.27931000  0.21752000  1.0
