# generated using pymatgen
data_ZnH7C5N5O2
_symmetry_space_group_name_H-M   'P 1'
_cell_length_a   6.77473000
_cell_length_b   15.85104623
_cell_length_c   15.85430000
_cell_angle_alpha   87.37868133
_cell_angle_beta   77.66030000
_cell_angle_gamma   77.66640285
_symmetry_Int_Tables_number   1
_chemical_formula_structural   ZnH7C5N5O2
_chemical_formula_sum   'Zn8 H56 C40 N40 O16'
_cell_volume   1624.82021563
_cell_formula_units_Z   8
loop_
 _symmetry_equiv_pos_site_id
 _symmetry_equiv_pos_as_xyz
  1  'x, y, z'
loop_
 _atom_site_type_symbol
 _atom_site_label
 _atom_site_symmetry_multiplicity
 _atom_site_fract_x
 _atom_site_fract_y
 _atom_site_fract_z
 _atom_site_occupancy
  Zn  Zn0  1  0.82002000  0.25565000  0.98217000  1.0
  Zn  Zn1  1  0.05790000  0.24434000  0.51785000  1.0
  Zn  Zn2  1  0.07526000  0.98217000  0.24442000  1.0
  Zn  Zn3  1  0.30239000  0.51779000  0.25563000  1.0
  Zn  Zn4  1  0.17998000  0.74435000  0.01783000  1.0
  Zn  Zn5  1  0.94210000  0.75566000  0.48215000  1.0
  Zn  Zn6  1  0.92474000  0.01783000  0.75558000  1.0
  Zn  Zn7  1  0.69762000  0.48220000  0.74437000  1.0
  H  H8  1  0.43236000  0.22964000  0.01104000  1.0
  H  H9  1  0.67308000  0.27022000  0.48903000  1.0
  H  H10  1  0.66160000  0.01098000  0.27025000  1.0
  H  H11  1  0.94355000  0.48889000  0.22970000  1.0
  H  H12  1  0.56763000  0.77037000  0.98896000  1.0
  H  H13  1  0.32693000  0.72978000  0.51097000  1.0
  H  H14  1  0.33841000  0.98902000  0.72975000  1.0
  H  H15  1  0.05644000  0.51111000  0.77031000  1.0
  H  H16  1  0.55133000  0.29124000  0.83509000  1.0
  H  H17  1  0.67761000  0.20877000  0.66503000  1.0
  H  H18  1  0.84217000  0.83498000  0.20877000  1.0
  H  H19  1  0.88634000  0.66490000  0.29119000  1.0
  H  H20  1  0.44868000  0.70876000  0.16491000  1.0
  H  H21  1  0.32239000  0.79123000  0.33497000  1.0
  H  H22  1  0.15782000  0.16502000  0.79123000  1.0
  H  H23  1  0.11367000  0.33510000  0.70881000  1.0
  H  H24  1  0.36770000  0.22710000  0.87567000  1.0
  H  H25  1  0.47041000  0.27278000  0.62438000  1.0
  H  H26  1  0.59443000  0.87559000  0.27286000  1.0
  H  H27  1  0.74331000  0.62422000  0.22712000  1.0
  H  H28  1  0.63230000  0.77290000  0.12433000  1.0
  H  H29  1  0.52960000  0.72721000  0.37562000  1.0
  H  H30  1  0.40557000  0.12441000  0.72714000  1.0
  H  H31  1  0.25668000  0.37578000  0.77288000  1.0
  H  H32  1  0.23375000  0.44456000  0.09334000  1.0
  H  H33  1  0.77142000  0.05539000  0.40674000  1.0
  H  H34  1  0.67780000  0.09335000  0.05544000  1.0
  H  H35  1  0.82732000  0.40646000  0.44446000  1.0
  H  H36  1  0.76625000  0.55544000  0.90666000  1.0
  H  H37  1  0.22859000  0.94461000  0.59326000  1.0
  H  H38  1  0.32220000  0.90665000  0.94456000  1.0
  H  H39  1  0.17268000  0.59354000  0.55554000  1.0
  H  H40  1  0.28009000  0.33555000  0.12412000  1.0
  H  H41  1  0.73943000  0.16442000  0.37606000  1.0
  H  H42  1  0.61492000  0.12402000  0.16446000  1.0
  H  H43  1  0.90444000  0.37584000  0.33543000  1.0
  H  H44  1  0.71991000  0.66445000  0.87588000  1.0
  H  H45  1  0.26059000  0.83558000  0.62394000  1.0
  H  H46  1  0.38508000  0.87598000  0.83554000  1.0
  H  H47  1  0.09555000  0.62416000  0.66457000  1.0
  H  H48  1  0.22173000  0.35868000  0.97491000  1.0
  H  H49  1  0.55529000  0.14117000  0.52532000  1.0
  H  H50  1  0.58026000  0.97471000  0.14118000  1.0
  H  H51  1  0.69684000  0.52506000  0.35875000  1.0
  H  H52  1  0.77826000  0.64133000  0.02509000  1.0
  H  H53  1  0.44472000  0.85883000  0.47468000  1.0
  H  H54  1  0.41974000  0.02529000  0.85882000  1.0
  H  H55  1  0.30315000  0.47495000  0.64125000  1.0
  H  H56  1  0.44796000  0.40326000  0.94375000  1.0
  H  H57  1  0.79510000  0.09663000  0.55634000  1.0
  H  H58  1  0.85114000  0.94374000  0.09667000  1.0
  H  H59  1  0.89206000  0.55615000  0.40329000  1.0
  H  H60  1  0.55204000  0.59674000  0.05625000  1.0
  H  H61  1  0.20491000  0.90337000  0.44366000  1.0
  H  H62  1  0.14886000  0.05626000  0.90333000  1.0
  H  H63  1  0.10794000  0.44385000  0.59672000  1.0
  C  C64  1  0.68737000  0.16038000  0.85884000  1.0
  C  C65  1  0.70637000  0.33963000  0.64110000  1.0
  C  C66  1  0.84732000  0.85881000  0.33958000  1.0
  C  C67  1  0.04606000  0.64113000  0.16038000  1.0
  C  C68  1  0.31262000  0.83962000  0.14116000  1.0
  C  C69  1  0.29363000  0.66037000  0.35890000  1.0
  C  C70  1  0.15268000  0.14119000  0.66042000  1.0
  C  C71  1  0.95393000  0.35887000  0.83962000  1.0
  C  C72  1  0.54014000  0.39546000  0.10666000  1.0
  C  C73  1  0.04200000  0.10454000  0.39337000  1.0
  C  C74  1  0.93494000  0.10673000  0.10465000  1.0
  C  C75  1  0.14705000  0.39318000  0.39536000  1.0
  C  C76  1  0.45985000  0.60454000  0.89334000  1.0
  C  C77  1  0.95801000  0.89546000  0.60663000  1.0
  C  C78  1  0.06506000  0.89327000  0.89535000  1.0
  C  C79  1  0.85295000  0.60682000  0.60464000  1.0
  C  C80  1  0.51683000  0.24021000  0.88195000  1.0
  C  C81  1  0.63894000  0.25972000  0.61810000  1.0
  C  C82  1  0.75667000  0.88188000  0.25975000  1.0
  C  C83  1  0.89875000  0.61799000  0.24021000  1.0
  C  C84  1  0.48317000  0.75979000  0.11805000  1.0
  C  C85  1  0.36107000  0.74027000  0.38190000  1.0
  C  C86  1  0.24333000  0.11812000  0.74025000  1.0
  C  C87  1  0.10124000  0.38201000  0.75979000  1.0
  C  C88  1  0.34815000  0.38356000  0.08159000  1.0
  C  C89  1  0.81308000  0.11639000  0.41852000  1.0
  C  C90  1  0.73117000  0.08158000  0.11645000  1.0
  C  C91  1  0.92998000  0.41829000  0.38349000  1.0
  C  C92  1  0.65184000  0.61644000  0.91841000  1.0
  C  C93  1  0.18692000  0.88362000  0.58148000  1.0
  C  C94  1  0.26883000  0.91842000  0.88355000  1.0
  C  C95  1  0.07002000  0.58171000  0.61652000  1.0
  C  C96  1  0.37562000  0.35778000  0.98758000  1.0
  C  C97  1  0.72096000  0.14210000  0.51255000  1.0
  C  C98  1  0.73315000  0.98750000  0.14214000  1.0
  C  C99  1  0.86343000  0.51235000  0.35781000  1.0
  C  C100  1  0.62438000  0.64222000  0.01242000  1.0
  C  C101  1  0.27905000  0.85790000  0.48744000  1.0
  C  C102  1  0.26685000  0.01250000  0.85787000  1.0
  C  C103  1  0.13657000  0.48765000  0.64219000  1.0
  N  N104  1  0.54644000  0.44767000  0.16995000  1.0
  N  N105  1  0.16371000  0.05234000  0.33004000  1.0
  N  N106  1  0.99354000  0.17003000  0.05244000  1.0
  N  N107  1  0.21655000  0.32991000  0.44763000  1.0
  N  N108  1  0.45356000  0.55233000  0.83005000  1.0
  N  N109  1  0.83630000  0.94766000  0.66996000  1.0
  N  N110  1  0.00646000  0.82997000  0.94756000  1.0
  N  N111  1  0.78345000  0.67009000  0.55237000  1.0
  N  N112  1  0.50830000  0.27031000  0.96965000  1.0
  N  N113  1  0.74827000  0.22958000  0.53044000  1.0
  N  N114  1  0.77825000  0.96958000  0.22962000  1.0
  N  N115  1  0.97809000  0.53032000  0.27033000  1.0
  N  N116  1  0.49169000  0.72970000  0.03035000  1.0
  N  N117  1  0.25174000  0.77042000  0.46956000  1.0
  N  N118  1  0.22175000  0.03043000  0.77038000  1.0
  N  N119  1  0.02191000  0.46968000  0.72967000  1.0
  N  N120  1  0.73415000  0.35629000  0.07059000  1.0
  N  N121  1  0.16087000  0.14375000  0.42934000  1.0
  N  N122  1  0.08966000  0.07071000  0.14389000  1.0
  N  N123  1  0.30508000  0.42916000  0.35611000  1.0
  N  N124  1  0.26585000  0.64371000  0.92940000  1.0
  N  N125  1  0.83914000  0.85625000  0.57065000  1.0
  N  N126  1  0.91034000  0.92929000  0.85611000  1.0
  N  N127  1  0.69492000  0.57084000  0.64388000  1.0
  N  N128  1  0.86110000  0.38542000  0.11217000  1.0
  N  N129  1  0.35848000  0.11466000  0.38768000  1.0
  N  N130  1  0.24576000  0.11230000  0.11480000  1.0
  N  N131  1  0.47359000  0.38756000  0.38524000  1.0
  N  N132  1  0.13890000  0.61458000  0.88783000  1.0
  N  N133  1  0.64153000  0.88534000  0.61232000  1.0
  N  N134  1  0.75425000  0.88770000  0.88520000  1.0
  N  N135  1  0.52642000  0.61243000  0.61475000  1.0
  N  N136  1  0.74888000  0.44003000  0.17174000  1.0
  N  N137  1  0.36032000  0.06004000  0.32814000  1.0
  N  N138  1  0.18828000  0.17185000  0.06015000  1.0
  N  N139  1  0.42083000  0.32805000  0.43993000  1.0
  N  N140  1  0.25112000  0.55997000  0.82826000  1.0
  N  N141  1  0.63969000  0.93996000  0.67186000  1.0
  N  N142  1  0.81172000  0.82815000  0.93985000  1.0
  N  N143  1  0.57916000  0.67195000  0.56007000  1.0
  O  O144  1  0.68834000  0.11899000  0.79102000  1.0
  O  O145  1  0.59799000  0.38106000  0.70889000  1.0
  O  O146  1  0.80696000  0.79096000  0.38098000  1.0
  O  O147  1  0.97898000  0.70888000  0.11892000  1.0
  O  O148  1  0.31166000  0.88101000  0.20898000  1.0
  O  O149  1  0.40200000  0.61894000  0.29111000  1.0
  O  O150  1  0.19304000  0.20904000  0.61902000  1.0
  O  O151  1  0.02101000  0.29111000  0.88107000  1.0
  O  O152  1  0.81987000  0.13986000  0.90533000  1.0
  O  O153  1  0.86479000  0.36017000  0.59460000  1.0
  O  O154  1  0.95923000  0.90533000  0.36013000  1.0
  O  O155  1  0.22520000  0.59477000  0.13992000  1.0
  O  O156  1  0.18011000  0.86014000  0.09468000  1.0
  O  O157  1  0.13521000  0.63983000  0.40541000  1.0
  O  O158  1  0.04077000  0.09467000  0.63987000  1.0
  O  O159  1  0.77481000  0.40522000  0.86008000  1.0
