# generated using pymatgen
data_ZnH8C14(NO2)2
_symmetry_space_group_name_H-M   'P 1'
_cell_length_a   9.50955000
_cell_length_b   10.51290000
_cell_length_c   14.56970000
_cell_angle_alpha   83.38250000
_cell_angle_beta   75.22090000
_cell_angle_gamma   63.10800000
_symmetry_Int_Tables_number   1
_chemical_formula_structural   ZnH8C14(NO2)2
_chemical_formula_sum   'Zn4 H32 C56 N8 O16'
_cell_volume   1256.08520444
_cell_formula_units_Z   4
loop_
 _symmetry_equiv_pos_site_id
 _symmetry_equiv_pos_as_xyz
  1  'x, y, z'
loop_
 _atom_site_type_symbol
 _atom_site_label
 _atom_site_symmetry_multiplicity
 _atom_site_fract_x
 _atom_site_fract_y
 _atom_site_fract_z
 _atom_site_occupancy
  Zn  Zn0  1  0.95728000  0.08545000  0.75006000  1.0
  Zn  Zn1  1  0.04272000  0.91455000  0.24994000  1.0
  Zn  Zn2  1  0.49955000  0.00067000  0.75000000  1.0
  Zn  Zn3  1  0.50045000  0.99933000  0.25000000  1.0
  H  H4  1  0.22901000  0.85298000  0.96630000  1.0
  H  H5  1  0.91786000  0.85308000  0.53350000  1.0
  H  H6  1  0.77099000  0.14702000  0.03370000  1.0
  H  H7  1  0.08214000  0.14692000  0.46650000  1.0
  H  H8  1  0.98004000  0.59282000  0.01217000  1.0
  H  H9  1  0.42703000  0.59286000  0.48779000  1.0
  H  H10  1  0.01996000  0.40718000  0.98783000  1.0
  H  H11  1  0.57297000  0.40714000  0.51221000  1.0
  H  H12  1  0.02344000  0.57056000  0.83666000  1.0
  H  H13  1  0.40562000  0.57055000  0.66332000  1.0
  H  H14  1  0.97656000  0.42944000  0.16334000  1.0
  H  H15  1  0.59438000  0.42944000  0.33668000  1.0
  H  H16  1  0.29526000  0.04808000  0.97257000  1.0
  H  H17  1  0.65688000  0.04820000  0.52741000  1.0
  H  H18  1  0.70474000  0.95192000  0.02743000  1.0
  H  H19  1  0.34312000  0.95180000  0.47259000  1.0
  H  H20  1  0.29199000  0.24818000  0.08036000  1.0
  H  H21  1  0.46005000  0.24836000  0.41970000  1.0
  H  H22  1  0.70801000  0.75182000  0.91964000  1.0
  H  H23  1  0.53995000  0.75164000  0.58030000  1.0
  H  H24  1  0.56560000  0.25060000  0.79910000  1.0
  H  H25  1  0.18378000  0.25039000  0.70080000  1.0
  H  H26  1  0.43440000  0.74940000  0.20090000  1.0
  H  H27  1  0.81622000  0.74961000  0.29920000  1.0
  H  H28  1  0.39191000  0.36570000  0.12531000  1.0
  H  H29  1  0.24245000  0.36567000  0.37467000  1.0
  H  H30  1  0.60809000  0.63430000  0.87469000  1.0
  H  H31  1  0.75755000  0.63433000  0.62533000  1.0
  H  H32  1  0.55687000  0.44608000  0.82879000  1.0
  H  H33  1  0.99699000  0.44604000  0.67119000  1.0
  H  H34  1  0.44313000  0.55392000  0.17121000  1.0
  H  H35  1  0.00301000  0.55396000  0.32880000  1.0
  C  C36  1  0.13836000  0.71204000  0.80184000  1.0
  C  C37  1  0.14930000  0.71205000  0.69809000  1.0
  C  C38  1  0.86164000  0.28796000  0.19816000  1.0
  C  C39  1  0.85070000  0.28795000  0.30191000  1.0
  C  C40  1  0.20079000  0.78806000  0.83967000  1.0
  C  C41  1  0.01092000  0.78811000  0.66021000  1.0
  C  C42  1  0.79921000  0.21194000  0.16033000  1.0
  C  C43  1  0.98908000  0.21189000  0.33979000  1.0
  C  C44  1  0.18329000  0.79202000  0.93750000  1.0
  C  C45  1  0.02453000  0.79214000  0.56235000  1.0
  C  C46  1  0.81671000  0.20798000  0.06250000  1.0
  C  C47  1  0.97547000  0.20786000  0.43765000  1.0
  C  C48  1  0.10062000  0.72431000  0.99992000  1.0
  C  C49  1  0.17496000  0.72425000  0.49998000  1.0
  C  C50  1  0.89938000  0.27569000  0.00008000  1.0
  C  C51  1  0.82504000  0.27575000  0.50002000  1.0
  C  C52  1  0.04466000  0.64435000  0.96247000  1.0
  C  C53  1  0.31085000  0.64430000  0.53747000  1.0
  C  C54  1  0.95535000  0.35565000  0.03753000  1.0
  C  C55  1  0.68916000  0.35570000  0.46253000  1.0
  C  C56  1  0.06522000  0.63606000  0.86473000  1.0
  C  C57  1  0.29842000  0.63600000  0.63521000  1.0
  C  C58  1  0.93478000  0.36394000  0.13527000  1.0
  C  C59  1  0.70158000  0.36399000  0.36479000  1.0
  C  C60  1  0.27498000  0.87786000  0.78089000  1.0
  C  C61  1  0.84696000  0.87795000  0.71907000  1.0
  C  C62  1  0.72502000  0.12214000  0.21911000  1.0
  C  C63  1  0.15304000  0.12205000  0.28093000  1.0
  C  C64  1  0.06557000  0.74477000  0.10509000  1.0
  C  C65  1  0.18978000  0.74469000  0.39479000  1.0
  C  C66  1  0.93443000  0.25523000  0.89491000  1.0
  C  C67  1  0.81022000  0.25531000  0.60521000  1.0
  C  C68  1  0.35127000  0.11995000  0.95238000  1.0
  C  C69  1  0.52896000  0.11997000  0.54761000  1.0
  C  C70  1  0.64873000  0.88005000  0.04762000  1.0
  C  C71  1  0.47104000  0.88003000  0.45239000  1.0
  C  C72  1  0.34930000  0.21860000  0.00680000  1.0
  C  C73  1  0.43231000  0.21868000  0.49321000  1.0
  C  C74  1  0.65070000  0.78140000  0.99320000  1.0
  C  C75  1  0.56769000  0.78132000  0.50679000  1.0
  C  C76  1  0.49082000  0.22314000  0.86028000  1.0
  C  C77  1  0.28608000  0.22299000  0.63965000  1.0
  C  C78  1  0.50918000  0.77686000  0.13972000  1.0
  C  C79  1  0.71392000  0.77701000  0.36035000  1.0
  C  C80  1  0.46814000  0.39393000  0.97392000  1.0
  C  C81  1  0.13798000  0.39391000  0.52604000  1.0
  C  C82  1  0.53186000  0.60607000  0.02607000  1.0
  C  C83  1  0.86202000  0.60609000  0.47396000  1.0
  C  C84  1  0.43623000  0.42592000  0.06979000  1.0
  C  C85  1  0.13786000  0.42588000  0.43018000  1.0
  C  C86  1  0.56378000  0.57408000  0.93021000  1.0
  C  C87  1  0.86214000  0.57412000  0.56982000  1.0
  C  C88  1  0.53204000  0.46842000  0.90396000  1.0
  C  C89  1  0.99956000  0.46838000  0.59602000  1.0
  C  C90  1  0.46797000  0.53158000  0.09604000  1.0
  C  C91  1  0.00044000  0.53162000  0.40398000  1.0
  N  N92  1  0.44020000  0.12344000  0.86159000  1.0
  N  N93  1  0.43642000  0.12333000  0.63835000  1.0
  N  N94  1  0.55980000  0.87656000  0.13842000  1.0
  N  N95  1  0.56358000  0.87667000  0.36164000  1.0
  N  N96  1  0.43763000  0.28395000  0.94781000  1.0
  N  N97  1  0.27851000  0.28392000  0.55216000  1.0
  N  N98  1  0.56237000  0.71605000  0.05219000  1.0
  N  N99  1  0.72149000  0.71608000  0.44784000  1.0
  O  O100  1  0.20066000  0.97071000  0.72443000  1.0
  O  O101  1  0.82844000  0.97095000  0.77540000  1.0
  O  O102  1  0.79934000  0.02929000  0.27557000  1.0
  O  O103  1  0.17156000  0.02905000  0.22460000  1.0
  O  O104  1  0.41091000  0.85989000  0.79408000  1.0
  O  O105  1  0.72897000  0.85976000  0.70613000  1.0
  O  O106  1  0.58909000  0.14011000  0.20592000  1.0
  O  O107  1  0.27103000  0.14024000  0.29387000  1.0
  O  O108  1  0.11411000  0.83303000  0.12621000  1.0
  O  O109  1  0.05299000  0.83278000  0.37361000  1.0
  O  O110  1  0.88589000  0.16697000  0.87379000  1.0
  O  O111  1  0.94701000  0.16722000  0.62639000  1.0
  O  O112  1  0.99295000  0.68455000  0.16290000  1.0
  O  O113  1  0.32275000  0.68456000  0.33706000  1.0
  O  O114  1  0.00705000  0.31546000  0.83710000  1.0
  O  O115  1  0.67725000  0.31544000  0.66294000  1.0
