# generated using pymatgen
data_SrFe2H16C28(N2O9)2
_symmetry_space_group_name_H-M   'P 1'
_cell_length_a   7.91429000
_cell_length_b   9.32926000
_cell_length_c   11.63360000
_cell_angle_alpha   104.86200000
_cell_angle_beta   98.53060000
_cell_angle_gamma   111.20800000
_symmetry_Int_Tables_number   1
_chemical_formula_structural   SrFe2H16C28(N2O9)2
_chemical_formula_sum   'Sr1 Fe2 H16 C28 N4 O18'
_cell_volume   745.77070322
_cell_formula_units_Z   1
loop_
 _symmetry_equiv_pos_site_id
 _symmetry_equiv_pos_as_xyz
  1  'x, y, z'
loop_
 _atom_site_type_symbol
 _atom_site_label
 _atom_site_symmetry_multiplicity
 _atom_site_fract_x
 _atom_site_fract_y
 _atom_site_fract_z
 _atom_site_occupancy
  Sr  Sr0  1  0.00000000  0.00000000  0.00000000  1.0
  Fe  Fe1  1  0.52124000  0.23111000  0.76208000  1.0
  Fe  Fe2  1  0.47876000  0.76889000  0.23792000  1.0
  H  H3  1  0.14746000  0.65095000  0.91618000  1.0
  H  H4  1  0.85254000  0.34905000  0.08381000  1.0
  H  H5  1  0.95521000  0.35911000  0.78176000  1.0
  H  H6  1  0.04480000  0.64090000  0.21822000  1.0
  H  H7  1  0.79618000  0.47780000  0.67152000  1.0
  H  H8  1  0.20382000  0.52219000  0.32848000  1.0
  H  H9  1  0.11470000  0.18233000  0.70783000  1.0
  H  H10  1  0.88530000  0.81767000  0.29217000  1.0
  H  H11  1  0.81886000  0.48366000  0.46015000  1.0
  H  H12  1  0.18114000  0.51633000  0.53985000  1.0
  H  H13  1  0.57702000  0.25217000  0.27442000  1.0
  H  H14  1  0.42297000  0.74782000  0.72558000  1.0
  H  H15  1  0.75326000  0.06083000  0.16756000  1.0
  H  H16  1  0.24676000  0.93918000  0.83244000  1.0
  H  H17  1  0.95560000  0.12898000  0.25008000  1.0
  H  H18  1  0.04442000  0.87102000  0.74992000  1.0
  C  C19  1  0.27734000  0.99466000  0.27579000  1.0
  C  C20  1  0.72265000  0.00533000  0.72421000  1.0
  C  C21  1  0.42081000  0.13852000  0.50661000  1.0
  C  C22  1  0.57918000  0.86149000  0.49340000  1.0
  C  C23  1  0.27413000  0.01371000  0.53983000  1.0
  C  C24  1  0.72587000  0.98630000  0.46017000  1.0
  C  C25  1  0.42527000  0.13150000  0.38599000  1.0
  C  C26  1  0.57473000  0.86850000  0.61401000  1.0
  C  C27  1  0.69581000  0.56185000  0.89841000  1.0
  C  C28  1  0.30419000  0.43815000  0.10158000  1.0
  C  C29  1  0.41133000  0.63055000  0.91251000  1.0
  C  C30  1  0.58867000  0.36944000  0.08749000  1.0
  C  C31  1  0.49101000  0.52340000  0.86812000  1.0
  C  C32  1  0.50899000  0.47659000  0.13187000  1.0
  C  C33  1  0.21487000  0.57213000  0.88118000  1.0
  C  C34  1  0.78513000  0.42787000  0.11882000  1.0
  C  C35  1  0.53578000  0.80547000  0.98979000  1.0
  C  C36  1  0.46422000  0.19453000  0.01021000  1.0
  C  C37  1  0.10774000  0.41103000  0.80532000  1.0
  C  C38  1  0.89226000  0.58896000  0.19467000  1.0
  C  C39  1  0.69270000  0.38273000  0.58898000  1.0
  C  C40  1  0.30730000  0.61727000  0.41102000  1.0
  C  C41  1  0.19521000  0.30966000  0.76433000  1.0
  C  C42  1  0.80479000  0.69033000  0.23567000  1.0
  C  C43  1  0.70408000  0.38378000  0.47068000  1.0
  C  C44  1  0.29592000  0.61622000  0.52932000  1.0
  C  C45  1  0.57067000  0.25721000  0.36812000  1.0
  C  C46  1  0.42932000  0.74279000  0.63188000  1.0
  N  N47  1  0.38316000  0.36520000  0.79632000  1.0
  N  N48  1  0.61684000  0.63480000  0.20368000  1.0
  N  N49  1  0.55365000  0.26168000  0.60607000  1.0
  N  N50  1  0.44634000  0.73832000  0.39393000  1.0
  O  O51  1  0.30081000  0.04816000  0.66000000  1.0
  O  O52  1  0.69919000  0.95185000  0.34000000  1.0
  O  O53  1  0.73000000  0.43564000  0.85231000  1.0
  O  O54  1  0.27000000  0.56436000  0.14768000  1.0
  O  O55  1  0.55090000  0.85372000  0.10639000  1.0
  O  O56  1  0.44910000  0.14628000  0.89360000  1.0
  O  O57  1  0.30104000  0.86521000  0.23101000  1.0
  O  O58  1  0.69896000  0.13479000  0.76899000  1.0
  O  O59  1  0.13997000  0.01732000  0.22903000  1.0
  O  O60  1  0.86000000  0.98267000  0.77098000  1.0
  O  O61  1  0.62037000  0.89872000  0.93670000  1.0
  O  O62  1  0.37963000  0.10128000  0.06330000  1.0
  O  O63  1  0.82135000  0.69891000  0.96194000  1.0
  O  O64  1  0.17865000  0.30109000  0.03805000  1.0
  O  O65  1  0.14248000  0.89266000  0.46267000  1.0
  O  O66  1  0.85751000  0.10734000  0.53733000  1.0
  O  O67  1  0.88216000  0.14355000  0.18218000  1.0
  O  O68  1  0.11786000  0.85646000  0.81783000  1.0
