# generated using pymatgen
data_AlH10C19BrO7
_symmetry_space_group_name_H-M   'P 1'
_cell_length_a   6.69681000
_cell_length_b   24.97760000
_cell_length_c   27.05420000
_cell_angle_alpha   84.21270000
_cell_angle_beta   89.99930000
_cell_angle_gamma   89.99780000
_symmetry_Int_Tables_number   1
_chemical_formula_structural   AlH10C19BrO7
_chemical_formula_sum   'Al4 H40 C76 Br4 O28'
_cell_volume   4502.29717098
_cell_formula_units_Z   4
loop_
 _symmetry_equiv_pos_site_id
 _symmetry_equiv_pos_as_xyz
  1  'x, y, z'
loop_
 _atom_site_type_symbol
 _atom_site_label
 _atom_site_symmetry_multiplicity
 _atom_site_fract_x
 _atom_site_fract_y
 _atom_site_fract_z
 _atom_site_occupancy
  Al  Al0  1  0.77617000  0.25010000  0.74887000  1.0
  Al  Al1  1  0.21812000  0.75102000  0.25102000  1.0
  Al  Al2  1  0.27618000  0.24989000  0.75112000  1.0
  Al  Al3  1  0.71812000  0.74897000  0.24897000  1.0
  H  H4  1  0.25715000  0.61844000  0.04633000  1.0
  H  H5  1  0.74057000  0.38254000  0.95278000  1.0
  H  H6  1  0.75717000  0.88156000  0.45365000  1.0
  H  H7  1  0.24062000  0.11744000  0.54722000  1.0
  H  H8  1  0.69452000  0.55418000  0.10310000  1.0
  H  H9  1  0.29876000  0.44884000  0.89500000  1.0
  H  H10  1  0.19453000  0.94582000  0.39690000  1.0
  H  H11  1  0.79885000  0.05116000  0.60499000  1.0
  H  H12  1  0.69256000  0.62194000  0.16391000  1.0
  H  H13  1  0.29986000  0.38168000  0.83341000  1.0
  H  H14  1  0.19255000  0.87806000  0.33609000  1.0
  H  H15  1  0.79993000  0.11831000  0.66658000  1.0
  H  H16  1  0.66882000  0.53424000  0.02484000  1.0
  H  H17  1  0.32778000  0.46695000  0.97446000  1.0
  H  H18  1  0.16887000  0.96575000  0.47517000  1.0
  H  H19  1  0.82784000  0.03303000  0.52553000  1.0
  H  H20  1  0.68587000  0.46720000  0.96452000  1.0
  H  H21  1  0.31083000  0.53391000  0.03488000  1.0
  H  H22  1  0.18594000  0.03279000  0.53550000  1.0
  H  H23  1  0.81085000  0.96607000  0.46510000  1.0
  H  H24  1  0.28326000  0.40983000  0.53511000  1.0
  H  H25  1  0.69569000  0.53520000  0.41655000  1.0
  H  H26  1  0.78321000  0.09019000  0.96490000  1.0
  H  H27  1  0.19568000  0.96480000  0.08345000  1.0
  H  H28  1  0.30151000  0.33772000  0.60594000  1.0
  H  H29  1  0.68904000  0.60726000  0.34612000  1.0
  H  H30  1  0.80149000  0.16229000  0.89407000  1.0
  H  H31  1  0.18902000  0.89273000  0.15387000  1.0
  H  H32  1  0.73580000  0.46793000  0.59509000  1.0
  H  H33  1  0.25876000  0.59650000  0.46432000  1.0
  H  H34  1  0.23585000  0.03206000  0.90491000  1.0
  H  H35  1  0.75876000  0.90350000  0.03567000  1.0
  H  H36  1  0.70847000  0.39995000  0.74766000  1.0
  H  H37  1  0.33516000  0.75477000  0.40300000  1.0
  H  H38  1  0.20869000  0.10004000  0.75232000  1.0
  H  H39  1  0.83513000  0.74522000  0.09700000  1.0
  H  H40  1  0.51762000  0.31471000  0.72065000  1.0
  H  H41  1  0.46627000  0.68390000  0.27485000  1.0
  H  H42  1  0.01764000  0.18527000  0.77933000  1.0
  H  H43  1  0.96625000  0.81611000  0.22517000  1.0
  C  C44  1  0.53138000  0.18320000  0.82038000  1.0
  C  C45  1  0.46692000  0.81722000  0.17905000  1.0
  C  C46  1  0.03138000  0.31679000  0.67961000  1.0
  C  C47  1  0.96693000  0.68277000  0.32095000  1.0
  C  C48  1  0.52279000  0.18740000  0.68677000  1.0
  C  C49  1  0.47274000  0.81006000  0.31503000  1.0
  C  C50  1  0.02279000  0.31258000  0.81321000  1.0
  C  C51  1  0.97277000  0.68994000  0.18497000  1.0
  C  C52  1  0.13619000  0.65418000  0.10842000  1.0
  C  C53  1  0.86017000  0.34805000  0.88984000  1.0
  C  C54  1  0.63622000  0.84581000  0.39157000  1.0
  C  C55  1  0.36020000  0.15193000  0.61015000  1.0
  C  C56  1  0.13526000  0.61722000  0.07308000  1.0
  C  C57  1  0.86138000  0.38432000  0.92572000  1.0
  C  C58  1  0.63530000  0.88277000  0.42691000  1.0
  C  C59  1  0.36141000  0.11566000  0.57428000  1.0
  C  C60  1  0.97974000  0.57990000  0.07080000  1.0
  C  C61  1  0.01654000  0.42179000  0.92806000  1.0
  C  C62  1  0.47976000  0.92010000  0.42919000  1.0
  C  C63  1  0.51660000  0.07819000  0.57194000  1.0
  C  C64  1  0.81810000  0.58250000  0.10371000  1.0
  C  C65  1  0.17633000  0.42012000  0.89451000  1.0
  C  C66  1  0.31811000  0.91750000  0.39628000  1.0
  C  C67  1  0.67640000  0.07987000  0.60548000  1.0
  C  C68  1  0.81744000  0.61989000  0.13834000  1.0
  C  C69  1  0.17634000  0.38318000  0.85945000  1.0
  C  C70  1  0.31743000  0.88011000  0.36166000  1.0
  C  C71  1  0.67638000  0.11681000  0.64054000  1.0
  C  C72  1  0.97805000  0.65551000  0.14268000  1.0
  C  C73  1  0.01708000  0.34724000  0.85526000  1.0
  C  C74  1  0.47805000  0.84449000  0.35731000  1.0
  C  C75  1  0.51711000  0.15275000  0.64473000  1.0
  C  C76  1  0.81410000  0.51905000  0.01455000  1.0
  C  C77  1  0.18256000  0.48206000  0.98485000  1.0
  C  C78  1  0.31414000  0.98093000  0.48546000  1.0
  C  C79  1  0.68262000  0.01792000  0.51515000  1.0
  C  C80  1  0.82380000  0.48110000  0.98042000  1.0
  C  C81  1  0.17287000  0.51999000  0.01901000  1.0
  C  C82  1  0.32386000  0.01888000  0.51959000  1.0
  C  C83  1  0.67291000  0.98001000  0.48098000  1.0
  C  C84  1  0.00807000  0.46171000  0.96469000  1.0
  C  C85  1  0.98858000  0.53950000  0.03461000  1.0
  C  C86  1  0.50814000  0.03827000  0.53531000  1.0
  C  C87  1  0.48861000  0.96048000  0.46539000  1.0
  C  C88  1  0.16789000  0.40648000  0.56363000  1.0
  C  C89  1  0.81757000  0.56409000  0.41131000  1.0
  C  C90  1  0.66787000  0.09352000  0.93638000  1.0
  C  C91  1  0.31756000  0.93591000  0.08869000  1.0
  C  C92  1  0.17828000  0.36632000  0.60298000  1.0
  C  C93  1  0.81387000  0.60429000  0.37196000  1.0
  C  C94  1  0.67827000  0.13368000  0.89702000  1.0
  C  C95  1  0.31385000  0.89570000  0.12803000  1.0
  C  C96  1  0.02944000  0.36198000  0.63938000  1.0
  C  C97  1  0.96816000  0.64215000  0.36522000  1.0
  C  C98  1  0.52946000  0.13802000  0.86062000  1.0
  C  C99  1  0.46816000  0.85784000  0.13478000  1.0
  C  C100  1  0.87140000  0.39938000  0.63675000  1.0
  C  C101  1  0.12749000  0.63948000  0.39940000  1.0
  C  C102  1  0.37144000  0.10061000  0.86325000  1.0
  C  C103  1  0.62748000  0.86051000  0.10059000  1.0
  C  C104  1  0.85847000  0.43912000  0.59701000  1.0
  C  C105  1  0.13437000  0.59847000  0.43824000  1.0
  C  C106  1  0.35849000  0.06088000  0.90299000  1.0
  C  C107  1  0.63436000  0.90152000  0.06176000  1.0
  C  C108  1  0.00686000  0.44306000  0.55980000  1.0
  C  C109  1  0.97944000  0.56021000  0.44478000  1.0
  C  C110  1  0.50685000  0.05695000  0.94021000  1.0
  C  C111  1  0.47943000  0.93979000  0.05523000  1.0
  C  C112  1  0.99532000  0.48384000  0.51949000  1.0
  C  C113  1  0.98708000  0.51903000  0.48482000  1.0
  C  C114  1  0.49531000  0.01617000  0.98052000  1.0
  C  C115  1  0.48706000  0.98097000  0.01518000  1.0
  C  C116  1  0.72101000  0.39782000  0.67775000  1.0
  C  C117  1  0.29123000  0.68050000  0.39696000  1.0
  C  C118  1  0.22113000  0.10217000  0.82223000  1.0
  C  C119  1  0.79123000  0.81949000  0.10303000  1.0
  Br  Br120  1  0.35289000  0.70347000  0.10455000  1.0
  Br  Br121  1  0.64093000  0.29916000  0.89299000  1.0
  Br  Br122  1  0.85295000  0.79653000  0.39543000  1.0
  Br  Br123  1  0.14095000  0.20083000  0.60701000  1.0
  O  O124  1  0.35583000  0.19901000  0.70535000  1.0
  O  O125  1  0.63868000  0.79749000  0.29674000  1.0
  O  O126  1  0.85581000  0.30097000  0.79464000  1.0
  O  O127  1  0.13868000  0.70250000  0.20326000  1.0
  O  O128  1  0.69892000  0.20065000  0.80407000  1.0
  O  O129  1  0.29955000  0.80424000  0.19890000  1.0
  O  O130  1  0.19890000  0.29934000  0.69592000  1.0
  O  O131  1  0.79954000  0.69575000  0.30110000  1.0
  O  O132  1  0.69471000  0.20057000  0.70168000  1.0
  O  O133  1  0.29970000  0.79786000  0.29996000  1.0
  O  O134  1  0.19469000  0.29942000  0.79830000  1.0
  O  O135  1  0.79971000  0.70213000  0.20004000  1.0
  O  O136  1  0.86100000  0.29888000  0.69438000  1.0
  O  O137  1  0.13663000  0.70051000  0.30538000  1.0
  O  O138  1  0.36102000  0.20112000  0.80562000  1.0
  O  O139  1  0.63664000  0.79948000  0.19462000  1.0
  O  O140  1  0.52582000  0.28325000  0.74506000  1.0
  O  O141  1  0.46676000  0.71717000  0.25298000  1.0
  O  O142  1  0.02583000  0.21674000  0.75493000  1.0
  O  O143  1  0.96675000  0.78283000  0.24702000  1.0
  O  O144  1  0.54165000  0.39055000  0.67324000  1.0
  O  O145  1  0.80892000  0.40685000  0.72137000  1.0
  O  O146  1  0.46694000  0.67086000  0.39017000  1.0
  O  O147  1  0.22273000  0.72941000  0.40694000  1.0
  O  O148  1  0.04175000  0.10943000  0.82672000  1.0
  O  O149  1  0.30912000  0.09314000  0.77861000  1.0
  O  O150  1  0.96695000  0.82913000  0.10980000  1.0
  O  O151  1  0.72270000  0.77058000  0.09306000  1.0
