# generated using pymatgen
data_ZnH20C29N3O5
_symmetry_space_group_name_H-M   'P 1'
_cell_length_a   17.37080000
_cell_length_b   21.01900000
_cell_length_c   21.01689875
_cell_angle_alpha   80.17407491
_cell_angle_beta   65.60012700
_cell_angle_gamma   65.59190000
_symmetry_Int_Tables_number   1
_chemical_formula_structural   ZnH20C29N3O5
_chemical_formula_sum   'Zn8 H160 C232 N24 O40'
_cell_volume   6363.67763099
_cell_formula_units_Z   8
loop_
 _symmetry_equiv_pos_site_id
 _symmetry_equiv_pos_as_xyz
  1  'x, y, z'
loop_
 _atom_site_type_symbol
 _atom_site_label
 _atom_site_symmetry_multiplicity
 _atom_site_fract_x
 _atom_site_fract_y
 _atom_site_fract_z
 _atom_site_occupancy
  Zn  Zn0  1  0.31828000  0.04242000  0.27158000  1.0
  Zn  Zn1  1  0.63218000  0.45752000  0.22847000  1.0
  Zn  Zn2  1  0.86086000  0.27142000  0.45754000  1.0
  Zn  Zn3  1  0.58983000  0.22852000  0.04242000  1.0
  Zn  Zn4  1  0.68172000  0.95758000  0.72842000  1.0
  Zn  Zn5  1  0.36781000  0.54248000  0.77154000  1.0
  Zn  Zn6  1  0.13915000  0.72858000  0.54246000  1.0
  Zn  Zn7  1  0.41017000  0.77149000  0.95758000  1.0
  H  H8  1  0.07765000  0.99099000  0.29677000  1.0
  H  H9  1  0.98355000  0.95218000  0.25841000  1.0
  H  H10  1  0.16552000  0.95352000  0.04473000  1.0
  H  H11  1  0.25812000  0.99278000  0.08310000  1.0
  H  H12  1  0.99469000  0.06701000  0.10863000  1.0
  H  H13  1  0.87076000  0.15719000  0.07528000  1.0
  H  H14  1  0.77001000  0.00252000  0.07332000  1.0
  H  H15  1  0.89804000  0.90968000  0.10222000  1.0
  H  H16  1  0.17449000  0.16623000  0.34974000  1.0
  H  H17  1  0.10134000  0.29299000  0.33386000  1.0
  H  H18  1  0.30279000  0.26645000  0.12136000  1.0
  H  H19  1  0.36572000  0.13979000  0.14613000  1.0
  H  H20  1  0.01560000  0.38131000  0.27801000  1.0
  H  H21  1  0.95346000  0.50754000  0.25055000  1.0
  H  H22  1  0.21028000  0.50227000  0.11740000  1.0
  H  H23  1  0.28462000  0.37667000  0.14110000  1.0
  H  H24  1  0.30787000  0.92554000  0.35815000  1.0
  H  H25  1  0.37219000  0.79528000  0.35767000  1.0
  H  H26  1  0.55992000  0.80408000  0.14589000  1.0
  H  H27  1  0.48698000  0.93439000  0.15554000  1.0
  H  H28  1  0.36546000  0.50871000  0.20357000  1.0
  H  H29  1  0.19425000  0.54756000  0.24177000  1.0
  H  H30  1  0.16355000  0.54662000  0.45551000  1.0
  H  H31  1  0.33368000  0.50735000  0.41730000  1.0
  H  H32  1  0.17006000  0.43297000  0.39183000  1.0
  H  H33  1  0.10284000  0.34285000  0.42512000  1.0
  H  H34  1  0.84576000  0.49751000  0.42661000  1.0
  H  H35  1  0.90994000  0.59032000  0.39772000  1.0
  H  H36  1  0.69040000  0.33382000  0.15031000  1.0
  H  H37  1  0.72810000  0.20705000  0.16610000  1.0
  H  H38  1  0.69025000  0.23346000  0.37875000  1.0
  H  H39  1  0.65137000  0.36013000  0.35404000  1.0
  H  H40  1  0.67477000  0.11865000  0.22191000  1.0
  H  H41  1  0.71135000  0.99240000  0.24944000  1.0
  H  H42  1  0.82982000  0.99768000  0.38261000  1.0
  H  H43  1  0.80232000  0.12334000  0.35883000  1.0
  H  H44  1  0.59139000  0.57446000  0.14178000  1.0
  H  H45  1  0.52504000  0.70473000  0.14224000  1.0
  H  H46  1  0.50991000  0.69588000  0.35406000  1.0
  H  H47  1  0.57683000  0.56557000  0.34438000  1.0
  H  H48  1  0.56902000  0.29657000  0.50894000  1.0
  H  H49  1  0.43598000  0.25840000  0.54786000  1.0
  H  H50  1  0.61910000  0.04460000  0.54659000  1.0
  H  H51  1  0.75108000  0.08288000  0.50727000  1.0
  H  H52  1  0.56177000  0.10859000  0.43302000  1.0
  H  H53  1  0.52792000  0.07532000  0.34283000  1.0
  H  H54  1  0.27261000  0.07330000  0.49757000  1.0
  H  H55  1  0.30798000  0.10210000  0.59038000  1.0
  H  H56  1  0.84067000  0.34955000  0.33385000  1.0
  H  H57  1  0.89421000  0.33377000  0.20703000  1.0
  H  H58  1  0.06947000  0.12129000  0.23333000  1.0
  H  H59  1  0.00574000  0.14596000  0.36003000  1.0
  H  H60  1  0.89685000  0.27787000  0.11868000  1.0
  H  H61  1  0.96093000  0.25044000  0.99244000  1.0
  H  H62  1  0.21268000  0.11756000  0.99751000  1.0
  H  H63  1  0.16146000  0.14127000  0.12315000  1.0
  H  H64  1  0.73320000  0.35819000  0.57441000  1.0
  H  H65  1  0.66728000  0.35771000  0.70468000  1.0
  H  H66  1  0.86407000  0.14604000  0.69596000  1.0
  H  H67  1  0.92150000  0.15566000  0.56559000  1.0
  H  H68  1  0.37451000  0.20343000  0.99096000  1.0
  H  H69  1  0.24210000  0.24171000  0.95216000  1.0
  H  H70  1  0.21006000  0.45549000  0.95353000  1.0
  H  H71  1  0.34105000  0.41716000  0.99271000  1.0
  H  H72  1  0.10308000  0.39149000  0.06715000  1.0
  H  H73  1  0.94572000  0.42473000  0.15728000  1.0
  H  H74  1  0.84331000  0.42660000  0.00245000  1.0
  H  H75  1  0.00024000  0.39779000  0.90971000  1.0
  H  H76  1  0.52427000  0.15035000  0.16611000  1.0
  H  H77  1  0.43527000  0.16612000  0.29294000  1.0
  H  H78  1  0.42414000  0.37869000  0.26654000  1.0
  H  H79  1  0.51175000  0.35400000  0.13990000  1.0
  H  H80  1  0.29365000  0.22202000  0.38130000  1.0
  H  H81  1  0.20413000  0.24944000  0.50756000  1.0
  H  H82  1  0.32806000  0.38238000  0.50242000  1.0
  H  H83  1  0.42607000  0.35864000  0.37681000  1.0
  H  H84  1  0.66612000  0.14181000  0.92547000  1.0
  H  H85  1  0.72987000  0.14235000  0.79525000  1.0
  H  H86  1  0.70573000  0.35415000  0.80414000  1.0
  H  H87  1  0.64253000  0.34441000  0.93448000  1.0
  H  H88  1  0.92235000  0.00901000  0.70323000  1.0
  H  H89  1  0.01645000  0.04782000  0.74159000  1.0
  H  H90  1  0.83448000  0.04648000  0.95527000  1.0
  H  H91  1  0.74189000  0.00722000  0.91689000  1.0
  H  H92  1  0.00531000  0.93299000  0.89137000  1.0
  H  H93  1  0.12924000  0.84281000  0.92472000  1.0
  H  H94  1  0.22999000  0.99747000  0.92668000  1.0
  H  H95  1  0.10196000  0.09032000  0.89778000  1.0
  H  H96  1  0.82551000  0.83377000  0.65026000  1.0
  H  H97  1  0.89865000  0.70701000  0.66614000  1.0
  H  H98  1  0.69721000  0.73355000  0.87864000  1.0
  H  H99  1  0.63428000  0.86022000  0.85387000  1.0
  H  H100  1  0.98439000  0.61869000  0.72199000  1.0
  H  H101  1  0.04654000  0.49246000  0.74945000  1.0
  H  H102  1  0.78971000  0.49773000  0.88260000  1.0
  H  H103  1  0.71537000  0.62333000  0.85890000  1.0
  H  H104  1  0.69214000  0.07446000  0.64185000  1.0
  H  H105  1  0.62781000  0.20472000  0.64233000  1.0
  H  H106  1  0.44008000  0.19592000  0.85411000  1.0
  H  H107  1  0.51303000  0.06561000  0.84446000  1.0
  H  H108  1  0.63455000  0.49129000  0.79643000  1.0
  H  H109  1  0.80575000  0.45244000  0.75823000  1.0
  H  H110  1  0.83645000  0.45337000  0.54449000  1.0
  H  H111  1  0.66632000  0.49265000  0.58270000  1.0
  H  H112  1  0.82994000  0.56703000  0.60817000  1.0
  H  H113  1  0.89717000  0.65714000  0.57488000  1.0
  H  H114  1  0.15424000  0.50249000  0.57339000  1.0
  H  H115  1  0.09006000  0.40968000  0.60228000  1.0
  H  H116  1  0.30961000  0.66618000  0.84969000  1.0
  H  H117  1  0.27190000  0.79294000  0.83390000  1.0
  H  H118  1  0.30975000  0.76654000  0.62125000  1.0
  H  H119  1  0.34863000  0.63987000  0.64596000  1.0
  H  H120  1  0.32523000  0.88135000  0.77809000  1.0
  H  H121  1  0.28866000  0.00760000  0.75055000  1.0
  H  H122  1  0.17018000  0.00232000  0.61739000  1.0
  H  H123  1  0.19768000  0.87666000  0.64117000  1.0
  H  H124  1  0.40861000  0.42554000  0.85822000  1.0
  H  H125  1  0.47496000  0.29526000  0.85776000  1.0
  H  H126  1  0.49009000  0.30412000  0.64594000  1.0
  H  H127  1  0.42317000  0.43443000  0.65562000  1.0
  H  H128  1  0.43098000  0.70342000  0.49106000  1.0
  H  H129  1  0.56403000  0.74159000  0.45214000  1.0
  H  H130  1  0.38090000  0.95539000  0.45341000  1.0
  H  H131  1  0.24893000  0.91712000  0.49273000  1.0
  H  H132  1  0.43824000  0.89141000  0.56697000  1.0
  H  H133  1  0.47209000  0.92468000  0.65716000  1.0
  H  H134  1  0.72740000  0.92671000  0.50242000  1.0
  H  H135  1  0.69203000  0.89790000  0.40961000  1.0
  H  H136  1  0.15934000  0.65045000  0.66615000  1.0
  H  H137  1  0.10579000  0.66623000  0.79297000  1.0
  H  H138  1  0.93054000  0.87871000  0.76667000  1.0
  H  H139  1  0.99426000  0.85404000  0.63997000  1.0
  H  H140  1  0.10315000  0.72213000  0.88132000  1.0
  H  H141  1  0.03907000  0.74956000  0.00756000  1.0
  H  H142  1  0.78732000  0.88244000  0.00249000  1.0
  H  H143  1  0.83854000  0.85873000  0.87685000  1.0
  H  H144  1  0.26680000  0.64181000  0.42559000  1.0
  H  H145  1  0.33272000  0.64229000  0.29532000  1.0
  H  H146  1  0.13593000  0.85396000  0.30404000  1.0
  H  H147  1  0.07850000  0.84434000  0.43441000  1.0
  H  H148  1  0.62549000  0.79657000  0.00904000  1.0
  H  H149  1  0.75790000  0.75828000  0.04784000  1.0
  H  H150  1  0.78993000  0.54450000  0.04648000  1.0
  H  H151  1  0.65895000  0.58284000  0.00729000  1.0
  H  H152  1  0.89692000  0.60851000  0.93285000  1.0
  H  H153  1  0.05428000  0.57527000  0.84272000  1.0
  H  H154  1  0.15669000  0.57340000  0.99755000  1.0
  H  H155  1  0.99975000  0.60221000  0.09030000  1.0
  H  H156  1  0.47573000  0.84965000  0.83389000  1.0
  H  H157  1  0.56473000  0.83388000  0.70706000  1.0
  H  H158  1  0.57586000  0.62132000  0.73346000  1.0
  H  H159  1  0.48824000  0.64601000  0.86011000  1.0
  H  H160  1  0.70634000  0.77799000  0.61870000  1.0
  H  H161  1  0.79586000  0.75057000  0.49244000  1.0
  H  H162  1  0.67194000  0.61762000  0.49758000  1.0
  H  H163  1  0.57394000  0.64136000  0.62319000  1.0
  H  H164  1  0.33388000  0.85820000  0.07453000  1.0
  H  H165  1  0.27013000  0.85765000  0.20475000  1.0
  H  H166  1  0.29427000  0.64585000  0.19586000  1.0
  H  H167  1  0.35746000  0.65559000  0.06552000  1.0
  C  C168  1  0.22861000  0.01758000  0.21423000  1.0
  C  C169  1  0.17286000  0.99438000  0.19201000  1.0
  C  C170  1  0.09611000  0.98232000  0.24178000  1.0
  C  C171  1  0.04444000  0.96058000  0.22090000  1.0
  C  C172  1  0.07049000  0.95080000  0.14980000  1.0
  C  C173  1  0.14716000  0.96155000  0.09968000  1.0
  C  C174  1  0.19796000  0.98368000  0.12104000  1.0
  C  C175  1  0.95214000  0.98316000  0.10906000  1.0
  C  C176  1  0.94585000  0.05252000  0.10086000  1.0
  C  C177  1  0.87611000  0.10317000  0.08252000  1.0
  C  C178  1  0.81142000  0.08605000  0.07353000  1.0
  C  C179  1  0.82011000  0.01590000  0.08066000  1.0
  C  C180  1  0.89045000  0.96425000  0.09754000  1.0
  C  C181  1  0.73383000  0.14209000  0.05880000  1.0
  C  C182  1  0.20026000  0.19080000  0.29970000  1.0
  C  C183  1  0.15985000  0.26217000  0.29008000  1.0
  C  C184  1  0.19619000  0.29194000  0.22529000  1.0
  C  C185  1  0.27229000  0.24690000  0.17304000  1.0
  C  C186  1  0.30786000  0.17591000  0.18640000  1.0
  C  C187  1  0.15603000  0.36742000  0.21159000  1.0
  C  C188  1  0.06172000  0.40610000  0.24263000  1.0
  C  C189  1  0.02683000  0.47691000  0.22677000  1.0
  C  C190  1  0.16882000  0.47387000  0.15331000  1.0
  C  C191  1  0.21059000  0.40311000  0.16604000  1.0
  C  C192  1  0.36416000  0.89624000  0.31248000  1.0
  C  C193  1  0.40054000  0.82371000  0.31175000  1.0
  C  C194  1  0.47220000  0.78850000  0.25142000  1.0
  C  C195  1  0.50392000  0.82893000  0.19392000  1.0
  C  C196  1  0.46429000  0.90136000  0.19915000  1.0
  C  C197  1  0.46030000  0.48242000  0.28613000  1.0
  C  C198  1  0.35913000  0.50572000  0.30831000  1.0
  C  C199  1  0.32019000  0.51755000  0.25852000  1.0
  C  C200  1  0.22593000  0.53920000  0.27933000  1.0
  C  C201  1  0.17104000  0.54910000  0.35041000  1.0
  C  C202  1  0.20824000  0.53847000  0.40058000  1.0
  C  C203  1  0.30249000  0.51643000  0.37928000  1.0
  C  C204  1  0.04430000  0.51678000  0.39110000  1.0
  C  C205  1  0.09902000  0.44743000  0.39943000  1.0
  C  C206  1  0.06153000  0.39685000  0.41768000  1.0
  C  C207  1  0.97080000  0.41402000  0.42649000  1.0
  C  C208  1  0.91656000  0.48418000  0.41932000  1.0
  C  C209  1  0.95219000  0.53578000  0.40256000  1.0
  C  C210  1  0.93458000  0.35796000  0.44121000  1.0
  C  C211  1  0.69061000  0.30920000  0.20036000  1.0
  C  C212  1  0.71199000  0.23782000  0.20994000  1.0
  C  C213  1  0.71335000  0.20798000  0.27471000  1.0
  C  C214  1  0.69219000  0.25299000  0.32700000  1.0
  C  C215  1  0.67002000  0.32401000  0.31371000  1.0
  C  C216  1  0.73490000  0.13252000  0.28838000  1.0
  C  C217  1  0.71024000  0.09387000  0.25736000  1.0
  C  C218  1  0.73028000  0.02306000  0.27324000  1.0
  C  C219  1  0.79595000  0.02608000  0.34665000  1.0
  C  C220  1  0.77972000  0.09684000  0.33389000  1.0
  C  C221  1  0.57274000  0.60375000  0.18745000  1.0
  C  C222  1  0.53588000  0.67629000  0.18817000  1.0
  C  C223  1  0.51213000  0.71148000  0.24849000  1.0
  C  C224  1  0.52677000  0.67106000  0.30601000  1.0
  C  C225  1  0.56473000  0.59863000  0.30078000  1.0
  C  C226  1  0.74640000  0.21402000  0.48237000  1.0
  C  C227  1  0.66746000  0.19181000  0.50564000  1.0
  C  C228  1  0.57869000  0.24162000  0.51772000  1.0
  C  C229  1  0.50524000  0.22081000  0.53941000  1.0
  C  C230  1  0.52147000  0.14972000  0.54918000  1.0
  C  C231  1  0.60886000  0.09954000  0.53850000  1.0
  C  C232  1  0.68183000  0.12085000  0.51636000  1.0
  C  C233  1  0.43537000  0.10910000  0.51684000  1.0
  C  C234  1  0.49843000  0.10086000  0.44749000  1.0
  C  C235  1  0.47931000  0.08252000  0.39687000  1.0
  C  C236  1  0.39751000  0.07352000  0.41401000  1.0
  C  C237  1  0.33612000  0.08059000  0.48417000  1.0
  C  C238  1  0.35483000  0.09750000  0.53580000  1.0
  C  C239  1  0.37599000  0.05883000  0.35793000  1.0
  C  C240  1  0.89111000  0.29958000  0.30917000  1.0
  C  C241  1  0.92209000  0.28999000  0.23778000  1.0
  C  C242  1  0.98820000  0.22520000  0.20797000  1.0
  C  C243  1  0.01934000  0.17292000  0.25296000  1.0
  C  C244  1  0.98396000  0.18626000  0.32396000  1.0
  C  C245  1  0.02349000  0.21150000  0.13249000  1.0
  C  C246  1  0.96779000  0.24251000  0.09387000  1.0
  C  C247  1  0.00370000  0.22670000  0.02305000  1.0
  C  C248  1  0.14281000  0.15345000  0.02594000  1.0
  C  C249  1  0.11382000  0.16608000  0.09673000  1.0
  C  C250  1  0.76024000  0.31253000  0.60372000  1.0
  C  C251  1  0.72412000  0.31181000  0.67626000  1.0
  C  C252  1  0.76070000  0.25153000  0.71147000  1.0
  C  C253  1  0.83291000  0.19403000  0.67105000  1.0
  C  C254  1  0.86567000  0.19923000  0.59862000  1.0
  C  C255  1  0.44283000  0.28605000  0.01753000  1.0
  C  C256  1  0.36492000  0.30823000  0.99428000  1.0
  C  C257  1  0.33794000  0.25842000  0.98233000  1.0
  C  C258  1  0.26529000  0.27927000  0.96070000  1.0
  C  C259  1  0.22017000  0.35036000  0.95093000  1.0
  C  C260  1  0.24666000  0.40055000  0.96161000  1.0
  C  C261  1  0.31890000  0.37918000  0.98364000  1.0
  C  C262  1  0.06113000  0.39095000  0.98324000  1.0
  C  C263  1  0.04656000  0.39909000  0.05263000  1.0
  C  C264  1  0.95845000  0.41747000  0.10322000  1.0
  C  C265  1  0.88486000  0.42639000  0.08604000  1.0
  C  C266  1  0.90074000  0.41923000  0.01588000  1.0
  C  C267  1  0.98797000  0.40244000  0.96428000  1.0
  C  C268  1  0.79256000  0.44111000  0.14208000  1.0
  C  C269  1  0.49996000  0.20036000  0.19078000  1.0
  C  C270  1  0.44999000  0.20993000  0.26218000  1.0
  C  C271  1  0.42164000  0.27468000  0.29201000  1.0
  C  C272  1  0.44549000  0.32697000  0.24701000  1.0
  C  C273  1  0.49431000  0.31367000  0.17599000  1.0
  C  C274  1  0.36775000  0.28837000  0.36749000  1.0
  C  C275  1  0.30443000  0.25738000  0.40612000  1.0
  C  C276  1  0.25371000  0.27322000  0.47693000  1.0
  C  C277  1  0.32239000  0.34652000  0.47403000  1.0
  C  C278  1  0.37679000  0.33387000  0.40324000  1.0
  C  C279  1  0.67664000  0.18753000  0.89623000  1.0
  C  C280  1  0.71226000  0.18828000  0.82370000  1.0
  C  C281  1  0.72363000  0.24861000  0.78850000  1.0
  C  C282  1  0.69780000  0.30609000  0.82897000  1.0
  C  C283  1  0.66336000  0.30087000  0.90140000  1.0
  C  C284  1  0.77140000  0.98243000  0.78576000  1.0
  C  C285  1  0.82715000  0.00563000  0.80798000  1.0
  C  C286  1  0.90389000  0.01768000  0.75822000  1.0
  C  C287  1  0.95557000  0.03942000  0.77909000  1.0
  C  C288  1  0.92951000  0.04920000  0.85020000  1.0
  C  C289  1  0.85284000  0.03845000  0.90032000  1.0
  C  C290  1  0.80204000  0.01632000  0.87896000  1.0
  C  C291  1  0.04787000  0.01684000  0.89093000  1.0
  C  C292  1  0.05415000  0.94748000  0.89914000  1.0
  C  C293  1  0.12389000  0.89683000  0.91748000  1.0
  C  C294  1  0.18859000  0.91395000  0.92646000  1.0
  C  C295  1  0.17989000  0.98410000  0.91934000  1.0
  C  C296  1  0.10955000  0.03575000  0.90246000  1.0
  C  C297  1  0.26616000  0.85790000  0.94120000  1.0
  C  C298  1  0.79974000  0.80920000  0.70030000  1.0
  C  C299  1  0.84015000  0.73783000  0.70992000  1.0
  C  C300  1  0.80381000  0.70806000  0.77471000  1.0
  C  C301  1  0.72770000  0.75309000  0.82696000  1.0
  C  C302  1  0.69214000  0.82409000  0.81360000  1.0
  C  C303  1  0.84397000  0.63258000  0.78841000  1.0
  C  C304  1  0.93827000  0.59390000  0.75737000  1.0
  C  C305  1  0.97317000  0.52309000  0.77323000  1.0
  C  C306  1  0.83117000  0.52613000  0.84669000  1.0
  C  C307  1  0.78940000  0.59689000  0.83396000  1.0
  C  C308  1  0.63584000  0.10376000  0.68752000  1.0
  C  C309  1  0.59946000  0.17629000  0.68825000  1.0
  C  C310  1  0.52781000  0.21150000  0.74858000  1.0
  C  C311  1  0.49608000  0.17107000  0.80608000  1.0
  C  C312  1  0.53570000  0.09864000  0.80085000  1.0
  C  C313  1  0.53970000  0.51758000  0.71387000  1.0
  C  C314  1  0.64087000  0.49428000  0.69169000  1.0
  C  C315  1  0.67982000  0.48245000  0.74147000  1.0
  C  C316  1  0.77407000  0.46080000  0.72067000  1.0
  C  C317  1  0.82896000  0.45090000  0.64959000  1.0
  C  C318  1  0.79176000  0.46153000  0.59942000  1.0
  C  C319  1  0.69751000  0.48358000  0.62072000  1.0
  C  C320  1  0.95570000  0.48322000  0.60890000  1.0
  C  C321  1  0.90098000  0.55257000  0.60057000  1.0
  C  C322  1  0.93847000  0.60315000  0.58232000  1.0
  C  C323  1  0.02921000  0.58598000  0.57351000  1.0
  C  C324  1  0.08344000  0.51582000  0.58068000  1.0
  C  C325  1  0.04781000  0.46422000  0.59744000  1.0
  C  C326  1  0.06542000  0.64204000  0.55879000  1.0
  C  C327  1  0.30939000  0.69080000  0.79964000  1.0
  C  C328  1  0.28802000  0.76218000  0.79006000  1.0
  C  C329  1  0.28666000  0.79201000  0.72529000  1.0
  C  C330  1  0.30781000  0.74701000  0.67300000  1.0
  C  C331  1  0.32998000  0.67599000  0.68629000  1.0
  C  C332  1  0.26510000  0.86748000  0.71162000  1.0
  C  C333  1  0.28977000  0.90613000  0.74264000  1.0
  C  C334  1  0.26972000  0.97694000  0.72676000  1.0
  C  C335  1  0.20405000  0.97392000  0.65335000  1.0
  C  C336  1  0.22028000  0.90316000  0.66611000  1.0
  C  C337  1  0.42725000  0.39625000  0.81255000  1.0
  C  C338  1  0.46412000  0.32371000  0.81183000  1.0
  C  C339  1  0.48787000  0.28852000  0.75151000  1.0
  C  C340  1  0.47323000  0.32895000  0.69399000  1.0
  C  C341  1  0.43527000  0.40137000  0.69922000  1.0
  C  C342  1  0.25360000  0.78597000  0.51763000  1.0
  C  C343  1  0.33254000  0.80819000  0.49436000  1.0
  C  C344  1  0.42132000  0.75838000  0.48228000  1.0
  C  C345  1  0.49477000  0.77918000  0.46059000  1.0
  C  C346  1  0.47853000  0.85028000  0.45082000  1.0
  C  C347  1  0.39115000  0.90046000  0.46150000  1.0
  C  C348  1  0.31817000  0.87915000  0.48365000  1.0
  C  C349  1  0.56463000  0.89090000  0.48316000  1.0
  C  C350  1  0.50158000  0.89914000  0.55250000  1.0
  C  C351  1  0.52069000  0.91749000  0.60313000  1.0
  C  C352  1  0.60249000  0.92648000  0.58599000  1.0
  C  C353  1  0.66388000  0.91942000  0.51583000  1.0
  C  C354  1  0.64517000  0.90250000  0.46420000  1.0
  C  C355  1  0.62402000  0.94117000  0.64206000  1.0
  C  C356  1  0.10889000  0.70042000  0.69083000  1.0
  C  C357  1  0.07791000  0.71000000  0.76222000  1.0
  C  C358  1  0.01180000  0.77480000  0.79203000  1.0
  C  C359  1  0.98066000  0.82707000  0.74704000  1.0
  C  C360  1  0.01604000  0.81374000  0.67604000  1.0
  C  C361  1  0.97651000  0.78850000  0.86751000  1.0
  C  C362  1  0.03221000  0.75749000  0.90613000  1.0
  C  C363  1  0.99630000  0.77330000  0.97695000  1.0
  C  C364  1  0.85719000  0.84655000  0.97406000  1.0
  C  C365  1  0.88618000  0.83392000  0.90327000  1.0
  C  C366  1  0.23975000  0.68747000  0.39628000  1.0
  C  C367  1  0.27588000  0.68819000  0.32374000  1.0
  C  C368  1  0.23930000  0.74847000  0.28853000  1.0
  C  C369  1  0.16710000  0.80596000  0.32894000  1.0
  C  C370  1  0.13433000  0.80077000  0.40138000  1.0
  C  C371  1  0.55717000  0.71395000  0.98247000  1.0
  C  C372  1  0.63508000  0.69177000  0.00572000  1.0
  C  C373  1  0.66205000  0.74158000  0.01768000  1.0
  C  C374  1  0.73471000  0.72072000  0.03930000  1.0
  C  C375  1  0.77984000  0.64964000  0.04907000  1.0
  C  C376  1  0.75334000  0.59945000  0.03839000  1.0
  C  C377  1  0.68110000  0.62081000  0.01636000  1.0
  C  C378  1  0.93887000  0.60905000  0.01677000  1.0
  C  C379  1  0.95344000  0.60090000  0.94737000  1.0
  C  C380  1  0.04155000  0.58252000  0.89678000  1.0
  C  C381  1  0.11513000  0.57361000  0.91397000  1.0
  C  C382  1  0.09925000  0.58077000  0.98413000  1.0
  C  C383  1  0.01202000  0.59756000  0.03573000  1.0
  C  C384  1  0.20743000  0.55888000  0.85792000  1.0
  C  C385  1  0.50004000  0.79965000  0.80922000  1.0
  C  C386  1  0.55001000  0.79007000  0.73782000  1.0
  C  C387  1  0.57836000  0.72532000  0.70799000  1.0
  C  C388  1  0.55451000  0.67304000  0.75299000  1.0
  C  C389  1  0.50569000  0.68634000  0.82401000  1.0
  C  C390  1  0.63225000  0.71163000  0.63251000  1.0
  C  C391  1  0.69557000  0.74263000  0.59388000  1.0
  C  C392  1  0.74629000  0.72679000  0.52307000  1.0
  C  C393  1  0.67760000  0.65347000  0.52597000  1.0
  C  C394  1  0.62320000  0.66613000  0.59677000  1.0
  C  C395  1  0.32336000  0.81247000  0.10377000  1.0
  C  C396  1  0.28774000  0.81172000  0.17630000  1.0
  C  C397  1  0.27638000  0.75140000  0.21149000  1.0
  C  C398  1  0.30220000  0.69391000  0.17103000  1.0
  C  C399  1  0.33664000  0.69914000  0.09860000  1.0
  N  N400  1  0.27270000  0.14806000  0.24887000  1.0
  N  N401  1  0.07857000  0.51113000  0.18255000  1.0
  N  N402  1  0.39564000  0.93458000  0.25749000  1.0
  N  N403  1  0.66946000  0.35189000  0.25125000  1.0
  N  N404  1  0.77206000  0.98887000  0.31745000  1.0
  N  N405  1  0.58761000  0.56541000  0.24244000  1.0
  N  N406  1  0.92092000  0.24870000  0.35185000  1.0
  N  N407  1  0.08970000  0.18262000  0.98876000  1.0
  N  N408  1  0.83015000  0.25754000  0.56540000  1.0
  N  N409  1  0.52156000  0.25123000  0.14810000  1.0
  N  N410  1  0.26134000  0.31731000  0.51123000  1.0
  N  N411  1  0.65308000  0.24252000  0.93461000  1.0
  N  N412  1  0.72731000  0.85194000  0.75113000  1.0
  N  N413  1  0.92143000  0.48888000  0.81744000  1.0
  N  N414  1  0.60436000  0.06542000  0.74251000  1.0
  N  N415  1  0.33054000  0.64811000  0.74875000  1.0
  N  N416  1  0.22794000  0.01113000  0.68255000  1.0
  N  N417  1  0.41238000  0.43459000  0.75757000  1.0
  N  N418  1  0.07908000  0.75130000  0.64815000  1.0
  N  N419  1  0.91031000  0.81738000  0.01124000  1.0
  N  N420  1  0.16985000  0.74246000  0.43460000  1.0
  N  N421  1  0.47844000  0.74878000  0.85190000  1.0
  N  N422  1  0.73865000  0.68269000  0.48877000  1.0
  N  N423  1  0.34692000  0.75748000  0.06539000  1.0
  O  O424  1  0.29840000  0.02731000  0.16863000  1.0
  O  O425  1  0.20339000  0.02578000  0.28024000  1.0
  O  O426  1  0.01764000  0.93027000  0.12920000  1.0
  O  O427  1  0.72410000  0.20573000  0.05743000  1.0
  O  O428  1  0.67581000  0.12493000  0.04942000  1.0
  O  O429  1  0.49422000  0.47275000  0.33173000  1.0
  O  O430  1  0.50928000  0.47400000  0.22013000  1.0
  O  O431  1  0.07711000  0.56964000  0.37096000  1.0
  O  O432  1  0.98709000  0.29431000  0.44263000  1.0
  O  O433  1  0.85004000  0.37509000  0.45055000  1.0
  O  O434  1  0.82590000  0.16842000  0.47274000  1.0
  O  O435  1  0.72940000  0.28001000  0.47403000  1.0
  O  O436  1  0.44803000  0.12921000  0.56972000  1.0
  O  O437  1  0.42982000  0.05749000  0.29428000  1.0
  O  O438  1  0.30079000  0.04945000  0.37513000  1.0
  O  O439  1  0.46705000  0.33165000  0.02724000  1.0
  O  O440  1  0.48350000  0.22005000  0.02585000  1.0
  O  O441  1  0.14679000  0.37090000  0.93035000  1.0
  O  O442  1  0.78137000  0.44252000  0.20574000  1.0
  O  O443  1  0.72520000  0.45048000  0.12486000  1.0
  O  O444  1  0.70161000  0.97269000  0.83137000  1.0
  O  O445  1  0.79662000  0.97423000  0.71975000  1.0
  O  O446  1  0.98234000  0.06974000  0.87081000  1.0
  O  O447  1  0.27590000  0.79426000  0.94257000  1.0
  O  O448  1  0.32419000  0.87506000  0.95058000  1.0
  O  O449  1  0.50578000  0.52725000  0.66827000  1.0
  O  O450  1  0.49072000  0.52600000  0.77987000  1.0
  O  O451  1  0.92290000  0.43036000  0.62904000  1.0
  O  O452  1  0.01292000  0.70569000  0.55737000  1.0
  O  O453  1  0.14997000  0.62491000  0.54944000  1.0
  O  O454  1  0.17411000  0.83158000  0.52726000  1.0
  O  O455  1  0.27061000  0.71998000  0.52597000  1.0
  O  O456  1  0.55197000  0.87078000  0.43029000  1.0
  O  O457  1  0.57017000  0.94251000  0.70572000  1.0
  O  O458  1  0.69921000  0.95055000  0.62487000  1.0
  O  O459  1  0.53295000  0.66835000  0.97276000  1.0
  O  O460  1  0.51651000  0.77996000  0.97415000  1.0
  O  O461  1  0.85322000  0.62910000  0.06965000  1.0
  O  O462  1  0.21863000  0.55748000  0.79426000  1.0
  O  O463  1  0.27480000  0.54952000  0.87514000  1.0
