# generated using pymatgen
data_Cu2H19C22N3ClO5
_symmetry_space_group_name_H-M   'P 1'
_cell_length_a   9.17256000
_cell_length_b   14.17160000
_cell_length_c   26.12620000
_cell_angle_alpha   89.99540000
_cell_angle_beta   89.99740000
_cell_angle_gamma   97.40010000
_symmetry_Int_Tables_number   1
_chemical_formula_structural   Cu2H19C22N3ClO5
_chemical_formula_sum   'Cu8 H76 C88 N12 Cl4 O20'
_cell_volume   3367.85416765
_cell_formula_units_Z   4
loop_
 _symmetry_equiv_pos_site_id
 _symmetry_equiv_pos_as_xyz
  1  'x, y, z'
loop_
 _atom_site_type_symbol
 _atom_site_label
 _atom_site_symmetry_multiplicity
 _atom_site_fract_x
 _atom_site_fract_y
 _atom_site_fract_z
 _atom_site_occupancy
  Cu  Cu0  1  0.09623000  0.07462000  0.50748000  1.0
  Cu  Cu1  1  0.90446000  0.42619000  0.00749000  1.0
  Cu  Cu2  1  0.90381000  0.92541000  0.49252000  1.0
  Cu  Cu3  1  0.09551000  0.57379000  0.99252000  1.0
  Cu  Cu4  1  0.51363000  0.22773000  0.76000000  1.0
  Cu  Cu5  1  0.48658000  0.27212000  0.26016000  1.0
  Cu  Cu6  1  0.48639000  0.77231000  0.24000000  1.0
  Cu  Cu7  1  0.51340000  0.72788000  0.73985000  1.0
  H  H8  1  0.20458000  0.23381000  0.60060000  1.0
  H  H9  1  0.79576000  0.26618000  0.10078000  1.0
  H  H10  1  0.79543000  0.76622000  0.39941000  1.0
  H  H11  1  0.20422000  0.73382000  0.89922000  1.0
  H  H12  1  0.04120000  0.30113000  0.67985000  1.0
  H  H13  1  0.95909000  0.19875000  0.18001000  1.0
  H  H14  1  0.95881000  0.69888000  0.32016000  1.0
  H  H15  1  0.04089000  0.80125000  0.82000000  1.0
  H  H16  1  0.32599000  0.09847000  0.59233000  1.0
  H  H17  1  0.67434000  0.40151000  0.09265000  1.0
  H  H18  1  0.67401000  0.90154000  0.40768000  1.0
  H  H19  1  0.32563000  0.59848000  0.90735000  1.0
  H  H20  1  0.51978000  0.03588000  0.54146000  1.0
  H  H21  1  0.48077000  0.46396000  0.04161000  1.0
  H  H22  1  0.48018000  0.96411000  0.45854000  1.0
  H  H23  1  0.51921000  0.53602000  0.95839000  1.0
  H  H24  1  0.85019000  0.23073000  0.61619000  1.0
  H  H25  1  0.15012000  0.26906000  0.11621000  1.0
  H  H26  1  0.14981000  0.76928000  0.38379000  1.0
  H  H27  1  0.84986000  0.73093000  0.88379000  1.0
  H  H28  1  0.65442000  0.29406000  0.66856000  1.0
  H  H29  1  0.34576000  0.20581000  0.16871000  1.0
  H  H30  1  0.34562000  0.70597000  0.33142000  1.0
  H  H31  1  0.65422000  0.79419000  0.83130000  1.0
  H  H32  1  0.97386000  0.24272000  0.76850000  1.0
  H  H33  1  0.02646000  0.25688000  0.26871000  1.0
  H  H34  1  0.02614000  0.75730000  0.23149000  1.0
  H  H35  1  0.97351000  0.74314000  0.73129000  1.0
  H  H36  1  0.90215000  0.30561000  0.85128000  1.0
  H  H37  1  0.09771000  0.19412000  0.35156000  1.0
  H  H38  1  0.09785000  0.69439000  0.14872000  1.0
  H  H39  1  0.90228000  0.80590000  0.64844000  1.0
  H  H40  1  0.33394000  0.46411000  0.86735000  1.0
  H  H41  1  0.66570000  0.03580000  0.36752000  1.0
  H  H42  1  0.66607000  0.53587000  0.13267000  1.0
  H  H43  1  0.33432000  0.96420000  0.63249000  1.0
  H  H44  1  0.40756000  0.40046000  0.78388000  1.0
  H  H45  1  0.59250000  0.09938000  0.28398000  1.0
  H  H46  1  0.59244000  0.59955000  0.21613000  1.0
  H  H47  1  0.40748000  0.90062000  0.71603000  1.0
  H  H48  1  0.39809000  0.11349000  0.44123000  1.0
  H  H49  1  0.60220000  0.38688000  0.94113000  1.0
  H  H50  1  0.60193000  0.88651000  0.55876000  1.0
  H  H51  1  0.39779000  0.61311000  0.05888000  1.0
  H  H52  1  0.32138000  0.20320000  0.40741000  1.0
  H  H53  1  0.67900000  0.29714000  0.90738000  1.0
  H  H54  1  0.67864000  0.79679000  0.59259000  1.0
  H  H55  1  0.32099000  0.70286000  0.09262000  1.0
  H  H56  1  0.57482000  0.25188000  0.38340000  1.0
  H  H57  1  0.42547000  0.24834000  0.88344000  1.0
  H  H58  1  0.42519000  0.74813000  0.61660000  1.0
  H  H59  1  0.57451000  0.75167000  0.11657000  1.0
  H  H60  1  0.64143000  0.20732000  0.44157000  1.0
  H  H61  1  0.35896000  0.29291000  0.94162000  1.0
  H  H62  1  0.35858000  0.79268000  0.55842000  1.0
  H  H63  1  0.64104000  0.70707000  0.05840000  1.0
  H  H64  1  0.66059000  0.37139000  0.46575000  1.0
  H  H65  1  0.34011000  0.12888000  0.96586000  1.0
  H  H66  1  0.33941000  0.62861000  0.53424000  1.0
  H  H67  1  0.65989000  0.87110000  0.03413000  1.0
  H  H68  1  0.51209000  0.39290000  0.42474000  1.0
  H  H69  1  0.48855000  0.10741000  0.92482000  1.0
  H  H70  1  0.48791000  0.60710000  0.57525000  1.0
  H  H71  1  0.51146000  0.89258000  0.07517000  1.0
  H  H72  1  0.52244000  0.44004000  0.53507000  1.0
  H  H73  1  0.47858000  0.06041000  0.03521000  1.0
  H  H74  1  0.47756000  0.55995000  0.46492000  1.0
  H  H75  1  0.52143000  0.93956000  0.96479000  1.0
  H  H76  1  0.32677000  0.41793000  0.52776000  1.0
  H  H77  1  0.67419000  0.08261000  0.02779000  1.0
  H  H78  1  0.67324000  0.58207000  0.47223000  1.0
  H  H79  1  0.32581000  0.91734000  0.97219000  1.0
  H  H80  1  0.41828000  0.34783000  0.57073000  1.0
  H  H81  1  0.58273000  0.15274000  0.07075000  1.0
  H  H82  1  0.58173000  0.65217000  0.42927000  1.0
  H  H83  1  0.41732000  0.84722000  0.92924000  1.0
  C  C84  1  0.37153000  0.25425000  0.71329000  1.0
  C  C85  1  0.62877000  0.24558000  0.21348000  1.0
  C  C86  1  0.62849000  0.74578000  0.28671000  1.0
  C  C87  1  0.37121000  0.75442000  0.78653000  1.0
  C  C88  1  0.22907000  0.24627000  0.64090000  1.0
  C  C89  1  0.77120000  0.25365000  0.14108000  1.0
  C  C90  1  0.77094000  0.75375000  0.35910000  1.0
  C  C91  1  0.22878000  0.74634000  0.85892000  1.0
  C  C92  1  0.14959000  0.27866000  0.67951000  1.0
  C  C93  1  0.85069000  0.22116000  0.17968000  1.0
  C  C94  1  0.85042000  0.72135000  0.32050000  1.0
  C  C95  1  0.14929000  0.77884000  0.82033000  1.0
  C  C96  1  0.47938000  0.19882000  0.63365000  1.0
  C  C97  1  0.52086000  0.30106000  0.13383000  1.0
  C  C98  1  0.52063000  0.80120000  0.36635000  1.0
  C  C99  1  0.47912000  0.69894000  0.86617000  1.0
  C  C100  1  0.44065000  0.12747000  0.59760000  1.0
  C  C101  1  0.55974000  0.37249000  0.09784000  1.0
  C  C102  1  0.55935000  0.87254000  0.40241000  1.0
  C  C103  1  0.44024000  0.62750000  0.90216000  1.0
  C  C104  1  0.54958000  0.09246000  0.56916000  1.0
  C  C105  1  0.45094000  0.40744000  0.06934000  1.0
  C  C106  1  0.45041000  0.90753000  0.43084000  1.0
  C  C107  1  0.54904000  0.59254000  0.93065000  1.0
  C  C108  1  0.69747000  0.12902000  0.57606000  1.0
  C  C109  1  0.30303000  0.37078000  0.07614000  1.0
  C  C110  1  0.30254000  0.87098000  0.42393000  1.0
  C  C111  1  0.69696000  0.62920000  0.92386000  1.0
  C  C112  1  0.73493000  0.20210000  0.61170000  1.0
  C  C113  1  0.26541000  0.29769000  0.11178000  1.0
  C  C114  1  0.26507000  0.79790000  0.38829000  1.0
  C  C115  1  0.73457000  0.70230000  0.88822000  1.0
  C  C116  1  0.62643000  0.23708000  0.64084000  1.0
  C  C117  1  0.37380000  0.26276000  0.14099000  1.0
  C  C118  1  0.37358000  0.76294000  0.35915000  1.0
  C  C119  1  0.62618000  0.73723000  0.85901000  1.0
  C  C120  1  0.81326000  0.08703000  0.54661000  1.0
  C  C121  1  0.18762000  0.41277000  0.04654000  1.0
  C  C122  1  0.18676000  0.91299000  0.45339000  1.0
  C  C123  1  0.81236000  0.58721000  0.95346000  1.0
  C  C124  1  0.19556000  0.31818000  0.77134000  1.0
  C  C125  1  0.80463000  0.18160000  0.27149000  1.0
  C  C126  1  0.80445000  0.68184000  0.22867000  1.0
  C  C127  1  0.19536000  0.81841000  0.72852000  1.0
  C  C128  1  0.05313000  0.29168000  0.78979000  1.0
  C  C129  1  0.94700000  0.20796000  0.28998000  1.0
  C  C130  1  0.94687000  0.70833000  0.21021000  1.0
  C  C131  1  0.05298000  0.79205000  0.71002000  1.0
  C  C132  1  0.01274000  0.32695000  0.83674000  1.0
  C  C133  1  0.98718000  0.17272000  0.33698000  1.0
  C  C134  1  0.98725000  0.67305000  0.16326000  1.0
  C  C135  1  0.01281000  0.82730000  0.66302000  1.0
  C  C136  1  0.11335000  0.38948000  0.86473000  1.0
  C  C137  1  0.88639000  0.11031000  0.36496000  1.0
  C  C138  1  0.88665000  0.61051000  0.13528000  1.0
  C  C139  1  0.11363000  0.88970000  0.63504000  1.0
  C  C140  1  0.25580000  0.41540000  0.84572000  1.0
  C  C141  1  0.74399000  0.08446000  0.34591000  1.0
  C  C142  1  0.74421000  0.58459000  0.15430000  1.0
  C  C143  1  0.25602000  0.91554000  0.65409000  1.0
  C  C144  1  0.29765000  0.37967000  0.79923000  1.0
  C  C145  1  0.70239000  0.12017000  0.29937000  1.0
  C  C146  1  0.70235000  0.62034000  0.20078000  1.0
  C  C147  1  0.29760000  0.87983000  0.70063000  1.0
  C  C148  1  0.06886000  0.42963000  0.91443000  1.0
  C  C149  1  0.93078000  0.07032000  0.41478000  1.0
  C  C150  1  0.93113000  0.57035000  0.08558000  1.0
  C  C151  1  0.06928000  0.92972000  0.58522000  1.0
  C  C152  1  0.35889000  0.23600000  0.48606000  1.0
  C  C153  1  0.64162000  0.26454000  0.98605000  1.0
  C  C154  1  0.64112000  0.76400000  0.51394000  1.0
  C  C155  1  0.35838000  0.73544000  0.01395000  1.0
  C  C156  1  0.40258000  0.19061000  0.43690000  1.0
  C  C157  1  0.59777000  0.30976000  0.93686000  1.0
  C  C158  1  0.59744000  0.80939000  0.56309000  1.0
  C  C159  1  0.40221000  0.69023000  0.06314000  1.0
  C  C160  1  0.55466000  0.24412000  0.42461000  1.0
  C  C161  1  0.44575000  0.25615000  0.92464000  1.0
  C  C162  1  0.44535000  0.75588000  0.57539000  1.0
  C  C163  1  0.55424000  0.74385000  0.07537000  1.0
  C  C164  1  0.55264000  0.34087000  0.45089000  1.0
  C  C165  1  0.44799000  0.15945000  0.95096000  1.0
  C  C166  1  0.44737000  0.65913000  0.54910000  1.0
  C  C167  1  0.55201000  0.84053000  0.04904000  1.0
  C  C168  1  0.42757000  0.38463000  0.53375000  1.0
  C  C169  1  0.57337000  0.11589000  0.03379000  1.0
  C  C170  1  0.57244000  0.61537000  0.46625000  1.0
  C  C171  1  0.42664000  0.88408000  0.96620000  1.0
  N  N172  1  0.36460000  0.23304000  0.66203000  1.0
  N  N173  1  0.63564000  0.26682000  0.16222000  1.0
  N  N174  1  0.63542000  0.76699000  0.33797000  1.0
  N  N175  1  0.36434000  0.73318000  0.83778000  1.0
  N  N176  1  0.23776000  0.28397000  0.72304000  1.0
  N  N177  1  0.76253000  0.21585000  0.22321000  1.0
  N  N178  1  0.76226000  0.71605000  0.27696000  1.0
  N  N179  1  0.23744000  0.78415000  0.77680000  1.0
  N  N180  1  0.44930000  0.31823000  0.49321000  1.0
  N  N181  1  0.55145000  0.18222000  0.99323000  1.0
  N  N182  1  0.55071000  0.68177000  0.50679000  1.0
  N  N183  1  0.44855000  0.81776000  0.00676000  1.0
  Cl  Cl184  1  0.66386000  0.18416000  0.81283000  1.0
  Cl  Cl185  1  0.33608000  0.31574000  0.31287000  1.0
  Cl  Cl186  1  0.33615000  0.81587000  0.18718000  1.0
  Cl  Cl187  1  0.66390000  0.68427000  0.68713000  1.0
  O  O188  1  0.77156000  0.00557000  0.52682000  1.0
  O  O189  1  0.22919000  0.49412000  0.02650000  1.0
  O  O190  1  0.22844000  0.99444000  0.47318000  1.0
  O  O191  1  0.77078000  0.50587000  0.97350000  1.0
  O  O192  1  0.94072000  0.13419000  0.54440000  1.0
  O  O193  1  0.05965000  0.36597000  0.04416000  1.0
  O  O194  1  0.05928000  0.86581000  0.45560000  1.0
  O  O195  1  0.94033000  0.63400000  0.95584000  1.0
  O  O196  1  0.96803000  0.38039000  0.93991000  1.0
  O  O197  1  0.03117000  0.12007000  0.44007000  1.0
  O  O198  1  0.03193000  0.61960000  0.06009000  1.0
  O  O199  1  0.96886000  0.87994000  0.55992000  1.0
  O  O200  1  0.13675000  0.51083000  0.92706000  1.0
  O  O201  1  0.86292000  0.98911000  0.42721000  1.0
  O  O202  1  0.86326000  0.48914000  0.07296000  1.0
  O  O203  1  0.13713000  0.01092000  0.57279000  1.0
  O  O204  1  0.25630000  0.20709000  0.51604000  1.0
  O  O205  1  0.74415000  0.29367000  0.01602000  1.0
  O  O206  1  0.74373000  0.79291000  0.48396000  1.0
  O  O207  1  0.25585000  0.70631000  0.98399000  1.0
