# generated using pymatgen
data_ZnH13C25S4Br2NO16
_symmetry_space_group_name_H-M   'P 1'
_cell_length_a   16.09200000
_cell_length_b   18.23120000
_cell_length_c   19.37980000
_cell_angle_alpha   90.69690000
_cell_angle_beta   91.25200000
_cell_angle_gamma   91.12780000
_symmetry_Int_Tables_number   1
_chemical_formula_structural   ZnH13C25S4Br2NO16
_chemical_formula_sum   'Zn2 H26 C50 S8 Br4 N2 O32'
_cell_volume   5682.66779669
_cell_formula_units_Z   2
loop_
 _symmetry_equiv_pos_site_id
 _symmetry_equiv_pos_as_xyz
  1  'x, y, z'
loop_
 _atom_site_type_symbol
 _atom_site_label
 _atom_site_symmetry_multiplicity
 _atom_site_fract_x
 _atom_site_fract_y
 _atom_site_fract_z
 _atom_site_occupancy
  Zn  Zn0  1  0.50362000  0.57909000  0.49294000  1.0
  Zn  Zn1  1  0.50341000  0.42499000  0.50971000  1.0
  H  H2  1  0.39111000  0.69074000  0.43212000  1.0
  H  H3  1  0.60715000  0.30872000  0.57377000  1.0
  H  H4  1  0.60157000  0.83649000  0.56451000  1.0
  H  H5  1  0.40417000  0.17342000  0.42441000  1.0
  H  H6  1  0.60447000  0.69855000  0.55599000  1.0
  H  H7  1  0.40582000  0.31128000  0.43676000  1.0
  H  H8  1  0.44721000  0.07733000  0.59264000  1.0
  H  H9  1  0.55014000  0.92798000  0.39799000  1.0
  H  H10  1  0.96428000  0.58594000  0.59479000  1.0
  H  H11  1  0.04274000  0.41883000  0.40783000  1.0
  H  H12  1  0.40083000  0.56904000  0.15893000  1.0
  H  H13  1  0.38248000  0.42922000  0.83532000  1.0
  H  H14  1  0.41997000  0.57532000  0.28690000  1.0
  H  H15  1  0.39855000  0.43002000  0.70781000  1.0
  H  H16  1  0.59755000  0.47340000  0.06310000  1.0
  H  H17  1  0.32925000  0.51253000  0.93778000  1.0
  H  H18  1  0.59660000  0.50141000  0.93834000  1.0
  H  H19  1  0.33010000  0.48425000  0.06274000  1.0
  H  H20  1  0.96518000  0.39677000  0.66573000  1.0
  H  H21  1  0.04860000  0.60267000  0.33973000  1.0
  H  H22  1  0.36327000  0.82831000  0.61314000  1.0
  H  H23  1  0.52643000  0.15349000  0.30190000  1.0
  H  H24  1  0.00174000  0.26712000  0.47387000  1.0
  H  H25  1  0.94719000  0.68503000  0.43188000  1.0
  H  H26  1  0.49506000  0.35817000  0.03800000  1.0
  H  H27  1  0.51099000  0.62409000  0.97130000  1.0
  C  C28  1  0.49665000  0.51351000  0.63355000  1.0
  C  C29  1  0.50037000  0.48704000  0.36901000  1.0
  C  C30  1  0.50771000  0.41151000  0.18306000  1.0
  C  C31  1  0.51351000  0.57748000  0.82319000  1.0
  C  C32  1  0.46639000  0.46810000  0.14765000  1.0
  C  C33  1  0.46421000  0.52244000  0.85411000  1.0
  C  C34  1  0.43304000  0.52564000  0.18620000  1.0
  C  C35  1  0.42116000  0.47118000  0.81148000  1.0
  C  C36  1  0.44458000  0.52982000  0.25719000  1.0
  C  C37  1  0.43098000  0.47083000  0.74057000  1.0
  C  C38  1  0.49100000  0.47732000  0.29212000  1.0
  C  C39  1  0.48572000  0.52077000  0.71016000  1.0
  C  C40  1  0.53861000  0.48151000  0.03569000  1.0
  C  C41  1  0.38800000  0.50354000  0.96520000  1.0
  C  C42  1  0.53808000  0.49753000  0.96549000  1.0
  C  C43  1  0.38853000  0.48802000  0.03541000  1.0
  C  C44  1  0.46280000  0.50944000  0.92945000  1.0
  C  C45  1  0.46371000  0.47681000  0.07163000  1.0
  C  C46  1  0.43736000  0.72526000  0.45954000  1.0
  C  C47  1  0.56302000  0.27659000  0.54175000  1.0
  C  C48  1  0.43259000  0.80157000  0.46069000  1.0
  C  C49  1  0.56632000  0.20040000  0.53737000  1.0
  C  C50  1  0.34187000  0.49951000  0.49505000  1.0
  C  C51  1  0.66448000  0.50749000  0.50648000  1.0
  C  C52  1  0.49242000  0.84360000  0.49823000  1.0
  C  C53  1  0.50856000  0.16148000  0.49504000  1.0
  C  C54  1  0.55488000  0.80602000  0.53376000  1.0
  C  C55  1  0.44979000  0.20172000  0.45802000  1.0
  C  C56  1  0.55663000  0.73001000  0.52977000  1.0
  C  C57  1  0.44996000  0.27753000  0.46475000  1.0
  C  C58  1  0.46487000  0.96874000  0.55246000  1.0
  C  C59  1  0.53310000  0.03664000  0.43855000  1.0
  C  C60  1  0.47012000  0.04498000  0.54969000  1.0
  C  C61  1  0.52696000  0.96028000  0.44090000  1.0
  C  C62  1  0.50492000  0.08016000  0.49311000  1.0
  C  C63  1  0.49347000  0.92507000  0.49803000  1.0
  C  C64  1  0.98144000  0.54883000  0.55307000  1.0
  C  C65  1  0.02519000  0.45565000  0.44965000  1.0
  C  C66  1  0.03555000  0.47957000  0.56245000  1.0
  C  C67  1  0.97110000  0.52476000  0.44039000  1.0
  C  C68  1  0.25184000  0.49873000  0.49291000  1.0
  C  C69  1  0.75457000  0.50779000  0.50835000  1.0
  C  C70  1  0.03242000  0.57098000  0.48893000  1.0
  C  C71  1  0.97437000  0.43338000  0.51393000  1.0
  C  C72  1  0.08907000  0.50097000  0.49736000  1.0
  C  C73  1  0.91745000  0.50370000  0.50540000  1.0
  C  C74  1  0.17641000  0.49925000  0.49396000  1.0
  C  C75  1  0.83000000  0.50586000  0.50787000  1.0
  C  C76  1  0.52313000  0.41816000  0.25477000  1.0
  C  C77  1  0.52715000  0.57398000  0.75168000  1.0
  S  S78  1  0.07923000  0.45187000  0.64274000  1.0
  S  S79  1  0.92995000  0.55568000  0.36066000  1.0
  S  S80  1  0.42575000  0.93126000  0.63073000  1.0
  S  S81  1  0.58663000  0.07540000  0.36710000  1.0
  S  S82  1  0.93135000  0.34510000  0.52880000  1.0
  S  S83  1  0.06875000  0.66046000  0.46933000  1.0
  S  S84  1  0.53997000  0.32927000  0.13864000  1.0
  S  S85  1  0.55787000  0.65398000  0.87281000  1.0
  Br  Br86  1  0.34449000  0.84599000  0.41160000  1.0
  Br  Br87  1  0.64969000  0.15187000  0.58836000  1.0
  Br  Br88  1  0.59614000  0.35342000  0.30112000  1.0
  Br  Br89  1  0.60990000  0.63433000  0.71100000  1.0
  N  N90  1  0.49894000  0.69091000  0.49298000  1.0
  N  N91  1  0.50532000  0.31364000  0.50632000  1.0
  O  O92  1  0.48247000  0.56929000  0.59704000  1.0
  O  O93  1  0.48300000  0.43163000  0.40523000  1.0
  O  O94  1  0.51604000  0.45004000  0.61195000  1.0
  O  O95  1  0.52069000  0.55096000  0.39118000  1.0
  O  O96  1  0.37723000  0.55810000  0.47453000  1.0
  O  O97  1  0.62945000  0.44487000  0.49877000  1.0
  O  O98  1  0.37575000  0.44202000  0.51757000  1.0
  O  O99  1  0.63011000  0.56939000  0.51221000  1.0
  O  O100  1  0.11920000  0.38317000  0.63110000  1.0
  O  O101  1  0.12213000  0.51411000  0.67326000  1.0
  O  O102  1  0.99678000  0.44001000  0.68568000  1.0
  O  O103  1  0.87830000  0.49996000  0.32883000  1.0
  O  O104  1  0.89709000  0.62817000  0.37450000  1.0
  O  O105  1  0.01163000  0.56317000  0.31727000  1.0
  O  O106  1  0.48791000  0.88514000  0.66111000  1.0
  O  O107  1  0.38980000  0.99024000  0.66850000  1.0
  O  O108  1  0.35027000  0.87913000  0.60178000  1.0
  O  O109  1  0.63929000  0.13570000  0.39097000  1.0
  O  O110  1  0.61964000  0.01589000  0.32784000  1.0
  O  O111  1  0.50812000  0.10857000  0.32528000  1.0
  O  O112  1  0.91175000  0.34151000  0.60102000  1.0
  O  O113  1  0.86989000  0.32821000  0.47600000  1.0
  O  O114  1  0.01000000  0.29337000  0.51803000  1.0
  O  O115  1  0.12200000  0.68905000  0.52340000  1.0
  O  O116  1  0.09886000  0.65625000  0.39896000  1.0
  O  O117  1  0.98532000  0.70468000  0.47033000  1.0
  O  O118  1  0.62312000  0.34106000  0.11460000  1.0
  O  O119  1  0.51759000  0.26652000  0.17860000  1.0
  O  O120  1  0.47678000  0.32340000  0.07326000  1.0
  O  O121  1  0.63885000  0.63403000  0.89868000  1.0
  O  O122  1  0.54458000  0.72008000  0.83549000  1.0
  O  O123  1  0.49609000  0.66090000  0.93680000  1.0
