# generated using pymatgen
data_Al2H11C20Br2NO10
_symmetry_space_group_name_H-M   'P 1'
_cell_length_a   6.63941000
_cell_length_b   11.07270583
_cell_length_c   11.09250000
_cell_angle_alpha   88.92658496
_cell_angle_beta   72.76950000
_cell_angle_gamma   73.67287509
_symmetry_Int_Tables_number   1
_chemical_formula_structural   Al2H11C20Br2NO10
_chemical_formula_sum   'Al2 H11 C20 Br2 N1 O10'
_cell_volume   745.61514887
_cell_formula_units_Z   1
loop_
 _symmetry_equiv_pos_site_id
 _symmetry_equiv_pos_as_xyz
  1  'x, y, z'
loop_
 _atom_site_type_symbol
 _atom_site_label
 _atom_site_symmetry_multiplicity
 _atom_site_fract_x
 _atom_site_fract_y
 _atom_site_fract_z
 _atom_site_occupancy
  Al  Al0  1  0.99717000  0.50374000  0.49642000  1.0
  Al  Al1  1  0.49748000  0.49939000  0.50089000  1.0
  H  H2  1  0.35169000  0.34902000  0.42467000  1.0
  H  H3  1  0.63461000  0.65438000  0.56881000  1.0
  H  H4  1  0.33666000  0.56105000  0.89169000  1.0
  H  H5  1  0.77242000  0.45684000  0.86680000  1.0
  H  H6  1  0.19305000  0.56531000  0.12961000  1.0
  H  H7  1  0.54111000  0.23922000  0.68535000  1.0
  H  H8  1  0.31778000  0.12451000  0.83306000  1.0
  H  H9  1  0.79863000  0.77028000  0.67833000  1.0
  H  H10  1  0.44787000  0.88917000  0.83010000  1.0
  H  H11  1  0.52543000  0.45810000  0.20551000  1.0
  H  H12  1  0.51276000  0.42643000  0.05455000  1.0
  C  C13  1  0.85986000  0.27577000  0.50718000  1.0
  C  C14  1  0.84996000  0.50192000  0.26984000  1.0
  C  C15  1  0.14120000  0.72723000  0.48983000  1.0
  C  C16  1  0.13975000  0.50519000  0.72647000  1.0
  C  C17  1  0.91337000  0.50595000  0.13102000  1.0
  C  C18  1  0.06251000  0.50564000  0.86704000  1.0
  C  C19  1  0.78697000  0.47547000  0.05824000  1.0
  C  C20  1  0.18622000  0.53632000  0.93916000  1.0
  C  C21  1  0.86635000  0.47786000  0.92525000  1.0
  C  C22  1  0.10744000  0.53783000  0.06965000  1.0
  C  C23  1  0.93381000  0.13439000  0.50312000  1.0
  C  C24  1  0.79966000  0.07065000  0.59047000  1.0
  C  C25  1  0.12885000  0.06665000  0.41499000  1.0
  C  C26  1  0.59825000  0.13672000  0.68184000  1.0
  C  C27  1  0.47314000  0.07228000  0.76476000  1.0
  C  C28  1  0.07253000  0.86865000  0.49450000  1.0
  C  C29  1  0.19765000  0.93263000  0.40966000  1.0
  C  C30  1  0.87187000  0.93555000  0.58709000  1.0
  C  C31  1  0.74206000  0.87248000  0.67688000  1.0
  C  C32  1  0.54602000  0.93932000  0.76277000  1.0
  Br  Br33  1  0.45407000  0.84026000  0.28185000  1.0
  Br  Br34  1  0.30034000  0.15127000  0.29391000  1.0
  N  N35  1  0.60044000  0.44085000  0.11072000  1.0
  O  O36  1  0.98760000  0.33381000  0.52749000  1.0
  O  O37  1  0.64740000  0.51115000  0.32770000  1.0
  O  O38  1  0.31967000  0.67262000  0.51319000  1.0
  O  O39  1  0.99369000  0.52752000  0.66941000  1.0
  O  O40  1  0.00986000  0.67314000  0.46718000  1.0
  O  O41  1  0.34661000  0.48410000  0.67404000  1.0
  O  O42  1  0.67424000  0.32688000  0.49035000  1.0
  O  O43  1  0.99994000  0.48704000  0.32367000  1.0
  O  O44  1  0.30290000  0.44000000  0.44341000  1.0
  O  O45  1  0.69134000  0.56329000  0.55354000  1.0
