# generated using pymatgen
data_GdH8C9NO10
_symmetry_space_group_name_H-M   'P 1'
_cell_length_a   10.06790000
_cell_length_b   10.40620000
_cell_length_c   11.74860000
_cell_angle_alpha   90.00000000
_cell_angle_beta   90.00000000
_cell_angle_gamma   90.90700000
_symmetry_Int_Tables_number   1
_chemical_formula_structural   GdH8C9NO10
_chemical_formula_sum   'Gd4 H32 C36 N4 O40'
_cell_volume   1230.72992811
_cell_formula_units_Z   4
loop_
 _symmetry_equiv_pos_site_id
 _symmetry_equiv_pos_as_xyz
  1  'x, y, z'
loop_
 _atom_site_type_symbol
 _atom_site_label
 _atom_site_symmetry_multiplicity
 _atom_site_fract_x
 _atom_site_fract_y
 _atom_site_fract_z
 _atom_site_occupancy
  Gd  Gd0  1  0.62301000  0.98028000  0.15697000  1.0
  Gd  Gd1  1  0.37699000  0.51972000  0.65697000  1.0
  Gd  Gd2  1  0.37699000  0.01972000  0.84303000  1.0
  Gd  Gd3  1  0.62301000  0.48028000  0.34303000  1.0
  H  H4  1  0.59925000  0.82118000  0.37447000  1.0
  H  H5  1  0.40075000  0.67882000  0.87447000  1.0
  H  H6  1  0.40075000  0.17882000  0.62553000  1.0
  H  H7  1  0.59925000  0.32118000  0.12553000  1.0
  H  H8  1  0.46726000  0.90169000  0.36364000  1.0
  H  H9  1  0.53274000  0.59831000  0.86364000  1.0
  H  H10  1  0.53274000  0.09831000  0.63636000  1.0
  H  H11  1  0.46726000  0.40169000  0.13636000  1.0
  H  H12  1  0.45376000  0.72804000  0.18228000  1.0
  H  H13  1  0.54624000  0.77196000  0.68228000  1.0
  H  H14  1  0.54624000  0.27196000  0.81772000  1.0
  H  H15  1  0.45376000  0.22804000  0.31772000  1.0
  H  H16  1  0.42342000  0.79398000  0.06080000  1.0
  H  H17  1  0.57658000  0.70602000  0.56080000  1.0
  H  H18  1  0.57658000  0.20602000  0.93920000  1.0
  H  H19  1  0.42342000  0.29398000  0.43920000  1.0
  H  H20  1  0.96645000  0.85510000  0.05222000  1.0
  H  H21  1  0.03355000  0.64490000  0.55222000  1.0
  H  H22  1  0.03355000  0.14490000  0.94778000  1.0
  H  H23  1  0.96645000  0.35510000  0.44778000  1.0
  H  H24  1  0.28781000  0.58736000  0.01588000  1.0
  H  H25  1  0.71219000  0.91264000  0.51588000  1.0
  H  H26  1  0.71219000  0.41264000  0.98412000  1.0
  H  H27  1  0.28781000  0.08736000  0.48412000  1.0
  H  H28  1  0.93783000  0.47936000  0.20700000  1.0
  H  H29  1  0.06217000  0.02064000  0.70700000  1.0
  H  H30  1  0.06217000  0.52064000  0.79300000  1.0
  H  H31  1  0.93783000  0.97936000  0.29300000  1.0
  H  H32  1  0.24703000  0.13325000  0.14834000  1.0
  H  H33  1  0.75297000  0.36675000  0.64834000  1.0
  H  H34  1  0.75296000  0.86675000  0.85166000  1.0
  H  H35  1  0.24703000  0.63325000  0.35166000  1.0
  C  C36  1  0.80216000  0.70123000  0.17824000  1.0
  C  C37  1  0.19785000  0.79877000  0.67824000  1.0
  C  C38  1  0.19785000  0.29877000  0.82176000  1.0
  C  C39  1  0.80216000  0.20123000  0.32176000  1.0
  C  C40  1  0.93730000  0.66991000  0.13242000  1.0
  C  C41  1  0.06270000  0.83009000  0.63242000  1.0
  C  C42  1  0.06271000  0.33009000  0.86758000  1.0
  C  C43  1  0.93730000  0.16991000  0.36758000  1.0
  C  C44  1  0.00869000  0.76090000  0.06833000  1.0
  C  C45  1  0.99131000  0.73910000  0.56833000  1.0
  C  C46  1  0.99131000  0.23910000  0.93167000  1.0
  C  C47  1  0.00869000  0.26090000  0.43168000  1.0
  C  C48  1  0.13521000  0.73254000  0.02635000  1.0
  C  C49  1  0.86479000  0.76746000  0.52635000  1.0
  C  C50  1  0.86479000  0.26746000  0.97365000  1.0
  C  C51  1  0.13521000  0.23254000  0.47365000  1.0
  C  C52  1  0.19080000  0.61311000  0.04879000  1.0
  C  C53  1  0.80920000  0.88689000  0.54879000  1.0
  C  C54  1  0.80920000  0.38689000  0.95121000  1.0
  C  C55  1  0.19080000  0.11311000  0.45121000  1.0
  C  C56  1  0.11833000  0.52483000  0.11388000  1.0
  C  C57  1  0.88167000  0.97517000  0.61388000  1.0
  C  C58  1  0.88167000  0.47517000  0.88612000  1.0
  C  C59  1  0.11833000  0.02483000  0.38612000  1.0
  C  C60  1  0.99211000  0.55026000  0.15618000  1.0
  C  C61  1  0.00789000  0.94974000  0.65618000  1.0
  C  C62  1  0.00789000  0.44974000  0.84382000  1.0
  C  C63  1  0.99211000  0.05026000  0.34382000  1.0
  C  C64  1  0.21219000  0.83159000  0.96095000  1.0
  C  C65  1  0.78781000  0.66841000  0.46095000  1.0
  C  C66  1  0.78781000  0.16841000  0.03905000  1.0
  C  C67  1  0.21219000  0.33159000  0.53905000  1.0
  C  C68  1  0.34974000  0.09931000  0.13888000  1.0
  C  C69  1  0.65026000  0.40069000  0.63888000  1.0
  C  C70  1  0.65026000  0.90069000  0.86112000  1.0
  C  C71  1  0.34974000  0.59931000  0.36112000  1.0
  N  N72  1  0.17769000  0.40032000  0.13688000  1.0
  N  N73  1  0.82231000  0.09968000  0.63688000  1.0
  N  N74  1  0.82231000  0.59968000  0.86312000  1.0
  N  N75  1  0.17769000  0.90032000  0.36312000  1.0
  O  O76  1  0.56196000  0.90256000  0.34496000  1.0
  O  O77  1  0.43804000  0.59744000  0.84496000  1.0
  O  O78  1  0.43804000  0.09744000  0.65504000  1.0
  O  O79  1  0.56197000  0.40256000  0.15504000  1.0
  O  O80  1  0.77199000  0.81940000  0.18151000  1.0
  O  O81  1  0.22801000  0.68060000  0.68151000  1.0
  O  O82  1  0.22801000  0.18060000  0.81849000  1.0
  O  O83  1  0.77199000  0.31940000  0.31849000  1.0
  O  O84  1  0.72860000  0.60900000  0.21050000  1.0
  O  O85  1  0.27140000  0.89100000  0.71051000  1.0
  O  O86  1  0.27140000  0.39100000  0.78950000  1.0
  O  O87  1  0.72860000  0.10900000  0.28950000  1.0
  O  O88  1  0.47076000  0.80481000  0.13425000  1.0
  O  O89  1  0.52924000  0.69519000  0.63425000  1.0
  O  O90  1  0.52924000  0.19519000  0.86575000  1.0
  O  O91  1  0.47076000  0.30481000  0.36575000  1.0
  O  O92  1  0.16034000  0.93530000  0.93123000  1.0
  O  O93  1  0.83967000  0.56470000  0.43123000  1.0
  O  O94  1  0.83967000  0.06470000  0.06877000  1.0
  O  O95  1  0.16033000  0.43530000  0.56877000  1.0
  O  O96  1  0.33647000  0.80937000  0.93796000  1.0
  O  O97  1  0.66353000  0.69063000  0.43797000  1.0
  O  O98  1  0.66353000  0.19063000  0.06204000  1.0
  O  O99  1  0.33647000  0.30937000  0.56204000  1.0
  O  O100  1  0.28757000  0.37754000  0.09266000  1.0
  O  O101  1  0.71243000  0.12246000  0.59266000  1.0
  O  O102  1  0.71243000  0.62246000  0.90734000  1.0
  O  O103  1  0.28757000  0.87754000  0.40734000  1.0
  O  O104  1  0.11573000  0.32246000  0.19743000  1.0
  O  O105  1  0.88427000  0.17753000  0.69743000  1.0
  O  O106  1  0.88427000  0.67754000  0.80257000  1.0
  O  O107  1  0.11573000  0.82246000  0.30257000  1.0
  O  O108  1  0.42505000  0.09742000  0.22621000  1.0
  O  O109  1  0.57495000  0.40257000  0.72621000  1.0
  O  O110  1  0.57495000  0.90257000  0.77379000  1.0
  O  O111  1  0.42505000  0.59743000  0.27379000  1.0
  O  O112  1  0.39034000  0.06223000  0.04252000  1.0
  O  O113  1  0.60965000  0.43777000  0.54252000  1.0
  O  O114  1  0.60966000  0.93777000  0.95748000  1.0
  O  O115  1  0.39034000  0.56223000  0.45748000  1.0
