# generated using pymatgen
data_NiH18C23(N2O3)2
_symmetry_space_group_name_H-M   'P 1'
_cell_length_a   7.98788000
_cell_length_b   10.04190000
_cell_length_c   12.80320000
_cell_angle_alpha   96.38800000
_cell_angle_beta   99.55660000
_cell_angle_gamma   92.75100000
_symmetry_Int_Tables_number   1
_chemical_formula_structural   NiH18C23(N2O3)2
_chemical_formula_sum   'Ni2 H36 C46 N8 O12'
_cell_volume   1004.13153158
_cell_formula_units_Z   2
loop_
 _symmetry_equiv_pos_site_id
 _symmetry_equiv_pos_as_xyz
  1  'x, y, z'
loop_
 _atom_site_type_symbol
 _atom_site_label
 _atom_site_symmetry_multiplicity
 _atom_site_fract_x
 _atom_site_fract_y
 _atom_site_fract_z
 _atom_site_occupancy
  Ni  Ni0  1  0.99440000  0.30350000  0.89718000  1.0
  Ni  Ni1  1  0.00560000  0.69650000  0.10282000  1.0
  H  H2  1  0.00136000  0.80551000  0.36460000  1.0
  H  H3  1  0.99863000  0.19450000  0.63540000  1.0
  H  H4  1  0.57920000  0.40430000  0.15705000  1.0
  H  H5  1  0.42081000  0.59570000  0.84295000  1.0
  H  H6  1  0.33432000  0.49339000  0.00435000  1.0
  H  H7  1  0.66568000  0.50661000  0.99565000  1.0
  H  H8  1  0.19983000  0.09035000  0.03723000  1.0
  H  H9  1  0.80017000  0.90966000  0.96277000  1.0
  H  H10  1  0.62512000  0.13727000  0.19876000  1.0
  H  H11  1  0.37488000  0.86274000  0.80125000  1.0
  H  H12  1  0.43054000  0.03784000  0.17571000  1.0
  H  H13  1  0.56946000  0.96216000  0.82429000  1.0
  H  H14  1  0.29710000  0.35152000  0.25757000  1.0
  H  H15  1  0.70290000  0.64849000  0.74243000  1.0
  H  H16  1  0.26554000  0.44269000  0.43976000  1.0
  H  H17  1  0.73446000  0.55731000  0.56024000  1.0
  H  H18  1  0.57403000  0.13947000  0.56780000  1.0
  H  H19  1  0.42596000  0.86053000  0.43220000  1.0
  H  H20  1  0.60868000  0.04987000  0.38624000  1.0
  H  H21  1  0.39132000  0.95013000  0.61376000  1.0
  H  H22  1  0.40435000  0.47100000  0.62858000  1.0
  H  H23  1  0.59565000  0.52900000  0.37142000  1.0
  H  H24  1  0.26538000  0.33296000  0.63943000  1.0
  H  H25  1  0.73462000  0.66704000  0.36058000  1.0
  H  H26  1  0.75638000  0.39383000  0.68196000  1.0
  H  H27  1  0.24362000  0.60617000  0.31805000  1.0
  H  H28  1  0.63643000  0.19467000  0.93557000  1.0
  H  H29  1  0.36357000  0.80532000  0.06443000  1.0
  H  H30  1  0.33448000  0.22460000  0.79584000  1.0
  H  H31  1  0.66553000  0.77538000  0.20416000  1.0
  H  H32  1  0.05350000  0.84973000  0.91849000  1.0
  H  H33  1  0.94650000  0.15027000  0.08151000  1.0
  H  H34  1  0.08545000  0.55659000  0.65150000  1.0
  H  H35  1  0.91455000  0.44341000  0.34850000  1.0
  H  H36  1  0.02654000  0.97046000  0.60391000  1.0
  H  H37  1  0.97345000  0.02954000  0.39608000  1.0
  C  C38  1  0.46580000  0.35333000  0.10793000  1.0
  C  C39  1  0.53420000  0.64667000  0.89207000  1.0
  C  C40  1  0.34514000  0.39546000  0.03144000  1.0
  C  C41  1  0.65486000  0.60455000  0.96856000  1.0
  C  C42  1  0.26967000  0.18744000  0.04490000  1.0
  C  C43  1  0.73033000  0.81256000  0.95510000  1.0
  C  C44  1  0.48770000  0.14105000  0.19829000  1.0
  C  C45  1  0.51230000  0.85895000  0.80171000  1.0
  C  C46  1  0.45713000  0.19505000  0.30845000  1.0
  C  C47  1  0.54287000  0.80495000  0.69155000  1.0
  C  C48  1  0.35907000  0.30452000  0.32504000  1.0
  C  C49  1  0.64093000  0.69548000  0.67496000  1.0
  C  C50  1  0.34097000  0.35626000  0.42784000  1.0
  C  C51  1  0.65902000  0.64374000  0.57216000  1.0
  C  C52  1  0.41829000  0.29865000  0.51649000  1.0
  C  C53  1  0.58170000  0.70136000  0.48351000  1.0
  C  C54  1  0.51219000  0.18645000  0.50010000  1.0
  C  C55  1  0.48781000  0.81355000  0.49990000  1.0
  C  C56  1  0.53153000  0.13549000  0.39717000  1.0
  C  C57  1  0.46846000  0.86451000  0.60283000  1.0
  C  C58  1  0.39365000  0.36094000  0.62542000  1.0
  C  C59  1  0.60634000  0.63906000  0.37458000  1.0
  C  C60  1  0.68414000  0.34576000  0.73377000  1.0
  C  C61  1  0.31586000  0.65424000  0.26623000  1.0
  C  C62  1  0.61578000  0.23876000  0.86147000  1.0
  C  C63  1  0.38422000  0.76124000  0.13853000  1.0
  C  C64  1  0.46664000  0.25295000  0.79403000  1.0
  C  C65  1  0.53336000  0.74704000  0.20597000  1.0
  C  C66  1  0.03568000  0.92548000  0.76595000  1.0
  C  C67  1  0.96432000  0.07452000  0.23405000  1.0
  C  C68  1  0.05407000  0.82488000  0.83365000  1.0
  C  C69  1  0.94593000  0.17512000  0.16635000  1.0
  C  C70  1  0.07218000  0.69202000  0.79326000  1.0
  C  C71  1  0.92782000  0.30798000  0.20674000  1.0
  C  C72  1  0.07683000  0.66027000  0.68452000  1.0
  C  C73  1  0.92316000  0.33973000  0.31548000  1.0
  C  C74  1  0.06198000  0.76125000  0.61694000  1.0
  C  C75  1  0.93801000  0.23875000  0.38306000  1.0
  C  C76  1  0.04088000  0.89355000  0.65753000  1.0
  C  C77  1  0.95911000  0.10645000  0.34247000  1.0
  C  C78  1  0.00937000  0.06451000  0.81183000  1.0
  C  C79  1  0.99063000  0.93549000  0.18816000  1.0
  C  C80  1  0.07693000  0.58607000  0.86840000  1.0
  C  C81  1  0.92307000  0.41393000  0.13160000  1.0
  C  C82  1  0.06192000  0.72597000  0.50058000  1.0
  C  C83  1  0.93808000  0.27403000  0.49941000  1.0
  N  N84  1  0.22376000  0.29126000  0.99237000  1.0
  N  N85  1  0.77624000  0.70875000  0.00763000  1.0
  N  N86  1  0.41637000  0.22116000  0.11565000  1.0
  N  N87  1  0.58363000  0.77884000  0.88435000  1.0
  N  N88  1  0.51197000  0.32105000  0.71384000  1.0
  N  N89  1  0.48803000  0.67894000  0.28617000  1.0
  N  N90  1  0.74959000  0.29672000  0.82286000  1.0
  N  N91  1  0.25041000  0.70328000  0.17713000  1.0
  O  O92  1  0.00655000  0.82503000  0.44393000  1.0
  O  O93  1  0.99345000  0.17497000  0.55607000  1.0
  O  O94  1  0.10485000  0.61855000  0.46104000  1.0
  O  O95  1  0.89514000  0.38146000  0.53896000  1.0
  O  O96  1  0.05730000  0.46394000  0.82540000  1.0
  O  O97  1  0.94269000  0.53606000  0.17460000  1.0
  O  O98  1  0.10228000  0.62440000  0.96744000  1.0
  O  O99  1  0.89772000  0.37560000  0.03256000  1.0
  O  O100  1  0.04915000  0.16656000  0.76557000  1.0
  O  O101  1  0.95086000  0.83344000  0.23443000  1.0
  O  O102  1  0.95261000  0.08177000  0.89892000  1.0
  O  O103  1  0.04740000  0.91823000  0.10108000  1.0
