# generated using pymatgen
data_Zn2H43C47(N5O4)2
_symmetry_space_group_name_H-M   'P 1'
_cell_length_a   10.74880000
_cell_length_b   15.41250000
_cell_length_c   28.92060000
_cell_angle_alpha   82.65340000
_cell_angle_beta   88.31890000
_cell_angle_gamma   84.31660000
_symmetry_Int_Tables_number   1
_chemical_formula_structural   Zn2H43C47(N5O4)2
_chemical_formula_sum   'Zn8 H172 C188 N40 O32'
_cell_volume   4727.79157199
_cell_formula_units_Z   4
loop_
 _symmetry_equiv_pos_site_id
 _symmetry_equiv_pos_as_xyz
  1  'x, y, z'
loop_
 _atom_site_type_symbol
 _atom_site_label
 _atom_site_symmetry_multiplicity
 _atom_site_fract_x
 _atom_site_fract_y
 _atom_site_fract_z
 _atom_site_occupancy
  Zn  Zn0  1  0.27835000  0.65136000  0.69163000  1.0
  Zn  Zn1  1  0.72165000  0.34864000  0.30837000  1.0
  Zn  Zn2  1  0.30402000  0.87129000  0.17914000  1.0
  Zn  Zn3  1  0.69598000  0.12871000  0.82086000  1.0
  Zn  Zn4  1  0.20626000  0.14550000  0.18950000  1.0
  Zn  Zn5  1  0.79374000  0.85450000  0.81050000  1.0
  Zn  Zn6  1  0.23286000  0.39373000  0.68449000  1.0
  Zn  Zn7  1  0.76712000  0.60628000  0.31551000  1.0
  H  H8  1  0.38588000  0.21259000  0.84032000  1.0
  H  H9  1  0.61413000  0.78741000  0.15968000  1.0
  H  H10  1  0.04147000  0.74346000  0.32009000  1.0
  H  H11  1  0.95853000  0.25654000  0.67991000  1.0
  H  H12  1  0.08728000  0.81284000  0.23954000  1.0
  H  H13  1  0.91272000  0.18716000  0.76046000  1.0
  H  H14  1  0.81707000  0.09845000  0.19472000  1.0
  H  H15  1  0.18293000  0.90155000  0.80528000  1.0
  H  H16  1  0.90822000  0.90282000  0.19275000  1.0
  H  H17  1  0.09177000  0.09718000  0.80724000  1.0
  H  H18  1  0.46304000  0.81311000  0.26682000  1.0
  H  H19  1  0.53697000  0.18689000  0.73318000  1.0
  H  H20  1  0.85744000  0.44744000  0.69289000  1.0
  H  H21  1  0.14256000  0.55256000  0.30711000  1.0
  H  H22  1  0.40487000  0.29836000  0.76237000  1.0
  H  H23  1  0.59514000  0.70165000  0.23763000  1.0
  H  H24  1  0.44044000  0.91177000  0.70117000  1.0
  H  H25  1  0.55957000  0.08823000  0.29883000  1.0
  H  H26  1  0.57554000  0.12072000  0.19231000  1.0
  H  H27  1  0.42446000  0.87928000  0.80769000  1.0
  H  H28  1  0.43738000  0.74231000  0.34751000  1.0
  H  H29  1  0.56262000  0.25769000  0.65249000  1.0
  H  H30  1  0.39588000  0.31850000  0.91579000  1.0
  H  H31  1  0.60412000  0.68149000  0.08421000  1.0
  H  H32  1  0.45267000  0.24520000  0.96536000  1.0
  H  H33  1  0.54732000  0.75480000  0.03464000  1.0
  H  H34  1  0.46858000  0.35958000  0.96176000  1.0
  H  H35  1  0.53141000  0.64042000  0.03824000  1.0
  H  H36  1  0.98389000  0.27974000  0.83181000  1.0
  H  H37  1  0.01611000  0.72026000  0.16819000  1.0
  H  H38  1  0.42115000  0.18352000  0.12179000  1.0
  H  H39  1  0.57885000  0.81648000  0.87820000  1.0
  H  H40  1  0.02289000  0.36288000  0.75436000  1.0
  H  H41  1  0.97711000  0.63712000  0.24565000  1.0
  H  H42  1  0.68277000  0.92632000  0.19769000  1.0
  H  H43  1  0.31723000  0.07369000  0.80231000  1.0
  H  H44  1  0.99260000  0.11706000  0.35140000  1.0
  H  H45  1  0.00740000  0.88294000  0.64860000  1.0
  H  H46  1  0.32437000  0.42271000  0.84154000  1.0
  H  H47  1  0.67563000  0.57729000  0.15846000  1.0
  H  H48  1  0.86119000  0.64713000  0.69373000  1.0
  H  H49  1  0.13879000  0.35286000  0.30627000  1.0
  H  H50  1  0.15971000  0.96133000  0.68263000  1.0
  H  H51  1  0.84029000  0.03868000  0.31737000  1.0
  H  H52  1  0.14931000  0.60268000  0.52819000  1.0
  H  H53  1  0.85069000  0.39733000  0.47181000  1.0
  H  H54  1  0.38053000  0.49216000  0.76247000  1.0
  H  H55  1  0.61947000  0.50784000  0.23753000  1.0
  H  H56  1  0.46037000  0.25297000  0.04044000  1.0
  H  H57  1  0.53962000  0.74702000  0.95956000  1.0
  H  H58  1  0.03905000  0.21762000  0.10512000  1.0
  H  H59  1  0.96095000  0.78238000  0.89488000  1.0
  H  H60  1  0.50146000  0.73997000  0.53249000  1.0
  H  H61  1  0.49854000  0.26002000  0.46751000  1.0
  H  H62  1  0.10393000  0.81524000  0.53282000  1.0
  H  H63  1  0.89607000  0.18476000  0.46718000  1.0
  H  H64  1  0.17273000  0.09139000  0.03298000  1.0
  H  H65  1  0.82727000  0.90862000  0.96702000  1.0
  H  H66  1  0.38496000  0.07519000  0.68491000  1.0
  H  H67  1  0.61504000  0.92481000  0.31509000  1.0
  H  H68  1  0.03441000  0.17879000  0.27047000  1.0
  H  H69  1  0.96559000  0.82121000  0.72953000  1.0
  H  H70  1  0.09672000  0.74107000  0.61550000  1.0
  H  H71  1  0.90327000  0.25893000  0.38450000  1.0
  H  H72  1  0.16040000  0.58194000  0.18114000  1.0
  H  H73  1  0.83961000  0.41806000  0.81886000  1.0
  H  H74  1  0.47636000  0.66985000  0.61477000  1.0
  H  H75  1  0.52363000  0.33015000  0.38522000  1.0
  H  H76  1  0.41792000  0.83633000  0.41307000  1.0
  H  H77  1  0.58208000  0.16366000  0.58693000  1.0
  H  H78  1  0.47141000  0.74646000  0.45534000  1.0
  H  H79  1  0.52859000  0.25354000  0.54466000  1.0
  H  H80  1  0.50159000  0.85541000  0.46224000  1.0
  H  H81  1  0.49841000  0.14459000  0.53776000  1.0
  H  H82  1  0.06028000  0.29308000  0.02338000  1.0
  H  H83  1  0.93971000  0.70692000  0.97662000  1.0
  H  H84  1  0.02671000  0.65208000  0.39869000  1.0
  H  H85  1  0.97329000  0.34793000  0.60131000  1.0
  H  H86  1  0.03315000  0.76586000  0.39837000  1.0
  H  H87  1  0.96685000  0.23415000  0.60163000  1.0
  H  H88  1  0.08889000  0.69061000  0.44791000  1.0
  H  H89  1  0.91112000  0.30939000  0.55209000  1.0
  H  H90  1  0.37699000  0.42941000  0.18347000  1.0
  H  H91  1  0.62302000  0.57059000  0.81653000  1.0
  H  H92  1  0.05151000  0.64646000  0.85063000  1.0
  H  H93  1  0.94849000  0.35354000  0.14936000  1.0
  H  H94  1  0.09170000  0.43398000  0.19797000  1.0
  H  H95  1  0.90831000  0.56602000  0.80203000  1.0
  H  H96  1  0.44532000  0.58410000  0.16680000  1.0
  H  H97  1  0.55468000  0.41591000  0.83320000  1.0
  H  H98  1  0.11707000  0.70497000  0.77152000  1.0
  H  H99  1  0.88293000  0.29503000  0.22848000  1.0
  H  H100  1  0.32058000  0.93274000  0.34096000  1.0
  H  H101  1  0.67942000  0.06726000  0.65904000  1.0
  H  H102  1  0.34791000  0.00234000  0.25947000  1.0
  H  H103  1  0.65209000  0.99765000  0.74053000  1.0
  H  H104  1  0.08920000  0.59703000  0.93871000  1.0
  H  H105  1  0.91080000  0.40297000  0.06129000  1.0
  H  H106  1  0.03561000  0.49444000  0.96239000  1.0
  H  H107  1  0.96440000  0.50556000  0.03761000  1.0
  H  H108  1  0.96842000  0.55535000  0.91058000  1.0
  H  H109  1  0.03159000  0.44465000  0.08942000  1.0
  H  H110  1  0.17349000  0.02779000  0.11653000  1.0
  H  H111  1  0.82651000  0.97221000  0.88347000  1.0
  H  H112  1  0.98438000  0.13989000  0.89394000  1.0
  H  H113  1  0.01563000  0.86011000  0.10606000  1.0
  H  H114  1  0.98455000  0.24802000  0.90715000  1.0
  H  H115  1  0.01545000  0.75198000  0.09285000  1.0
  H  H116  1  0.04578000  0.15732000  0.94837000  1.0
  H  H117  1  0.95423000  0.84268000  0.05163000  1.0
  H  H118  1  0.10466000  0.12531000  0.66643000  1.0
  H  H119  1  0.89534000  0.87469000  0.33358000  1.0
  H  H120  1  0.12184000  0.54852000  0.61226000  1.0
  H  H121  1  0.87817000  0.45148000  0.38774000  1.0
  H  H122  1  0.43113000  0.82137000  0.09121000  1.0
  H  H123  1  0.56888000  0.17863000  0.90879000  1.0
  H  H124  1  0.04341000  0.07818000  0.43907000  1.0
  H  H125  1  0.95659000  0.92181000  0.56093000  1.0
  H  H126  1  0.02610000  0.96843000  0.46478000  1.0
  H  H127  1  0.97390000  0.03156000  0.53522000  1.0
  H  H128  1  0.94248000  0.01510000  0.41326000  1.0
  H  H129  1  0.05753000  0.98490000  0.58674000  1.0
  H  H130  1  0.27803000  0.43262000  0.42563000  1.0
  H  H131  1  0.72197000  0.56737000  0.57437000  1.0
  H  H132  1  0.43030000  0.41881000  0.44878000  1.0
  H  H133  1  0.56970000  0.58119000  0.55123000  1.0
  H  H134  1  0.39142000  0.50254000  0.40134000  1.0
  H  H135  1  0.60858000  0.49745000  0.59866000  1.0
  H  H136  1  0.31379000  0.93249000  0.91557000  1.0
  H  H137  1  0.68621000  0.06751000  0.08443000  1.0
  H  H138  1  0.46284000  0.93933000  0.93896000  1.0
  H  H139  1  0.53716000  0.06067000  0.06104000  1.0
  H  H140  1  0.39837000  0.02360000  0.89554000  1.0
  H  H141  1  0.60162000  0.97640000  0.10446000  1.0
  H  H142  1  0.44410000  0.87704000  0.00629000  1.0
  H  H143  1  0.55591000  0.12296000  0.99371000  1.0
  H  H144  1  0.44064000  0.38983000  0.52161000  1.0
  H  H145  1  0.55935000  0.61016000  0.47839000  1.0
  H  H146  1  0.39927000  0.34397000  0.60629000  1.0
  H  H147  1  0.60071000  0.65602000  0.39372000  1.0
  H  H148  1  0.64155000  0.60051000  0.69068000  1.0
  H  H149  1  0.35844000  0.39949000  0.30932000  1.0
  H  H150  1  0.64839000  0.39896000  0.69471000  1.0
  H  H151  1  0.35160000  0.60104000  0.30529000  1.0
  H  H152  1  0.67901000  0.81868000  0.61818000  1.0
  H  H153  1  0.32098000  0.18132000  0.38182000  1.0
  H  H154  1  0.85681000  0.70402000  0.61579000  1.0
  H  H155  1  0.14319000  0.29598000  0.38421000  1.0
  H  H156  1  0.47997000  0.88433000  0.60480000  1.0
  H  H157  1  0.52002000  0.11567000  0.39520000  1.0
  H  H158  1  0.43209000  0.99436000  0.58025000  1.0
  H  H159  1  0.56790000  0.00564000  0.41975000  1.0
  H  H160  1  0.57588000  0.96879000  0.61064000  1.0
  H  H161  1  0.42411000  0.03121000  0.38936000  1.0
  H  H162  1  0.90338000  0.76305000  0.47308000  1.0
  H  H163  1  0.09662000  0.23695000  0.52693000  1.0
  H  H164  1  0.72889000  0.88280000  0.46920000  1.0
  H  H165  1  0.27111000  0.11720000  0.53080000  1.0
  H  H166  1  0.29572000  0.64100000  0.02713000  1.0
  H  H167  1  0.70428000  0.35900000  0.97287000  1.0
  H  H168  1  0.35430000  0.68615000  0.87772000  1.0
  H  H169  1  0.64570000  0.31385000  0.12228000  1.0
  H  H170  1  0.57341000  0.49660000  0.92096000  1.0
  H  H171  1  0.42659000  0.50340000  0.07904000  1.0
  H  H172  1  0.54963000  0.60877000  0.89574000  1.0
  H  H173  1  0.45037000  0.39122000  0.10426000  1.0
  H  H174  1  0.43710000  0.53612000  0.88788000  1.0
  H  H175  1  0.56291000  0.46388000  0.11212000  1.0
  H  H176  1  0.14048000  0.77312000  0.01929000  1.0
  H  H177  1  0.85951000  0.22688000  0.98071000  1.0
  H  H178  1  0.19202000  0.81268000  0.87608000  1.0
  H  H179  1  0.80798000  0.18732000  0.12392000  1.0
  C  C180  1  0.18304000  0.23921000  0.84383000  1.0
  C  C181  1  0.81696000  0.76079000  0.15617000  1.0
  C  C182  1  0.30337000  0.78405000  0.52545000  1.0
  C  C183  1  0.69663000  0.21594000  0.47455000  1.0
  C  C184  1  0.15483000  0.01853000  0.35394000  1.0
  C  C185  1  0.84517000  0.98147000  0.64606000  1.0
  C  C186  1  0.18317000  0.52800000  0.85362000  1.0
  C  C187  1  0.81683000  0.47200000  0.14638000  1.0
  C  C188  1  0.30216000  0.24464000  0.82297000  1.0
  C  C189  1  0.69785000  0.75536000  0.17702000  1.0
  C  C190  1  0.13680000  0.75830000  0.31021000  1.0
  C  C191  1  0.86320000  0.24170000  0.68979000  1.0
  C  C192  1  0.16637000  0.18856000  0.89006000  1.0
  C  C193  1  0.83363000  0.81144000  0.10994000  1.0
  C  C194  1  0.16115000  0.79638000  0.26505000  1.0
  C  C195  1  0.83885000  0.20362000  0.73495000  1.0
  C  C196  1  0.31864000  0.70571000  0.16509000  1.0
  C  C197  1  0.68137000  0.29430000  0.83491000  1.0
  C  C198  1  0.23593000  0.73760000  0.34154000  1.0
  C  C199  1  0.76407000  0.26240000  0.65846000  1.0
  C  C200  1  0.31224000  0.82698000  0.47696000  1.0
  C  C201  1  0.68776000  0.17302000  0.52304000  1.0
  C  C202  1  0.80904000  0.02824000  0.19490000  1.0
  C  C203  1  0.19096000  0.97177000  0.80510000  1.0
  C  C204  1  0.21256000  0.69470000  0.38908000  1.0
  C  C205  1  0.78744000  0.30530000  0.61092000  1.0
  C  C206  1  0.91398000  0.97339000  0.19160000  1.0
  C  C207  1  0.08602000  0.02661000  0.80840000  1.0
  C  C208  1  0.37132000  0.79615000  0.27993000  1.0
  C  C209  1  0.62868000  0.20384000  0.72007000  1.0
  C  C210  1  0.68380000  0.53265000  0.69204000  1.0
  C  C211  1  0.31620000  0.46735000  0.30796000  1.0
  C  C212  1  0.81760000  0.51556000  0.69305000  1.0
  C  C213  1  0.18240000  0.48444000  0.30695000  1.0
  C  C214  1  0.31372000  0.29219000  0.77922000  1.0
  C  C215  1  0.68628000  0.70782000  0.22077000  1.0
  C  C216  1  0.34193000  0.90350000  0.69667000  1.0
  C  C217  1  0.65807000  0.09650000  0.30333000  1.0
  C  C218  1  0.57886000  0.04938000  0.19374000  1.0
  C  C219  1  0.42113000  0.95063000  0.80626000  1.0
  C  C220  1  0.28175000  0.32316000  0.97709000  1.0
  C  C221  1  0.71825000  0.67684000  0.02291000  1.0
  C  C222  1  0.35582000  0.75710000  0.32548000  1.0
  C  C223  1  0.64418000  0.24289000  0.67451000  1.0
  C  C224  1  0.40705000  0.31065000  0.95368000  1.0
  C  C225  1  0.59294000  0.68935000  0.04632000  1.0
  C  C226  1  0.14987000  0.48820000  0.90105000  1.0
  C  C227  1  0.85013000  0.51179000  0.09895000  1.0
  C  C228  1  0.07995000  0.28235000  0.81868000  1.0
  C  C229  1  0.92005000  0.71765000  0.18133000  1.0
  C  C230  1  0.30840000  0.81190000  0.70049000  1.0
  C  C231  1  0.69160000  0.18811000  0.29951000  1.0
  C  C232  1  0.13791000  0.97758000  0.40248000  1.0
  C  C233  1  0.86209000  0.02242000  0.59752000  1.0
  C  C234  1  0.34440000  0.20844000  0.09846000  1.0
  C  C235  1  0.65560000  0.79156000  0.90153000  1.0
  C  C236  1  0.10025000  0.32839000  0.77495000  1.0
  C  C237  1  0.89975000  0.67161000  0.22505000  1.0
  C  C238  1  0.68750000  0.99712000  0.19653000  1.0
  C  C239  1  0.31250000  0.00288000  0.80346000  1.0
  C  C240  1  0.26244000  0.27958000  0.02480000  1.0
  C  C241  1  0.73756000  0.72042000  0.97520000  1.0
  C  C242  1  0.07412000  0.08908000  0.33324000  1.0
  C  C243  1  0.92588000  0.91092000  0.66676000  1.0
  C  C244  1  0.27777000  0.48604000  0.82742000  1.0
  C  C245  1  0.72223000  0.51396000  0.17259000  1.0
  C  C246  1  0.89662000  0.57842000  0.69302000  1.0
  C  C247  1  0.10338000  0.42158000  0.30698000  1.0
  C  C248  1  0.04086000  0.00296000  0.18545000  1.0
  C  C249  1  0.95914000  0.99704000  0.81455000  1.0
  C  C250  1  0.21034000  0.30922000  0.19870000  1.0
  C  C251  1  0.78967000  0.69078000  0.80130000  1.0
  C  C252  1  0.60897000  0.46727000  0.69195000  1.0
  C  C253  1  0.39103000  0.53273000  0.30805000  1.0
  C  C254  1  0.25723000  0.97358000  0.68627000  1.0
  C  C255  1  0.74277000  0.02642000  0.31373000  1.0
  C  C256  1  0.31032000  0.99076000  0.01217000  1.0
  C  C257  1  0.68968000  0.00925000  0.98783000  1.0
  C  C258  1  0.20751000  0.54544000  0.54411000  1.0
  C  C259  1  0.79249000  0.45456000  0.45589000  1.0
  C  C260  1  0.30921000  0.52478000  0.78336000  1.0
  C  C261  1  0.69079000  0.47522000  0.21665000  1.0
  C  C262  1  0.03435000  0.55942000  0.69015000  1.0
  C  C263  1  0.96564000  0.44058000  0.30985000  1.0
  C  C264  1  0.29824000  0.50113000  0.51746000  1.0
  C  C265  1  0.70176000  0.49887000  0.48254000  1.0
  C  C266  1  0.31587000  0.53208000  0.46744000  1.0
  C  C267  1  0.68413000  0.46792000  0.53256000  1.0
  C  C268  1  0.36483000  0.24706000  0.05312000  1.0
  C  C269  1  0.63516000  0.75294000  0.94688000  1.0
  C  C270  1  0.13041000  0.22883000  0.08946000  1.0
  C  C271  1  0.86959000  0.77118000  0.91054000  1.0
  C  C272  1  0.23917000  0.22478000  0.66786000  1.0
  C  C273  1  0.76083000  0.77522000  0.33214000  1.0
  C  C274  1  0.40924000  0.74196000  0.54916000  1.0
  C  C275  1  0.59076000  0.25804000  0.45084000  1.0
  C  C276  1  0.18861000  0.78440000  0.54996000  1.0
  C  C277  1  0.81139000  0.21559000  0.45003000  1.0
  C  C278  1  0.47122000  0.48208000  0.68864000  1.0
  C  C279  1  0.52878000  0.51792000  0.31136000  1.0
  C  C280  1  0.23225000  0.03172000  0.04446000  1.0
  C  C281  1  0.76775000  0.96828000  0.95554000  1.0
  C  C282  1  0.28774000  0.06299000  0.68033000  1.0
  C  C283  1  0.71226000  0.93701000  0.31967000  1.0
  C  C284  1  0.09687000  0.12485000  0.28737000  1.0
  C  C285  1  0.90313000  0.87515000  0.71263000  1.0
  C  C286  1  0.18412000  0.74361000  0.59551000  1.0
  C  C287  1  0.81588000  0.25639000  0.40449000  1.0
  C  C288  1  0.45889000  0.01253000  0.18871000  1.0
  C  C289  1  0.54111000  0.98747000  0.81129000  1.0
  C  C290  1  0.25741000  0.55355000  0.17842000  1.0
  C  C291  1  0.74260000  0.44645000  0.82158000  1.0
  C  C292  1  0.39673000  0.70311000  0.59501000  1.0
  C  C293  1  0.60327000  0.29689000  0.40499000  1.0
  C  C294  1  0.43255000  0.81539000  0.45020000  1.0
  C  C295  1  0.56745000  0.18461000  0.54980000  1.0
  C  C296  1  0.14248000  0.26984000  0.04414000  1.0
  C  C297  1  0.85752000  0.73016000  0.95586000  1.0
  C  C298  1  0.08298000  0.70143000  0.40975000  1.0
  C  C299  1  0.91702000  0.29857000  0.59025000  1.0
  C  C300  1  0.28085000  0.45950000  0.18556000  1.0
  C  C301  1  0.71915000  0.54050000  0.81444000  1.0
  C  C302  1  0.31476000  0.02893000  0.96282000  1.0
  C  C303  1  0.68524000  0.97107000  0.03718000  1.0
  C  C304  1  0.12609000  0.60916000  0.83330000  1.0
  C  C305  1  0.87391000  0.39084000  0.16670000  1.0
  C  C306  1  0.18856000  0.40619000  0.19480000  1.0
  C  C307  1  0.81145000  0.59381000  0.80520000  1.0
  C  C308  1  0.34694000  0.60913000  0.16898000  1.0
  C  C309  1  0.65307000  0.39088000  0.83103000  1.0
  C  C310  1  0.16244000  0.64327000  0.78851000  1.0
  C  C311  1  0.83756000  0.35673000  0.21149000  1.0
  C  C312  1  0.25624000  0.98787000  0.32664000  1.0
  C  C313  1  0.74376000  0.01213000  0.67335000  1.0
  C  C314  1  0.27197000  0.02692000  0.28137000  1.0
  C  C315  1  0.72802000  0.97308000  0.71863000  1.0
  C  C316  1  0.05532000  0.53617000  0.93001000  1.0
  C  C317  1  0.94468000  0.46383000  0.06999000  1.0
  C  C318  1  0.23124000  0.99601000  0.09088000  1.0
  C  C319  1  0.76876000  0.00399000  0.90912000  1.0
  C  C320  1  0.03823000  0.18317000  0.91133000  1.0
  C  C321  1  0.96178000  0.81683000  0.08867000  1.0
  C  C322  1  0.20350000  0.13359000  0.67037000  1.0
  C  C323  1  0.79651000  0.86641000  0.32963000  1.0
  C  C324  1  0.19109000  0.51490000  0.59090000  1.0
  C  C325  1  0.80890000  0.48511000  0.40909000  1.0
  C  C326  1  0.37547000  0.88094000  0.07645000  1.0
  C  C327  1  0.62454000  0.11907000  0.92355000  1.0
  C  C328  1  0.03119000  0.01126000  0.43173000  1.0
  C  C329  1  0.96882000  0.98874000  0.56827000  1.0
  C  C330  1  0.35693000  0.46812000  0.43395000  1.0
  C  C331  1  0.64306000  0.53188000  0.56605000  1.0
  C  C332  1  0.37661000  0.97811000  0.92635000  1.0
  C  C333  1  0.62339000  0.02188000  0.07365000  1.0
  C  C334  1  0.38196000  0.91269000  0.02927000  1.0
  C  C335  1  0.61805000  0.08731000  0.97073000  1.0
  C  C336  1  0.36801000  0.42681000  0.54009000  1.0
  C  C337  1  0.63199000  0.57319000  0.45991000  1.0
  C  C338  1  0.34661000  0.40100000  0.58729000  1.0
  C  C339  1  0.65338000  0.59900000  0.41271000  1.0
  C  C340  1  0.68729000  0.86125000  0.54334000  1.0
  C  C341  1  0.31271000  0.13875000  0.45666000  1.0
  C  C342  1  0.57964000  0.92933000  0.54223000  1.0
  C  C343  1  0.42036000  0.07067000  0.45777000  1.0
  C  C344  1  0.72572000  0.80948000  0.58496000  1.0
  C  C345  1  0.27427000  0.19052000  0.41504000  1.0
  C  C346  1  0.82562000  0.74450000  0.58365000  1.0
  C  C347  1  0.17438000  0.25550000  0.41636000  1.0
  C  C348  1  0.51236000  0.94548000  0.58680000  1.0
  C  C349  1  0.48763000  0.05453000  0.41320000  1.0
  C  C350  1  0.85157000  0.77728000  0.50474000  1.0
  C  C351  1  0.14843000  0.22272000  0.49526000  1.0
  C  C352  1  0.75413000  0.84409000  0.50236000  1.0
  C  C353  1  0.24587000  0.15591000  0.49765000  1.0
  C  C354  1  0.27627000  0.67810000  0.99307000  1.0
  C  C355  1  0.72373000  0.32190000  0.00693000  1.0
  C  C356  1  0.33996000  0.65201000  0.95312000  1.0
  C  C357  1  0.66003000  0.34799000  0.04688000  1.0
  C  C358  1  0.43576000  0.57565000  0.95637000  1.0
  C  C359  1  0.56424000  0.42435000  0.04363000  1.0
  C  C360  1  0.30938000  0.70223000  0.91021000  1.0
  C  C361  1  0.69062000  0.29777000  0.08979000  1.0
  C  C362  1  0.50332000  0.55245000  0.91300000  1.0
  C  C363  1  0.49668000  0.44755000  0.08700000  1.0
  C  C364  1  0.18916000  0.75155000  0.98844000  1.0
  C  C365  1  0.81083000  0.24845000  0.01156000  1.0
  C  C366  1  0.21873000  0.77387000  0.90926000  1.0
  C  C367  1  0.78127000  0.22613000  0.09074000  1.0
  N  N368  1  0.19435000  0.09477000  0.26171000  1.0
  N  N369  1  0.80565000  0.90523000  0.73829000  1.0
  N  N370  1  0.25248000  0.60211000  0.76366000  1.0
  N  N371  1  0.74752000  0.39789000  0.23634000  1.0
  N  N372  1  0.28623000  0.70333000  0.61788000  1.0
  N  N373  1  0.71377000  0.29667000  0.38212000  1.0
  N  N374  1  0.27588000  0.81576000  0.24996000  1.0
  N  N375  1  0.72412000  0.18424000  0.75004000  1.0
  N  N376  1  0.21464000  0.33374000  0.75527000  1.0
  N  N377  1  0.78536000  0.66626000  0.24473000  1.0
  N  N378  1  0.25903000  0.44393000  0.61241000  1.0
  N  N379  1  0.74097000  0.55607000  0.38759000  1.0
  N  N380  1  0.25990000  0.10821000  0.95346000  1.0
  N  N381  1  0.74011000  0.89180000  0.04654000  1.0
  N  N382  1  0.26733000  0.14931000  0.90993000  1.0
  N  N383  1  0.73267000  0.85069000  0.09008000  1.0
  N  N384  1  0.22934000  0.19879000  0.11641000  1.0
  N  N385  1  0.77066000  0.80121000  0.88359000  1.0
  N  N386  1  0.30163000  0.92160000  0.10705000  1.0
  N  N387  1  0.69837000  0.07840000  0.89295000  1.0
  N  N388  1  0.28912000  0.61570000  0.45535000  1.0
  N  N389  1  0.71088000  0.38430000  0.54465000  1.0
  N  N390  1  0.21129000  0.87460000  0.46117000  1.0
  N  N391  1  0.78872000  0.12539000  0.53884000  1.0
  N  N392  1  0.30718000  0.65030000  0.41084000  1.0
  N  N393  1  0.69282000  0.34970000  0.58916000  1.0
  N  N394  1  0.18638000  0.37292000  0.95825000  1.0
  N  N395  1  0.81361000  0.62708000  0.04174000  1.0
  N  N396  1  0.22277000  0.91381000  0.41629000  1.0
  N  N397  1  0.77723000  0.08619000  0.58371000  1.0
  N  N398  1  0.21050000  0.41225000  0.91448000  1.0
  N  N399  1  0.78949000  0.58774000  0.08552000  1.0
  N  N400  1  0.55076000  0.96908000  0.50072000  1.0
  N  N401  1  0.44923000  0.03092000  0.49928000  1.0
  N  N402  1  0.88831000  0.72717000  0.54453000  1.0
  N  N403  1  0.11169000  0.27283000  0.45548000  1.0
  N  N404  1  0.45498000  0.53509000  0.99844000  1.0
  N  N405  1  0.54502000  0.46491000  0.00156000  1.0
  N  N406  1  0.15910000  0.79952000  0.94736000  1.0
  N  N407  1  0.84090000  0.20047000  0.05264000  1.0
  O  O408  1  0.31937000  0.27006000  0.19870000  1.0
  O  O409  1  0.68064000  0.72995000  0.80130000  1.0
  O  O410  1  0.19413000  0.79590000  0.70158000  1.0
  O  O411  1  0.80588000  0.20410000  0.29842000  1.0
  O  O412  1  0.41244000  0.75109000  0.16708000  1.0
  O  O413  1  0.58757000  0.24891000  0.83292000  1.0
  O  O414  1  0.41334000  0.41322000  0.69785000  1.0
  O  O415  1  0.58665000  0.58678000  0.30215000  1.0
  O  O416  1  0.36443000  0.06578000  0.17635000  1.0
  O  O417  1  0.63556000  0.93422000  0.82365000  1.0
  O  O418  1  0.05046000  0.08562000  0.17613000  1.0
  O  O419  1  0.94955000  0.91438000  0.82387000  1.0
  O  O420  1  0.14762000  0.28655000  0.66652000  1.0
  O  O421  1  0.85239000  0.71346000  0.33348000  1.0
  O  O422  1  0.42152000  0.55993000  0.67717000  1.0
  O  O423  1  0.57847000  0.44006000  0.32283000  1.0
  O  O424  1  0.20700000  0.74100000  0.16197000  1.0
  O  O425  1  0.79301000  0.25900000  0.83802000  1.0
  O  O426  1  0.35241000  0.23905000  0.66876000  1.0
  O  O427  1  0.64759000  0.76094000  0.33125000  1.0
  O  O428  1  0.07957000  0.47923000  0.69561000  1.0
  O  O429  1  0.92042000  0.52077000  0.30439000  1.0
  O  O430  1  0.11094000  0.26765000  0.19968000  1.0
  O  O431  1  0.88907000  0.73235000  0.80032000  1.0
  O  O432  1  0.09564000  0.62644000  0.68082000  1.0
  O  O433  1  0.90436000  0.37356000  0.31918000  1.0
  O  O434  1  0.13086000  0.94282000  0.18903000  1.0
  O  O435  1  0.86915000  0.05718000  0.81097000  1.0
  O  O436  1  0.39882000  0.75070000  0.70052000  1.0
  O  O437  1  0.60119000  0.24930000  0.29948000  1.0
  O  O438  1  0.45775000  0.92887000  0.19549000  1.0
  O  O439  1  0.54225000  0.07114000  0.80451000  1.0
