# generated using pymatgen
data_AlH9C27(OF)6
_symmetry_space_group_name_H-M   'P 1'
_cell_length_a   4.01703000
_cell_length_b   16.06570000
_cell_length_c   16.06570000
_cell_angle_alpha   119.88000000
_cell_angle_beta   90.81490000
_cell_angle_gamma   90.81280000
_symmetry_Int_Tables_number   1
_chemical_formula_structural   AlH9C27(OF)6
_chemical_formula_sum   'Al1 H9 C27 O6 F6'
_cell_volume   898.63683820
_cell_formula_units_Z   1
loop_
 _symmetry_equiv_pos_site_id
 _symmetry_equiv_pos_as_xyz
  1  'x, y, z'
loop_
 _atom_site_type_symbol
 _atom_site_label
 _atom_site_symmetry_multiplicity
 _atom_site_fract_x
 _atom_site_fract_y
 _atom_site_fract_z
 _atom_site_occupancy
  Al  Al0  1  0.00000000  0.49975000  0.50017000  1.0
  H  H1  1  0.50002000  0.92248000  0.07740000  1.0
  H  H2  1  0.47843000  0.65514000  0.07736000  1.0
  H  H3  1  0.52151000  0.92253000  0.34473000  1.0
  H  H4  1  0.76009000  0.05932000  0.16220000  1.0
  H  H5  1  0.23054000  0.05257000  0.39292000  1.0
  H  H6  1  0.24001000  0.83773000  0.94059000  1.0
  H  H7  1  0.76919000  0.60695000  0.94734000  1.0
  H  H8  1  0.75144000  0.60404000  0.16044000  1.0
  H  H9  1  0.24854000  0.83947000  0.39587000  1.0
  C  C10  1  0.51223000  0.57314000  0.64732000  1.0
  C  C11  1  0.50000000  0.57313000  0.42682000  1.0
  C  C12  1  0.48779000  0.35260000  0.42677000  1.0
  C  C13  1  0.49984000  0.78272000  0.06521000  1.0
  C  C14  1  0.49997000  0.88330000  0.11657000  1.0
  C  C15  1  0.50010000  0.93467000  0.21715000  1.0
  C  C16  1  0.50466000  0.88328000  0.26653000  1.0
  C  C17  1  0.49998000  0.78263000  0.21724000  1.0
  C  C18  1  0.49525000  0.73334000  0.11659000  1.0
  C  C19  1  0.62468000  0.19329000  0.28134000  1.0
  C  C20  1  0.63467000  0.09385000  0.23056000  1.0
  C  C21  1  0.49670000  0.04078000  0.27006000  1.0
  C  C22  1  0.35197000  0.09026000  0.36064000  1.0
  C  C23  1  0.35155000  0.18981000  0.40915000  1.0
  C  C24  1  0.48613000  0.24463000  0.37189000  1.0
  C  C25  1  0.36542000  0.76936000  0.90605000  1.0
  C  C26  1  0.37537000  0.71857000  0.80660000  1.0
  C  C27  1  0.51378000  0.62801000  0.75528000  1.0
  C  C28  1  0.64834000  0.59073000  0.81009000  1.0
  C  C29  1  0.64792000  0.63924000  0.90963000  1.0
  C  C30  1  0.50328000  0.72983000  0.95911000  1.0
  C  C31  1  0.63573000  0.63786000  0.23031000  1.0
  C  C32  1  0.63471000  0.58927000  0.28136000  1.0
  C  C33  1  0.50001000  0.62665000  0.37328000  1.0
  C  C34  1  0.36529000  0.71857000  0.41064000  1.0
  C  C35  1  0.36425000  0.76961000  0.36205000  1.0
  C  C36  1  0.49998000  0.72954000  0.27036000  1.0
  O  O37  1  0.25002000  0.39301000  0.40919000  1.0
  O  O38  1  0.27185000  0.51381000  0.60577000  1.0
  O  O39  1  0.26861000  0.59017000  0.48615000  1.0
  O  O40  1  0.72823000  0.39411000  0.48609000  1.0
  O  O41  1  0.73140000  0.51378000  0.40978000  1.0
  O  O42  1  0.75005000  0.59074000  0.60694000  1.0
  F  F43  1  0.21043000  0.23650000  0.49663000  1.0
  F  F44  1  0.75981000  0.24341000  0.24210000  1.0
  F  F45  1  0.24038000  0.75780000  0.75646000  1.0
  F  F46  1  0.78931000  0.50324000  0.76338000  1.0
  F  F47  1  0.76703000  0.50092000  0.23832000  1.0
  F  F48  1  0.23300000  0.76161000  0.49901000  1.0
