# generated using pymatgen
data_HgH5C6NCl2O
_symmetry_space_group_name_H-M   'P 1'
_cell_length_a   7.80323000
_cell_length_b   7.80331000
_cell_length_c   15.12430000
_cell_angle_alpha   86.05350000
_cell_angle_beta   86.05620000
_cell_angle_gamma   81.79690000
_symmetry_Int_Tables_number   1
_chemical_formula_structural   HgH5C6NCl2O
_chemical_formula_sum   'Hg4 H20 C24 N4 Cl8 O4'
_cell_volume   907.72771494
_cell_formula_units_Z   4
loop_
 _symmetry_equiv_pos_site_id
 _symmetry_equiv_pos_as_xyz
  1  'x, y, z'
loop_
 _atom_site_type_symbol
 _atom_site_label
 _atom_site_symmetry_multiplicity
 _atom_site_fract_x
 _atom_site_fract_y
 _atom_site_fract_z
 _atom_site_occupancy
  Hg  Hg0  1  0.12587000  0.98800000  0.12456000  1.0
  Hg  Hg1  1  0.01194000  0.87413000  0.37546000  1.0
  Hg  Hg2  1  0.87414000  0.01198000  0.87545000  1.0
  Hg  Hg3  1  0.98803000  0.12586000  0.62455000  1.0
  H  H4  1  0.13080000  0.59066000  0.15483000  1.0
  H  H5  1  0.40925000  0.86925000  0.34519000  1.0
  H  H6  1  0.86923000  0.40931000  0.84516000  1.0
  H  H7  1  0.59071000  0.13078000  0.65482000  1.0
  H  H8  1  0.33195000  0.31054000  0.15441000  1.0
  H  H9  1  0.68941000  0.66811000  0.34559000  1.0
  H  H10  1  0.66807000  0.68943000  0.84558000  1.0
  H  H11  1  0.31058000  0.33194000  0.65440000  1.0
  H  H12  1  0.65089000  0.31653000  0.11757000  1.0
  H  H13  1  0.68343000  0.34918000  0.38241000  1.0
  H  H14  1  0.34915000  0.68345000  0.88242000  1.0
  H  H15  1  0.31656000  0.65087000  0.61757000  1.0
  H  H16  1  0.75482000  0.60829000  0.08789000  1.0
  H  H17  1  0.39171000  0.24520000  0.41210000  1.0
  H  H18  1  0.24519000  0.39171000  0.91211000  1.0
  H  H19  1  0.60831000  0.75481000  0.58789000  1.0
  H  H20  1  0.70063000  0.91242000  0.07463000  1.0
  H  H21  1  0.08755000  0.29937000  0.42538000  1.0
  H  H22  1  0.29939000  0.08757000  0.92538000  1.0
  H  H23  1  0.91245000  0.70062000  0.57464000  1.0
  C  C24  1  0.27012000  0.58787000  0.14094000  1.0
  C  C25  1  0.41206000  0.72991000  0.35907000  1.0
  C  C26  1  0.72989000  0.41212000  0.85905000  1.0
  C  C27  1  0.58792000  0.27012000  0.64093000  1.0
  C  C28  1  0.38351000  0.43226000  0.13999000  1.0
  C  C29  1  0.56769000  0.61654000  0.36001000  1.0
  C  C30  1  0.61650000  0.56775000  0.86000000  1.0
  C  C31  1  0.43227000  0.38350000  0.63999000  1.0
  C  C32  1  0.55995000  0.43608000  0.12032000  1.0
  C  C33  1  0.56390000  0.44009000  0.37967000  1.0
  C  C34  1  0.44008000  0.56393000  0.87966000  1.0
  C  C35  1  0.43611000  0.55994000  0.62032000  1.0
  C  C36  1  0.61828000  0.59670000  0.10356000  1.0
  C  C37  1  0.40327000  0.38174000  0.39644000  1.0
  C  C38  1  0.38175000  0.40331000  0.89643000  1.0
  C  C39  1  0.59670000  0.61828000  0.60356000  1.0
  C  C40  1  0.49821000  0.74721000  0.10760000  1.0
  C  C41  1  0.25275000  0.50181000  0.39240000  1.0
  C  C42  1  0.50180000  0.25276000  0.89239000  1.0
  C  C43  1  0.74725000  0.49820000  0.60760000  1.0
  C  C44  1  0.56002000  0.91782000  0.09214000  1.0
  C  C45  1  0.08213000  0.43997000  0.40787000  1.0
  C  C46  1  0.43999000  0.08214000  0.90787000  1.0
  C  C47  1  0.91787000  0.56002000  0.59214000  1.0
  N  N48  1  0.32690000  0.74158000  0.12526000  1.0
  N  N49  1  0.25836000  0.67312000  0.37475000  1.0
  N  N50  1  0.67313000  0.25839000  0.87473000  1.0
  N  N51  1  0.74161000  0.32688000  0.62526000  1.0
  Cl  Cl52  1  0.99525000  0.23667000  0.03626000  1.0
  Cl  Cl53  1  0.76327000  0.00477000  0.46374000  1.0
  Cl  Cl54  1  0.00477000  0.76330000  0.96373000  1.0
  Cl  Cl55  1  0.23670000  0.99523000  0.53627000  1.0
  Cl  Cl56  1  0.88708000  0.82151000  0.21817000  1.0
  Cl  Cl57  1  0.17841000  0.11293000  0.28184000  1.0
  Cl  Cl58  1  0.11294000  0.17845000  0.78183000  1.0
  Cl  Cl59  1  0.82155000  0.88708000  0.71817000  1.0
  O  O60  1  0.46451000  0.05693000  0.09727000  1.0
  O  O61  1  0.94302000  0.53548000  0.40274000  1.0
  O  O62  1  0.53549000  0.94307000  0.90274000  1.0
  O  O63  1  0.05696000  0.46451000  0.59726000  1.0
