# generated using pymatgen
data_Mg2H12C17(NO2)4
_symmetry_space_group_name_H-M   'P 1'
_cell_length_a   6.93717000
_cell_length_b   32.63650000
_cell_length_c   32.64120000
_cell_angle_alpha   119.51300000
_cell_angle_beta   94.07260000
_cell_angle_gamma   94.05730000
_symmetry_Int_Tables_number   1
_chemical_formula_structural   Mg2H12C17(NO2)4
_chemical_formula_sum   'Mg6 H36 C51 N12 O24'
_cell_volume   6367.20279463
_cell_formula_units_Z   3
loop_
 _symmetry_equiv_pos_site_id
 _symmetry_equiv_pos_as_xyz
  1  'x, y, z'
loop_
 _atom_site_type_symbol
 _atom_site_label
 _atom_site_symmetry_multiplicity
 _atom_site_fract_x
 _atom_site_fract_y
 _atom_site_fract_z
 _atom_site_occupancy
  Mg  Mg0  1  0.71796000  0.69726000  0.33007000  1.0
  Mg  Mg1  1  0.31193000  0.30318000  0.66987000  1.0
  Mg  Mg2  1  0.02081000  0.63270000  0.30267000  1.0
  Mg  Mg3  1  0.00903000  0.36679000  0.69690000  1.0
  Mg  Mg4  1  0.38775000  0.66989000  0.36722000  1.0
  Mg  Mg5  1  0.64211000  0.33024000  0.63332000  1.0
  H  H6  1  0.06815000  0.38839000  0.80851000  1.0
  H  H7  1  0.06020000  0.43430000  0.88634000  1.0
  H  H8  1  0.99006000  0.46358000  0.95926000  1.0
  H  H9  1  0.24982000  0.55128000  0.02560000  1.0
  H  H10  1  0.17954000  0.50833000  0.04232000  1.0
  H  H11  1  0.89855000  0.56310000  0.02419000  1.0
  H  H12  1  0.65676000  0.57378000  0.06956000  1.0
  H  H13  1  0.94380000  0.61953000  0.18621000  1.0
  H  H14  1  0.22909000  0.57976000  0.17223000  1.0
  H  H15  1  0.38447000  0.56038000  0.10037000  1.0
  H  H16  1  0.59062000  0.47363000  0.90053000  1.0
  H  H17  1  0.77268000  0.44034000  0.82980000  1.0
  H  H18  1  0.67960000  0.42021000  0.61167000  1.0
  H  H19  1  0.62553000  0.45207000  0.56572000  1.0
  H  H20  1  0.52643000  0.49581000  0.53646000  1.0
  H  H21  1  0.69883000  0.47442000  0.44882000  1.0
  H  H22  1  0.67083000  0.53409000  0.49168000  1.0
  H  H23  1  0.33573000  0.46100000  0.43680000  1.0
  H  H24  1  0.08237000  0.49568000  0.42625000  1.0
  H  H25  1  0.32337000  0.56650000  0.38043000  1.0
  H  H26  1  0.64850000  0.59238000  0.42008000  1.0
  H  H27  1  0.82299000  0.53990000  0.43951000  1.0
  H  H28  1  0.11649000  0.42681000  0.52634000  1.0
  H  H29  1  0.33183000  0.38933000  0.55961000  1.0
  H  H30  1  0.25922000  0.19156000  0.57995000  1.0
  H  H31  1  0.17339000  0.11373000  0.54806000  1.0
  H  H32  1  0.03054000  0.04073000  0.50424000  1.0
  H  H33  1  0.22432000  0.97445000  0.52560000  1.0
  H  H34  1  0.13709000  0.95765000  0.46591000  1.0
  H  H35  1  0.87463000  0.97579000  0.53887000  1.0
  H  H36  1  0.58704000  0.93051000  0.50416000  1.0
  H  H37  1  0.75720000  0.81381000  0.43325000  1.0
  H  H38  1  0.05635000  0.82774000  0.40759000  1.0
  H  H39  1  0.28368000  0.89962000  0.46000000  1.0
  H  H40  1  0.68970000  0.09959000  0.57321000  1.0
  H  H41  1  0.94250000  0.17036000  0.61072000  1.0
  C  C42  1  0.32327000  0.38081000  0.77375000  1.0
  C  C43  1  0.22425000  0.39972000  0.81401000  1.0
  C  C44  1  0.31746000  0.43253000  0.85929000  1.0
  C  C45  1  0.25187000  0.48434000  0.94330000  1.0
  C  C46  1  0.13277000  0.52420000  0.02090000  1.0
  C  C47  1  0.91378000  0.55265000  0.08203000  1.0
  C  C48  1  0.67426000  0.58864000  0.13869000  1.0
  C  C49  1  0.78702000  0.61085000  0.18287000  1.0
  C  C50  1  0.69982000  0.62403000  0.22480000  1.0
  C  C51  1  0.49326000  0.61203000  0.22032000  1.0
  C  C52  1  0.38486000  0.58937000  0.17520000  1.0
  C  C53  1  0.47174000  0.57830000  0.13490000  1.0
  C  C54  1  0.38408000  0.62201000  0.26054000  1.0
  C  C55  1  0.51901000  0.44738000  0.86560000  1.0
  C  C56  1  0.61803000  0.42867000  0.82616000  1.0
  C  C57  1  0.52844000  0.39564000  0.78002000  1.0
  C  C58  1  0.64767000  0.37993000  0.74075000  1.0
  C  C59  1  0.94216000  0.39297000  0.61924000  1.0
  C  C60  1  0.82426000  0.41432000  0.60031000  1.0
  C  C61  1  0.88453000  0.42673000  0.56745000  1.0
  C  C62  1  0.76710000  0.45893000  0.51566000  1.0
  C  C63  1  0.60858000  0.49677000  0.47583000  1.0
  C  C64  1  0.36053000  0.52934000  0.44732000  1.0
  C  C65  1  0.08467000  0.54991000  0.41130000  1.0
  C  C66  1  0.17527000  0.57187000  0.38908000  1.0
  C  C67  1  0.07507000  0.60063000  0.37588000  1.0
  C  C68  1  0.88042000  0.60814000  0.38782000  1.0
  C  C69  1  0.79465000  0.58572000  0.41049000  1.0
  C  C70  1  0.89243000  0.55648000  0.42158000  1.0
  C  C71  1  0.76152000  0.63842000  0.37786000  1.0
  C  C72  1  0.07116000  0.41812000  0.55258000  1.0
  C  C73  1  0.18884000  0.39739000  0.57129000  1.0
  C  C74  1  0.13232000  0.38432000  0.60435000  1.0
  C  C75  1  0.26742000  0.36082000  0.62009000  1.0
  C  C76  1  0.54910000  0.22638000  0.60714000  1.0
  C  C77  1  0.40982000  0.18609000  0.58582000  1.0
  C  C78  1  0.45777000  0.14081000  0.57336000  1.0
  C  C79  1  0.30834000  0.05676000  0.54103000  1.0
  C  C80  1  0.11192000  0.97910000  0.50321000  1.0
  C  C81  1  0.83163000  0.91798000  0.47056000  1.0
  C  C82  1  0.53521000  0.86133000  0.44992000  1.0
  C  C83  1  0.60372000  0.81712000  0.42792000  1.0
  C  C84  1  0.47459000  0.77518000  0.39924000  1.0
  C  C85  1  0.27248000  0.77966000  0.39177000  1.0
  C  C86  1  0.20917000  0.82478000  0.41422000  1.0
  C  C87  1  0.33640000  0.86509000  0.44343000  1.0
  C  C88  1  0.12319000  0.73941000  0.36153000  1.0
  C  C89  1  0.65302000  0.13453000  0.58192000  1.0
  C  C90  1  0.79143000  0.17398000  0.60267000  1.0
  C  C91  1  0.74791000  0.22012000  0.61576000  1.0
  C  C92  1  0.90651000  0.25938000  0.63926000  1.0
  N  N93  1  0.20201000  0.44867000  0.89625000  1.0
  N  N94  1  0.10203000  0.48992000  0.97047000  1.0
  N  N95  1  0.95497000  0.54349000  0.03738000  1.0
  N  N96  1  0.75430000  0.57736000  0.09623000  1.0
  N  N97  1  0.75287000  0.44755000  0.55132000  1.0
  N  N98  1  0.61211000  0.48067000  0.51015000  1.0
  N  N99  1  0.41145000  0.49384000  0.45642000  1.0
  N  N100  1  0.17616000  0.51879000  0.42266000  1.0
  N  N101  1  0.30534000  0.10384000  0.55252000  1.0
  N  N102  1  0.13147000  0.02954000  0.51935000  1.0
  N  N103  1  0.91769000  0.96261000  0.50606000  1.0
  N  N104  1  0.65781000  0.90382000  0.48106000  1.0
  O  O105  1  0.20538000  0.60563000  0.25387000  1.0
  O  O106  1  0.47379000  0.64854000  0.30298000  1.0
  O  O107  1  0.81155000  0.64783000  0.26686000  1.0
  O  O108  1  0.82824000  0.39533000  0.74755000  1.0
  O  O109  1  0.56488000  0.34958000  0.69836000  1.0
  O  O110  1  0.21889000  0.35048000  0.73176000  1.0
  O  O111  1  0.41139000  0.50922000  0.95916000  1.0
  O  O112  1  0.00895000  0.53946000  0.10572000  1.0
  O  O113  1  0.59935000  0.64822000  0.39427000  1.0
  O  O114  1  0.82499000  0.65433000  0.35135000  1.0
  O  O115  1  0.16329000  0.61891000  0.35214000  1.0
  O  O116  1  0.43254000  0.35223000  0.60467000  1.0
  O  O117  1  0.21528000  0.34884000  0.65049000  1.0
  O  O118  1  0.86829000  0.38140000  0.64963000  1.0
  O  O119  1  0.90153000  0.44978000  0.49073000  1.0
  O  O120  1  0.46855000  0.56628000  0.46055000  1.0
  O  O121  1  0.95114000  0.74605000  0.35180000  1.0
  O  O122  1  0.17058000  0.69697000  0.34563000  1.0
  O  O123  1  0.54425000  0.73312000  0.38097000  1.0
  O  O124  1  0.08020000  0.25257000  0.64789000  1.0
  O  O125  1  0.86636000  0.30177000  0.65122000  1.0
  O  O126  1  0.48675000  0.26835000  0.61872000  1.0
  O  O127  1  0.45204000  0.04092000  0.55005000  1.0
  O  O128  1  0.90298000  0.89427000  0.43367000  1.0
