# generated using pymatgen
data_Zn3H8C12N2(OF)4
_symmetry_space_group_name_H-M   'P 1'
_cell_length_a   8.19449000
_cell_length_b   11.66360000
_cell_length_c   11.66360000
_cell_angle_alpha   70.69690000
_cell_angle_beta   75.44880000
_cell_angle_gamma   75.44900000
_symmetry_Int_Tables_number   1
_chemical_formula_structural   Zn3H8C12N2(OF)4
_chemical_formula_sum   'Zn6 H16 C24 N4 O8 F8'
_cell_volume   1000.94909958
_cell_formula_units_Z   2
loop_
 _symmetry_equiv_pos_site_id
 _symmetry_equiv_pos_as_xyz
  1  'x, y, z'
loop_
 _atom_site_type_symbol
 _atom_site_label
 _atom_site_symmetry_multiplicity
 _atom_site_fract_x
 _atom_site_fract_y
 _atom_site_fract_z
 _atom_site_occupancy
  Zn  Zn0  1  0.55856000  0.92437000  0.89780000  1.0
  Zn  Zn1  1  0.94144000  0.10220000  0.07563000  1.0
  Zn  Zn2  1  0.44144000  0.07563000  0.10221000  1.0
  Zn  Zn3  1  0.05856000  0.89779000  0.92437000  1.0
  Zn  Zn4  1  0.25000000  0.86714000  0.13286000  1.0
  Zn  Zn5  1  0.75000000  0.13286000  0.86714000  1.0
  H  H6  1  0.23709000  0.29596000  0.95409000  1.0
  H  H7  1  0.49381000  0.24159000  0.23660000  1.0
  H  H8  1  0.40940000  0.46775000  0.22913000  1.0
  H  H9  1  0.14549000  0.52467000  0.93383000  1.0
  H  H10  1  0.26290000  0.04591000  0.70404000  1.0
  H  H11  1  0.00619000  0.76340000  0.75841000  1.0
  H  H12  1  0.09060000  0.77087000  0.53225000  1.0
  H  H13  1  0.35451000  0.06617000  0.47533000  1.0
  H  H14  1  0.76291000  0.70404000  0.04591000  1.0
  H  H15  1  0.50619000  0.75841000  0.76341000  1.0
  H  H16  1  0.59060000  0.53225000  0.77087000  1.0
  H  H17  1  0.85451000  0.47533000  0.06617000  1.0
  H  H18  1  0.73710000  0.95408000  0.29596000  1.0
  H  H19  1  0.99381000  0.23660000  0.24159000  1.0
  H  H20  1  0.90939000  0.22913000  0.46776000  1.0
  H  H21  1  0.64549000  0.93383000  0.52467000  1.0
  C  C22  1  0.27239000  0.33831000  0.01263000  1.0
  C  C23  1  0.41520000  0.30779000  0.17188000  1.0
  C  C24  1  0.36883000  0.43215000  0.16755000  1.0
  C  C25  1  0.22162000  0.46381000  0.00232000  1.0
  C  C26  1  0.26928000  0.51214000  0.08128000  1.0
  C  C27  1  0.21608000  0.64850000  0.07076000  1.0
  C  C28  1  0.22761000  0.98737000  0.66169000  1.0
  C  C29  1  0.08480000  0.82812000  0.69221000  1.0
  C  C30  1  0.13117000  0.83245000  0.56786000  1.0
  C  C31  1  0.27838000  0.99768000  0.53619000  1.0
  C  C32  1  0.23072000  0.91872000  0.48786000  1.0
  C  C33  1  0.28392000  0.92924000  0.35150000  1.0
  C  C34  1  0.72761000  0.66169000  0.98737000  1.0
  C  C35  1  0.58480000  0.69221000  0.82812000  1.0
  C  C36  1  0.63117000  0.56785000  0.83245000  1.0
  C  C37  1  0.77839000  0.53619000  0.99768000  1.0
  C  C38  1  0.73072000  0.48786000  0.91872000  1.0
  C  C39  1  0.78392000  0.35150000  0.92925000  1.0
  C  C40  1  0.77239000  0.01263000  0.33831000  1.0
  C  C41  1  0.91519000  0.17188000  0.30779000  1.0
  C  C42  1  0.86882000  0.16755000  0.43215000  1.0
  C  C43  1  0.72161000  0.00232000  0.46381000  1.0
  C  C44  1  0.76928000  0.08128000  0.51214000  1.0
  C  C45  1  0.71608000  0.07076000  0.64851000  1.0
  N  N46  1  0.36715000  0.26175000  0.09637000  1.0
  N  N47  1  0.13285000  0.90363000  0.73824000  1.0
  N  N48  1  0.63285000  0.73825000  0.90363000  1.0
  N  N49  1  0.86715000  0.09637000  0.26176000  1.0
  O  O50  1  0.27630000  0.68719000  0.13846000  1.0
  O  O51  1  0.11724000  0.70994000  0.99414000  1.0
  O  O52  1  0.22370000  0.86154000  0.31281000  1.0
  O  O53  1  0.38275000  0.00586000  0.29006000  1.0
  O  O54  1  0.72370000  0.31281000  0.86154000  1.0
  O  O55  1  0.88276000  0.29006000  0.00586000  1.0
  O  O56  1  0.77630000  0.13846000  0.68719000  1.0
  O  O57  1  0.61724000  0.99414000  0.70994000  1.0
  F  F58  1  0.49993000  0.89052000  0.09144000  1.0
  F  F59  1  0.30570000  0.91130000  0.92960000  1.0
  F  F60  1  0.00007000  0.90856000  0.10948000  1.0
  F  F61  1  0.19430000  0.07040000  0.08870000  1.0
  F  F62  1  0.50007000  0.10948000  0.90856000  1.0
  F  F63  1  0.69430000  0.08871000  0.07040000  1.0
  F  F64  1  0.99993000  0.09144000  0.89052000  1.0
  F  F65  1  0.80570000  0.92959000  0.91130000  1.0
