# generated using pymatgen
data_KH5C7SO
_symmetry_space_group_name_H-M   'P 1'
_cell_length_a   4.03000000
_cell_length_b   11.77380000
_cell_length_c   15.67351815
_cell_angle_alpha   82.43275080
_cell_angle_beta   82.62190739
_cell_angle_gamma   89.96620000
_symmetry_Int_Tables_number   1
_chemical_formula_structural   KH5C7SO
_chemical_formula_sum   'K4 H20 C28 S4 O4'
_cell_volume   731.00223256
_cell_formula_units_Z   4
loop_
 _symmetry_equiv_pos_site_id
 _symmetry_equiv_pos_as_xyz
  1  'x, y, z'
loop_
 _atom_site_type_symbol
 _atom_site_label
 _atom_site_symmetry_multiplicity
 _atom_site_fract_x
 _atom_site_fract_y
 _atom_site_fract_z
 _atom_site_occupancy
  K  K0  1  0.89945000  0.63235000  0.92173000  1.0
  K  K1  1  0.17821000  0.13239000  0.92171000  1.0
  K  K2  1  0.10053000  0.36765000  0.07828000  1.0
  K  K3  1  0.82179000  0.86761000  0.07830000  1.0
  H  H4  1  0.53586000  0.74000000  0.76943000  1.0
  H  H5  1  0.69377000  0.23982000  0.76922000  1.0
  H  H6  1  0.46413000  0.26001000  0.23057000  1.0
  H  H7  1  0.30625000  0.76018000  0.23078000  1.0
  H  H8  1  0.76812000  0.67921000  0.62920000  1.0
  H  H9  1  0.60109000  0.17911000  0.62899000  1.0
  H  H10  1  0.23186000  0.32079000  0.37080000  1.0
  H  H11  1  0.39894000  0.82089000  0.37101000  1.0
  H  H12  1  0.14699000  0.81180000  0.52139000  1.0
  H  H13  1  0.33041000  0.31192000  0.52116000  1.0
  H  H14  1  0.85299000  0.18820000  0.47860000  1.0
  H  H15  1  0.66959000  0.68808000  0.47884000  1.0
  H  H16  1  0.29117000  0.00438000  0.55694000  1.0
  H  H17  1  0.15198000  0.50475000  0.55656000  1.0
  H  H18  1  0.70882000  0.99562000  0.44305000  1.0
  H  H19  1  0.84801000  0.49525000  0.44344000  1.0
  H  H20  1  0.06382000  0.06284000  0.69979000  1.0
  H  H21  1  0.23666000  0.56308000  0.69948000  1.0
  H  H22  1  0.93616000  0.93716000  0.30021000  1.0
  H  H23  1  0.76334000  0.43692000  0.30052000  1.0
  C  C24  1  0.78739000  0.90516000  0.74419000  1.0
  C  C25  1  0.46801000  0.40518000  0.74395000  1.0
  C  C26  1  0.21262000  0.09485000  0.25581000  1.0
  C  C27  1  0.53199000  0.59482000  0.25605000  1.0
  C  C28  1  0.70519000  0.79731000  0.72343000  1.0
  C  C29  1  0.57028000  0.29721000  0.72325000  1.0
  C  C30  1  0.29481000  0.20269000  0.27657000  1.0
  C  C31  1  0.42974000  0.70279000  0.27675000  1.0
  C  C32  1  0.83514000  0.76371000  0.64392000  1.0
  C  C33  1  0.51966000  0.26368000  0.64372000  1.0
  C  C34  1  0.16485000  0.23629000  0.35608000  1.0
  C  C35  1  0.48036000  0.73632000  0.35628000  1.0
  C  C36  1  0.04558000  0.83797000  0.58363000  1.0
  C  C37  1  0.36966000  0.33808000  0.58340000  1.0
  C  C38  1  0.95441000  0.16203000  0.41637000  1.0
  C  C39  1  0.63034000  0.66192000  0.41661000  1.0
  C  C40  1  0.12641000  0.94613000  0.60350000  1.0
  C  C41  1  0.26968000  0.44634000  0.60320000  1.0
  C  C42  1  0.87359000  0.05387000  0.39649000  1.0
  C  C43  1  0.73032000  0.55366000  0.39680000  1.0
  C  C44  1  0.99942000  0.97928000  0.68316000  1.0
  C  C45  1  0.31716000  0.47944000  0.68287000  1.0
  C  C46  1  0.00058000  0.02072000  0.31684000  1.0
  C  C47  1  0.68285000  0.52056000  0.31713000  1.0
  C  C48  1  0.65781000  0.94618000  0.82861000  1.0
  C  C49  1  0.51350000  0.44623000  0.82835000  1.0
  C  C50  1  0.34219000  0.05382000  0.17139000  1.0
  C  C51  1  0.48651000  0.55377000  0.17165000  1.0
  S  S52  1  0.41773000  0.85588000  0.90932000  1.0
  S  S53  1  0.67273000  0.35589000  0.90912000  1.0
  S  S54  1  0.58227000  0.14412000  0.09068000  1.0
  S  S55  1  0.32726000  0.64411000  0.09088000  1.0
  O  O56  1  0.73063000  0.04722000  0.83847000  1.0
  O  O57  1  0.43104000  0.54733000  0.83813000  1.0
  O  O58  1  0.26936000  0.95278000  0.16153000  1.0
  O  O59  1  0.56897000  0.45267000  0.16187000  1.0
