# generated using pymatgen
data_HoAgH8C14(NO4)2
_symmetry_space_group_name_H-M   'P 1'
_cell_length_a   9.08643000
_cell_length_b   9.65912463
_cell_length_c   22.05410000
_cell_angle_alpha   90.00044247
_cell_angle_beta   90.00090000
_cell_angle_gamma   62.66389289
_symmetry_Int_Tables_number   1
_chemical_formula_structural   HoAgH8C14(NO4)2
_chemical_formula_sum   'Ho4 Ag4 H32 C56 N8 O32'
_cell_volume   1719.46664498
_cell_formula_units_Z   4
loop_
 _symmetry_equiv_pos_site_id
 _symmetry_equiv_pos_as_xyz
  1  'x, y, z'
loop_
 _atom_site_type_symbol
 _atom_site_label
 _atom_site_symmetry_multiplicity
 _atom_site_fract_x
 _atom_site_fract_y
 _atom_site_fract_z
 _atom_site_occupancy
  Ho  Ho0  1  0.73266000  0.65007000  0.99124000  1.0
  Ho  Ho1  1  0.76733000  0.34994000  0.49125000  1.0
  Ho  Ho2  1  0.26732000  0.34995000  0.00875000  1.0
  Ho  Ho3  1  0.23267000  0.65006000  0.50876000  1.0
  Ag  Ag4  1  0.67043000  0.30656000  0.15014000  1.0
  Ag  Ag5  1  0.82957000  0.69345000  0.65014000  1.0
  Ag  Ag6  1  0.32956000  0.69345000  0.84985000  1.0
  Ag  Ag7  1  0.17045000  0.30655000  0.34985000  1.0
  H  H8  1  0.30484000  0.76617000  0.06813000  1.0
  H  H9  1  0.19515000  0.23383000  0.56813000  1.0
  H  H10  1  0.69514000  0.23383000  0.93187000  1.0
  H  H11  1  0.80484000  0.76616000  0.43187000  1.0
  H  H12  1  0.30935000  0.97750000  0.13286000  1.0
  H  H13  1  0.19065000  0.02250000  0.63287000  1.0
  H  H14  1  0.69065000  0.02249000  0.86713000  1.0
  H  H15  1  0.80936000  0.97748000  0.36714000  1.0
  H  H16  1  0.04027000  0.19658000  0.16561000  1.0
  H  H17  1  0.45975000  0.80342000  0.66561000  1.0
  H  H18  1  0.95975000  0.80341000  0.83439000  1.0
  H  H19  1  0.54027000  0.19657000  0.33439000  1.0
  H  H20  1  0.77192000  0.02345000  0.06663000  1.0
  H  H21  1  0.72808000  0.97656000  0.56663000  1.0
  H  H22  1  0.22806000  0.97657000  0.93337000  1.0
  H  H23  1  0.27193000  0.02344000  0.43337000  1.0
  H  H24  1  0.66515000  0.34623000  0.28450000  1.0
  H  H25  1  0.83485000  0.65377000  0.78449000  1.0
  H  H26  1  0.33485000  0.65377000  0.71550000  1.0
  H  H27  1  0.16515000  0.34624000  0.21550000  1.0
  H  H28  1  0.19481000  0.70853000  0.34319000  1.0
  H  H29  1  0.30519000  0.29147000  0.84320000  1.0
  H  H30  1  0.80521000  0.29146000  0.65681000  1.0
  H  H31  1  0.69480000  0.70853000  0.15681000  1.0
  H  H32  1  0.10817000  0.75264000  0.23239000  1.0
  H  H33  1  0.39184000  0.24735000  0.73239000  1.0
  H  H34  1  0.89183000  0.24735000  0.76762000  1.0
  H  H35  1  0.60816000  0.75264000  0.26761000  1.0
  H  H36  1  0.30603000  0.57931000  0.15373000  1.0
  H  H37  1  0.19399000  0.42068000  0.65374000  1.0
  H  H38  1  0.69397000  0.42068000  0.84627000  1.0
  H  H39  1  0.80603000  0.57931000  0.34627000  1.0
  C  C40  1  0.02781000  0.75217000  0.02521000  1.0
  C  C41  1  0.47220000  0.24783000  0.52521000  1.0
  C  C42  1  0.97219000  0.24783000  0.97478000  1.0
  C  C43  1  0.52780000  0.75217000  0.47479000  1.0
  C  C44  1  0.03743000  0.87843000  0.06274000  1.0
  C  C45  1  0.46257000  0.12158000  0.56274000  1.0
  C  C46  1  0.96256000  0.12158000  0.93726000  1.0
  C  C47  1  0.53743000  0.87842000  0.43726000  1.0
  C  C48  1  0.18991000  0.86516000  0.08220000  1.0
  C  C49  1  0.31009000  0.13484000  0.58221000  1.0
  C  C50  1  0.81008000  0.13484000  0.91780000  1.0
  C  C51  1  0.68991000  0.86515000  0.41780000  1.0
  C  C52  1  0.19282000  0.98073000  0.11907000  1.0
  C  C53  1  0.30719000  0.01927000  0.61907000  1.0
  C  C54  1  0.80719000  0.01926000  0.88093000  1.0
  C  C55  1  0.69283000  0.98071000  0.38093000  1.0
  C  C56  1  0.04344000  0.10430000  0.13654000  1.0
  C  C57  1  0.45657000  0.89570000  0.63654000  1.0
  C  C58  1  0.95658000  0.89569000  0.86346000  1.0
  C  C59  1  0.54344000  0.10429000  0.36346000  1.0
  C  C60  1  0.89289000  0.00815000  0.08126000  1.0
  C  C61  1  0.60710000  0.99186000  0.58126000  1.0
  C  C62  1  0.10710000  0.99186000  0.91874000  1.0
  C  C63  1  0.39289000  0.00815000  0.41874000  1.0
  C  C64  1  0.54013000  0.43543000  0.27406000  1.0
  C  C65  1  0.95988000  0.56456000  0.77405000  1.0
  C  C66  1  0.45988000  0.56456000  0.72594000  1.0
  C  C67  1  0.04012000  0.43544000  0.22594000  1.0
  C  C68  1  0.43660000  0.52292000  0.32103000  1.0
  C  C69  1  0.06339000  0.47708000  0.82103000  1.0
  C  C70  1  0.56342000  0.47707000  0.67897000  1.0
  C  C71  1  0.93659000  0.52293000  0.17897000  1.0
  C  C72  1  0.27738000  0.63926000  0.30677000  1.0
  C  C73  1  0.22261000  0.36075000  0.80677000  1.0
  C  C74  1  0.72263000  0.36074000  0.69324000  1.0
  C  C75  1  0.77738000  0.63926000  0.19323000  1.0
  C  C76  1  0.23017000  0.66263000  0.24591000  1.0
  C  C77  1  0.26984000  0.33737000  0.74592000  1.0
  C  C78  1  0.76984000  0.33736000  0.75409000  1.0
  C  C79  1  0.73016000  0.66263000  0.25409000  1.0
  C  C80  1  0.33978000  0.56801000  0.20159000  1.0
  C  C81  1  0.16023000  0.43199000  0.70159000  1.0
  C  C82  1  0.66021000  0.43199000  0.79842000  1.0
  C  C83  1  0.83979000  0.56800000  0.29841000  1.0
  C  C84  1  0.49967000  0.48927000  0.38508000  1.0
  C  C85  1  0.00031000  0.51074000  0.88508000  1.0
  C  C86  1  0.50034000  0.51073000  0.61492000  1.0
  C  C87  1  0.99967000  0.48927000  0.11492000  1.0
  C  C88  1  0.49905000  0.99283000  0.03507000  1.0
  C  C89  1  0.00093000  0.00719000  0.53508000  1.0
  C  C90  1  0.50093000  0.00719000  0.96492000  1.0
  C  C91  1  0.99906000  0.99282000  0.46493000  1.0
  C  C92  1  0.52226000  0.48059000  0.03367000  1.0
  C  C93  1  0.97775000  0.51941000  0.53367000  1.0
  C  C94  1  0.47774000  0.51941000  0.96633000  1.0
  C  C95  1  0.02228000  0.48058000  0.46633000  1.0
  N  N96  1  0.89530000  0.11833000  0.11823000  1.0
  N  N97  1  0.60471000  0.88167000  0.61823000  1.0
  N  N98  1  0.10470000  0.88167000  0.88177000  1.0
  N  N99  1  0.39530000  0.11832000  0.38177000  1.0
  N  N100  1  0.49292000  0.45555000  0.21548000  1.0
  N  N101  1  0.00708000  0.54445000  0.71548000  1.0
  N  N102  1  0.50708000  0.54445000  0.78452000  1.0
  N  N103  1  0.99292000  0.45555000  0.28452000  1.0
  O  O104  1  0.89171000  0.78448000  0.99881000  1.0
  O  O105  1  0.60828000  0.21553000  0.49881000  1.0
  O  O106  1  0.10828000  0.21553000  0.00118000  1.0
  O  O107  1  0.39172000  0.78447000  0.50119000  1.0
  O  O108  1  0.15752000  0.62221000  0.02487000  1.0
  O  O109  1  0.34248000  0.37780000  0.52488000  1.0
  O  O110  1  0.84247000  0.37781000  0.97512000  1.0
  O  O111  1  0.65752000  0.62220000  0.47513000  1.0
  O  O112  1  0.65200000  0.39605000  0.39285000  1.0
  O  O113  1  0.84798000  0.60395000  0.89284000  1.0
  O  O114  1  0.34801000  0.60395000  0.60716000  1.0
  O  O115  1  0.15199000  0.39606000  0.10715000  1.0
  O  O116  1  0.39651000  0.55668000  0.42689000  1.0
  O  O117  1  0.10346000  0.44336000  0.92689000  1.0
  O  O118  1  0.60350000  0.44333000  0.57311000  1.0
  O  O119  1  0.89650000  0.55668000  0.07311000  1.0
  O  O120  1  0.48142000  0.38314000  0.05760000  1.0
  O  O121  1  0.01857000  0.61687000  0.55759000  1.0
  O  O122  1  0.51855000  0.61688000  0.94241000  1.0
  O  O123  1  0.98143000  0.38313000  0.44240000  1.0
  O  O124  1  0.59578000  0.54682000  0.06008000  1.0
  O  O125  1  0.90424000  0.45316000  0.56008000  1.0
  O  O126  1  0.40424000  0.45316000  0.93992000  1.0
  O  O127  1  0.09579000  0.54682000  0.43992000  1.0
  O  O128  1  0.56983000  0.85586000  0.05688000  1.0
  O  O129  1  0.93016000  0.14414000  0.55689000  1.0
  O  O130  1  0.43014000  0.14415000  0.94311000  1.0
  O  O131  1  0.06984000  0.85586000  0.44312000  1.0
  O  O132  1  0.42732000  0.11829000  0.06469000  1.0
  O  O133  1  0.07269000  0.88171000  0.56470000  1.0
  O  O134  1  0.57268000  0.88171000  0.93530000  1.0
  O  O135  1  0.92733000  0.11829000  0.43531000  1.0
