# generated using pymatgen
data_Cd2H46C46N4O11
_symmetry_space_group_name_H-M   'P 1'
_cell_length_a   9.31871000
_cell_length_b   17.13380000
_cell_length_c   34.94630000
_cell_angle_alpha   90.00010000
_cell_angle_beta   90.00010000
_cell_angle_gamma   80.97960000
_symmetry_Int_Tables_number   1
_chemical_formula_structural   Cd2H46C46N4O11
_chemical_formula_sum   'Cd8 H184 C184 N16 O44'
_cell_volume   5510.69149457
_cell_formula_units_Z   4
loop_
 _symmetry_equiv_pos_site_id
 _symmetry_equiv_pos_as_xyz
  1  'x, y, z'
loop_
 _atom_site_type_symbol
 _atom_site_label
 _atom_site_symmetry_multiplicity
 _atom_site_fract_x
 _atom_site_fract_y
 _atom_site_fract_z
 _atom_site_occupancy
  Cd  Cd0  1  0.59365000  0.98340000  0.82692000  1.0
  Cd  Cd1  1  0.90635000  0.51660000  0.32692000  1.0
  Cd  Cd2  1  0.40635000  0.01660000  0.17308000  1.0
  Cd  Cd3  1  0.09365000  0.48340000  0.67308000  1.0
  Cd  Cd4  1  0.92001000  0.06757000  0.81948000  1.0
  Cd  Cd5  1  0.58000000  0.43243000  0.31948000  1.0
  Cd  Cd6  1  0.07999000  0.93243000  0.18052000  1.0
  Cd  Cd7  1  0.42001000  0.56757000  0.68052000  1.0
  H  H8  1  0.44240000  0.34461000  0.06625000  1.0
  H  H9  1  0.05759000  0.15539000  0.56625000  1.0
  H  H10  1  0.55760000  0.65539000  0.93375000  1.0
  H  H11  1  0.94240000  0.84461000  0.43375000  1.0
  H  H12  1  0.32352000  0.37508000  0.10446000  1.0
  H  H13  1  0.17648000  0.12492000  0.60446000  1.0
  H  H14  1  0.67648000  0.62492000  0.89554000  1.0
  H  H15  1  0.82351000  0.87509000  0.39554000  1.0
  H  H16  1  0.47945000  0.42079000  0.09726000  1.0
  H  H17  1  0.02055000  0.07921000  0.59726000  1.0
  H  H18  1  0.52055000  0.57921000  0.90274000  1.0
  H  H19  1  0.97945000  0.92079000  0.40274000  1.0
  H  H20  1  0.49020000  0.42941000  0.97481000  1.0
  H  H21  1  0.00980000  0.07059000  0.47481000  1.0
  H  H22  1  0.50980000  0.57059000  0.02519000  1.0
  H  H23  1  0.99020000  0.92941000  0.52519000  1.0
  H  H24  1  0.53556000  0.38297000  0.01920000  1.0
  H  H25  1  0.96445000  0.11703000  0.51920000  1.0
  H  H26  1  0.46444000  0.61703000  0.98080000  1.0
  H  H27  1  0.03555000  0.88297000  0.48080000  1.0
  H  H28  1  0.30126000  0.44806000  0.94045000  1.0
  H  H29  1  0.19874000  0.05194000  0.44045000  1.0
  H  H30  1  0.69874000  0.55194000  0.05955000  1.0
  H  H31  1  0.80126000  0.94806000  0.55955000  1.0
  H  H32  1  0.31929000  0.54970000  0.94097000  1.0
  H  H33  1  0.18071000  0.95031000  0.44097000  1.0
  H  H34  1  0.68071000  0.45031000  0.05903000  1.0
  H  H35  1  0.81929000  0.04969000  0.55902000  1.0
  H  H36  1  0.14711000  0.52182000  0.93562000  1.0
  H  H37  1  0.35289000  0.97818000  0.43562000  1.0
  H  H38  1  0.85289000  0.47818000  0.06438000  1.0
  H  H39  1  0.64711000  0.02182000  0.56438000  1.0
  H  H40  1  0.98208000  0.59070000  0.96141000  1.0
  H  H41  1  0.51792000  0.90930000  0.46141000  1.0
  H  H42  1  0.01792000  0.40930000  0.03859000  1.0
  H  H43  1  0.48208000  0.09070000  0.53859000  1.0
  H  H44  1  0.94091000  0.65806000  0.99983000  1.0
  H  H45  1  0.55909000  0.84194000  0.49983000  1.0
  H  H46  1  0.05909000  0.34194000  0.00017000  1.0
  H  H47  1  0.44090000  0.15806000  0.50017000  1.0
  H  H48  1  0.97509000  0.62657000  0.09786000  1.0
  H  H49  1  0.52491000  0.87343000  0.59786000  1.0
  H  H50  1  0.02491000  0.37343000  0.90214000  1.0
  H  H51  1  0.47509000  0.12657000  0.40214000  1.0
  H  H52  1  0.88122000  0.62842000  0.05420000  1.0
  H  H53  1  0.61878000  0.87158000  0.55420000  1.0
  H  H54  1  0.11878000  0.37158000  0.94580000  1.0
  H  H55  1  0.38122000  0.12842000  0.44580000  1.0
  H  H56  1  0.01258000  0.69074000  0.06102000  1.0
  H  H57  1  0.48742000  0.80926000  0.56102000  1.0
  H  H58  1  0.98742000  0.30926000  0.93898000  1.0
  H  H59  1  0.51258000  0.19074000  0.43898000  1.0
  H  H60  1  0.27132000  0.49606000  0.13196000  1.0
  H  H61  1  0.22868000  0.00394000  0.63196000  1.0
  H  H62  1  0.72868000  0.50394000  0.86804000  1.0
  H  H63  1  0.77132000  0.99606000  0.36804000  1.0
  H  H64  1  0.11110000  0.56619000  0.12720000  1.0
  H  H65  1  0.38890000  0.93381000  0.62720000  1.0
  H  H66  1  0.88890000  0.43381000  0.87280000  1.0
  H  H67  1  0.61109000  0.06619000  0.37280000  1.0
  H  H68  1  0.30075000  0.21846000  0.94996000  1.0
  H  H69  1  0.19926000  0.28154000  0.44996000  1.0
  H  H70  1  0.69925000  0.78155000  0.05004000  1.0
  H  H71  1  0.80075000  0.71846000  0.55004000  1.0
  H  H72  1  0.44484000  0.12780000  0.90271000  1.0
  H  H73  1  0.05517000  0.37220000  0.40271000  1.0
  H  H74  1  0.55517000  0.87220000  0.09729000  1.0
  H  H75  1  0.94483000  0.62780000  0.59729000  1.0
  H  H76  1  0.80425000  0.25395000  0.91624000  1.0
  H  H77  1  0.69575000  0.24605000  0.41624000  1.0
  H  H78  1  0.19575000  0.74605000  0.08376000  1.0
  H  H79  1  0.30425000  0.75396000  0.58376000  1.0
  H  H80  1  0.67020000  0.33921000  0.96604000  1.0
  H  H81  1  0.82980000  0.16079000  0.46604000  1.0
  H  H82  1  0.32980000  0.66079000  0.03396000  1.0
  H  H83  1  0.17020000  0.83921000  0.53396000  1.0
  H  H84  1  0.27693000  0.75572000  0.93071000  1.0
  H  H85  1  0.22307000  0.74428000  0.43071000  1.0
  H  H86  1  0.72307000  0.24428000  0.06929000  1.0
  H  H87  1  0.77693000  0.25572000  0.56930000  1.0
  H  H88  1  0.18777000  0.85707000  0.88045000  1.0
  H  H89  1  0.31223000  0.64293000  0.38045000  1.0
  H  H90  1  0.81223000  0.14293000  0.11955000  1.0
  H  H91  1  0.68777000  0.35706000  0.61955000  1.0
  H  H92  1  0.75956000  0.79722000  0.89066000  1.0
  H  H93  1  0.74044000  0.70278000  0.39066000  1.0
  H  H94  1  0.24044000  0.20278000  0.10934000  1.0
  H  H95  1  0.25956000  0.29722000  0.60934000  1.0
  H  H96  1  0.84280000  0.70123000  0.94258000  1.0
  H  H97  1  0.65720000  0.79877000  0.44258000  1.0
  H  H98  1  0.15720000  0.29877000  0.05742000  1.0
  H  H99  1  0.34280000  0.20123000  0.55743000  1.0
  H  H100  1  0.93365000  0.33934000  0.13356000  1.0
  H  H101  1  0.56635000  0.16066000  0.63356000  1.0
  H  H102  1  0.06636000  0.66065000  0.86644000  1.0
  H  H103  1  0.43364000  0.83934000  0.36644000  1.0
  H  H104  1  0.79132000  0.32276000  0.19285000  1.0
  H  H105  1  0.70868000  0.17724000  0.69285000  1.0
  H  H106  1  0.20869000  0.67724000  0.80715000  1.0
  H  H107  1  0.29132000  0.82275000  0.30715000  1.0
  H  H108  1  0.94189000  0.52497000  0.24265000  1.0
  H  H109  1  0.55811000  0.97503000  0.74266000  1.0
  H  H110  1  0.05811000  0.47503000  0.75735000  1.0
  H  H111  1  0.44189000  0.02497000  0.25735000  1.0
  H  H112  1  0.08907000  0.53925000  0.18552000  1.0
  H  H113  1  0.41093000  0.96075000  0.68552000  1.0
  H  H114  1  0.91093000  0.46075000  0.81448000  1.0
  H  H115  1  0.58907000  0.03925000  0.31448000  1.0
  H  H116  1  0.67399000  0.96981000  0.91307000  1.0
  H  H117  1  0.82601000  0.53020000  0.41307000  1.0
  H  H118  1  0.32601000  0.03019000  0.08693000  1.0
  H  H119  1  0.17400000  0.46980000  0.58693000  1.0
  H  H120  1  0.72315000  0.85699000  0.98843000  1.0
  H  H121  1  0.77684000  0.64301000  0.48843000  1.0
  H  H122  1  0.27684000  0.14300000  0.01157000  1.0
  H  H123  1  0.22315000  0.35699000  0.51157000  1.0
  H  H124  1  0.61296000  0.94333000  0.00689000  1.0
  H  H125  1  0.88704000  0.55667000  0.50689000  1.0
  H  H126  1  0.38703000  0.05666000  0.99311000  1.0
  H  H127  1  0.11296000  0.44333000  0.49311000  1.0
  H  H128  1  0.74640000  0.95199000  0.97079000  1.0
  H  H129  1  0.75360000  0.54801000  0.47079000  1.0
  H  H130  1  0.25360000  0.04801000  0.02921000  1.0
  H  H131  1  0.24640000  0.45199000  0.52921000  1.0
  H  H132  1  0.38354000  0.89272000  0.98571000  1.0
  H  H133  1  0.11646000  0.60728000  0.48571000  1.0
  H  H134  1  0.61645000  0.10728000  0.01429000  1.0
  H  H135  1  0.88354000  0.39272000  0.51429000  1.0
  H  H136  1  0.48059000  0.80583000  0.96450000  1.0
  H  H137  1  0.01941000  0.69417000  0.46450000  1.0
  H  H138  1  0.51941000  0.19417000  0.03550000  1.0
  H  H139  1  0.98059000  0.30583000  0.53550000  1.0
  H  H140  1  0.36500000  0.87587000  0.93535000  1.0
  H  H141  1  0.13500000  0.62413000  0.43535000  1.0
  H  H142  1  0.63500000  0.12413000  0.06465000  1.0
  H  H143  1  0.86501000  0.37586000  0.56465000  1.0
  H  H144  1  0.71968000  0.83023000  0.76763000  1.0
  H  H145  1  0.78033000  0.66977000  0.26762000  1.0
  H  H146  1  0.28033000  0.16977000  0.23237000  1.0
  H  H147  1  0.21967000  0.33023000  0.73237000  1.0
  H  H148  1  0.52391000  0.68868000  0.83618000  1.0
  H  H149  1  0.97608000  0.81132000  0.33618000  1.0
  H  H150  1  0.47609000  0.31132000  0.16382000  1.0
  H  H151  1  0.02391000  0.18868000  0.66382000  1.0
  H  H152  1  0.42167000  0.69444000  0.79247000  1.0
  H  H153  1  0.07833000  0.80556000  0.29247000  1.0
  H  H154  1  0.57833000  0.30556000  0.20753000  1.0
  H  H155  1  0.92167000  0.19444000  0.70753000  1.0
  H  H156  1  0.41891000  0.78101000  0.82191000  1.0
  H  H157  1  0.08108000  0.71899000  0.32191000  1.0
  H  H158  1  0.58109000  0.21899000  0.17809000  1.0
  H  H159  1  0.91891000  0.28101000  0.67809000  1.0
  H  H160  1  0.80377000  0.70588000  0.76202000  1.0
  H  H161  1  0.69623000  0.79411000  0.26202000  1.0
  H  H162  1  0.19624000  0.29411000  0.23798000  1.0
  H  H163  1  0.30377000  0.20589000  0.73798000  1.0
  H  H164  1  0.67506000  0.63908000  0.76320000  1.0
  H  H165  1  0.82494000  0.86092000  0.26320000  1.0
  H  H166  1  0.32495000  0.36092000  0.23680000  1.0
  H  H167  1  0.17506000  0.13908000  0.73680000  1.0
  H  H168  1  0.77696000  0.65433000  0.80521000  1.0
  H  H169  1  0.72304000  0.84567000  0.30521000  1.0
  H  H170  1  0.22304000  0.34567000  0.19479000  1.0
  H  H171  1  0.27696000  0.15434000  0.69479000  1.0
  H  H172  1  0.25526000  0.97148000  0.81574000  1.0
  H  H173  1  0.24474000  0.52852000  0.31574000  1.0
  H  H174  1  0.74474000  0.02852000  0.18426000  1.0
  H  H175  1  0.75527000  0.47148000  0.68426000  1.0
  H  H176  1  0.00760000  0.25272000  0.81880000  1.0
  H  H177  1  0.49240000  0.24728000  0.31880000  1.0
  H  H178  1  0.99240000  0.74728000  0.18120000  1.0
  H  H179  1  0.50760000  0.75272000  0.68120000  1.0
  H  H180  1  0.16045000  0.36118000  0.81763000  1.0
  H  H181  1  0.33955000  0.13882000  0.31763000  1.0
  H  H182  1  0.83955000  0.63882000  0.18237000  1.0
  H  H183  1  0.66045000  0.86118000  0.68237000  1.0
  H  H184  1  0.42803000  0.33048000  0.81445000  1.0
  H  H185  1  0.07197000  0.16952000  0.31445000  1.0
  H  H186  1  0.57197000  0.66952000  0.18555000  1.0
  H  H187  1  0.92803000  0.83048000  0.68554000  1.0
  H  H188  1  0.55578000  0.19157000  0.81296000  1.0
  H  H189  1  0.94422000  0.30844000  0.31296000  1.0
  H  H190  1  0.44422000  0.80844000  0.18704000  1.0
  H  H191  1  0.05578000  0.69157000  0.68704000  1.0
  C  C192  1  0.32378000  0.45663000  0.01727000  1.0
  C  C193  1  0.17622000  0.04337000  0.51727000  1.0
  C  C194  1  0.67622000  0.54337000  0.98273000  1.0
  C  C195  1  0.82378000  0.95663000  0.48273000  1.0
  C  C196  1  0.23205000  0.50914000  0.99348000  1.0
  C  C197  1  0.26795000  0.99086000  0.49348000  1.0
  C  C198  1  0.76795000  0.49086000  0.00652000  1.0
  C  C199  1  0.73205000  0.00914000  0.50652000  1.0
  C  C200  1  0.12334000  0.56491000  0.01024000  1.0
  C  C201  1  0.37666000  0.93509000  0.51024000  1.0
  C  C202  1  0.87666000  0.43509000  0.98976000  1.0
  C  C203  1  0.62334000  0.06491000  0.48976000  1.0
  C  C204  1  0.10420000  0.56882000  0.05031000  1.0
  C  C205  1  0.39580000  0.93118000  0.55031000  1.0
  C  C206  1  0.89581000  0.43118000  0.94969000  1.0
  C  C207  1  0.60420000  0.06882000  0.44969000  1.0
  C  C208  1  0.19414000  0.51417000  0.07346000  1.0
  C  C209  1  0.30586000  0.98583000  0.57346000  1.0
  C  C210  1  0.80586000  0.48583000  0.92654000  1.0
  C  C211  1  0.69414000  0.01417000  0.42654000  1.0
  C  C212  1  0.30268000  0.45716000  0.05710000  1.0
  C  C213  1  0.19732000  0.04284000  0.55710000  1.0
  C  C214  1  0.69732000  0.54284000  0.94290000  1.0
  C  C215  1  0.80268000  0.95716000  0.44290000  1.0
  C  C216  1  0.39187000  0.39641000  0.08246000  1.0
  C  C217  1  0.10813000  0.10359000  0.58246000  1.0
  C  C218  1  0.60813000  0.60359000  0.91754000  1.0
  C  C219  1  0.89187000  0.89641000  0.41754000  1.0
  C  C220  1  0.44524000  0.40102000  0.99928000  1.0
  C  C221  1  0.05476000  0.09898000  0.49928000  1.0
  C  C222  1  0.55476000  0.59898000  0.00072000  1.0
  C  C223  1  0.94524000  0.90102000  0.50072000  1.0
  C  C224  1  0.25126000  0.50649000  0.95058000  1.0
  C  C225  1  0.24874000  0.99351000  0.45058000  1.0
  C  C226  1  0.74874000  0.49351000  0.04942000  1.0
  C  C227  1  0.75126000  0.00649000  0.54942000  1.0
  C  C228  1  0.03030000  0.62195000  0.98451000  1.0
  C  C229  1  0.46970000  0.87805000  0.48451000  1.0
  C  C230  1  0.96969000  0.37805000  0.01549000  1.0
  C  C231  1  0.53030000  0.12195000  0.51550000  1.0
  C  C232  1  0.98802000  0.63116000  0.06690000  1.0
  C  C233  1  0.51198000  0.86884000  0.56690000  1.0
  C  C234  1  0.01198000  0.36884000  0.93310000  1.0
  C  C235  1  0.48802000  0.13116000  0.43310000  1.0
  C  C236  1  0.16907000  0.51045000  0.11581000  1.0
  C  C237  1  0.33093000  0.98955000  0.61581000  1.0
  C  C238  1  0.83093000  0.48956000  0.88419000  1.0
  C  C239  1  0.66906000  0.01045000  0.38419000  1.0
  C  C240  1  0.47549000  0.28438000  0.96070000  1.0
  C  C241  1  0.02452000  0.21562000  0.46071000  1.0
  C  C242  1  0.52452000  0.71562000  0.03929000  1.0
  C  C243  1  0.97548000  0.78438000  0.53930000  1.0
  C  C244  1  0.41278000  0.22418000  0.94313000  1.0
  C  C245  1  0.08723000  0.27582000  0.44313000  1.0
  C  C246  1  0.58722000  0.77582000  0.05687000  1.0
  C  C247  1  0.91277000  0.72418000  0.55687000  1.0
  C  C248  1  0.49259000  0.17437000  0.91682000  1.0
  C  C249  1  0.00742000  0.32563000  0.41682000  1.0
  C  C250  1  0.50741000  0.82563000  0.08318000  1.0
  C  C251  1  0.99258000  0.67437000  0.58318000  1.0
  C  C252  1  0.63390000  0.18555000  0.90683000  1.0
  C  C253  1  0.86610000  0.31445000  0.40683000  1.0
  C  C254  1  0.36609000  0.81445000  0.09317000  1.0
  C  C255  1  0.13390000  0.68555000  0.59317000  1.0
  C  C256  1  0.69479000  0.24583000  0.92446000  1.0
  C  C257  1  0.80521000  0.25418000  0.42446000  1.0
  C  C258  1  0.30521000  0.75418000  0.07554000  1.0
  C  C259  1  0.19479000  0.74583000  0.57554000  1.0
  C  C260  1  0.61823000  0.29446000  0.95192000  1.0
  C  C261  1  0.88178000  0.20554000  0.45192000  1.0
  C  C262  1  0.38177000  0.70554000  0.04808000  1.0
  C  C263  1  0.11822000  0.79447000  0.54808000  1.0
  C  C264  1  0.71845000  0.13526000  0.87730000  1.0
  C  C265  1  0.78155000  0.36474000  0.37730000  1.0
  C  C266  1  0.28155000  0.86474000  0.12270000  1.0
  C  C267  1  0.21845000  0.63526000  0.62270000  1.0
  C  C268  1  0.06574000  0.72393000  0.94016000  1.0
  C  C269  1  0.43426000  0.77607000  0.44016000  1.0
  C  C270  1  0.93425000  0.27607000  0.05984000  1.0
  C  C271  1  0.56574000  0.22393000  0.55984000  1.0
  C  C272  1  0.16320000  0.76683000  0.92207000  1.0
  C  C273  1  0.33680000  0.73317000  0.42207000  1.0
  C  C274  1  0.83679000  0.23317000  0.07793000  1.0
  C  C275  1  0.66320000  0.26683000  0.57794000  1.0
  C  C276  1  0.11388000  0.82202000  0.89407000  1.0
  C  C277  1  0.38612000  0.67798000  0.39407000  1.0
  C  C278  1  0.88611000  0.17798000  0.10593000  1.0
  C  C279  1  0.61388000  0.32202000  0.60593000  1.0
  C  C280  1  0.96740000  0.83356000  0.88283000  1.0
  C  C281  1  0.53260000  0.66644000  0.38283000  1.0
  C  C282  1  0.03260000  0.16644000  0.11717000  1.0
  C  C283  1  0.46740000  0.33356000  0.61717000  1.0
  C  C284  1  0.87226000  0.78873000  0.90024000  1.0
  C  C285  1  0.62774000  0.71127000  0.40024000  1.0
  C  C286  1  0.12774000  0.21127000  0.09976000  1.0
  C  C287  1  0.37226000  0.28873000  0.59976000  1.0
  C  C288  1  0.91917000  0.73481000  0.92921000  1.0
  C  C289  1  0.58083000  0.76519000  0.42921000  1.0
  C  C290  1  0.08083000  0.26519000  0.07079000  1.0
  C  C291  1  0.41917000  0.23481000  0.57079000  1.0
  C  C292  1  0.91008000  0.89529000  0.85397000  1.0
  C  C293  1  0.58992000  0.60471000  0.35397000  1.0
  C  C294  1  0.08991000  0.10470000  0.14603000  1.0
  C  C295  1  0.41008000  0.39529000  0.64603000  1.0
  C  C296  1  0.01487000  0.44189000  0.15521000  1.0
  C  C297  1  0.48513000  0.05812000  0.65521000  1.0
  C  C298  1  0.98514000  0.55811000  0.84479000  1.0
  C  C299  1  0.51486000  0.94188000  0.34479000  1.0
  C  C300  1  0.93327000  0.37969000  0.15766000  1.0
  C  C301  1  0.56673000  0.12031000  0.65766000  1.0
  C  C302  1  0.06673000  0.62031000  0.84234000  1.0
  C  C303  1  0.43327000  0.87968000  0.34234000  1.0
  C  C304  1  0.85429000  0.37096000  0.19053000  1.0
  C  C305  1  0.64571000  0.12904000  0.69053000  1.0
  C  C306  1  0.14572000  0.62904000  0.80947000  1.0
  C  C307  1  0.35429000  0.87096000  0.30947000  1.0
  C  C308  1  0.85311000  0.42425000  0.22118000  1.0
  C  C309  1  0.64689000  0.07575000  0.72118000  1.0
  C  C310  1  0.14690000  0.57575000  0.77882000  1.0
  C  C311  1  0.35311000  0.92425000  0.27882000  1.0
  C  C312  1  0.93929000  0.48410000  0.21888000  1.0
  C  C313  1  0.56072000  0.01590000  0.71888000  1.0
  C  C314  1  0.06073000  0.51590000  0.78113000  1.0
  C  C315  1  0.43928000  0.98410000  0.28112000  1.0
  C  C316  1  0.02166000  0.49281000  0.18630000  1.0
  C  C317  1  0.47835000  0.00719000  0.68630000  1.0
  C  C318  1  0.97835000  0.50719000  0.81370000  1.0
  C  C319  1  0.52165000  0.99281000  0.31370000  1.0
  C  C320  1  0.75614000  0.41901000  0.25449000  1.0
  C  C321  1  0.74386000  0.08099000  0.75449000  1.0
  C  C322  1  0.24387000  0.58099000  0.74552000  1.0
  C  C323  1  0.25614000  0.91901000  0.24551000  1.0
  C  C324  1  0.57875000  0.93912000  0.91561000  1.0
  C  C325  1  0.92124000  0.56089000  0.41561000  1.0
  C  C326  1  0.42125000  0.06088000  0.08439000  1.0
  C  C327  1  0.07876000  0.43911000  0.58439000  1.0
  C  C328  1  0.66619000  0.91625000  0.98094000  1.0
  C  C329  1  0.83381000  0.58375000  0.48095000  1.0
  C  C330  1  0.33381000  0.08375000  0.01906000  1.0
  C  C331  1  0.16619000  0.41625000  0.51905000  1.0
  C  C332  1  0.44020000  0.86898000  0.95960000  1.0
  C  C333  1  0.05980000  0.63103000  0.45960000  1.0
  C  C334  1  0.55979000  0.13102000  0.04040000  1.0
  C  C335  1  0.94020000  0.36897000  0.54040000  1.0
  C  C336  1  0.61896000  0.82234000  0.78273000  1.0
  C  C337  1  0.88104000  0.67766000  0.28273000  1.0
  C  C338  1  0.38105000  0.17766000  0.21727000  1.0
  C  C339  1  0.11896000  0.32234000  0.71727000  1.0
  C  C340  1  0.48548000  0.72663000  0.81167000  1.0
  C  C341  1  0.01452000  0.77337000  0.31167000  1.0
  C  C342  1  0.51453000  0.27336000  0.18833000  1.0
  C  C343  1  0.98547000  0.22664000  0.68833000  1.0
  C  C344  1  0.72277000  0.68306000  0.77979000  1.0
  C  C345  1  0.77723000  0.81694000  0.27979000  1.0
  C  C346  1  0.27723000  0.31694000  0.22021000  1.0
  C  C347  1  0.22277000  0.18306000  0.72021000  1.0
  C  C348  1  0.26224000  0.03421000  0.81568000  1.0
  C  C349  1  0.23777000  0.46579000  0.31568000  1.0
  C  C350  1  0.73776000  0.96579000  0.18432000  1.0
  C  C351  1  0.76224000  0.53421000  0.68432000  1.0
  C  C352  1  0.19789000  0.16166000  0.81698000  1.0
  C  C353  1  0.30211000  0.33835000  0.31698000  1.0
  C  C354  1  0.80211000  0.83834000  0.18302000  1.0
  C  C355  1  0.69789000  0.66165000  0.68302000  1.0
  C  C356  1  0.12600000  0.23980000  0.81783000  1.0
  C  C357  1  0.37401000  0.26021000  0.31783000  1.0
  C  C358  1  0.87401000  0.76021000  0.18217000  1.0
  C  C359  1  0.62599000  0.73980000  0.68217000  1.0
  C  C360  1  0.21196000  0.29947000  0.81721000  1.0
  C  C361  1  0.28804000  0.20054000  0.31721000  1.0
  C  C362  1  0.78804000  0.70054000  0.18279000  1.0
  C  C363  1  0.71197000  0.79947000  0.68279000  1.0
  C  C364  1  0.36505000  0.28197000  0.81541000  1.0
  C  C365  1  0.13495000  0.21804000  0.31541000  1.0
  C  C366  1  0.63495000  0.71803000  0.18459000  1.0
  C  C367  1  0.86505000  0.78197000  0.68459000  1.0
  C  C368  1  0.43757000  0.20434000  0.81469000  1.0
  C  C369  1  0.06244000  0.29566000  0.31469000  1.0
  C  C370  1  0.56243000  0.79566000  0.18531000  1.0
  C  C371  1  0.93757000  0.70434000  0.68531000  1.0
  C  C372  1  0.35233000  0.14389000  0.81593000  1.0
  C  C373  1  0.14768000  0.35612000  0.31593000  1.0
  C  C374  1  0.64767000  0.85612000  0.18407000  1.0
  C  C375  1  0.85232000  0.64388000  0.68407000  1.0
  N  N376  1  0.55961000  0.91137000  0.95108000  1.0
  N  N377  1  0.94039000  0.58864000  0.45108000  1.0
  N  N378  1  0.44039000  0.08863000  0.04892000  1.0
  N  N379  1  0.05961000  0.41136000  0.54892000  1.0
  N  N380  1  0.60987000  0.74733000  0.79110000  1.0
  N  N381  1  0.89013000  0.75266000  0.29109000  1.0
  N  N382  1  0.39014000  0.25267000  0.20890000  1.0
  N  N383  1  0.10986000  0.24734000  0.70890000  1.0
  N  N384  1  0.38936000  0.06220000  0.81529000  1.0
  N  N385  1  0.11064000  0.43780000  0.31529000  1.0
  N  N386  1  0.61064000  0.93780000  0.18471000  1.0
  N  N387  1  0.88936000  0.56220000  0.68471000  1.0
  N  N388  1  0.14441000  0.09060000  0.81643000  1.0
  N  N389  1  0.35559000  0.40940000  0.31643000  1.0
  N  N390  1  0.85559000  0.90940000  0.18357000  1.0
  N  N391  1  0.64441000  0.59060000  0.68357000  1.0
  O  O392  1  0.68691000  0.06681000  0.87074000  1.0
  O  O393  1  0.81309000  0.43319000  0.37075000  1.0
  O  O394  1  0.31309000  0.93319000  0.12926000  1.0
  O  O395  1  0.18691000  0.56681000  0.62925000  1.0
  O  O396  1  0.82059000  0.16329000  0.86022000  1.0
  O  O397  1  0.67941000  0.33671000  0.36022000  1.0
  O  O398  1  0.17941000  0.83671000  0.13978000  1.0
  O  O399  1  0.32059000  0.66329000  0.63978000  1.0
  O  O400  1  0.38871000  0.33170000  0.98597000  1.0
  O  O401  1  0.11129000  0.16830000  0.48597000  1.0
  O  O402  1  0.61129000  0.66830000  0.01403000  1.0
  O  O403  1  0.88871000  0.83170000  0.51403000  1.0
  O  O404  1  0.99145000  0.94564000  0.84513000  1.0
  O  O405  1  0.50856000  0.55436000  0.34513000  1.0
  O  O406  1  0.00855000  0.05436000  0.15487000  1.0
  O  O407  1  0.49145000  0.44564000  0.65487000  1.0
  O  O408  1  0.78277000  0.89229000  0.84128000  1.0
  O  O409  1  0.71723000  0.60771000  0.34128000  1.0
  O  O410  1  0.21723000  0.10770000  0.15872000  1.0
  O  O411  1  0.28277000  0.39229000  0.65872000  1.0
  O  O412  1  0.12410000  0.67270000  0.96797000  1.0
  O  O413  1  0.37590000  0.82730000  0.46797000  1.0
  O  O414  1  0.87590000  0.32730000  0.03203000  1.0
  O  O415  1  0.62410000  0.17270000  0.53203000  1.0
  O  O416  1  0.75083000  0.47336000  0.28081000  1.0
  O  O417  1  0.74918000  0.02664000  0.78081000  1.0
  O  O418  1  0.24918000  0.52664000  0.71919000  1.0
  O  O419  1  0.25082000  0.97336000  0.21919000  1.0
  O  O420  1  0.67685000  0.36593000  0.25664000  1.0
  O  O421  1  0.82315000  0.13407000  0.75664000  1.0
  O  O422  1  0.32316000  0.63407000  0.74336000  1.0
  O  O423  1  0.17685000  0.86593000  0.24336000  1.0
  O  O424  1  0.08295000  0.44793000  0.12096000  1.0
  O  O425  1  0.41705000  0.05207000  0.62096000  1.0
  O  O426  1  0.91705000  0.55207000  0.87904000  1.0
  O  O427  1  0.58295000  0.94793000  0.37904000  1.0
  O  O428  1  0.49730000  0.93297000  0.88777000  1.0
  O  O429  1  0.00269000  0.56704000  0.38778000  1.0
  O  O430  1  0.50270000  0.06703000  0.11223000  1.0
  O  O431  1  0.99732000  0.43296000  0.61223000  1.0
  O  O432  1  0.52242000  0.87995000  0.79084000  1.0
  O  O433  1  0.97758000  0.62005000  0.29084000  1.0
  O  O434  1  0.47759000  0.12005000  0.20916000  1.0
  O  O435  1  0.02242000  0.37995000  0.70916000  1.0
