# generated using pymatgen
data_CuSiH20C24(N2F3)2
_symmetry_space_group_name_H-M   'P 1'
_cell_length_a   8.14071000
_cell_length_b   13.47670000
_cell_length_c   13.47670000
_cell_angle_alpha   89.71340000
_cell_angle_beta   85.82200000
_cell_angle_gamma   85.82110000
_symmetry_Int_Tables_number   1
_chemical_formula_structural   CuSiH20C24(N2F3)2
_chemical_formula_sum   'Cu1 Si1 H20 C24 N4 F6'
_cell_volume   1470.67788096
_cell_formula_units_Z   1
loop_
 _symmetry_equiv_pos_site_id
 _symmetry_equiv_pos_as_xyz
  1  'x, y, z'
loop_
 _atom_site_type_symbol
 _atom_site_label
 _atom_site_symmetry_multiplicity
 _atom_site_fract_x
 _atom_site_fract_y
 _atom_site_fract_z
 _atom_site_occupancy
  Cu  Cu0  1  0.50000000  0.50000000  0.50000000  1.0
  Si  Si1  1  0.00000000  0.50000000  0.50000000  1.0
  H  H2  1  0.26398000  0.49995000  0.34152000  1.0
  H  H3  1  0.27369000  0.49996000  0.15871000  1.0
  H  H4  1  0.80644000  0.50020000  0.15642000  1.0
  H  H5  1  0.77525000  0.50008000  0.34084000  1.0
  H  H6  1  0.19354000  0.49978000  0.84356000  1.0
  H  H7  1  0.72629000  0.50004000  0.84129000  1.0
  H  H8  1  0.73602000  0.50005000  0.65849000  1.0
  H  H9  1  0.22476000  0.49991000  0.65914000  1.0
  H  H10  1  0.68926000  0.49998000  0.99933000  1.0
  H  H11  1  0.31071000  0.50001000  0.00066000  1.0
  H  H12  1  0.26397000  0.34152000  0.49995000  1.0
  H  H13  1  0.27368000  0.15871000  0.49996000  1.0
  H  H14  1  0.80644000  0.15642000  0.50021000  1.0
  H  H15  1  0.77523000  0.34085000  0.50008000  1.0
  H  H16  1  0.19354000  0.84357000  0.49978000  1.0
  H  H17  1  0.72629000  0.84129000  0.50004000  1.0
  H  H18  1  0.73602000  0.65849000  0.50005000  1.0
  H  H19  1  0.22477000  0.65914000  0.49991000  1.0
  H  H20  1  0.68926000  0.99934000  0.49999000  1.0
  H  H21  1  0.31071000  0.00066000  0.50001000  1.0
  C  C22  1  0.38176000  0.49996000  0.29762000  1.0
  C  C23  1  0.38926000  0.49997000  0.19459000  1.0
  C  C24  1  0.54263000  0.50005000  0.13928000  1.0
  C  C25  1  0.68320000  0.50016000  0.19402000  1.0
  C  C26  1  0.66754000  0.50007000  0.29738000  1.0
  C  C27  1  0.56170000  0.50000000  0.03094000  1.0
  C  C28  1  0.43827000  0.49999000  0.96906000  1.0
  C  C29  1  0.31678000  0.49984000  0.80597000  1.0
  C  C30  1  0.45735000  0.49994000  0.86071000  1.0
  C  C31  1  0.61072000  0.50002000  0.80541000  1.0
  C  C32  1  0.61824000  0.50003000  0.70238000  1.0
  C  C33  1  0.33246000  0.49993000  0.70261000  1.0
  C  C34  1  0.38175000  0.29763000  0.49996000  1.0
  C  C35  1  0.38926000  0.19459000  0.49998000  1.0
  C  C36  1  0.54263000  0.13928000  0.50006000  1.0
  C  C37  1  0.68320000  0.19403000  0.50016000  1.0
  C  C38  1  0.66753000  0.29738000  0.50007000  1.0
  C  C39  1  0.56170000  0.03094000  0.50001000  1.0
  C  C40  1  0.43827000  0.96906000  0.50000000  1.0
  C  C41  1  0.31678000  0.80597000  0.49984000  1.0
  C  C42  1  0.45735000  0.86072000  0.49994000  1.0
  C  C43  1  0.61072000  0.80541000  0.50002000  1.0
  C  C44  1  0.61824000  0.70238000  0.50003000  1.0
  C  C45  1  0.33246000  0.70261000  0.49993000  1.0
  N  N46  1  0.51889000  0.49999000  0.34840000  1.0
  N  N47  1  0.48111000  0.50001000  0.65159000  1.0
  N  N48  1  0.51888000  0.34841000  0.49999000  1.0
  N  N49  1  0.48112000  0.65159000  0.50001000  1.0
  F  F50  1  0.21373000  0.49969000  0.49968000  1.0
  F  F51  1  0.78626000  0.50030000  0.50033000  1.0
  F  F52  1  0.99998000  0.59005000  0.40995000  1.0
  F  F53  1  0.00001000  0.40994000  0.59006000  1.0
  F  F54  1  0.02096000  0.40994000  0.40994000  1.0
  F  F55  1  0.97903000  0.59006000  0.59006000  1.0
