# generated using pymatgen
data_CuH38C26(NO2)4
_symmetry_space_group_name_H-M   'P 1'
_cell_length_a   6.67748000
_cell_length_b   10.13140000
_cell_length_c   10.54070000
_cell_angle_alpha   86.81890000
_cell_angle_beta   82.74150000
_cell_angle_gamma   85.89680000
_symmetry_Int_Tables_number   1
_chemical_formula_structural   CuH38C26(NO2)4
_chemical_formula_sum   'Cu1 H38 C26 N4 O8'
_cell_volume   704.79595050
_cell_formula_units_Z   1
loop_
 _symmetry_equiv_pos_site_id
 _symmetry_equiv_pos_as_xyz
  1  'x, y, z'
loop_
 _atom_site_type_symbol
 _atom_site_label
 _atom_site_symmetry_multiplicity
 _atom_site_fract_x
 _atom_site_fract_y
 _atom_site_fract_z
 _atom_site_occupancy
  Cu  Cu0  1  0.00826000  0.33278000  0.50024000  1.0
  H  H1  1  0.70735000  0.29880000  0.02750000  1.0
  H  H2  1  0.31551000  0.37840000  0.05178000  1.0
  H  H3  1  0.28292000  0.29774000  0.80636000  1.0
  H  H4  1  0.08360000  0.38360000  0.25194000  1.0
  H  H5  1  0.80294000  0.52086000  0.33730000  1.0
  H  H6  1  0.94534000  0.61633000  0.06083000  1.0
  H  H7  1  0.07658000  0.62725000  0.19728000  1.0
  H  H8  1  0.84212000  0.71903000  0.18666000  1.0
  H  H9  1  0.50916000  0.59915000  0.23084000  1.0
  H  H10  1  0.51808000  0.42427000  0.24401000  1.0
  H  H11  1  0.59679000  0.50881000  0.09345000  1.0
  H  H12  1  0.00007000  0.21913000  0.70339000  1.0
  H  H13  1  0.62073000  0.15991000  0.88577000  1.0
  H  H14  1  0.77737000  0.92476000  0.88041000  1.0
  H  H15  1  0.92624000  0.03093000  0.95172000  1.0
  H  H16  1  0.99905000  0.98471000  0.79078000  1.0
  H  H17  1  0.76780000  0.06849000  0.61469000  1.0
  H  H18  1  0.55609000  0.18004000  0.65549000  1.0
  H  H19  1  0.55246000  0.01300000  0.71564000  1.0
  H  H20  1  0.17081000  0.84057000  0.51275000  1.0
  H  H21  1  0.78395000  0.90058000  0.38114000  1.0
  H  H22  1  0.76150000  0.66017000  0.52602000  1.0
  H  H23  1  0.49810000  0.54104000  0.63604000  1.0
  H  H24  1  0.25257000  0.54501000  0.80571000  1.0
  H  H25  1  0.37138000  0.83301000  0.77155000  1.0
  H  H26  1  0.52382000  0.69340000  0.82464000  1.0
  H  H27  1  0.29441000  0.74621000  0.91828000  1.0
  H  H28  1  0.95556000  0.70469000  0.84623000  1.0
  H  H29  1  0.94512000  0.61901000  0.70546000  1.0
  H  H30  1  0.01351000  0.78649000  0.69556000  1.0
  H  H31  1  0.30673000  0.11011000  0.18918000  1.0
  H  H32  1  0.07286000  0.93870000  0.15268000  1.0
  H  H33  1  0.01337000  0.00187000  0.30687000  1.0
  H  H34  1  0.14351000  0.84163000  0.28685000  1.0
  H  H35  1  0.51573000  0.82989000  0.17485000  1.0
  H  H36  1  0.63430000  0.98060000  0.12876000  1.0
  H  H37  1  0.43909000  0.93050000  0.04480000  1.0
  H  H38  1  0.54832000  0.08103000  0.33717000  1.0
  C  C39  1  0.86619000  0.31014000  0.00141000  1.0
  C  C40  1  0.18732000  0.34780000  0.01007000  1.0
  C  C41  1  0.17210000  0.30703000  0.89022000  1.0
  C  C42  1  0.94017000  0.37662000  0.21286000  1.0
  C  C43  1  0.81294000  0.50946000  0.23333000  1.0
  C  C44  1  0.92666000  0.62426000  0.16543000  1.0
  C  C45  1  0.59752000  0.50910000  0.19788000  1.0
  C  C46  1  0.87595000  0.24825000  0.77731000  1.0
  C  C47  1  0.74808000  0.37239000  0.73335000  1.0
  C  C48  1  0.74358000  0.12964000  0.81081000  1.0
  C  C49  1  0.86924000  0.01095000  0.86177000  1.0
  C  C50  1  0.64924000  0.09633000  0.69246000  1.0
  C  C51  1  0.33267000  0.82347000  0.49591000  1.0
  C  C52  1  0.65641000  0.85075000  0.43009000  1.0
  C  C53  1  0.64549000  0.73413000  0.50147000  1.0
  C  C54  1  0.36416000  0.60552000  0.61900000  1.0
  C  C55  1  0.25061000  0.64085000  0.75168000  1.0
  C  C56  1  0.36773000  0.73389000  0.81982000  1.0
  C  C57  1  0.02953000  0.69050000  0.74830000  1.0
  C  C58  1  0.23131000  0.52847000  0.54425000  1.0
  C  C59  1  0.33009000  0.00860000  0.23005000  1.0
  C  C60  1  0.12861000  0.94366000  0.24591000  1.0
  C  C61  1  0.48999000  0.93329000  0.13977000  1.0
  C  C62  1  0.40718000  0.02992000  0.35968000  1.0
  C  C63  1  0.25738000  0.11981000  0.44438000  1.0
  C  C64  1  0.83107000  0.25864000  0.28359000  1.0
  N  N65  1  0.99495000  0.34914000  0.07770000  1.0
  N  N66  1  0.97060000  0.28410000  0.88756000  1.0
  N  N67  1  0.44219000  0.71949000  0.54186000  1.0
  N  N68  1  0.46054000  0.90507000  0.42796000  1.0
  O  O69  1  0.78262000  0.41475000  0.61544000  1.0
  O  O70  1  0.61714000  0.42336000  0.81442000  1.0
  O  O71  1  0.20282000  0.41130000  0.59464000  1.0
  O  O72  1  0.15589000  0.57957000  0.44899000  1.0
  O  O73  1  0.23177000  0.23722000  0.39248000  1.0
  O  O74  1  0.17100000  0.07888000  0.54988000  1.0
  O  O75  1  0.81556000  0.25473000  0.40638000  1.0
  O  O76  1  0.75860000  0.17720000  0.22037000  1.0
