# generated using pymatgen
data_SnH12C11N2O5
_symmetry_space_group_name_H-M   'P 1'
_cell_length_a   7.33875000
_cell_length_b   11.47724932
_cell_length_c   17.69440087
_cell_angle_alpha   107.75429122
_cell_angle_beta   90.03545057
_cell_angle_gamma   108.63499599
_symmetry_Int_Tables_number   1
_chemical_formula_structural   SnH12C11N2O5
_chemical_formula_sum   'Sn4 H48 C44 N8 O20'
_cell_volume   1337.01629606
_cell_formula_units_Z   4
loop_
 _symmetry_equiv_pos_site_id
 _symmetry_equiv_pos_as_xyz
  1  'x, y, z'
loop_
 _atom_site_type_symbol
 _atom_site_label
 _atom_site_symmetry_multiplicity
 _atom_site_fract_x
 _atom_site_fract_y
 _atom_site_fract_z
 _atom_site_occupancy
  Sn  Sn0  1  0.82732000  0.60116000  0.15491000  1.0
  Sn  Sn1  1  0.22558000  0.39889000  0.34503000  1.0
  Sn  Sn2  1  0.17268000  0.39884000  0.84508000  1.0
  Sn  Sn3  1  0.77445000  0.60113000  0.65498000  1.0
  H  H4  1  0.69448000  0.10071000  0.64435000  1.0
  H  H5  1  0.59440000  0.89936000  0.85533000  1.0
  H  H6  1  0.30553000  0.89930000  0.35565000  1.0
  H  H7  1  0.40557000  0.10064000  0.14468000  1.0
  H  H8  1  0.83305000  0.72662000  0.03156000  1.0
  H  H9  1  0.10597000  0.27330000  0.46830000  1.0
  H  H10  1  0.16693000  0.27337000  0.96844000  1.0
  H  H11  1  0.89402000  0.72669000  0.53169000  1.0
  H  H12  1  0.98755000  0.64738000  0.01525000  1.0
  H  H13  1  0.33971000  0.35244000  0.48467000  1.0
  H  H14  1  0.01245000  0.35263000  0.98476000  1.0
  H  H15  1  0.66031000  0.64757000  0.51533000  1.0
  H  H16  1  0.92482000  0.30569000  0.62751000  1.0
  H  H17  1  0.62017000  0.69442000  0.87229000  1.0
  H  H18  1  0.07517000  0.69430000  0.37248000  1.0
  H  H19  1  0.37980000  0.30558000  0.12772000  1.0
  H  H20  1  0.90890000  0.02288000  0.34696000  1.0
  H  H21  1  0.88575000  0.97722000  0.15301000  1.0
  H  H22  1  0.09112000  0.97713000  0.65304000  1.0
  H  H23  1  0.11424000  0.02278000  0.84699000  1.0
  H  H24  1  0.52632000  0.82730000  0.54145000  1.0
  H  H25  1  0.69853000  0.17270000  0.95837000  1.0
  H  H26  1  0.47366000  0.17270000  0.45854000  1.0
  H  H27  1  0.30148000  0.82731000  0.04163000  1.0
  H  H28  1  0.20558000  0.64693000  0.14055000  1.0
  H  H29  1  0.55770000  0.35269000  0.35949000  1.0
  H  H30  1  0.79442000  0.35307000  0.85945000  1.0
  H  H31  1  0.44231000  0.64732000  0.64051000  1.0
  H  H32  1  0.15932000  0.62127000  0.23450000  1.0
  H  H33  1  0.53715000  0.37820000  0.26545000  1.0
  H  H34  1  0.84072000  0.37874000  0.76550000  1.0
  H  H35  1  0.46285000  0.62180000  0.73455000  1.0
  H  H36  1  0.17094000  0.77395000  0.22161000  1.0
  H  H37  1  0.39569000  0.22572000  0.27849000  1.0
  H  H38  1  0.82906000  0.22605000  0.77838000  1.0
  H  H39  1  0.60434000  0.77429000  0.72152000  1.0
  H  H40  1  0.51481000  0.62579000  0.09420000  1.0
  H  H41  1  0.88877000  0.37444000  0.40575000  1.0
  H  H42  1  0.48522000  0.37423000  0.90581000  1.0
  H  H43  1  0.11123000  0.62556000  0.59424000  1.0
  H  H44  1  0.44147000  0.52596000  0.15696000  1.0
  H  H45  1  0.91518000  0.47450000  0.34315000  1.0
  H  H46  1  0.55852000  0.47404000  0.84305000  1.0
  H  H47  1  0.08483000  0.52550000  0.65684000  1.0
  H  H48  1  0.49682000  0.45830000  0.05689000  1.0
  H  H49  1  0.03837000  0.54186000  0.44323000  1.0
  H  H50  1  0.50318000  0.54169000  0.94311000  1.0
  H  H51  1  0.96162000  0.45813000  0.55676000  1.0
  C  C52  1  0.87347000  0.21294000  0.58038000  1.0
  C  C53  1  0.66132000  0.78721000  0.91942000  1.0
  C  C54  1  0.12653000  0.78706000  0.41962000  1.0
  C  C55  1  0.33864000  0.21279000  0.08059000  1.0
  C  C56  1  0.71981000  0.00192000  0.52226000  1.0
  C  C57  1  0.71802000  0.99815000  0.97754000  1.0
  C  C58  1  0.28019000  0.99808000  0.47774000  1.0
  C  C59  1  0.28198000  0.00185000  0.02247000  1.0
  C  C60  1  0.82444000  0.05867000  0.46766000  1.0
  C  C61  1  0.76596000  0.94147000  0.03221000  1.0
  C  C62  1  0.17557000  0.94134000  0.53234000  1.0
  C  C63  1  0.23403000  0.05853000  0.96780000  1.0
  C  C64  1  0.82582000  0.98190000  0.38944000  1.0
  C  C65  1  0.84376000  0.01822000  0.11050000  1.0
  C  C66  1  0.17419000  0.01810000  0.61056000  1.0
  C  C67  1  0.15622000  0.98178000  0.88950000  1.0
  C  C68  1  0.72325000  0.84882000  0.36769000  1.0
  C  C69  1  0.87392000  0.15124000  0.13227000  1.0
  C  C70  1  0.27676000  0.15119000  0.63231000  1.0
  C  C71  1  0.12609000  0.84877000  0.86774000  1.0
  C  C72  1  0.61258000  0.79399000  0.42221000  1.0
  C  C73  1  0.81803000  0.20596000  0.07767000  1.0
  C  C74  1  0.38742000  0.20601000  0.57779000  1.0
  C  C75  1  0.18198000  0.79403000  0.92234000  1.0
  C  C76  1  0.61120000  0.87045000  0.50038000  1.0
  C  C77  1  0.74046000  0.12955000  0.99944000  1.0
  C  C78  1  0.38880000  0.12955000  0.49961000  1.0
  C  C79  1  0.25953000  0.87044000  0.00056000  1.0
  C  C80  1  0.75733000  0.76403000  0.29020000  1.0
  C  C81  1  0.99250000  0.23603000  0.20984000  1.0
  C  C82  1  0.24267000  0.23597000  0.70980000  1.0
  C  C83  1  0.00749000  0.76396000  0.79016000  1.0
  C  C84  1  0.48306000  0.65509000  0.39774000  1.0
  C  C85  1  0.82744000  0.34489000  0.10219000  1.0
  C  C86  1  0.51695000  0.34492000  0.60226000  1.0
  C  C87  1  0.17255000  0.65511000  0.89781000  1.0
  C  C88  1  0.12879000  0.66845000  0.19322000  1.0
  C  C89  1  0.45934000  0.33127000  0.30679000  1.0
  C  C90  1  0.87122000  0.33155000  0.80677000  1.0
  C  C91  1  0.54067000  0.66874000  0.69321000  1.0
  C  C92  1  0.53207000  0.54443000  0.10989000  1.0
  C  C93  1  0.98744000  0.45581000  0.39013000  1.0
  C  C94  1  0.46796000  0.45557000  0.89012000  1.0
  C  C95  1  0.01256000  0.54418000  0.60986000  1.0
  N  N96  1  0.91826000  0.19060000  0.50609000  1.0
  N  N97  1  0.72826000  0.80957000  0.99376000  1.0
  N  N98  1  0.08176000  0.80941000  0.49391000  1.0
  N  N99  1  0.27171000  0.19043000  0.00624000  1.0
  N  N100  1  0.75498000  0.10325000  0.59313000  1.0
  N  N101  1  0.65214000  0.89682000  0.90663000  1.0
  N  N102  1  0.24501000  0.89674000  0.40686000  1.0
  N  N103  1  0.34784000  0.10317000  0.09338000  1.0
  O  O104  1  0.75919000  0.65075000  0.28633000  1.0
  O  O105  1  0.10770000  0.34929000  0.21374000  1.0
  O  O106  1  0.24082000  0.34925000  0.71366000  1.0
  O  O107  1  0.89228000  0.65068000  0.78625000  1.0
  O  O108  1  0.79605000  0.80617000  0.23111000  1.0
  O  O109  1  0.98903000  0.19391000  0.26892000  1.0
  O  O110  1  0.20395000  0.19384000  0.76889000  1.0
  O  O111  1  0.01097000  0.80608000  0.73107000  1.0
  O  O112  1  0.37385000  0.60532000  0.33188000  1.0
  O  O113  1  0.76811000  0.39467000  0.16802000  1.0
  O  O114  1  0.62615000  0.39467000  0.66812000  1.0
  O  O115  1  0.23189000  0.60532000  0.83199000  1.0
  O  O116  1  0.47420000  0.59010000  0.44588000  1.0
  O  O117  1  0.88398000  0.40995000  0.05413000  1.0
  O  O118  1  0.52578000  0.40990000  0.55412000  1.0
  O  O119  1  0.11600000  0.59004000  0.94587000  1.0
  O  O120  1  0.91587000  0.68998000  0.05718000  1.0
  O  O121  1  0.22542000  0.30980000  0.44268000  1.0
  O  O122  1  0.08411000  0.31001000  0.94282000  1.0
  O  O123  1  0.77457000  0.69018000  0.55731000  1.0
