# generated using pymatgen
data_AlH8(C2O)6
_symmetry_space_group_name_H-M   'P 1'
_cell_length_a   6.92385000
_cell_length_b   11.02610000
_cell_length_c   15.26210000
_cell_angle_alpha   82.93890000
_cell_angle_beta   77.20570000
_cell_angle_gamma   73.81330000
_symmetry_Int_Tables_number   1
_chemical_formula_structural   AlH8(C2O)6
_chemical_formula_sum   'Al2 H16 C24 O12'
_cell_volume   1088.85249152
_cell_formula_units_Z   2
loop_
 _symmetry_equiv_pos_site_id
 _symmetry_equiv_pos_as_xyz
  1  'x, y, z'
loop_
 _atom_site_type_symbol
 _atom_site_label
 _atom_site_symmetry_multiplicity
 _atom_site_fract_x
 _atom_site_fract_y
 _atom_site_fract_z
 _atom_site_occupancy
  Al  Al0  1  0.50241000  0.49647000  0.49965000  1.0
  Al  Al1  1  0.00201000  0.49690000  0.49988000  1.0
  H  H2  1  0.26967000  0.36847000  0.58158000  1.0
  H  H3  1  0.73457000  0.62413000  0.41688000  1.0
  H  H4  1  0.83504000  0.52062000  0.93780000  1.0
  H  H5  1  0.15665000  0.49330000  0.06203000  1.0
  H  H6  1  0.70194000  0.46980000  0.23082000  1.0
  H  H7  1  0.78429000  0.48518000  0.06695000  1.0
  H  H8  1  0.30401000  0.51760000  0.76792000  1.0
  H  H9  1  0.21994000  0.50278000  0.93174000  1.0
  H  H10  1  0.77926000  0.86258000  0.49242000  1.0
  H  H11  1  0.63928000  0.09652000  0.50087000  1.0
  H  H12  1  0.34119000  0.12818000  0.56928000  1.0
  H  H13  1  0.38828000  0.15273000  0.44944000  1.0
  H  H14  1  0.53063000  0.91681000  0.43666000  1.0
  H  H15  1  0.48482000  0.89292000  0.55689000  1.0
  H  H16  1  0.96111000  0.53969000  0.70274000  1.0
  H  H17  1  0.03751000  0.46309000  0.29703000  1.0
  C  C18  1  0.84476000  0.27110000  0.50998000  1.0
  C  C19  1  0.66379000  0.52330000  0.65978000  1.0
  C  C20  1  0.16031000  0.72211000  0.48987000  1.0
  C  C21  1  0.33964000  0.47113000  0.33956000  1.0
  C  C22  1  0.61526000  0.52532000  0.75835000  1.0
  C  C23  1  0.38614000  0.47136000  0.24090000  1.0
  C  C24  1  0.76377000  0.52789000  0.80859000  1.0
  C  C25  1  0.71492000  0.51899000  0.90282000  1.0
  C  C26  1  0.23383000  0.47548000  0.19090000  1.0
  C  C27  1  0.28059000  0.48767000  0.09671000  1.0
  C  C28  1  0.58345000  0.47463000  0.19314000  1.0
  C  C29  1  0.62862000  0.48425000  0.10016000  1.0
  C  C30  1  0.41970000  0.51778000  0.80585000  1.0
  C  C31  1  0.37323000  0.50937000  0.89882000  1.0
  C  C32  1  0.52189000  0.50765000  0.94972000  1.0
  C  C33  1  0.47624000  0.49331000  0.04955000  1.0
  C  C34  1  0.92313000  0.13185000  0.50618000  1.0
  C  C35  1  0.08542000  0.86142000  0.49445000  1.0
  C  C36  1  0.12760000  0.07093000  0.50533000  1.0
  C  C37  1  0.87755000  0.92224000  0.49562000  1.0
  C  C38  1  0.20660000  0.94054000  0.49927000  1.0
  C  C39  1  0.79931000  0.05251000  0.50090000  1.0
  C  C40  1  0.33127000  0.09271000  0.50664000  1.0
  C  C41  1  0.42121000  0.94479000  0.49927000  1.0
  O  O42  1  0.65765000  0.32211000  0.50496000  1.0
  O  O43  1  0.84669000  0.53141000  0.61971000  1.0
  O  O44  1  0.02870000  0.66469000  0.48207000  1.0
  O  O45  1  0.47648000  0.48168000  0.37957000  1.0
  O  O46  1  0.34779000  0.67081000  0.49424000  1.0
  O  O47  1  0.15681000  0.46320000  0.37987000  1.0
  O  O48  1  0.97608000  0.32889000  0.51780000  1.0
  O  O49  1  0.52854000  0.51069000  0.61967000  1.0
  O  O50  1  0.25104000  0.44793000  0.54533000  1.0
  O  O51  1  0.75336000  0.54549000  0.45409000  1.0
  O  O52  1  0.95472000  0.53704000  0.76909000  1.0
  O  O53  1  0.04119000  0.47002000  0.23068000  1.0
