# generated using pymatgen
data_Zn4H6C24S4N2O19
_symmetry_space_group_name_H-M   'P 1'
_cell_length_a   19.63100000
_cell_length_b   19.66190000
_cell_length_c   33.28360000
_cell_angle_alpha   79.30730000
_cell_angle_beta   79.40060000
_cell_angle_gamma   64.07180000
_symmetry_Int_Tables_number   1
_chemical_formula_structural   Zn4H6C24S4N2O19
_chemical_formula_sum   'Zn16 H24 C96 S16 N8 O76'
_cell_volume   11276.05119408
_cell_formula_units_Z   4
loop_
 _symmetry_equiv_pos_site_id
 _symmetry_equiv_pos_as_xyz
  1  'x, y, z'
loop_
 _atom_site_type_symbol
 _atom_site_label
 _atom_site_symmetry_multiplicity
 _atom_site_fract_x
 _atom_site_fract_y
 _atom_site_fract_z
 _atom_site_occupancy
  Zn  Zn0  1  0.05853000  0.40031000  0.47827000  1.0
  Zn  Zn1  1  0.98241000  0.48347000  0.56035000  1.0
  Zn  Zn2  1  0.06036000  0.55988000  0.48195000  1.0
  Zn  Zn3  1  0.89937000  0.55449000  0.48039000  1.0
  Zn  Zn4  1  0.69429000  0.35141000  0.26978000  1.0
  Zn  Zn5  1  0.69097000  0.18857000  0.26772000  1.0
  Zn  Zn6  1  0.76731000  0.26915000  0.18967000  1.0
  Zn  Zn7  1  0.84744000  0.19233000  0.27309000  1.0
  Zn  Zn8  1  0.26602000  0.76844000  0.68974000  1.0
  Zn  Zn9  1  0.34900000  0.69370000  0.77192000  1.0
  Zn  Zn10  1  0.19318000  0.84926000  0.77084000  1.0
  Zn  Zn11  1  0.19318000  0.68586000  0.76778000  1.0
  Zn  Zn12  1  0.56261000  0.05837000  0.98246000  1.0
  Zn  Zn13  1  0.39929000  0.05605000  0.97959000  1.0
  Zn  Zn14  1  0.55760000  0.90249000  0.97746000  1.0
  Zn  Zn15  1  0.47995000  0.98467000  0.06033000  1.0
  H  H16  1  0.74827000  0.45268000  0.35067000  1.0
  H  H17  1  0.00145000  0.29663000  0.39995000  1.0
  H  H18  1  0.20146000  0.70036000  0.59856000  1.0
  H  H19  1  0.05020000  0.54904000  0.65091000  1.0
  H  H20  1  0.46474000  0.23992000  0.34075000  1.0
  H  H21  1  0.47862000  0.70243000  0.60121000  1.0
  H  H22  1  0.20273000  0.98024000  0.60098000  1.0
  H  H23  1  0.94850000  0.96772000  0.34903000  1.0
  H  H24  1  0.65115000  0.15195000  0.04946000  1.0
  H  H25  1  0.59824000  0.09870000  0.20073000  1.0
  H  H26  1  0.54859000  0.77303000  0.14762000  1.0
  H  H27  1  0.15909000  0.14263000  0.04140000  1.0
  H  H28  1  0.29722000  0.00221000  0.89955000  1.0
  H  H29  1  0.45226000  0.74961000  0.85007000  1.0
  H  H30  1  0.30167000  0.27908000  0.90206000  1.0
  H  H31  1  0.79030000  0.00906000  0.90800000  1.0
  H  H32  1  0.32567000  0.54247000  0.39935000  1.0
  H  H33  1  0.75526000  0.54073000  0.68511000  1.0
  H  H34  1  0.04054000  0.25775000  0.68360000  1.0
  H  H35  1  0.74418000  0.81029000  0.38826000  1.0
  H  H36  1  0.70786000  0.49431000  0.06514000  1.0
  H  H37  1  0.14491000  0.07937000  0.22238000  1.0
  H  H38  1  0.50837000  0.43278000  0.86278000  1.0
  H  H39  1  0.92662000  0.70645000  0.84935000  1.0
  C  C40  1  0.06241000  0.31681000  0.56160000  1.0
  C  C41  1  0.07011000  0.56782000  0.56868000  1.0
  C  C42  1  0.18478000  0.43935000  0.43744000  1.0
  C  C43  1  0.93656000  0.68237000  0.43980000  1.0
  C  C44  1  0.93141000  0.42860000  0.43248000  1.0
  C  C45  1  0.81560000  0.56132000  0.56313000  1.0
  C  C46  1  0.56698000  0.31153000  0.31090000  1.0
  C  C47  1  0.67955000  0.18205000  0.18177000  1.0
  C  C48  1  0.68970000  0.43615000  0.18718000  1.0
  C  C49  1  0.93287000  0.18783000  0.19043000  1.0
  C  C50  1  0.81671000  0.31910000  0.31975000  1.0
  C  C51  1  0.81136000  0.06324000  0.31192000  1.0
  C  C52  1  0.43258000  0.69005000  0.68835000  1.0
  C  C53  1  0.31986000  0.81967000  0.81798000  1.0
  C  C54  1  0.18745000  0.93478000  0.68794000  1.0
  C  C55  1  0.06825000  0.80854000  0.81084000  1.0
  C  C56  1  0.18380000  0.67927000  0.68082000  1.0
  C  C57  1  0.31483000  0.56435000  0.81232000  1.0
  C  C58  1  0.43898000  0.18262000  0.93890000  1.0
  C  C59  1  0.43082000  0.93317000  0.93050000  1.0
  C  C60  1  0.68712000  0.93828000  0.93821000  1.0
  C  C61  1  0.56033000  0.81836000  0.06056000  1.0
  C  C62  1  0.56768000  0.07080000  0.06844000  1.0
  C  C63  1  0.31284000  0.06210000  0.06178000  1.0
  C  C64  1  0.90206000  0.40266000  0.40230000  1.0
  C  C65  1  0.84850000  0.34743000  0.34744000  1.0
  C  C66  1  0.83118000  0.44591000  0.38746000  1.0
  C  C67  1  0.92020000  0.30496000  0.36149000  1.0
  C  C68  1  0.80414000  0.41873000  0.36115000  1.0
  C  C69  1  0.94620000  0.33112000  0.38883000  1.0
  C  C70  1  0.09795000  0.59904000  0.59696000  1.0
  C  C71  1  0.15189000  0.65223000  0.65259000  1.0
  C  C72  1  0.13999000  0.64269000  0.58302000  1.0
  C  C73  1  0.10830000  0.61009000  0.66653000  1.0
  C  C74  1  0.16762000  0.66782000  0.61005000  1.0
  C  C75  1  0.08283000  0.58282000  0.63950000  1.0
  C  C76  1  0.30491000  0.45552000  0.40039000  1.0
  C  C77  1  0.44763000  0.29683000  0.34871000  1.0
  C  C78  1  0.25951000  0.41525000  0.41310000  1.0
  C  C79  1  0.49247000  0.33676000  0.33601000  1.0
  C  C80  1  0.37958000  0.33962000  0.37241000  1.0
  C  C81  1  0.37382000  0.41172000  0.37712000  1.0
  C  C82  1  0.72538000  0.57608000  0.63086000  1.0
  C  C83  1  0.52329000  0.67386000  0.62143000  1.0
  C  C84  1  0.74150000  0.58594000  0.58808000  1.0
  C  C85  1  0.50751000  0.66459000  0.66382000  1.0
  C  C86  1  0.60262000  0.64214000  0.60925000  1.0
  C  C87  1  0.64561000  0.60873000  0.64284000  1.0
  C  C88  1  0.07620000  0.22721000  0.62953000  1.0
  C  C89  1  0.17335000  0.02507000  0.62096000  1.0
  C  C90  1  0.08619000  0.24288000  0.58670000  1.0
  C  C91  1  0.16275000  0.00971000  0.66334000  1.0
  C  C92  1  0.14137000  0.10421000  0.60847000  1.0
  C  C93  1  0.10761000  0.14754000  0.64182000  1.0
  C  C94  1  0.84228000  0.79802000  0.39809000  1.0
  C  C95  1  0.90397000  0.94732000  0.35343000  1.0
  C  C96  1  0.91104000  0.75668000  0.41508000  1.0
  C  C97  1  0.83561000  0.98859000  0.33689000  1.0
  C  C98  1  0.90643000  0.87815000  0.37600000  1.0
  C  C99  1  0.83983000  0.86786000  0.37587000  1.0
  C  C100  1  0.65347000  0.15181000  0.15208000  1.0
  C  C101  1  0.59798000  0.09669000  0.09809000  1.0
  C  C102  1  0.66835000  0.16515000  0.10920000  1.0
  C  C103  1  0.58463000  0.08181000  0.14098000  1.0
  C  C104  1  0.64028000  0.13949000  0.08265000  1.0
  C  C105  1  0.61047000  0.10968000  0.16752000  1.0
  C  C106  1  0.67397000  0.52577000  0.11915000  1.0
  C  C107  1  0.57641000  0.72810000  0.12762000  1.0
  C  C108  1  0.66466000  0.51011000  0.16203000  1.0
  C  C109  1  0.58528000  0.74340000  0.08516000  1.0
  C  C110  1  0.60795000  0.64890000  0.14009000  1.0
  C  C111  1  0.64093000  0.60545000  0.10676000  1.0
  C  C112  1  0.07962000  0.12424000  0.17953000  1.0
  C  C113  1  0.16714000  0.12570000  0.07381000  1.0
  C  C114  1  0.00743000  0.16262000  0.16597000  1.0
  C  C115  1  0.23866000  0.08686000  0.08714000  1.0
  C  C116  1  0.10908000  0.13896000  0.10730000  1.0
  C  C117  1  0.13776000  0.11043000  0.14567000  1.0
  C  C118  1  0.34621000  0.84903000  0.84794000  1.0
  C  C119  1  0.40228000  0.90177000  0.90274000  1.0
  C  C120  1  0.30319000  0.91971000  0.86283000  1.0
  C  C121  1  0.44450000  0.83021000  0.88868000  1.0
  C  C122  1  0.33084000  0.94643000  0.88906000  1.0
  C  C123  1  0.41800000  0.80467000  0.86130000  1.0
  C  C124  1  0.40936000  0.44754000  0.85336000  1.0
  C  C125  1  0.34639000  0.29918000  0.89773000  1.0
  C  C126  1  0.34009000  0.49010000  0.83706000  1.0
  C  C127  1  0.41485000  0.25731000  0.91405000  1.0
  C  C128  1  0.34392000  0.36874000  0.87578000  1.0
  C  C129  1  0.41112000  0.37808000  0.87567000  1.0
  C  C130  1  0.94789000  0.79317000  0.84811000  1.0
  C  C131  1  0.80697000  0.95209000  0.90028000  1.0
  C  C132  1  0.99409000  0.83265000  0.83564000  1.0
  C  C133  1  0.76161000  0.91269000  0.91313000  1.0
  C  C134  1  0.87506000  0.90860000  0.87685000  1.0
  C  C135  1  0.87978000  0.83694000  0.87196000  1.0
  S  S136  1  0.30111000  0.32483000  0.39686000  1.0
  S  S137  1  0.45240000  0.42657000  0.35268000  1.0
  S  S138  1  0.65981000  0.63445000  0.56292000  1.0
  S  S139  1  0.58866000  0.61710000  0.68932000  1.0
  S  S140  1  0.13362000  0.16090000  0.56194000  1.0
  S  S141  1  0.11420000  0.09100000  0.68844000  1.0
  S  S142  1  0.97167000  0.80302000  0.40400000  1.0
  S  S143  1  0.77382000  0.94372000  0.34855000  1.0
  S  S144  1  0.61612000  0.59225000  0.18669000  1.0
  S  S145  1  0.63198000  0.66195000  0.06005000  1.0
  S  S146  1  0.01091000  0.18144000  0.11247000  1.0
  S  S147  1  0.23600000  0.06629000  0.14047000  1.0
  S  S148  1  0.27805000  0.44535000  0.84894000  1.0
  S  S149  1  0.47692000  0.30179000  0.90284000  1.0
  S  S150  1  0.95450000  0.92210000  0.85295000  1.0
  S  S151  1  0.80107000  0.82269000  0.89672000  1.0
  N  N152  1  0.78171000  0.52439000  0.39747000  1.0
  N  N153  1  0.97398000  0.23103000  0.34692000  1.0
  N  N154  1  0.15538000  0.66732000  0.53878000  1.0
  N  N155  1  0.08382000  0.59472000  0.71079000  1.0
  N  N156  1  0.71693000  0.20511000  0.08931000  1.0
  N  N157  1  0.54475000  0.03311000  0.16066000  1.0
  N  N158  1  0.22466000  0.96942000  0.85278000  1.0
  N  N159  1  0.51856000  0.77605000  0.90318000  1.0
  O  O160  1  0.00052000  0.49893000  0.50004000  1.0
  O  O161  1  0.07394000  0.31547000  0.52240000  1.0
  O  O162  1  0.02254000  0.54026000  0.58551000  1.0
  O  O163  1  0.15284000  0.50787000  0.44601000  1.0
  O  O164  1  0.03276000  0.37579000  0.58060000  1.0
  O  O165  1  0.15769000  0.38887000  0.44794000  1.0
  O  O166  1  0.09731000  0.57106000  0.53108000  1.0
  O  O167  1  0.99996000  0.65989000  0.45470000  1.0
  O  O168  1  0.88326000  0.48569000  0.45015000  1.0
  O  O169  1  0.89458000  0.64626000  0.44436000  1.0
  O  O170  1  0.00128000  0.39013000  0.43777000  1.0
  O  O171  1  0.87460000  0.52186000  0.58180000  1.0
  O  O172  1  0.81436000  0.58182000  0.52423000  1.0
  O  O173  1  0.74928000  0.25050000  0.25020000  1.0
  O  O174  1  0.59965000  0.35709000  0.30429000  1.0
  O  O175  1  0.67199000  0.15586000  0.21946000  1.0
  O  O176  1  0.73040000  0.37716000  0.16881000  1.0
  O  O177  1  0.59217000  0.24656000  0.29797000  1.0
  O  O178  1  0.66843000  0.43715000  0.22610000  1.0
  O  O179  1  0.70547000  0.23132000  0.16652000  1.0
  O  O180  1  0.87494000  0.21662000  0.16999000  1.0
  O  O181  1  0.85085000  0.24861000  0.31564000  1.0
  O  O182  1  0.93145000  0.17952000  0.22951000  1.0
  O  O183  1  0.75782000  0.36824000  0.30356000  1.0
  O  O184  1  0.74312000  0.09299000  0.30218000  1.0
  O  O185  1  0.86007000  0.09196000  0.30208000  1.0
  O  O186  1  0.25046000  0.74968000  0.74996000  1.0
  O  O187  1  0.37427000  0.72057000  0.66860000  1.0
  O  O188  1  0.35963000  0.75034000  0.81213000  1.0
  O  O189  1  0.16660000  0.93437000  0.72673000  1.0
  O  O190  1  0.43290000  0.67917000  0.72750000  1.0
  O  O191  1  0.22741000  0.87690000  0.66854000  1.0
  O  O192  1  0.26129000  0.86691000  0.80110000  1.0
  O  O193  1  0.10135000  0.85378000  0.80648000  1.0
  O  O194  1  0.18260000  0.65037000  0.71823000  1.0
  O  O195  1  0.09362000  0.74575000  0.79562000  1.0
  O  O196  1  0.21012000  0.72802000  0.66430000  1.0
  O  O197  1  0.36264000  0.59418000  0.80160000  1.0
  O  O198  1  0.24603000  0.59305000  0.80344000  1.0
  O  O199  1  0.49969000  0.00073000  0.99986000  1.0
  O  O200  1  0.50400000  0.15684000  0.95225000  1.0
  O  O201  1  0.38186000  0.99230000  0.94643000  1.0
  O  O202  1  0.65795000  0.88973000  0.94858000  1.0
  O  O203  1  0.39324000  0.15038000  0.94491000  1.0
  O  O204  1  0.65782000  0.00637000  0.94757000  1.0
  O  O205  1  0.50126000  0.89852000  0.93499000  1.0
  O  O206  1  0.57088000  0.81840000  0.02139000  1.0
  O  O207  1  0.51696000  0.04651000  0.08346000  1.0
  O  O208  1  0.53058000  0.87651000  0.08032000  1.0
  O  O209  1  0.59505000  0.07670000  0.03085000  1.0
  O  O210  1  0.31274000  0.08258000  0.02298000  1.0
  O  O211  1  0.37147000  0.02185000  0.08089000  1.0
  O  O212  1  0.80269000  0.57449000  0.38045000  1.0
  O  O213  1  0.72163000  0.53359000  0.42002000  1.0
  O  O214  1  0.00502000  0.23339000  0.31122000  1.0
  O  O215  1  0.98628000  0.17383000  0.37239000  1.0
  O  O216  1  0.10101000  0.71824000  0.52222000  1.0
  O  O217  1  0.22212000  0.63790000  0.52295000  1.0
  O  O218  1  0.03390000  0.64934000  0.72751000  1.0
  O  O219  1  0.11234000  0.52790000  0.72662000  1.0
  O  O220  1  0.78613000  0.16928000  0.09104000  1.0
  O  O221  1  0.68445000  0.26905000  0.07072000  1.0
  O  O222  1  0.58011000  0.96417000  0.15811000  1.0
  O  O223  1  0.48119000  0.06502000  0.17971000  1.0
  O  O224  1  0.17425000  0.94906000  0.87007000  1.0
  O  O225  1  0.21584000  0.02899000  0.82981000  1.0
  O  O226  1  0.51642000  0.74532000  0.93899000  1.0
  O  O227  1  0.57561000  0.76314000  0.87758000  1.0
  O  O228  1  0.28438000  0.52664000  0.40966000  1.0
  O  O229  1  0.77979000  0.54015000  0.65684000  1.0
  O  O230  1  0.04064000  0.28188000  0.65524000  1.0
  O  O231  1  0.78642000  0.77332000  0.40307000  1.0
  O  O232  1  0.70979000  0.47091000  0.09365000  1.0
  O  O233  1  0.09049000  0.10331000  0.21976000  1.0
  O  O234  1  0.46630000  0.47095000  0.84823000  1.0
  O  O235  1  0.96756000  0.72253000  0.83846000  1.0
