# generated using pymatgen
data_NiH12C18(NO2)2
_symmetry_space_group_name_H-M   'P 1'
_cell_length_a   9.52267000
_cell_length_b   9.52258000
_cell_length_c   11.18060000
_cell_angle_alpha   67.28790000
_cell_angle_beta   67.28780000
_cell_angle_gamma   64.98130000
_symmetry_Int_Tables_number   1
_chemical_formula_structural   NiH12C18(NO2)2
_chemical_formula_sum   'Ni2 H24 C36 N4 O8'
_cell_volume   816.82615546
_cell_formula_units_Z   2
loop_
 _symmetry_equiv_pos_site_id
 _symmetry_equiv_pos_as_xyz
  1  'x, y, z'
loop_
 _atom_site_type_symbol
 _atom_site_label
 _atom_site_symmetry_multiplicity
 _atom_site_fract_x
 _atom_site_fract_y
 _atom_site_fract_z
 _atom_site_occupancy
  Ni  Ni0  1  0.13210000  0.13211000  0.84170000  1.0
  Ni  Ni1  1  0.86790000  0.86790000  0.15830000  1.0
  H  H2  1  0.75499000  0.50870000  0.82079000  1.0
  H  H3  1  0.50870000  0.75500000  0.82079000  1.0
  H  H4  1  0.24500000  0.49130000  0.17922000  1.0
  H  H5  1  0.49130000  0.24501000  0.17922000  1.0
  H  H6  1  0.46023000  0.46022000  0.74338000  1.0
  H  H7  1  0.53978000  0.53976000  0.25662000  1.0
  H  H8  1  0.37306000  0.37305000  0.43102000  1.0
  H  H9  1  0.62695000  0.62693000  0.56897000  1.0
  H  H10  1  0.95240000  0.35672000  0.01722000  1.0
  H  H11  1  0.35671000  0.95242000  0.01721000  1.0
  H  H12  1  0.04760000  0.64329000  0.98278000  1.0
  H  H13  1  0.64329000  0.04759000  0.98279000  1.0
  H  H14  1  0.94755000  0.37231000  0.23354000  1.0
  H  H15  1  0.37231000  0.94756000  0.23353000  1.0
  H  H16  1  0.05245000  0.62769000  0.76646000  1.0
  H  H17  1  0.62769000  0.05244000  0.76647000  1.0
  H  H18  1  0.93812000  0.36279000  0.41674000  1.0
  H  H19  1  0.36279000  0.93812000  0.41673000  1.0
  H  H20  1  0.06189000  0.63721000  0.58327000  1.0
  H  H21  1  0.63721000  0.06188000  0.58327000  1.0
  H  H22  1  0.93037000  0.33392000  0.64895000  1.0
  H  H23  1  0.33393000  0.93037000  0.64895000  1.0
  H  H24  1  0.06963000  0.66608000  0.35105000  1.0
  H  H25  1  0.66608000  0.06963000  0.35105000  1.0
  C  C26  1  0.78276000  0.21724000  0.00000000  1.0
  C  C27  1  0.21723000  0.78277000  0.00000000  1.0
  C  C28  1  0.63652000  0.36348000  0.00000000  1.0
  C  C29  1  0.36348000  0.63653000  1.00000000  1.0
  C  C30  1  0.64237000  0.50648000  0.89834000  1.0
  C  C31  1  0.50648000  0.64237000  0.89834000  1.0
  C  C32  1  0.35763000  0.49352000  0.10167000  1.0
  C  C33  1  0.49352000  0.35763000  0.10167000  1.0
  C  C34  1  0.30592000  0.30592000  0.69925000  1.0
  C  C35  1  0.69408000  0.69407000  0.30075000  1.0
  C  C36  1  0.40660000  0.40660000  0.59752000  1.0
  C  C37  1  0.59340000  0.59339000  0.40249000  1.0
  C  C38  1  0.47771000  0.47770000  0.63689000  1.0
  C  C39  1  0.52230000  0.52229000  0.36310000  1.0
  C  C40  1  0.42901000  0.42901000  0.46072000  1.0
  C  C41  1  0.57100000  0.57098000  0.53927000  1.0
  C  C42  1  0.04113000  0.26626000  0.07044000  1.0
  C  C43  1  0.26626000  0.04114000  0.07044000  1.0
  C  C44  1  0.95887000  0.73374000  0.92956000  1.0
  C  C45  1  0.73374000  0.95886000  0.92956000  1.0
  C  C46  1  0.03915000  0.27332000  0.19272000  1.0
  C  C47  1  0.27331000  0.03916000  0.19272000  1.0
  C  C48  1  0.96085000  0.72668000  0.80728000  1.0
  C  C49  1  0.72669000  0.96084000  0.80728000  1.0
  C  C50  1  0.15473000  0.15474000  0.25952000  1.0
  C  C51  1  0.84527000  0.84526000  0.74049000  1.0
  C  C52  1  0.14974000  0.14975000  0.39488000  1.0
  C  C53  1  0.85026000  0.85025000  0.60512000  1.0
  C  C54  1  0.02850000  0.26291000  0.46320000  1.0
  C  C55  1  0.26291000  0.02850000  0.46320000  1.0
  C  C56  1  0.97150000  0.73709000  0.53680000  1.0
  C  C57  1  0.73709000  0.97150000  0.53680000  1.0
  C  C58  1  0.02340000  0.24912000  0.59298000  1.0
  C  C59  1  0.24912000  0.02340000  0.59298000  1.0
  C  C60  1  0.97660000  0.75088000  0.40702000  1.0
  C  C61  1  0.75088000  0.97660000  0.40702000  1.0
  N  N62  1  0.14953000  0.14954000  0.01103000  1.0
  N  N63  1  0.85047000  0.85046000  0.98897000  1.0
  N  N64  1  0.13097000  0.13097000  0.65807000  1.0
  N  N65  1  0.86903000  0.86903000  0.34194000  1.0
  O  O66  1  0.89199000  0.21602000  0.88943000  1.0
  O  O67  1  0.21602000  0.89199000  0.88943000  1.0
  O  O68  1  0.10801000  0.78399000  0.11057000  1.0
  O  O69  1  0.78399000  0.10801000  0.11057000  1.0
  O  O70  1  0.37255000  0.15464000  0.73915000  1.0
  O  O71  1  0.15464000  0.37255000  0.73915000  1.0
  O  O72  1  0.62745000  0.84535000  0.26085000  1.0
  O  O73  1  0.84536000  0.62745000  0.26085000  1.0
