# generated using pymatgen
data_ZnH14C20N3O4
_symmetry_space_group_name_H-M   'P 1'
_cell_length_a   11.52510000
_cell_length_b   11.52510000
_cell_length_c   16.28530000
_cell_angle_alpha   91.02680000
_cell_angle_beta   91.02700000
_cell_angle_gamma   105.37200000
_symmetry_Int_Tables_number   1
_chemical_formula_structural   ZnH14C20N3O4
_chemical_formula_sum   'Zn4 H56 C80 N12 O16'
_cell_volume   2084.84462672
_cell_formula_units_Z   4
loop_
 _symmetry_equiv_pos_site_id
 _symmetry_equiv_pos_as_xyz
  1  'x, y, z'
loop_
 _atom_site_type_symbol
 _atom_site_label
 _atom_site_symmetry_multiplicity
 _atom_site_fract_x
 _atom_site_fract_y
 _atom_site_fract_z
 _atom_site_occupancy
  Zn  Zn0  1  0.16559000  0.36140000  0.92992000  1.0
  Zn  Zn1  1  0.63859000  0.83441000  0.57008000  1.0
  Zn  Zn2  1  0.83441000  0.63860000  0.07007000  1.0
  Zn  Zn3  1  0.36140000  0.16559000  0.42992000  1.0
  H  H4  1  0.97614000  0.63090000  0.85761000  1.0
  H  H5  1  0.36909000  0.02386000  0.64239000  1.0
  H  H6  1  0.02386000  0.36910000  0.14239000  1.0
  H  H7  1  0.63091000  0.97614000  0.35761000  1.0
  H  H8  1  0.86308000  0.74441000  0.77121000  1.0
  H  H9  1  0.25559000  0.13693000  0.72879000  1.0
  H  H10  1  0.13692000  0.25559000  0.22879000  1.0
  H  H11  1  0.74441000  0.86308000  0.27120000  1.0
  H  H12  1  0.81591000  0.30887000  0.71645000  1.0
  H  H13  1  0.69113000  0.18409000  0.78355000  1.0
  H  H14  1  0.18409000  0.69113000  0.28355000  1.0
  H  H15  1  0.30887000  0.81591000  0.21645000  1.0
  H  H16  1  0.53261000  0.48350000  0.65760000  1.0
  H  H17  1  0.51650000  0.46739000  0.84240000  1.0
  H  H18  1  0.46739000  0.51650000  0.34240000  1.0
  H  H19  1  0.48350000  0.53261000  0.15760000  1.0
  H  H20  1  0.37947000  0.36603000  0.55546000  1.0
  H  H21  1  0.63397000  0.62053000  0.94454000  1.0
  H  H22  1  0.62053000  0.63397000  0.44454000  1.0
  H  H23  1  0.36603000  0.37947000  0.05546000  1.0
  H  H24  1  0.78167000  0.29572000  0.56406000  1.0
  H  H25  1  0.70428000  0.21833000  0.93594000  1.0
  H  H26  1  0.21833000  0.70428000  0.43594000  1.0
  H  H27  1  0.29572000  0.78167000  0.06406000  1.0
  H  H28  1  0.61521000  0.18153000  0.46719000  1.0
  H  H29  1  0.81847000  0.38479000  0.03281000  1.0
  H  H30  1  0.38479000  0.81847000  0.53281000  1.0
  H  H31  1  0.18153000  0.61521000  0.96719000  1.0
  H  H32  1  0.23104000  0.16250000  0.05123000  1.0
  H  H33  1  0.83750000  0.76896000  0.44877000  1.0
  H  H34  1  0.76896000  0.83750000  0.94877000  1.0
  H  H35  1  0.16249000  0.23104000  0.55123000  1.0
  H  H36  1  0.04659000  0.00886000  0.13767000  1.0
  H  H37  1  0.99115000  0.95341000  0.36234000  1.0
  H  H38  1  0.95341000  0.99114000  0.86233000  1.0
  H  H39  1  0.00885000  0.04659000  0.63766000  1.0
  H  H40  1  0.90162000  0.22482000  0.97806000  1.0
  H  H41  1  0.77518000  0.09838000  0.52194000  1.0
  H  H42  1  0.09839000  0.77518000  0.02194000  1.0
  H  H43  1  0.22482000  0.90162000  0.47806000  1.0
  H  H44  1  0.80911000  0.96136000  0.11781000  1.0
  H  H45  1  0.03864000  0.19089000  0.38220000  1.0
  H  H46  1  0.19089000  0.03864000  0.88219000  1.0
  H  H47  1  0.96136000  0.80910000  0.61780000  1.0
  H  H48  1  0.75169000  0.05955000  0.05678000  1.0
  H  H49  1  0.94044000  0.24831000  0.44322000  1.0
  H  H50  1  0.24832000  0.94045000  0.94322000  1.0
  H  H51  1  0.05956000  0.75169000  0.55678000  1.0
  H  H52  1  0.93587000  0.06413000  0.25000000  1.0
  H  H53  1  0.06413000  0.93587000  0.75000000  1.0
  H  H54  1  0.67636000  0.21088000  0.12546000  1.0
  H  H55  1  0.78912000  0.32364000  0.37454000  1.0
  H  H56  1  0.32364000  0.78912000  0.87455000  1.0
  H  H57  1  0.21089000  0.67636000  0.62546000  1.0
  H  H58  1  0.66516000  0.33484000  0.25000000  1.0
  H  H59  1  0.33484000  0.66516000  0.75000000  1.0
  C  C60  1  0.97026000  0.39286000  0.84146000  1.0
  C  C61  1  0.60713000  0.02974000  0.65855000  1.0
  C  C62  1  0.02973000  0.60714000  0.15855000  1.0
  C  C63  1  0.39286000  0.97026000  0.34146000  1.0
  C  C64  1  0.90410000  0.46377000  0.79103000  1.0
  C  C65  1  0.53623000  0.09590000  0.70897000  1.0
  C  C66  1  0.09590000  0.53623000  0.20897000  1.0
  C  C67  1  0.46377000  0.90410000  0.29103000  1.0
  C  C68  1  0.91630000  0.58603000  0.80752000  1.0
  C  C69  1  0.41397000  0.08371000  0.69248000  1.0
  C  C70  1  0.08370000  0.41397000  0.19248000  1.0
  C  C71  1  0.58603000  0.91630000  0.30752000  1.0
  C  C72  1  0.85354000  0.64894000  0.75938000  1.0
  C  C73  1  0.35106000  0.14647000  0.74062000  1.0
  C  C74  1  0.14647000  0.35106000  0.24062000  1.0
  C  C75  1  0.64894000  0.85353000  0.25938000  1.0
  C  C76  1  0.77942000  0.59145000  0.69372000  1.0
  C  C77  1  0.40855000  0.22058000  0.80628000  1.0
  C  C78  1  0.22058000  0.40854000  0.30628000  1.0
  C  C79  1  0.59145000  0.77941000  0.19372000  1.0
  C  C80  1  0.73163000  0.66559000  0.63365000  1.0
  C  C81  1  0.33441000  0.26838000  0.86635000  1.0
  C  C82  1  0.26838000  0.33440000  0.36635000  1.0
  C  C83  1  0.66559000  0.73162000  0.13365000  1.0
  C  C84  1  0.76271000  0.46694000  0.67884000  1.0
  C  C85  1  0.53306000  0.23729000  0.82116000  1.0
  C  C86  1  0.23729000  0.53306000  0.32116000  1.0
  C  C87  1  0.46694000  0.76271000  0.17884000  1.0
  C  C88  1  0.82688000  0.40497000  0.72700000  1.0
  C  C89  1  0.59503000  0.17312000  0.77300000  1.0
  C  C90  1  0.17312000  0.59503000  0.27300000  1.0
  C  C91  1  0.40497000  0.82688000  0.22701000  1.0
  C  C92  1  0.67149000  0.40053000  0.61822000  1.0
  C  C93  1  0.59947000  0.32852000  0.88178000  1.0
  C  C94  1  0.32851000  0.59947000  0.38178000  1.0
  C  C95  1  0.40053000  0.67149000  0.11822000  1.0
  C  C96  1  0.55571000  0.41865000  0.61574000  1.0
  C  C97  1  0.58135000  0.44429000  0.88426000  1.0
  C  C98  1  0.44429000  0.58135000  0.38426000  1.0
  C  C99  1  0.41865000  0.55571000  0.11574000  1.0
  C  C100  1  0.46956000  0.35297000  0.56025000  1.0
  C  C101  1  0.64703000  0.53045000  0.93975000  1.0
  C  C102  1  0.53044000  0.64703000  0.43975000  1.0
  C  C103  1  0.35297000  0.46956000  0.06025000  1.0
  C  C104  1  0.69346000  0.31356000  0.56388000  1.0
  C  C105  1  0.68644000  0.30654000  0.93611000  1.0
  C  C106  1  0.30654000  0.68644000  0.43612000  1.0
  C  C107  1  0.31355000  0.69346000  0.06389000  1.0
  C  C108  1  0.60267000  0.25057000  0.51026000  1.0
  C  C109  1  0.74943000  0.39733000  0.98974000  1.0
  C  C110  1  0.39733000  0.74943000  0.48974000  1.0
  C  C111  1  0.25057000  0.60267000  0.01026000  1.0
  C  C112  1  0.13511000  0.15366000  0.05121000  1.0
  C  C113  1  0.84633000  0.86489000  0.44879000  1.0
  C  C114  1  0.86489000  0.84633000  0.94879000  1.0
  C  C115  1  0.15366000  0.13511000  0.55121000  1.0
  C  C116  1  0.04499000  0.07837000  0.09400000  1.0
  C  C117  1  0.92163000  0.95501000  0.40600000  1.0
  C  C118  1  0.95502000  0.92163000  0.90600000  1.0
  C  C119  1  0.07837000  0.04498000  0.59400000  1.0
  C  C120  1  0.96635000  0.18993000  0.01185000  1.0
  C  C121  1  0.81007000  0.03365000  0.48815000  1.0
  C  C122  1  0.03365000  0.81007000  0.98815000  1.0
  C  C123  1  0.18993000  0.96635000  0.51185000  1.0
  C  C124  1  0.81991000  0.05641000  0.10391000  1.0
  C  C125  1  0.94358000  0.18009000  0.39609000  1.0
  C  C126  1  0.18009000  0.94359000  0.89609000  1.0
  C  C127  1  0.05642000  0.81991000  0.60391000  1.0
  C  C128  1  0.80733000  0.12950000  0.17961000  1.0
  C  C129  1  0.87050000  0.19267000  0.32039000  1.0
  C  C130  1  0.19267000  0.87050000  0.82039000  1.0
  C  C131  1  0.12951000  0.80733000  0.67961000  1.0
  C  C132  1  0.87631000  0.12369000  0.25000000  1.0
  C  C133  1  0.12370000  0.87631000  0.75000000  1.0
  C  C134  1  0.73103000  0.20584000  0.18003000  1.0
  C  C135  1  0.79415000  0.26897000  0.31997000  1.0
  C  C136  1  0.26897000  0.79415000  0.81997000  1.0
  C  C137  1  0.20585000  0.73103000  0.68003000  1.0
  C  C138  1  0.72459000  0.27541000  0.25000000  1.0
  C  C139  1  0.27540000  0.72459000  0.75000000  1.0
  N  N140  1  0.49227000  0.27001000  0.50790000  1.0
  N  N141  1  0.72999000  0.50773000  0.99210000  1.0
  N  N142  1  0.50773000  0.72999000  0.49210000  1.0
  N  N143  1  0.27001000  0.49227000  0.00790000  1.0
  N  N144  1  0.93881000  0.10266000  0.06825000  1.0
  N  N145  1  0.89734000  0.06119000  0.43175000  1.0
  N  N146  1  0.06119000  0.89734000  0.93175000  1.0
  N  N147  1  0.10266000  0.93881000  0.56825000  1.0
  N  N148  1  0.08451000  0.22237000  0.00008000  1.0
  N  N149  1  0.77763000  0.91549000  0.49992000  1.0
  N  N150  1  0.91549000  0.77763000  0.99992000  1.0
  N  N151  1  0.22237000  0.08451000  0.50008000  1.0
  O  O152  1  0.93787000  0.28030000  0.83853000  1.0
  O  O153  1  0.71970000  0.06212000  0.66148000  1.0
  O  O154  1  0.06212000  0.71970000  0.16148000  1.0
  O  O155  1  0.28030000  0.93788000  0.33852000  1.0
  O  O156  1  0.05992000  0.45699000  0.88632000  1.0
  O  O157  1  0.54300000  0.94009000  0.61368000  1.0
  O  O158  1  0.94008000  0.54300000  0.11368000  1.0
  O  O159  1  0.45700000  0.05992000  0.38632000  1.0
  O  O160  1  0.74600000  0.64985000  0.55837000  1.0
  O  O161  1  0.35015000  0.25400000  0.94163000  1.0
  O  O162  1  0.25400000  0.35015000  0.44163000  1.0
  O  O163  1  0.64985000  0.74600000  0.05837000  1.0
  O  O164  1  0.68257000  0.74525000  0.66390000  1.0
  O  O165  1  0.25475000  0.31743000  0.83610000  1.0
  O  O166  1  0.31743000  0.25475000  0.33610000  1.0
  O  O167  1  0.74525000  0.68257000  0.16390000  1.0
