# generated using pymatgen
data_NaH18C13SNO5
_symmetry_space_group_name_H-M   'P 1'
_cell_length_a   4.97818000
_cell_length_b   10.01410000
_cell_length_c   14.82630000
_cell_angle_alpha   92.68100000
_cell_angle_beta   93.17320000
_cell_angle_gamma   90.56390000
_symmetry_Int_Tables_number   1
_chemical_formula_structural   NaH18C13SNO5
_chemical_formula_sum   'Na2 H36 C26 S2 N2 O10'
_cell_volume   737.12231773
_cell_formula_units_Z   2
loop_
 _symmetry_equiv_pos_site_id
 _symmetry_equiv_pos_as_xyz
  1  'x, y, z'
loop_
 _atom_site_type_symbol
 _atom_site_label
 _atom_site_symmetry_multiplicity
 _atom_site_fract_x
 _atom_site_fract_y
 _atom_site_fract_z
 _atom_site_occupancy
  Na  Na0  1  0.90646000  0.65146000  0.54583000  1.0
  Na  Na1  1  0.09362000  0.34855000  0.45413000  1.0
  H  H2  1  0.71010000  0.91929000  0.88084000  1.0
  H  H3  1  0.28986000  0.08069000  0.11917000  1.0
  H  H4  1  0.06292000  0.51057000  0.79470000  1.0
  H  H5  1  0.93707000  0.48944000  0.20530000  1.0
  H  H6  1  0.05811000  0.09514000  0.72679000  1.0
  H  H7  1  0.94196000  0.90488000  0.27319000  1.0
  H  H8  1  0.56442000  0.32658000  0.78728000  1.0
  H  H9  1  0.43559000  0.67344000  0.21274000  1.0
  H  H10  1  0.89818000  0.27468000  0.81570000  1.0
  H  H11  1  0.10184000  0.72532000  0.18432000  1.0
  H  H12  1  0.67486000  0.01797000  0.65383000  1.0
  H  H13  1  0.32518000  0.98202000  0.34617000  1.0
  H  H14  1  0.65185000  0.94842000  0.53977000  1.0
  H  H15  1  0.34816000  0.05160000  0.46024000  1.0
  H  H16  1  0.91132000  0.06988000  0.57481000  1.0
  H  H17  1  0.08869000  0.93011000  0.42519000  1.0
  H  H18  1  0.87255000  0.70333000  0.83811000  1.0
  H  H19  1  0.12746000  0.29665000  0.16189000  1.0
  H  H20  1  0.40388000  0.11106000  0.85352000  1.0
  H  H21  1  0.59612000  0.88894000  0.14647000  1.0
  H  H22  1  0.59279000  0.49726000  0.91649000  1.0
  H  H23  1  0.40723000  0.50275000  0.08353000  1.0
  H  H24  1  0.93831000  0.46244000  0.93766000  1.0
  H  H25  1  0.06171000  0.53755000  0.06236000  1.0
  H  H26  1  0.85963000  0.10761000  0.04165000  1.0
  H  H27  1  0.14037000  0.89238000  0.95834000  1.0
  H  H28  1  0.09816000  0.22093000  0.99843000  1.0
  H  H29  1  0.90180000  0.77907000  0.00157000  1.0
  H  H30  1  0.88170000  0.11987000  0.92242000  1.0
  H  H31  1  0.11831000  0.88013000  0.07759000  1.0
  H  H32  1  0.53680000  0.56377000  0.69198000  1.0
  H  H33  1  0.46315000  0.43623000  0.30802000  1.0
  H  H34  1  0.39254000  0.68275000  0.44906000  1.0
  H  H35  1  0.60747000  0.31722000  0.55094000  1.0
  H  H36  1  0.64969000  0.72881000  0.40313000  1.0
  H  H37  1  0.35025000  0.27122000  0.59686000  1.0
  C  C38  1  0.14656000  0.89238000  0.68656000  1.0
  C  C39  1  0.85341000  0.10761000  0.31344000  1.0
  C  C40  1  0.55097000  0.91284000  0.82726000  1.0
  C  C41  1  0.44898000  0.08715000  0.17274000  1.0
  C  C42  1  0.88407000  0.46534000  0.75759000  1.0
  C  C43  1  0.11592000  0.53466000  0.24242000  1.0
  C  C44  1  0.98739000  0.39822000  0.67048000  1.0
  C  C45  1  0.01259000  0.60180000  0.32952000  1.0
  C  C46  1  0.52260000  0.79239000  0.77248000  1.0
  C  C47  1  0.47743000  0.20762000  0.22751000  1.0
  C  C48  1  0.18084000  0.00829000  0.74044000  1.0
  C  C49  1  0.81914000  0.99171000  0.25956000  1.0
  C  C50  1  0.31413000  0.77704000  0.70083000  1.0
  C  C51  1  0.68588000  0.22296000  0.29916000  1.0
  C  C52  1  0.76241000  0.36034000  0.81694000  1.0
  C  C53  1  0.23762000  0.63966000  0.18307000  1.0
  C  C54  1  0.78910000  0.98588000  0.59549000  1.0
  C  C55  1  0.21092000  0.01412000  0.40451000  1.0
  C  C56  1  0.70693000  0.68848000  0.78681000  1.0
  C  C57  1  0.29310000  0.31152000  0.21318000  1.0
  C  C58  1  0.38245000  0.01833000  0.81204000  1.0
  C  C59  1  0.61756000  0.98168000  0.18795000  1.0
  C  C60  1  0.74324000  0.41750000  0.91331000  1.0
  C  C61  1  0.25679000  0.58252000  0.08670000  1.0
  C  C62  1  0.89591000  0.17608000  0.98782000  1.0
  C  C63  1  0.10405000  0.82393000  0.01218000  1.0
  S  S64  1  0.63918000  0.30142000  0.99497000  1.0
  S  S65  1  0.36078000  0.69859000  0.00503000  1.0
  N  N66  1  0.69727000  0.57278000  0.74046000  1.0
  N  N67  1  0.30273000  0.42721000  0.25953000  1.0
  O  O68  1  0.27946000  0.66831000  0.65130000  1.0
  O  O69  1  0.72052000  0.33169000  0.34870000  1.0
  O  O70  1  0.88515000  0.42970000  0.59364000  1.0
  O  O71  1  0.11481000  0.57030000  0.40636000  1.0
  O  O72  1  0.95773000  0.87411000  0.61652000  1.0
  O  O73  1  0.04225000  0.12588000  0.38348000  1.0
  O  O74  1  0.16967000  0.31413000  0.68483000  1.0
  O  O75  1  0.83031000  0.68589000  0.31517000  1.0
  O  O76  1  0.55311000  0.74032000  0.46040000  1.0
  O  O77  1  0.44688000  0.25966000  0.53960000  1.0
