# generated using pymatgen
data_MnH14(C6N5)2
_symmetry_space_group_name_H-M   'P 1'
_cell_length_a   7.75221000
_cell_length_b   9.51405000
_cell_length_c   11.70740000
_cell_angle_alpha   103.34200000
_cell_angle_beta   106.46000000
_cell_angle_gamma   105.63400000
_symmetry_Int_Tables_number   1
_chemical_formula_structural   MnH14(C6N5)2
_chemical_formula_sum   'Mn2 H28 C24 N20'
_cell_volume   752.06734671
_cell_formula_units_Z   2
loop_
 _symmetry_equiv_pos_site_id
 _symmetry_equiv_pos_as_xyz
  1  'x, y, z'
loop_
 _atom_site_type_symbol
 _atom_site_label
 _atom_site_symmetry_multiplicity
 _atom_site_fract_x
 _atom_site_fract_y
 _atom_site_fract_z
 _atom_site_occupancy
  Mn  Mn0  1  0.18891000  0.07648000  0.45655000  1.0
  Mn  Mn1  1  0.81109000  0.92356000  0.54345000  1.0
  H  H2  1  0.35648000  0.66384000  0.53381000  1.0
  H  H3  1  0.64352000  0.33615000  0.46619000  1.0
  H  H4  1  0.36669000  0.85970000  0.72059000  1.0
  H  H5  1  0.63332000  0.14030000  0.27941000  1.0
  H  H6  1  0.05733000  0.49372000  0.82597000  1.0
  H  H7  1  0.94266000  0.50628000  0.17403000  1.0
  H  H8  1  0.04697000  0.29928000  0.64015000  1.0
  H  H9  1  0.95302000  0.70072000  0.35986000  1.0
  H  H10  1  0.27787000  0.92541000  0.89891000  1.0
  H  H11  1  0.72214000  0.07459000  0.10109000  1.0
  H  H12  1  0.35298000  0.81243000  0.99008000  1.0
  H  H13  1  0.64703000  0.18757000  0.00993000  1.0
  H  H14  1  0.10487000  0.78286000  0.92522000  1.0
  H  H15  1  0.89514000  0.21714000  0.07478000  1.0
  H  H16  1  0.27779000  0.14944000  0.02738000  1.0
  H  H17  1  0.72218000  0.85054000  0.97262000  1.0
  H  H18  1  0.16765000  0.93202000  0.14308000  1.0
  H  H19  1  0.83235000  0.06799000  0.85694000  1.0
  H  H20  1  0.35436000  0.54141000  0.25801000  1.0
  H  H21  1  0.64564000  0.45858000  0.74198000  1.0
  H  H22  1  0.51090000  0.47658000  0.19430000  1.0
  H  H23  1  0.48909000  0.52340000  0.80569000  1.0
  H  H24  1  0.31802000  0.57790000  0.04948000  1.0
  H  H25  1  0.68198000  0.42208000  0.95051000  1.0
  H  H26  1  0.09895000  0.43923000  0.03530000  1.0
  H  H27  1  0.90105000  0.56077000  0.96469000  1.0
  H  H28  1  0.26293000  0.37797000  0.97449000  1.0
  H  H29  1  0.73705000  0.62201000  0.02551000  1.0
  C  C30  1  0.20589000  0.46958000  0.57774000  1.0
  C  C31  1  0.79412000  0.53042000  0.42226000  1.0
  C  C32  1  0.29203000  0.62849000  0.59881000  1.0
  C  C33  1  0.70798000  0.37150000  0.40120000  1.0
  C  C34  1  0.29787000  0.73665000  0.70347000  1.0
  C  C35  1  0.70214000  0.26334000  0.29653000  1.0
  C  C36  1  0.21965000  0.69100000  0.78970000  1.0
  C  C37  1  0.78036000  0.30900000  0.21030000  1.0
  C  C38  1  0.12624000  0.53219000  0.76374000  1.0
  C  C39  1  0.87376000  0.46781000  0.23626000  1.0
  C  C40  1  0.12049000  0.42218000  0.66002000  1.0
  C  C41  1  0.87951000  0.57782000  0.33998000  1.0
  C  C42  1  0.23921000  0.80934000  0.90679000  1.0
  C  C43  1  0.76080000  0.19066000  0.09322000  1.0
  C  C44  1  0.23995000  0.28066000  0.29655000  1.0
  C  C45  1  0.76006000  0.71936000  0.70345000  1.0
  C  C46  1  0.25377000  0.16232000  0.11557000  1.0
  C  C47  1  0.74621000  0.83766000  0.88443000  1.0
  C  C48  1  0.19890000  0.05575000  0.17400000  1.0
  C  C49  1  0.80111000  0.94425000  0.82601000  1.0
  C  C50  1  0.35850000  0.45465000  0.17990000  1.0
  C  C51  1  0.64150000  0.54534000  0.82009000  1.0
  C  C52  1  0.25204000  0.46156000  0.05184000  1.0
  C  C53  1  0.74795000  0.53843000  0.94815000  1.0
  N  N54  1  0.19883000  0.35244000  0.47701000  1.0
  N  N55  1  0.80117000  0.64756000  0.52299000  1.0
  N  N56  1  0.24821000  0.39843000  0.39244000  1.0
  N  N57  1  0.75180000  0.60158000  0.60756000  1.0
  N  N58  1  0.19056000  0.12999000  0.28571000  1.0
  N  N59  1  0.80944000  0.87001000  0.71429000  1.0
  N  N60  1  0.27947000  0.30390000  0.19408000  1.0
  N  N61  1  0.72052000  0.69609000  0.80591000  1.0
  N  N62  1  0.48212000  0.19782000  0.57386000  1.0
  N  N63  1  0.51788000  0.80221000  0.42613000  1.0
  N  N64  1  0.61785000  0.15916000  0.59734000  1.0
  N  N65  1  0.38213000  0.84086000  0.40266000  1.0
  N  N66  1  0.75816000  0.12697000  0.62323000  1.0
  N  N67  1  0.24182000  0.87303000  0.37678000  1.0
  N  N68  1  0.12663000  0.04636000  0.62073000  1.0
  N  N69  1  0.87338000  0.95367000  0.37926000  1.0
  N  N70  1  0.23056000  0.10720000  0.73041000  1.0
  N  N71  1  0.76946000  0.89281000  0.26958000  1.0
  N  N72  1  0.33124000  0.16560000  0.83680000  1.0
  N  N73  1  0.66878000  0.83440000  0.16319000  1.0
