# generated using pymatgen
data_CoH19C17N5O4
_symmetry_space_group_name_H-M   'P 1'
_cell_length_a   8.33382000
_cell_length_b   9.01175000
_cell_length_c   11.31950000
_cell_angle_alpha   82.89550000
_cell_angle_beta   86.01090000
_cell_angle_gamma   78.83530000
_symmetry_Int_Tables_number   1
_chemical_formula_structural   CoH19C17N5O4
_chemical_formula_sum   'Co2 H38 C34 N10 O8'
_cell_volume   826.71905101
_cell_formula_units_Z   2
loop_
 _symmetry_equiv_pos_site_id
 _symmetry_equiv_pos_as_xyz
  1  'x, y, z'
loop_
 _atom_site_type_symbol
 _atom_site_label
 _atom_site_symmetry_multiplicity
 _atom_site_fract_x
 _atom_site_fract_y
 _atom_site_fract_z
 _atom_site_occupancy
  Co  Co0  1  0.52327000  0.91424000  0.93005000  1.0
  Co  Co1  1  0.47673000  0.08576000  0.06996000  1.0
  H  H2  1  0.38469000  0.46529000  0.90720000  1.0
  H  H3  1  0.61531000  0.53471000  0.09280000  1.0
  H  H4  1  0.37813000  0.65099000  0.94668000  1.0
  H  H5  1  0.62187000  0.34901000  0.05331000  1.0
  H  H6  1  0.83089000  0.86715000  0.59331000  1.0
  H  H7  1  0.16910000  0.13284000  0.40669000  1.0
  H  H8  1  0.73526000  0.94195000  0.72288000  1.0
  H  H9  1  0.26473000  0.05805000  0.27712000  1.0
  H  H10  1  0.87964000  0.50532000  0.44567000  1.0
  H  H11  1  0.12036000  0.49469000  0.55433000  1.0
  H  H12  1  0.92779000  0.32399000  0.29103000  1.0
  H  H13  1  0.07222000  0.67603000  0.70896000  1.0
  H  H14  1  0.76799000  0.11515000  0.30518000  1.0
  H  H15  1  0.23202000  0.88486000  0.69481000  1.0
  H  H16  1  0.57830000  0.07651000  0.47977000  1.0
  H  H17  1  0.42172000  0.92349000  0.52022000  1.0
  H  H18  1  0.53211000  0.25685000  0.63385000  1.0
  H  H19  1  0.46790000  0.74313000  0.36615000  1.0
  H  H20  1  0.26004000  0.36639000  0.72983000  1.0
  H  H21  1  0.73996000  0.63362000  0.27018000  1.0
  H  H22  1  0.11099000  0.44452000  0.92003000  1.0
  H  H23  1  0.88900000  0.55549000  0.07997000  1.0
  H  H24  1  0.98179000  0.47110000  0.79877000  1.0
  H  H25  1  0.01820000  0.52890000  0.20124000  1.0
  H  H26  1  0.01565000  0.20339000  0.99754000  1.0
  H  H27  1  0.98434000  0.79661000  0.00246000  1.0
  H  H28  1  0.85074000  0.35787000  0.98199000  1.0
  H  H29  1  0.14925000  0.64213000  0.01801000  1.0
  H  H30  1  0.79086000  0.28899000  0.78668000  1.0
  H  H31  1  0.20914000  0.71101000  0.21332000  1.0
  H  H32  1  0.93793000  0.05197000  0.70929000  1.0
  H  H33  1  0.06207000  0.94803000  0.29071000  1.0
  H  H34  1  0.06718000  0.01259000  0.83073000  1.0
  H  H35  1  0.93281000  0.98742000  0.16927000  1.0
  H  H36  1  0.03874000  0.28761000  0.63821000  1.0
  H  H37  1  0.96125000  0.71240000  0.36179000  1.0
  H  H38  1  0.20473000  0.13338000  0.65113000  1.0
  H  H39  1  0.79527000  0.86662000  0.34888000  1.0
  C  C40  1  0.52112000  0.59416000  0.79903000  1.0
  C  C41  1  0.47888000  0.40584000  0.20096000  1.0
  C  C42  1  0.68430000  0.73856000  0.68780000  1.0
  C  C43  1  0.31570000  0.26144000  0.31220000  1.0
  C  C44  1  0.66237000  0.50886000  0.63354000  1.0
  C  C45  1  0.33763000  0.49113000  0.36646000  1.0
  C  C46  1  0.70126000  0.39373000  0.54803000  1.0
  C  C47  1  0.29874000  0.60627000  0.45196000  1.0
  C  C48  1  0.81499000  0.41048000  0.45216000  1.0
  C  C49  1  0.18502000  0.58952000  0.54784000  1.0
  C  C50  1  0.84146000  0.30906000  0.36634000  1.0
  C  C51  1  0.15855000  0.69094000  0.63366000  1.0
  C  C52  1  0.75434000  0.19009000  0.37505000  1.0
  C  C53  1  0.24567000  0.80991000  0.62494000  1.0
  C  C54  1  0.64528000  0.16986000  0.47239000  1.0
  C  C55  1  0.35474000  0.83015000  0.52760000  1.0
  C  C56  1  0.61905000  0.27038000  0.55879000  1.0
  C  C57  1  0.38095000  0.72961000  0.44120000  1.0
  C  C58  1  0.73925000  0.11648000  0.91091000  1.0
  C  C59  1  0.26074000  0.88352000  0.08909000  1.0
  C  C60  1  0.31338000  0.18299000  0.86295000  1.0
  C  C61  1  0.68662000  0.81701000  0.13705000  1.0
  C  C62  1  0.18900000  0.28943000  0.78480000  1.0
  C  C63  1  0.81100000  0.71057000  0.21521000  1.0
  C  C64  1  0.05612000  0.38411000  0.85983000  1.0
  C  C65  1  0.94388000  0.61590000  0.14018000  1.0
  C  C66  1  0.94481000  0.28573000  0.93130000  1.0
  C  C67  1  0.05519000  0.71427000  0.06870000  1.0
  C  C68  1  0.86578000  0.20166000  0.84799000  1.0
  C  C69  1  0.13421000  0.79834000  0.15201000  1.0
  C  C70  1  0.99595000  0.10557000  0.77239000  1.0
  C  C71  1  0.00405000  0.89443000  0.22762000  1.0
  C  C72  1  0.10990000  0.20357000  0.70297000  1.0
  C  C73  1  0.89010000  0.79643000  0.29704000  1.0
  N  N74  1  0.58100000  0.72601000  0.78551000  1.0
  N  N75  1  0.41899000  0.27399000  0.21449000  1.0
  N  N76  1  0.72986000  0.63301000  0.61052000  1.0
  N  N77  1  0.27013000  0.36698000  0.38948000  1.0
  N  N78  1  0.55997000  0.48200000  0.72673000  1.0
  N  N79  1  0.44003000  0.51800000  0.27327000  1.0
  N  N80  1  0.41385000  0.57030000  0.88964000  1.0
  N  N81  1  0.58614000  0.42970000  0.11037000  1.0
  N  N82  1  0.74552000  0.86655000  0.66132000  1.0
  N  N83  1  0.25447000  0.13345000  0.33868000  1.0
  O  O84  1  0.70713000  0.00198000  0.86710000  1.0
  O  O85  1  0.29286000  0.99802000  0.13290000  1.0
  O  O86  1  0.66185000  0.16702000  0.00372000  1.0
  O  O87  1  0.33815000  0.83298000  0.99629000  1.0
  O  O88  1  0.34141000  0.22682000  0.96200000  1.0
  O  O89  1  0.65860000  0.77319000  0.03800000  1.0
  O  O90  1  0.38342000  0.05667000  0.82633000  1.0
  O  O91  1  0.61658000  0.94333000  0.17367000  1.0
