# generated using pymatgen
data_Zn2H21C20(NO4)3
_symmetry_space_group_name_H-M   'P 1'
_cell_length_a   9.70433000
_cell_length_b   10.93590000
_cell_length_c   11.17840000
_cell_angle_alpha   90.16390000
_cell_angle_beta   92.99080000
_cell_angle_gamma   91.21630000
_symmetry_Int_Tables_number   1
_chemical_formula_structural   Zn2H21C20(NO4)3
_chemical_formula_sum   'Zn2 H21 C20 N3 O12'
_cell_volume   1184.42207762
_cell_formula_units_Z   1
loop_
 _symmetry_equiv_pos_site_id
 _symmetry_equiv_pos_as_xyz
  1  'x, y, z'
loop_
 _atom_site_type_symbol
 _atom_site_label
 _atom_site_symmetry_multiplicity
 _atom_site_fract_x
 _atom_site_fract_y
 _atom_site_fract_z
 _atom_site_occupancy
  Zn  Zn0  1  0.36278000  0.49349000  0.49358000  1.0
  Zn  Zn1  1  0.64280000  0.49950000  0.50600000  1.0
  H  H2  1  0.28341000  0.10934000  0.44688000  1.0
  H  H3  1  0.68491000  0.88303000  0.60187000  1.0
  H  H4  1  0.68076000  0.91156000  0.39671000  1.0
  H  H5  1  0.71013000  0.50907000  0.11728000  1.0
  H  H6  1  0.39499000  0.47068000  0.09152000  1.0
  H  H7  1  0.70452000  0.48000000  0.89674000  1.0
  H  H8  1  0.40006000  0.55356000  0.89813000  1.0
  H  H9  1  0.13138000  0.67120000  0.43101000  1.0
  H  H10  1  0.09646000  0.41365000  0.49566000  1.0
  H  H11  1  0.86757000  0.64000000  0.38373000  1.0
  H  H12  1  0.31964000  0.08935000  0.60110000  1.0
  H  H13  1  0.91119000  0.46139000  0.57595000  1.0
  H  H14  1  0.29581000  0.87717000  0.56483000  1.0
  H  H15  1  0.29416000  0.89916000  0.40894000  1.0
  H  H16  1  0.46408000  0.08929000  0.31024000  1.0
  H  H17  1  0.70199000  0.09553000  0.59209000  1.0
  H  H18  1  0.56334000  0.10194000  0.68825000  1.0
  H  H19  1  0.86748000  0.15100000  0.34620000  1.0
  H  H20  1  0.56187000  0.73868000  0.16351000  1.0
  H  H21  1  0.44032000  0.91993000  0.73838000  1.0
  H  H22  1  0.59251000  0.87022000  0.78316000  1.0
  C  C23  1  0.50129000  0.51596000  0.73225000  1.0
  C  C24  1  0.49716000  0.87676000  0.49267000  1.0
  C  C25  1  0.57069000  0.93108000  0.38289000  1.0
  C  C26  1  0.58224000  0.92270000  0.60612000  1.0
  C  C27  1  0.60984000  0.50175000  0.06818000  1.0
  C  C28  1  0.49771000  0.48686000  0.13369000  1.0
  C  C29  1  0.60841000  0.50178000  0.93831000  1.0
  C  C30  1  0.49845000  0.52665000  0.86421000  1.0
  C  C31  1  0.07739000  0.58545000  0.45241000  1.0
  C  C32  1  0.92428000  0.58090000  0.44735000  1.0
  C  C33  1  0.50350000  0.25669000  0.50675000  1.0
  C  C34  1  0.50489000  0.48589000  0.26640000  1.0
  C  C35  1  0.50020000  0.73662000  0.48956000  1.0
  C  C36  1  0.35367000  0.06422000  0.51213000  1.0
  C  C37  1  0.34968000  0.92426000  0.49374000  1.0
  C  C38  1  0.54853000  0.07147000  0.37683000  1.0
  C  C39  1  0.59503000  0.06472000  0.60259000  1.0
  C  C40  1  0.50093000  0.11661000  0.50050000  1.0
  C  C41  1  0.67354000  0.13729000  0.32925000  1.0
  C  C42  1  0.51817000  0.86959000  0.26689000  1.0
  N  N43  1  0.15100000  0.49312000  0.47977000  1.0
  N  N44  1  0.85414000  0.51189000  0.51461000  1.0
  N  N45  1  0.52165000  0.87028000  0.71261000  1.0
  O  O46  1  0.38450000  0.52355000  0.67476000  1.0
  O  O47  1  0.61674000  0.49775000  0.68609000  1.0
  O  O48  1  0.38933000  0.30917000  0.51878000  1.0
  O  O49  1  0.62059000  0.31015000  0.50003000  1.0
  O  O50  1  0.38952000  0.46784000  0.31450000  1.0
  O  O51  1  0.62144000  0.50378000  0.32239000  1.0
  O  O52  1  0.38577000  0.67956000  0.46868000  1.0
  O  O53  1  0.61725000  0.68789000  0.50631000  1.0
  O  O54  1  0.66999000  0.20708000  0.24439000  1.0
  O  O55  1  0.79588000  0.10501000  0.38665000  1.0
  O  O56  1  0.40993000  0.89158000  0.21119000  1.0
  O  O57  1  0.60644000  0.78280000  0.23232000  1.0
