# generated using pymatgen
data_CdH8C10(IN)2
_symmetry_space_group_name_H-M   'P 1'
_cell_length_a   7.64235000
_cell_length_b   9.68319000
_cell_length_c   9.68315000
_cell_angle_alpha   62.57490000
_cell_angle_beta   77.24730000
_cell_angle_gamma   77.24730000
_symmetry_Int_Tables_number   1
_chemical_formula_structural   CdH8C10(IN)2
_chemical_formula_sum   'Cd2 H16 C20 I4 N4'
_cell_volume   614.45664264
_cell_formula_units_Z   2
loop_
 _symmetry_equiv_pos_site_id
 _symmetry_equiv_pos_as_xyz
  1  'x, y, z'
loop_
 _atom_site_type_symbol
 _atom_site_label
 _atom_site_symmetry_multiplicity
 _atom_site_fract_x
 _atom_site_fract_y
 _atom_site_fract_z
 _atom_site_occupancy
  Cd  Cd0  1  0.25000000  0.91710000  0.08290000  1.0
  Cd  Cd1  1  0.75000000  0.08290000  0.91710000  1.0
  H  H2  1  0.33452000  0.33309000  0.55142000  1.0
  H  H3  1  0.16548000  0.44858000  0.66691000  1.0
  H  H4  1  0.66548000  0.66691000  0.44858000  1.0
  H  H5  1  0.83452000  0.55142000  0.33309000  1.0
  H  H6  1  0.56992000  0.21133000  0.40729000  1.0
  H  H7  1  0.93007000  0.59271000  0.78868000  1.0
  H  H8  1  0.43007000  0.78868000  0.59271000  1.0
  H  H9  1  0.06992000  0.40729000  0.21132000  1.0
  H  H10  1  0.69551000  0.37845000  0.12818000  1.0
  H  H11  1  0.80449000  0.87182000  0.62155000  1.0
  H  H12  1  0.30449000  0.62154000  0.87182000  1.0
  H  H13  1  0.19551000  0.12818000  0.37845000  1.0
  H  H14  1  0.56803000  0.66601000  0.00658000  1.0
  H  H15  1  0.93197000  0.99342000  0.33400000  1.0
  H  H16  1  0.43197000  0.33400000  0.99342000  1.0
  H  H17  1  0.06803000  0.00658000  0.66600000  1.0
  C  C18  1  0.32197000  0.56564000  0.35447000  1.0
  C  C19  1  0.17803000  0.64553000  0.43437000  1.0
  C  C20  1  0.67803000  0.43436000  0.64553000  1.0
  C  C21  1  0.82197000  0.35447000  0.56563000  1.0
  C  C22  1  0.38710000  0.40541000  0.43037000  1.0
  C  C23  1  0.11289000  0.56963000  0.59459000  1.0
  C  C24  1  0.61289000  0.59459000  0.56963000  1.0
  C  C25  1  0.88710000  0.43037000  0.40541000  1.0
  C  C26  1  0.52059000  0.33639000  0.34912000  1.0
  C  C27  1  0.97940000  0.65087000  0.66362000  1.0
  C  C28  1  0.47941000  0.66362000  0.65087000  1.0
  C  C29  1  0.02059000  0.34913000  0.33638000  1.0
  C  C30  1  0.58908000  0.42845000  0.19445000  1.0
  C  C31  1  0.91092000  0.80555000  0.57155000  1.0
  C  C32  1  0.41092000  0.57155000  0.80555000  1.0
  C  C33  1  0.08908000  0.19445000  0.42845000  1.0
  C  C34  1  0.51943000  0.58707000  0.12686000  1.0
  C  C35  1  0.98057000  0.87314000  0.41294000  1.0
  C  C36  1  0.48057000  0.41294000  0.87314000  1.0
  C  C37  1  0.01943000  0.12686000  0.58706000  1.0
  I  I38  1  0.47857000  0.99568000  0.78246000  1.0
  I  I39  1  0.02143000  0.21754000  0.00432000  1.0
  I  I40  1  0.52143000  0.00432000  0.21754000  1.0
  I  I41  1  0.97857000  0.78246000  0.99568000  1.0
  N  N42  1  0.38870000  0.65310000  0.20417000  1.0
  N  N43  1  0.11130000  0.79583000  0.34690000  1.0
  N  N44  1  0.61130000  0.34690000  0.79583000  1.0
  N  N45  1  0.88870000  0.20417000  0.65310000  1.0
