# generated using pymatgen
data_Dy2P2H16C14N2O19
_symmetry_space_group_name_H-M   'P 1'
_cell_length_a   11.47700000
_cell_length_b   14.62570000
_cell_length_c   16.31670000
_cell_angle_alpha   90.00010000
_cell_angle_beta   90.00030000
_cell_angle_gamma   89.99960000
_symmetry_Int_Tables_number   1
_chemical_formula_structural   Dy2P2H16C14N2O19
_chemical_formula_sum   'Dy8 P8 H64 C56 N8 O76'
_cell_volume   2738.90753792
_cell_formula_units_Z   4
loop_
 _symmetry_equiv_pos_site_id
 _symmetry_equiv_pos_as_xyz
  1  'x, y, z'
loop_
 _atom_site_type_symbol
 _atom_site_label
 _atom_site_symmetry_multiplicity
 _atom_site_fract_x
 _atom_site_fract_y
 _atom_site_fract_z
 _atom_site_occupancy
  Dy  Dy0  1  0.72618000  0.25882000  0.56703000  1.0
  Dy  Dy1  1  0.77382000  0.74119000  0.06704000  1.0
  Dy  Dy2  1  0.27382000  0.75882000  0.93297000  1.0
  Dy  Dy3  1  0.22617000  0.24118000  0.43297000  1.0
  Dy  Dy4  1  0.75848000  0.20102000  0.94704000  1.0
  Dy  Dy5  1  0.74152000  0.79898000  0.44704000  1.0
  Dy  Dy6  1  0.24152000  0.70102000  0.55296000  1.0
  Dy  Dy7  1  0.25848000  0.29898000  0.05297000  1.0
  P  P8  1  0.73188000  0.18409000  0.17447000  1.0
  P  P9  1  0.76812000  0.81591000  0.67447000  1.0
  P  P10  1  0.26813000  0.68408000  0.32553000  1.0
  P  P11  1  0.23188000  0.31591000  0.82553000  1.0
  P  P12  1  0.68031000  0.04540000  0.45713000  1.0
  P  P13  1  0.81969000  0.95460000  0.95713000  1.0
  P  P14  1  0.31969000  0.54540000  0.04287000  1.0
  P  P15  1  0.18031000  0.45461000  0.54287000  1.0
  H  H16  1  0.58956000  0.24437000  0.24784000  1.0
  H  H17  1  0.91044000  0.75563000  0.74784000  1.0
  H  H18  1  0.41044000  0.74437000  0.25216000  1.0
  H  H19  1  0.08956000  0.25563000  0.75216000  1.0
  H  H20  1  0.52776000  0.96127000  0.46213000  1.0
  H  H21  1  0.97223000  0.03874000  0.96214000  1.0
  H  H22  1  0.47223000  0.46126000  0.03787000  1.0
  H  H23  1  0.02777000  0.53874000  0.53787000  1.0
  H  H24  1  0.70900000  0.47993000  0.53223000  1.0
  H  H25  1  0.79100000  0.52007000  0.03223000  1.0
  H  H26  1  0.29100000  0.97993000  0.96777000  1.0
  H  H27  1  0.20900000  0.02007000  0.46777000  1.0
  H  H28  1  0.72720000  0.44344000  0.62296000  1.0
  H  H29  1  0.77280000  0.55656000  0.12296000  1.0
  H  H30  1  0.27280000  0.94343000  0.87704000  1.0
  H  H31  1  0.22720000  0.05656000  0.37704000  1.0
  H  H32  1  0.76063000  0.97556000  0.30486000  1.0
  H  H33  1  0.73937000  0.02444000  0.80486000  1.0
  H  H34  1  0.23937000  0.47556000  0.19515000  1.0
  H  H35  1  0.26063000  0.52444000  0.69514000  1.0
  H  H36  1  0.13642000  0.83443000  0.25988000  1.0
  H  H37  1  0.36358000  0.16557000  0.75988000  1.0
  H  H38  1  0.86359000  0.33443000  0.24011000  1.0
  H  H39  1  0.63642000  0.66557000  0.74012000  1.0
  H  H40  1  0.65619000  0.03050000  0.19590000  1.0
  H  H41  1  0.84381000  0.96950000  0.69590000  1.0
  H  H42  1  0.34381000  0.53050000  0.30410000  1.0
  H  H43  1  0.15619000  0.46950000  0.80410000  1.0
  H  H44  1  0.80461000  0.02891000  0.17049000  1.0
  H  H45  1  0.69539000  0.97109000  0.67049000  1.0
  H  H46  1  0.19539000  0.52891000  0.32951000  1.0
  H  H47  1  0.30461000  0.47109000  0.82951000  1.0
  H  H48  1  0.59548000  0.08365000  0.32481000  1.0
  H  H49  1  0.90452000  0.91635000  0.82481000  1.0
  H  H50  1  0.40452000  0.58365000  0.17519000  1.0
  H  H51  1  0.09548000  0.41635000  0.67519000  1.0
  H  H52  1  0.70151000  0.16671000  0.35526000  1.0
  H  H53  1  0.79850000  0.83329000  0.85526000  1.0
  H  H54  1  0.29850000  0.66666667  0.14474000  1.0
  H  H55  1  0.20150000  0.33329000  0.64474000  1.0
  H  H56  1  0.90105000  0.05061000  0.38450000  1.0
  H  H57  1  0.59895000  0.94938000  0.88450000  1.0
  H  H58  1  0.09895000  0.55062000  0.11549000  1.0
  H  H59  1  0.40105000  0.44938000  0.61550000  1.0
  H  H60  1  0.89968000  0.14798000  0.31728000  1.0
  H  H61  1  0.60032000  0.85202000  0.81728000  1.0
  H  H62  1  0.10033000  0.64798000  0.18272000  1.0
  H  H63  1  0.39968000  0.35202000  0.68272000  1.0
  H  H64  1  0.99407000  0.13589000  0.17806000  1.0
  H  H65  1  0.50593000  0.86411000  0.67806000  1.0
  H  H66  1  0.00593000  0.63589000  0.32193000  1.0
  H  H67  1  0.49407000  0.36411000  0.82194000  1.0
  H  H68  1  0.13959000  0.05378000  0.09180000  1.0
  H  H69  1  0.36041000  0.94622000  0.59180000  1.0
  H  H70  1  0.86041000  0.55378000  0.40819000  1.0
  H  H71  1  0.63959000  0.44622000  0.90820000  1.0
  H  H72  1  0.20611000  0.89502000  0.13751000  1.0
  H  H73  1  0.29389000  0.10498000  0.63751000  1.0
  H  H74  1  0.79389000  0.39502000  0.36248000  1.0
  H  H75  1  0.70610000  0.60498000  0.86249000  1.0
  H  H76  1  0.99914000  0.90690000  0.34582000  1.0
  H  H77  1  0.50086000  0.09310000  0.84583000  1.0
  H  H78  1  0.00087000  0.40690000  0.15417000  1.0
  H  H79  1  0.49914000  0.59310000  0.65418000  1.0
  C  C80  1  0.73969000  0.06455000  0.20801000  1.0
  C  C81  1  0.76031000  0.93544000  0.70801000  1.0
  C  C82  1  0.26032000  0.56455000  0.29199000  1.0
  C  C83  1  0.23968000  0.43544000  0.79199000  1.0
  C  C84  1  0.68204000  0.09328000  0.35202000  1.0
  C  C85  1  0.81797000  0.90672000  0.85201000  1.0
  C  C86  1  0.31797000  0.59328000  0.14799000  1.0
  C  C87  1  0.18203000  0.40672000  0.64799000  1.0
  C  C88  1  0.89225000  0.07351000  0.32081000  1.0
  C  C89  1  0.60775000  0.92649000  0.82081000  1.0
  C  C90  1  0.10775000  0.57351000  0.17919000  1.0
  C  C91  1  0.39225000  0.42649000  0.67919000  1.0
  C  C92  1  0.98167000  0.02770000  0.26751000  1.0
  C  C93  1  0.51833000  0.97230000  0.76751000  1.0
  C  C94  1  0.01833000  0.52770000  0.23249000  1.0
  C  C95  1  0.48167000  0.47231000  0.73249000  1.0
  C  C96  1  0.02455000  0.06799000  0.19563000  1.0
  C  C97  1  0.47544000  0.93200000  0.69563000  1.0
  C  C98  1  0.97545000  0.56800000  0.30437000  1.0
  C  C99  1  0.52455000  0.43201000  0.80437000  1.0
  C  C100  1  0.10616000  0.02235000  0.14736000  1.0
  C  C101  1  0.39384000  0.97765000  0.64736000  1.0
  C  C102  1  0.89384000  0.52235000  0.35263000  1.0
  C  C103  1  0.60616000  0.47765000  0.85264000  1.0
  C  C104  1  0.14519000  0.93710000  0.17206000  1.0
  C  C105  1  0.35481000  0.06290000  0.67206000  1.0
  C  C106  1  0.85482000  0.43710000  0.32794000  1.0
  C  C107  1  0.64518000  0.56290000  0.82794000  1.0
  C  C108  1  0.02554000  0.94255000  0.28981000  1.0
  C  C109  1  0.47446000  0.05745000  0.78981000  1.0
  C  C110  1  0.97447000  0.44255000  0.21019000  1.0
  C  C111  1  0.52554000  0.55745000  0.71019000  1.0
  C  C112  1  0.50016000  0.26383000  0.45346000  1.0
  C  C113  1  0.99985000  0.73617000  0.95346000  1.0
  C  C114  1  0.49985000  0.76383000  0.04654000  1.0
  C  C115  1  0.00014000  0.23617000  0.54654000  1.0
  C  C116  1  0.45487000  0.24025000  0.54080000  1.0
  C  C117  1  0.04513000  0.75975000  0.04080000  1.0
  C  C118  1  0.54514000  0.74024000  0.95920000  1.0
  C  C119  1  0.95486000  0.25976000  0.45920000  1.0
  C  C120  1  0.74225000  0.18214000  0.74914000  1.0
  C  C121  1  0.75775000  0.81786000  0.24914000  1.0
  C  C122  1  0.25775000  0.68214000  0.75086000  1.0
  C  C123  1  0.24225000  0.31786000  0.25087000  1.0
  C  C124  1  0.74842000  0.28635000  0.76352000  1.0
  C  C125  1  0.75158000  0.71365000  0.26351000  1.0
  C  C126  1  0.25158000  0.78635000  0.73648000  1.0
  C  C127  1  0.24842000  0.21365000  0.23649000  1.0
  C  C128  1  0.53162000  0.30210000  0.01229000  1.0
  C  C129  1  0.96839000  0.69790000  0.51229000  1.0
  C  C130  1  0.46839000  0.80211000  0.48771000  1.0
  C  C131  1  0.03161000  0.19789000  0.98772000  1.0
  C  C132  1  0.48810000  0.20699000  0.98385000  1.0
  C  C133  1  0.01189000  0.79301000  0.48384000  1.0
  C  C134  1  0.51190000  0.70699000  0.51615000  1.0
  C  C135  1  0.98810000  0.29301000  0.01616000  1.0
  N  N136  1  0.76861000  0.04827000  0.29647000  1.0
  N  N137  1  0.73139000  0.95173000  0.79647000  1.0
  N  N138  1  0.23140000  0.54827000  0.20353000  1.0
  N  N139  1  0.26860000  0.45173000  0.70353000  1.0
  N  N140  1  0.10477000  0.90062000  0.24226000  1.0
  N  N141  1  0.39523000  0.09938000  0.74226000  1.0
  N  N142  1  0.89523000  0.40062000  0.25774000  1.0
  N  N143  1  0.60477000  0.59938000  0.75774000  1.0
  O  O144  1  0.82019000  0.23816000  0.22262000  1.0
  O  O145  1  0.67981000  0.76184000  0.72262000  1.0
  O  O146  1  0.17981000  0.73816000  0.27739000  1.0
  O  O147  1  0.32019000  0.26184000  0.77738000  1.0
  O  O148  1  0.74211000  0.17861000  0.08294000  1.0
  O  O149  1  0.75789000  0.82139000  0.58294000  1.0
  O  O150  1  0.25790000  0.67860000  0.41706000  1.0
  O  O151  1  0.24210000  0.32139000  0.91706000  1.0
  O  O152  1  0.60051000  0.21765000  0.19352000  1.0
  O  O153  1  0.89948000  0.78235000  0.69352000  1.0
  O  O154  1  0.39949000  0.71764000  0.30647000  1.0
  O  O155  1  0.10052000  0.28235000  0.80648000  1.0
  O  O156  1  0.74835000  0.95728000  0.45609000  1.0
  O  O157  1  0.75166000  0.04272000  0.95609000  1.0
  O  O158  1  0.25165000  0.45728000  0.04391000  1.0
  O  O159  1  0.24835000  0.54272000  0.54391000  1.0
  O  O160  1  0.72329000  0.11912000  0.51394000  1.0
  O  O161  1  0.77671000  0.88088000  0.01394000  1.0
  O  O162  1  0.27671000  0.61913000  0.98606000  1.0
  O  O163  1  0.22329000  0.38088000  0.48606000  1.0
  O  O164  1  0.54556000  0.02785000  0.47434000  1.0
  O  O165  1  0.95444000  0.97216000  0.97434000  1.0
  O  O166  1  0.45444000  0.52784000  0.02565000  1.0
  O  O167  1  0.04556000  0.47216000  0.52566000  1.0
  O  O168  1  0.60675000  0.28509000  0.44756000  1.0
  O  O169  1  0.89325000  0.71491000  0.94756000  1.0
  O  O170  1  0.39325000  0.78509000  0.05244000  1.0
  O  O171  1  0.10675000  0.21491000  0.55244000  1.0
  O  O172  1  0.42683000  0.25895000  0.39551000  1.0
  O  O173  1  0.07318000  0.74103000  0.89552000  1.0
  O  O174  1  0.57318000  0.75896000  0.10449000  1.0
  O  O175  1  0.92682000  0.24104000  0.60448000  1.0
  O  O176  1  0.34856000  0.21831000  0.54681000  1.0
  O  O177  1  0.15144000  0.78170000  0.04681000  1.0
  O  O178  1  0.65145000  0.71830000  0.95319000  1.0
  O  O179  1  0.84855000  0.28170000  0.45319000  1.0
  O  O180  1  0.52721000  0.24538000  0.59931000  1.0
  O  O181  1  0.97279000  0.75462000  0.09931000  1.0
  O  O182  1  0.47280000  0.74538000  0.90069000  1.0
  O  O183  1  0.02720000  0.25462000  0.40069000  1.0
  O  O184  1  0.72340000  0.15263000  0.67845000  1.0
  O  O185  1  0.77661000  0.84738000  0.17845000  1.0
  O  O186  1  0.27660000  0.65263000  0.82155000  1.0
  O  O187  1  0.22339000  0.34738000  0.32155000  1.0
  O  O188  1  0.75539000  0.13285000  0.81341000  1.0
  O  O189  1  0.74462000  0.86715000  0.31341000  1.0
  O  O190  1  0.24462000  0.63284000  0.68659000  1.0
  O  O191  1  0.25538000  0.36716000  0.18660000  1.0
  O  O192  1  0.75952000  0.31185000  0.83702000  1.0
  O  O193  1  0.74048000  0.68816000  0.33702000  1.0
  O  O194  1  0.24047000  0.81184000  0.66297000  1.0
  O  O195  1  0.25953000  0.18816000  0.16298000  1.0
  O  O196  1  0.73942000  0.33578000  0.69991000  1.0
  O  O197  1  0.76058000  0.66422000  0.19991000  1.0
  O  O198  1  0.26058000  0.83578000  0.80009000  1.0
  O  O199  1  0.23941000  0.16422000  0.30009000  1.0
  O  O200  1  0.45694000  0.35153000  0.05000000  1.0
  O  O201  1  0.04307000  0.64847000  0.55001000  1.0
  O  O202  1  0.54306000  0.85153000  0.44999000  1.0
  O  O203  1  0.95693000  0.14847000  0.95000000  1.0
  O  O204  1  0.63359000  0.32517000  0.99371000  1.0
  O  O205  1  0.86642000  0.67483000  0.49371000  1.0
  O  O206  1  0.36641000  0.82517000  0.50630000  1.0
  O  O207  1  0.13358000  0.17483000  0.00630000  1.0
  O  O208  1  0.55989000  0.16147000  0.94093000  1.0
  O  O209  1  0.94012000  0.83853000  0.44093000  1.0
  O  O210  1  0.44012000  0.66147000  0.55907000  1.0
  O  O211  1  0.05988000  0.33853000  0.05907000  1.0
  O  O212  1  0.38592000  0.18386000  0.00270000  1.0
  O  O213  1  0.11409000  0.81614000  0.50270000  1.0
  O  O214  1  0.61409000  0.68386000  0.49730000  1.0
  O  O215  1  0.88591000  0.31614000  0.99731000  1.0
  O  O216  1  0.70971000  0.42560000  0.56655000  1.0
  O  O217  1  0.79029000  0.57440000  0.06655000  1.0
  O  O218  1  0.29029000  0.92560000  0.93346000  1.0
  O  O219  1  0.20970000  0.07440000  0.43345000  1.0
