# generated using pymatgen
data_CuH5C9N3O4
_symmetry_space_group_name_H-M   'P 1'
_cell_length_a   4.76141000
_cell_length_b   11.19450000
_cell_length_c   20.20170000
_cell_angle_alpha   90.00000000
_cell_angle_beta   89.99990000
_cell_angle_gamma   98.72090000
_symmetry_Int_Tables_number   1
_chemical_formula_structural   CuH5C9N3O4
_chemical_formula_sum   'Cu4 H20 C36 N12 O16'
_cell_volume   1064.33394780
_cell_formula_units_Z   4
loop_
 _symmetry_equiv_pos_site_id
 _symmetry_equiv_pos_as_xyz
  1  'x, y, z'
loop_
 _atom_site_type_symbol
 _atom_site_label
 _atom_site_symmetry_multiplicity
 _atom_site_fract_x
 _atom_site_fract_y
 _atom_site_fract_z
 _atom_site_occupancy
  Cu  Cu0  1  0.31414000  0.44235000  0.65950000  1.0
  Cu  Cu1  1  0.68587000  0.05765000  0.15950000  1.0
  Cu  Cu2  1  0.68586000  0.55766000  0.34050000  1.0
  Cu  Cu3  1  0.31414000  0.94235000  0.84050000  1.0
  H  H4  1  0.34690000  0.41446000  0.91344000  1.0
  H  H5  1  0.65309000  0.08554000  0.41344000  1.0
  H  H6  1  0.65310000  0.58553000  0.08656000  1.0
  H  H7  1  0.34689000  0.91447000  0.58656000  1.0
  H  H8  1  0.48939000  0.51691000  0.80410000  1.0
  H  H9  1  0.51061000  0.98309000  0.30410000  1.0
  H  H10  1  0.51061000  0.48308000  0.19590000  1.0
  H  H11  1  0.48939000  0.01691000  0.69590000  1.0
  H  H12  1  0.56716000  0.31250000  0.55472000  1.0
  H  H13  1  0.43286000  0.18751000  0.05472000  1.0
  H  H14  1  0.43285000  0.68751000  0.44528000  1.0
  H  H15  1  0.56715000  0.81250000  0.94528000  1.0
  H  H16  1  0.26877000  0.64333000  0.56353000  1.0
  H  H17  1  0.73123000  0.85667000  0.06353000  1.0
  H  H18  1  0.73124000  0.35668000  0.43647000  1.0
  H  H19  1  0.26877000  0.14333000  0.93647000  1.0
  H  H20  1  0.00579000  0.89994000  0.43808000  1.0
  H  H21  1  0.99419000  0.60005000  0.93808000  1.0
  H  H22  1  0.99419000  0.10005000  0.56192000  1.0
  H  H23  1  0.00582000  0.39995000  0.06192000  1.0
  C  C24  1  0.08501000  0.26959000  0.75140000  1.0
  C  C25  1  0.91499000  0.23041000  0.25140000  1.0
  C  C26  1  0.91498000  0.73041000  0.24860000  1.0
  C  C27  1  0.08503000  0.76959000  0.74860000  1.0
  C  C28  1  0.99512000  0.21769000  0.81226000  1.0
  C  C29  1  0.00488000  0.28231000  0.31226000  1.0
  C  C30  1  0.00488000  0.78231000  0.18774000  1.0
  C  C31  1  0.99513000  0.71769000  0.68774000  1.0
  C  C32  1  0.26668000  0.37395000  0.86677000  1.0
  C  C33  1  0.73331000  0.12605000  0.36677000  1.0
  C  C34  1  0.73332000  0.62604000  0.13323000  1.0
  C  C35  1  0.26668000  0.87396000  0.63323000  1.0
  C  C36  1  0.34729000  0.43112000  0.80674000  1.0
  C  C37  1  0.65270000  0.06888000  0.30674000  1.0
  C  C38  1  0.65270000  0.56888000  0.19327000  1.0
  C  C39  1  0.34730000  0.93112000  0.69326000  1.0
  C  C40  1  0.02382000  0.21195000  0.68459000  1.0
  C  C41  1  0.97619000  0.28805000  0.18459000  1.0
  C  C42  1  0.97616000  0.78806000  0.31541000  1.0
  C  C43  1  0.02384000  0.71194000  0.81541000  1.0
  C  C44  1  0.79637000  0.09959000  0.82017000  1.0
  C  C45  1  0.20363000  0.40041000  0.32017000  1.0
  C  C46  1  0.20362000  0.90040000  0.17983000  1.0
  C  C47  1  0.79637000  0.59960000  0.67983000  1.0
  C  C48  1  0.53771000  0.39607000  0.52996000  1.0
  C  C49  1  0.46230000  0.10393000  0.02996000  1.0
  C  C50  1  0.46230000  0.60394000  0.47005000  1.0
  C  C51  1  0.53770000  0.89607000  0.97005000  1.0
  C  C52  1  0.37323000  0.57972000  0.53496000  1.0
  C  C53  1  0.62677000  0.92029000  0.03496000  1.0
  C  C54  1  0.62678000  0.42029000  0.46504000  1.0
  C  C55  1  0.37322000  0.07972000  0.96504000  1.0
  C  C56  1  0.00226000  0.96298000  0.47823000  1.0
  C  C57  1  0.99773000  0.53702000  0.97822000  1.0
  C  C58  1  0.99773000  0.03700000  0.52177000  1.0
  C  C59  1  0.00227000  0.46298000  0.02178000  1.0
  N  N60  1  0.25637000  0.37702000  0.75017000  1.0
  N  N61  1  0.74363000  0.12298000  0.25017000  1.0
  N  N62  1  0.74362000  0.62298000  0.24983000  1.0
  N  N63  1  0.25638000  0.87702000  0.74983000  1.0
  N  N64  1  0.08918000  0.26958000  0.86973000  1.0
  N  N65  1  0.91080000  0.23042000  0.36973000  1.0
  N  N66  1  0.91082000  0.73041000  0.13027000  1.0
  N  N67  1  0.08918000  0.76959000  0.63027000  1.0
  N  N68  1  0.41208000  0.47586000  0.56445000  1.0
  N  N69  1  0.58793000  0.02414000  0.06444000  1.0
  N  N70  1  0.58793000  0.52415000  0.43556000  1.0
  N  N71  1  0.41207000  0.97586000  0.93556000  1.0
  O  O72  1  0.12963000  0.27681000  0.63473000  1.0
  O  O73  1  0.87038000  0.22319000  0.13473000  1.0
  O  O74  1  0.87034000  0.72320000  0.36527000  1.0
  O  O75  1  0.12965000  0.77680000  0.86527000  1.0
  O  O76  1  0.88989000  0.10791000  0.67998000  1.0
  O  O77  1  0.11012000  0.39208000  0.17998000  1.0
  O  O78  1  0.11008000  0.89209000  0.32001000  1.0
  O  O79  1  0.88993000  0.60791000  0.82002000  1.0
  O  O80  1  0.53111000  0.10416000  0.81248000  1.0
  O  O81  1  0.46889000  0.39584000  0.31248000  1.0
  O  O82  1  0.46889000  0.89584000  0.18752000  1.0
  O  O83  1  0.53111000  0.60416000  0.68752000  1.0
  O  O84  1  0.89435000  0.00765000  0.83933000  1.0
  O  O85  1  0.10565000  0.49235000  0.33933000  1.0
  O  O86  1  0.10564000  0.99234000  0.16067000  1.0
  O  O87  1  0.89435000  0.50765000  0.66067000  1.0
