# generated using pymatgen
data_CuH2C6(NO2)2
_symmetry_space_group_name_H-M   'P 1'
_cell_length_a   6.86148000
_cell_length_b   6.86149000
_cell_length_c   7.42036000
_cell_angle_alpha   86.69520000
_cell_angle_beta   86.69540000
_cell_angle_gamma   66.38480000
_symmetry_Int_Tables_number   1
_chemical_formula_structural   CuH2C6(NO2)2
_chemical_formula_sum   'Cu2 H4 C12 N4 O8'
_cell_volume   319.33418565
_cell_formula_units_Z   2
loop_
 _symmetry_equiv_pos_site_id
 _symmetry_equiv_pos_as_xyz
  1  'x, y, z'
loop_
 _atom_site_type_symbol
 _atom_site_label
 _atom_site_symmetry_multiplicity
 _atom_site_fract_x
 _atom_site_fract_y
 _atom_site_fract_z
 _atom_site_occupancy
  Cu  Cu0  1  0.50000000  1.00000000  0.00000000  1.0
  Cu  Cu1  1  0.00000000  0.50000000  0.50000000  1.0
  H  H2  1  0.65337000  0.53951000  0.15415000  1.0
  H  H3  1  0.46049000  0.34663000  0.34585000  1.0
  H  H4  1  0.34663000  0.46048000  0.84585000  1.0
  H  H5  1  0.53951000  0.65337000  0.65415000  1.0
  C  C6  1  0.48680000  0.61923000  0.19805000  1.0
  C  C7  1  0.38077000  0.51320000  0.30194000  1.0
  C  C8  1  0.51320000  0.38077000  0.80195000  1.0
  C  C9  1  0.61922000  0.48680000  0.69806000  1.0
  C  C10  1  0.17873000  0.93416000  0.20721000  1.0
  C  C11  1  0.06584000  0.82127000  0.29279000  1.0
  C  C12  1  0.82127000  0.06584000  0.79279000  1.0
  C  C13  1  0.93416000  0.17873000  0.70721000  1.0
  C  C14  1  0.10468000  0.17417000  0.17698000  1.0
  C  C15  1  0.82584000  0.89532000  0.32302000  1.0
  C  C16  1  0.89532000  0.82584000  0.82302000  1.0
  C  C17  1  0.17416000  0.10468000  0.67698000  1.0
  N  N18  1  0.38474000  0.82610000  0.15576000  1.0
  N  N19  1  0.17391000  0.61526000  0.34423000  1.0
  N  N20  1  0.61526000  0.17391000  0.84424000  1.0
  N  N21  1  0.82610000  0.38474000  0.65577000  1.0
  O  O22  1  0.22933000  0.23232000  0.07096000  1.0
  O  O23  1  0.76768000  0.77067000  0.42904000  1.0
  O  O24  1  0.77067000  0.76768000  0.92904000  1.0
  O  O25  1  0.23232000  0.22934000  0.57096000  1.0
  O  O26  1  0.94417000  0.29749000  0.26030000  1.0
  O  O27  1  0.70251000  0.05583000  0.23971000  1.0
  O  O28  1  0.05583000  0.70251000  0.73970000  1.0
  O  O29  1  0.29748000  0.94417000  0.76030000  1.0
