# generated using pymatgen
data_Cu2H6C4IN3O2
_symmetry_space_group_name_H-M   'P 1'
_cell_length_a   15.28510691
_cell_length_b   15.28520000
_cell_length_c   15.28490000
_cell_angle_alpha   105.33500000
_cell_angle_beta   111.57709820
_cell_angle_gamma   111.57852730
_symmetry_Int_Tables_number   1
_chemical_formula_structural   Cu2H6C4IN3O2
_chemical_formula_sum   'Cu16 H48 C32 I8 N24 O16'
_cell_volume   2738.41075934
_cell_formula_units_Z   8
loop_
 _symmetry_equiv_pos_site_id
 _symmetry_equiv_pos_as_xyz
  1  'x, y, z'
loop_
 _atom_site_type_symbol
 _atom_site_label
 _atom_site_symmetry_multiplicity
 _atom_site_fract_x
 _atom_site_fract_y
 _atom_site_fract_z
 _atom_site_occupancy
  Cu  Cu0  1  0.18743000  0.10221000  0.93751000  1.0
  Cu  Cu1  1  0.66469000  0.91477000  0.10220000  1.0
  Cu  Cu2  1  0.83530000  0.93748000  0.25008000  1.0
  Cu  Cu3  1  0.31260000  0.25009000  0.91478000  1.0
  Cu  Cu4  1  0.81258000  0.89781000  0.06250000  1.0
  Cu  Cu5  1  0.33531000  0.08523000  0.89781000  1.0
  Cu  Cu6  1  0.16470000  0.06250000  0.74992000  1.0
  Cu  Cu7  1  0.68741000  0.74992000  0.08522000  1.0
  Cu  Cu8  1  0.32422000  0.02750000  0.09168000  1.0
  Cu  Cu9  1  0.43582000  0.70328000  0.02750000  1.0
  Cu  Cu10  1  0.06417000  0.09167000  0.26745000  1.0
  Cu  Cu11  1  0.17577000  0.26745000  0.70327000  1.0
  Cu  Cu12  1  0.67578000  0.97251000  0.90832000  1.0
  Cu  Cu13  1  0.56418000  0.29673000  0.97250000  1.0
  Cu  Cu14  1  0.93582000  0.90832000  0.73254000  1.0
  Cu  Cu15  1  0.82422000  0.73254000  0.29671000  1.0
  H  H16  1  0.03674000  0.16366000  0.99288000  1.0
  H  H17  1  0.67078000  0.12692000  0.16366000  1.0
  H  H18  1  0.82920000  0.99287000  0.45614000  1.0
  H  H19  1  0.46326000  0.45613000  0.12693000  1.0
  H  H20  1  0.96325000  0.83633000  0.00711000  1.0
  H  H21  1  0.32921000  0.87308000  0.83633000  1.0
  H  H22  1  0.17079000  0.00712000  0.54385000  1.0
  H  H23  1  0.53674000  0.54387000  0.87307000  1.0
  H  H24  1  0.96404000  0.11713000  0.05609000  1.0
  H  H25  1  0.56103000  0.15307000  0.11712000  1.0
  H  H26  1  0.93895000  0.05608000  0.59205000  1.0
  H  H27  1  0.53596000  0.59204000  0.15309000  1.0
  H  H28  1  0.03596000  0.88288000  0.94391000  1.0
  H  H29  1  0.43896000  0.84692000  0.88288000  1.0
  H  H30  1  0.06105000  0.94392000  0.40795000  1.0
  H  H31  1  0.46403000  0.40795000  0.84690000  1.0
  H  H32  1  0.17027000  0.95885000  0.26431000  1.0
  H  H33  1  0.19454000  0.78858000  0.95884000  1.0
  H  H34  1  0.30545000  0.26429000  0.59403000  1.0
  H  H35  1  0.32974000  0.59404000  0.78858000  1.0
  H  H36  1  0.82974000  0.04117000  0.73570000  1.0
  H  H37  1  0.80546000  0.21143000  0.04116000  1.0
  H  H38  1  0.69455000  0.73570000  0.40597000  1.0
  H  H39  1  0.67027000  0.40597000  0.21143000  1.0
  H  H40  1  0.28438000  0.98284000  0.24488000  1.0
  H  H41  1  0.23796000  0.69846000  0.98284000  1.0
  H  H42  1  0.26202000  0.24487000  0.46049000  1.0
  H  H43  1  0.21562000  0.46049000  0.69846000  1.0
  H  H44  1  0.71562000  0.01716000  0.75512000  1.0
  H  H45  1  0.76203000  0.30154000  0.01716000  1.0
  H  H46  1  0.73798000  0.75513000  0.53951000  1.0
  H  H47  1  0.78438000  0.53951000  0.30153000  1.0
  H  H48  1  0.05518000  0.29942000  0.13346000  1.0
  H  H49  1  0.66596000  0.24424000  0.29943000  1.0
  H  H50  1  0.83404000  0.13347000  0.57829000  1.0
  H  H51  1  0.44483000  0.57829000  0.24425000  1.0
  H  H52  1  0.94482000  0.70059000  0.86653000  1.0
  H  H53  1  0.33405000  0.75577000  0.70058000  1.0
  H  H54  1  0.16597000  0.86654000  0.42172000  1.0
  H  H55  1  0.55517000  0.42171000  0.75574000  1.0
  H  H56  1  0.34988000  0.08661000  0.42022000  1.0
  H  H57  1  0.16639000  0.73673000  0.08660000  1.0
  H  H58  1  0.33360000  0.42020000  0.57033000  1.0
  H  H59  1  0.15014000  0.57034000  0.73673000  1.0
  H  H60  1  0.65013000  0.91340000  0.57979000  1.0
  H  H61  1  0.83362000  0.26328000  0.91341000  1.0
  H  H62  1  0.66639000  0.57979000  0.42966000  1.0
  H  H63  1  0.84987000  0.42967000  0.26327000  1.0
  C  C64  1  0.04585000  0.16441000  0.06808000  1.0
  C  C65  1  0.59633000  0.11856000  0.16441000  1.0
  C  C66  1  0.90366000  0.06808000  0.52224000  1.0
  C  C67  1  0.45416000  0.52223000  0.11857000  1.0
  C  C68  1  0.95415000  0.83559000  0.93192000  1.0
  C  C69  1  0.40367000  0.88144000  0.83559000  1.0
  C  C70  1  0.09634000  0.93192000  0.47776000  1.0
  C  C71  1  0.54584000  0.47776000  0.88142000  1.0
  C  C72  1  0.24098000  0.01940000  0.26777000  1.0
  C  C73  1  0.25163000  0.77841000  0.01939000  1.0
  C  C74  1  0.24835000  0.26775000  0.52678000  1.0
  C  C75  1  0.25903000  0.52678000  0.77842000  1.0
  C  C76  1  0.75903000  0.98061000  0.73224000  1.0
  C  C77  1  0.74836000  0.22158000  0.98061000  1.0
  C  C78  1  0.75165000  0.73225000  0.47322000  1.0
  C  C79  1  0.74098000  0.47323000  0.22158000  1.0
  C  C80  1  0.11263000  0.11661000  0.10171000  1.0
  C  C81  1  0.51490000  0.00398000  0.11661000  1.0
  C  C82  1  0.98508000  0.10169000  0.48907000  1.0
  C  C83  1  0.38738000  0.48907000  0.00398000  1.0
  C  C84  1  0.88737000  0.88339000  0.89829000  1.0
  C  C85  1  0.48510000  0.99603000  0.88340000  1.0
  C  C86  1  0.01491000  0.89830000  0.51092000  1.0
  C  C87  1  0.61262000  0.51093000  0.99601000  1.0
  C  C88  1  0.19840000  0.05620000  0.18983000  1.0
  C  C89  1  0.36637000  0.85780000  0.05621000  1.0
  C  C90  1  0.13362000  0.18983000  0.49143000  1.0
  C  C91  1  0.30161000  0.49144000  0.85781000  1.0
  C  C92  1  0.80160000  0.94381000  0.81017000  1.0
  C  C93  1  0.63363000  0.14220000  0.94380000  1.0
  C  C94  1  0.86637000  0.81016000  0.50857000  1.0
  C  C95  1  0.69840000  0.50857000  0.14219000  1.0
  I  I96  1  0.07501000  0.16360000  0.82220000  1.0
  I  I97  1  0.84140000  0.08859000  0.16361000  1.0
  I  I98  1  0.65859000  0.82219000  0.24719000  1.0
  I  I99  1  0.42500000  0.24719000  0.08860000  1.0
  I  I100  1  0.92499000  0.83640000  0.17780000  1.0
  I  I101  1  0.15860000  0.91141000  0.83640000  1.0
  I  I102  1  0.34141000  0.17781000  0.75281000  1.0
  I  I103  1  0.57500000  0.75281000  0.91140000  1.0
  N  N104  1  0.17156000  0.09855000  0.06061000  1.0
  N  N105  1  0.53794000  0.92699000  0.09855000  1.0
  N  N106  1  0.96205000  0.06060000  0.38906000  1.0
  N  N107  1  0.32845000  0.38905000  0.92700000  1.0
  N  N108  1  0.82844000  0.90145000  0.93940000  1.0
  N  N109  1  0.46206000  0.07301000  0.90145000  1.0
  N  N110  1  0.03795000  0.93940000  0.61095000  1.0
  N  N111  1  0.67155000  0.61095000  0.07299000  1.0
  N  N112  1  0.22673000  0.06096000  0.11737000  1.0
  N  N113  1  0.44358000  0.83422000  0.06096000  1.0
  N  N114  1  0.05640000  0.11736000  0.39064000  1.0
  N  N115  1  0.27328000  0.39064000  0.83423000  1.0
  N  N116  1  0.77328000  0.93905000  0.88263000  1.0
  N  N117  1  0.55641000  0.16577000  0.93904000  1.0
  N  N118  1  0.94359000  0.88263000  0.60935000  1.0
  N  N119  1  0.72673000  0.60937000  0.16577000  1.0
  N  N120  1  0.12603000  0.08954000  0.18173000  1.0
  N  N121  1  0.40781000  0.96351000  0.08954000  1.0
  N  N122  1  0.09219000  0.18173000  0.55571000  1.0
  N  N123  1  0.37397000  0.55570000  0.96351000  1.0
  N  N124  1  0.87398000  0.91047000  0.81828000  1.0
  N  N125  1  0.59219000  0.03649000  0.91046000  1.0
  N  N126  1  0.90782000  0.81828000  0.44430000  1.0
  N  N127  1  0.62603000  0.44430000  0.03649000  1.0
  O  O128  1  0.10302000  0.27107000  0.15130000  1.0
  O  O129  1  0.61976000  0.16804000  0.27106000  1.0
  O  O130  1  0.88023000  0.15130000  0.54829000  1.0
  O  O131  1  0.39699000  0.54828000  0.16805000  1.0
  O  O132  1  0.89698000  0.72894000  0.84870000  1.0
  O  O133  1  0.38023000  0.83195000  0.72893000  1.0
  O  O134  1  0.11977000  0.84870000  0.45171000  1.0
  O  O135  1  0.60301000  0.45172000  0.83194000  1.0
  O  O136  1  0.31290000  0.10923000  0.37242000  1.0
  O  O137  1  0.23681000  0.79633000  0.10923000  1.0
  O  O138  1  0.26318000  0.37241000  0.55952000  1.0
  O  O139  1  0.18711000  0.55952000  0.79634000  1.0
  O  O140  1  0.68711000  0.89077000  0.62758000  1.0
  O  O141  1  0.76319000  0.20368000  0.89078000  1.0
  O  O142  1  0.73682000  0.62759000  0.44048000  1.0
  O  O143  1  0.81290000  0.44049000  0.20366000  1.0
