# generated using pymatgen
data_CdH21C33(N2O3)4
_symmetry_space_group_name_H-M   'P 1'
_cell_length_a   10.97300000
_cell_length_b   13.12120000
_cell_length_c   13.81150000
_cell_angle_alpha   93.51210000
_cell_angle_beta   107.77000000
_cell_angle_gamma   99.08790000
_symmetry_Int_Tables_number   1
_chemical_formula_structural   CdH21C33(N2O3)4
_chemical_formula_sum   'Cd2 H42 C66 N16 O24'
_cell_volume   1857.20480291
_cell_formula_units_Z   2
loop_
 _symmetry_equiv_pos_site_id
 _symmetry_equiv_pos_as_xyz
  1  'x, y, z'
loop_
 _atom_site_type_symbol
 _atom_site_label
 _atom_site_symmetry_multiplicity
 _atom_site_fract_x
 _atom_site_fract_y
 _atom_site_fract_z
 _atom_site_occupancy
  Cd  Cd0  1  0.52068000  0.68317000  0.34825000  1.0
  Cd  Cd1  1  0.47932000  0.31683000  0.65175000  1.0
  H  H2  1  0.43220000  0.85556000  0.46526000  1.0
  H  H3  1  0.56780000  0.14444000  0.53474000  1.0
  H  H4  1  0.25770000  0.88621000  0.53950000  1.0
  H  H5  1  0.74230000  0.11379000  0.46050000  1.0
  H  H6  1  0.09688000  0.55786000  0.46220000  1.0
  H  H7  1  0.90312000  0.44214000  0.53780000  1.0
  H  H8  1  0.27818000  0.54005000  0.39387000  1.0
  H  H9  1  0.72183000  0.45995000  0.60613000  1.0
  H  H10  1  0.01608000  0.81154000  0.51910000  1.0
  H  H11  1  0.98391000  0.18847000  0.48089000  1.0
  H  H12  1  0.96707000  0.67361000  0.50913000  1.0
  H  H13  1  0.03292000  0.32639000  0.49086000  1.0
  H  H14  1  0.09568000  0.95756000  0.90290000  1.0
  H  H15  1  0.90432000  0.04244000  0.09709000  1.0
  H  H16  1  0.04424000  0.56445000  0.88900000  1.0
  H  H17  1  0.95575000  0.43555000  0.11100000  1.0
  H  H18  1  0.12614000  0.85940000  0.28037000  1.0
  H  H19  1  0.87386000  0.14060000  0.71962000  1.0
  H  H20  1  0.13719000  0.72432000  0.27975000  1.0
  H  H21  1  0.86281000  0.27568000  0.72025000  1.0
  H  H22  1  0.91984000  0.91672000  0.27433000  1.0
  H  H23  1  0.08015000  0.08328000  0.72567000  1.0
  H  H24  1  0.70650000  0.87136000  0.30513000  1.0
  H  H25  1  0.29350000  0.12864000  0.69487000  1.0
  H  H26  1  0.72216000  0.55740000  0.28885000  1.0
  H  H27  1  0.27785000  0.44260000  0.71115000  1.0
  H  H28  1  0.93657000  0.58887000  0.25902000  1.0
  H  H29  1  0.06343000  0.41113000  0.74098000  1.0
  H  H30  1  0.59358000  0.46880000  0.40942000  1.0
  H  H31  1  0.40643000  0.53120000  0.59058000  1.0
  H  H32  1  0.51668000  0.27633000  0.36458000  1.0
  H  H33  1  0.48332000  0.72366000  0.63542000  1.0
  H  H34  1  0.20679000  0.33994000  0.11057000  1.0
  H  H35  1  0.79321000  0.66006000  0.88943000  1.0
  H  H36  1  0.29662000  0.52978000  0.16360000  1.0
  H  H37  1  0.70338000  0.47022000  0.83640000  1.0
  H  H38  1  0.31681000  0.14008000  0.28027000  1.0
  H  H39  1  0.68319000  0.85991000  0.71973000  1.0
  H  H40  1  0.19643000  0.16224000  0.16781000  1.0
  H  H41  1  0.80357000  0.83776000  0.83220000  1.0
  H  H42  1  0.68543000  0.98480000  0.15893000  1.0
  H  H43  1  0.31458000  0.01520000  0.84107000  1.0
  C  C44  1  0.35573000  0.79200000  0.46633000  1.0
  C  C45  1  0.64428000  0.20799000  0.53367000  1.0
  C  C46  1  0.25799000  0.80849000  0.50693000  1.0
  C  C47  1  0.74200000  0.19151000  0.49306000  1.0
  C  C48  1  0.16148000  0.72425000  0.50542000  1.0
  C  C49  1  0.83851000  0.27574000  0.49458000  1.0
  C  C50  1  0.16958000  0.62598000  0.46543000  1.0
  C  C51  1  0.83041000  0.37402000  0.53457000  1.0
  C  C52  1  0.27012000  0.61578000  0.42599000  1.0
  C  C53  1  0.72988000  0.38423000  0.57401000  1.0
  C  C54  1  0.04860000  0.73910000  0.54227000  1.0
  C  C55  1  0.95140000  0.26090000  0.45772000  1.0
  C  C56  1  0.09176000  0.84003000  0.71327000  1.0
  C  C57  1  0.90823000  0.15998000  0.28673000  1.0
  C  C58  1  0.08540000  0.81065000  0.81432000  1.0
  C  C59  1  0.91459000  0.18935000  0.18568000  1.0
  C  C60  1  0.08810000  0.87357000  0.90028000  1.0
  C  C61  1  0.91190000  0.12643000  0.09971000  1.0
  C  C62  1  0.07717000  0.82061000  0.98249000  1.0
  C  C63  1  0.92284000  0.17940000  0.01750000  1.0
  C  C64  1  0.06396000  0.71210000  0.97854000  1.0
  C  C65  1  0.93604000  0.28791000  0.02145000  1.0
  C  C66  1  0.05891000  0.64888000  0.89206000  1.0
  C  C67  1  0.94108000  0.35113000  0.10794000  1.0
  C  C68  1  0.07011000  0.70190000  0.80995000  1.0
  C  C69  1  0.92988000  0.29811000  0.19005000  1.0
  C  C70  1  0.06311000  0.66017000  0.70524000  1.0
  C  C71  1  0.93689000  0.33984000  0.29476000  1.0
  C  C72  1  0.07928000  0.86238000  0.08617000  1.0
  C  C73  1  0.92072000  0.13762000  0.91383000  1.0
  C  C74  1  0.05803000  0.68214000  0.07951000  1.0
  C  C75  1  0.94196000  0.31787000  0.92048000  1.0
  C  C76  1  0.07650000  0.78020000  0.24615000  1.0
  C  C77  1  0.92350000  0.21980000  0.75385000  1.0
  C  C78  1  0.94580000  0.75601000  0.26309000  1.0
  C  C79  1  0.05419000  0.24399000  0.73690000  1.0
  C  C80  1  0.87975000  0.83575000  0.27620000  1.0
  C  C81  1  0.12024000  0.16425000  0.72380000  1.0
  C  C82  1  0.76052000  0.81134000  0.29331000  1.0
  C  C83  1  0.23948000  0.18866000  0.70669000  1.0
  C  C84  1  0.76876000  0.63592000  0.28410000  1.0
  C  C85  1  0.23124000  0.36408000  0.71590000  1.0
  C  C86  1  0.88849000  0.65389000  0.26711000  1.0
  C  C87  1  0.11150000  0.34611000  0.73289000  1.0
  C  C88  1  0.50924000  0.43682000  0.34296000  1.0
  C  C89  1  0.49077000  0.56317000  0.65704000  1.0
  C  C90  1  0.46597000  0.33031000  0.31823000  1.0
  C  C91  1  0.53403000  0.66969000  0.68177000  1.0
  C  C92  1  0.35399000  0.29293000  0.23486000  1.0
  C  C93  1  0.64601000  0.70707000  0.76515000  1.0
  C  C94  1  0.29354000  0.36546000  0.17685000  1.0
  C  C95  1  0.70646000  0.63454000  0.82316000  1.0
  C  C96  1  0.34299000  0.47106000  0.20577000  1.0
  C  C97  1  0.65701000  0.52893000  0.79423000  1.0
  C  C98  1  0.30099000  0.17759000  0.20972000  1.0
  C  C99  1  0.69902000  0.82240000  0.79029000  1.0
  C  C100  1  0.48237000  0.09333000  0.18494000  1.0
  C  C101  1  0.51763000  0.90666000  0.81506000  1.0
  C  C102  1  0.50592000  0.04292000  0.09442000  1.0
  C  C103  1  0.49408000  0.95708000  0.90558000  1.0
  C  C104  1  0.60611000  0.99134000  0.09056000  1.0
  C  C105  1  0.39389000  0.00866000  0.90944000  1.0
  C  C106  1  0.40331000  0.05151000  0.00678000  1.0
  C  C107  1  0.59669000  0.94849000  0.99323000  1.0
  C  C108  1  0.31270000  0.10862000  0.03942000  1.0
  C  C109  1  0.68730000  0.89138000  0.96059000  1.0
  N  N110  1  0.36123000  0.69745000  0.42559000  1.0
  N  N111  1  0.63877000  0.30255000  0.57441000  1.0
  N  N112  1  0.07895000  0.74665000  0.65283000  1.0
  N  N113  1  0.92104000  0.25335000  0.34717000  1.0
  N  N114  1  0.06583000  0.77466000  0.13846000  1.0
  N  N115  1  0.93417000  0.22535000  0.86154000  1.0
  N  N116  1  0.70535000  0.71298000  0.29701000  1.0
  N  N117  1  0.29465000  0.28702000  0.70299000  1.0
  N  N118  1  0.44867000  0.50652000  0.28841000  1.0
  N  N119  1  0.55133000  0.49347000  0.71159000  1.0
  N  N120  1  0.36406000  0.12826000  0.14609000  1.0
  N  N121  1  0.63594000  0.87174000  0.85392000  1.0
  N  N122  1  0.72176000  0.71879000  0.54882000  1.0
  N  N123  1  0.27825000  0.28121000  0.45119000  1.0
  N  N124  1  0.39381000  0.81272000  0.20205000  1.0
  N  N125  1  0.60619000  0.18727000  0.79795000  1.0
  O  O126  1  0.10531000  0.92625000  0.68443000  1.0
  O  O127  1  0.89469000  0.07375000  0.31557000  1.0
  O  O128  1  0.04611000  0.56967000  0.66810000  1.0
  O  O129  1  0.95388000  0.43033000  0.33189000  1.0
  O  O130  1  0.09140000  0.95201000  0.12257000  1.0
  O  O131  1  0.90861000  0.04800000  0.87744000  1.0
  O  O132  1  0.04890000  0.59580000  0.10901000  1.0
  O  O133  1  0.95109000  0.40420000  0.89098000  1.0
  O  O134  1  0.54949000  0.10555000  0.27505000  1.0
  O  O135  1  0.45051000  0.89445000  0.72495000  1.0
  O  O136  1  0.21324000  0.13480000  0.98654000  1.0
  O  O137  1  0.78677000  0.86520000  0.01347000  1.0
  O  O138  1  0.68007000  0.62669000  0.50052000  1.0
  O  O139  1  0.31993000  0.37331000  0.49949000  1.0
  O  O140  1  0.66744000  0.79268000  0.51013000  1.0
  O  O141  1  0.33257000  0.20732000  0.48988000  1.0
  O  O142  1  0.81253000  0.73482000  0.63176000  1.0
  O  O143  1  0.18747000  0.26517000  0.36825000  1.0
  O  O144  1  0.35861000  0.71399000  0.18085000  1.0
  O  O145  1  0.64139000  0.28600000  0.81915000  1.0
  O  O146  1  0.48176000  0.84901000  0.28786000  1.0
  O  O147  1  0.51824000  0.15099000  0.71215000  1.0
  O  O148  1  0.34404000  0.87262000  0.14151000  1.0
  O  O149  1  0.65597000  0.12737000  0.85849000  1.0
