# generated using pymatgen
data_CdH11C12N5ClO2
_symmetry_space_group_name_H-M   'P 1'
_cell_length_a   8.26570000
_cell_length_b   9.22028000
_cell_length_c   11.28991552
_cell_angle_alpha   68.13298872
_cell_angle_beta   69.91707388
_cell_angle_gamma   76.01500000
_symmetry_Int_Tables_number   1
_chemical_formula_structural   CdH11C12N5ClO2
_chemical_formula_sum   'Cd2 H22 C24 N10 Cl2 O4'
_cell_volume   743.55132208
_cell_formula_units_Z   2
loop_
 _symmetry_equiv_pos_site_id
 _symmetry_equiv_pos_as_xyz
  1  'x, y, z'
loop_
 _atom_site_type_symbol
 _atom_site_label
 _atom_site_symmetry_multiplicity
 _atom_site_fract_x
 _atom_site_fract_y
 _atom_site_fract_z
 _atom_site_occupancy
  Cd  Cd0  1  0.66188000  0.13331000  0.36469000  1.0
  Cd  Cd1  1  0.33812000  0.86669000  0.63531000  1.0
  H  H2  1  0.83085000  0.42557000  0.11246000  1.0
  H  H3  1  0.16914000  0.57444000  0.88754000  1.0
  H  H4  1  0.90350000  0.63619000  0.89191000  1.0
  H  H5  1  0.09648000  0.36382000  0.10809000  1.0
  H  H6  1  0.78468000  0.66277000  0.70995000  1.0
  H  H7  1  0.21531000  0.33722000  0.29005000  1.0
  H  H8  1  0.57059000  0.48923000  0.74653000  1.0
  H  H9  1  0.42940000  0.51076000  0.25347000  1.0
  H  H10  1  0.49444000  0.91348000  0.14038000  1.0
  H  H11  1  0.50556000  0.08651000  0.85962000  1.0
  H  H12  1  0.43386000  0.95461000  0.29396000  1.0
  H  H13  1  0.56613000  0.04538000  0.70603000  1.0
  H  H14  1  0.93519000  0.03344000  0.08613000  1.0
  H  H15  1  0.06480000  0.96657000  0.91387000  1.0
  H  H16  1  0.11040000  0.07887000  0.37702000  1.0
  H  H17  1  0.88961000  0.92113000  0.62297000  1.0
  H  H18  1  0.88049000  0.43106000  0.52888000  1.0
  H  H19  1  0.11951000  0.56894000  0.47113000  1.0
  H  H20  1  0.89393000  0.55372000  0.36009000  1.0
  H  H21  1  0.10610000  0.44627000  0.63992000  1.0
  H  H22  1  0.69708000  0.56264000  0.48477000  1.0
  H  H23  1  0.30294000  0.43736000  0.51522000  1.0
  C  C24  1  0.66850000  0.33315000  0.05045000  1.0
  C  C25  1  0.33150000  0.66685000  0.94955000  1.0
  C  C26  1  0.78158000  0.43271000  0.03232000  1.0
  C  C27  1  0.21841000  0.56730000  0.96768000  1.0
  C  C28  1  0.81682000  0.55398000  0.90873000  1.0
  C  C29  1  0.18318000  0.44601000  0.09128000  1.0
  C  C30  1  0.74898000  0.56998000  0.80457000  1.0
  C  C31  1  0.25101000  0.43002000  0.19543000  1.0
  C  C32  1  0.63055000  0.47502000  0.82309000  1.0
  C  C33  1  0.36945000  0.52498000  0.17691000  1.0
  C  C34  1  0.58993000  0.35332000  0.94771000  1.0
  C  C35  1  0.41006000  0.64668000  0.05229000  1.0
  C  C36  1  0.50507000  0.15120000  0.11670000  1.0
  C  C37  1  0.49493000  0.84879000  0.88329000  1.0
  C  C38  1  0.42489000  0.00198000  0.19140000  1.0
  C  C39  1  0.57511000  0.99801000  0.80860000  1.0
  C  C40  1  0.02072000  0.03697000  0.13922000  1.0
  C  C41  1  0.97928000  0.96303000  0.86077000  1.0
  C  C42  1  0.10293000  0.06164000  0.28916000  1.0
  C  C43  1  0.89707000  0.93837000  0.71084000  1.0
  C  C44  1  0.75491000  0.35588000  0.42689000  1.0
  C  C45  1  0.24511000  0.64412000  0.57312000  1.0
  C  C46  1  0.81149000  0.48196000  0.45247000  1.0
  C  C47  1  0.18852000  0.51805000  0.54753000  1.0
  N  N48  1  0.60979000  0.19896000  0.15684000  1.0
  N  N49  1  0.39020000  0.80103000  0.84317000  1.0
  N  N50  1  0.48454000  0.24395000  0.98958000  1.0
  N  N51  1  0.51546000  0.75604000  0.01043000  1.0
  N  N52  1  0.24262000  0.02224000  0.19612000  1.0
  N  N53  1  0.75739000  0.97776000  0.80387000  1.0
  N  N54  1  0.19247000  0.00549000  0.09922000  1.0
  N  N55  1  0.80752000  0.99450000  0.90079000  1.0
  N  N56  1  0.95996000  0.07307000  0.25495000  1.0
  N  N57  1  0.04004000  0.92693000  0.74505000  1.0
  Cl  Cl58  1  0.67198000  0.84174000  0.51014000  1.0
  Cl  Cl59  1  0.32803000  0.15826000  0.48986000  1.0
  O  O60  1  0.76561000  0.21412000  0.50439000  1.0
  O  O61  1  0.23441000  0.78589000  0.49561000  1.0
  O  O62  1  0.69623000  0.39494000  0.32613000  1.0
  O  O63  1  0.30378000  0.60505000  0.67388000  1.0
