# generated using pymatgen
data_ZnMoH10C15N3O4
_symmetry_space_group_name_H-M   'P 1'
_cell_length_a   8.33031000
_cell_length_b   9.55625000
_cell_length_c   10.68630000
_cell_angle_alpha   64.00510000
_cell_angle_beta   71.69950000
_cell_angle_gamma   69.16200000
_symmetry_Int_Tables_number   1
_chemical_formula_structural   ZnMoH10C15N3O4
_chemical_formula_sum   'Zn2 Mo2 H20 C30 N6 O8'
_cell_volume   701.85299784
_cell_formula_units_Z   2
loop_
 _symmetry_equiv_pos_site_id
 _symmetry_equiv_pos_as_xyz
  1  'x, y, z'
loop_
 _atom_site_type_symbol
 _atom_site_label
 _atom_site_symmetry_multiplicity
 _atom_site_fract_x
 _atom_site_fract_y
 _atom_site_fract_z
 _atom_site_occupancy
  Zn  Zn0  1  0.59296000  0.34086000  0.35243000  1.0
  Zn  Zn1  1  0.40704000  0.65914000  0.64757000  1.0
  Mo  Mo2  1  0.57383000  0.74871000  0.29627000  1.0
  Mo  Mo3  1  0.42617000  0.25129000  0.70373000  1.0
  H  H4  1  0.21714000  0.55181000  0.28058000  1.0
  H  H5  1  0.78287000  0.44819000  0.71942000  1.0
  H  H6  1  0.02819000  0.58678000  0.12557000  1.0
  H  H7  1  0.97182000  0.41323000  0.87443000  1.0
  H  H8  1  0.14594000  0.41667000  0.96866000  1.0
  H  H9  1  0.85406000  0.58334000  0.03134000  1.0
  H  H10  1  0.43922000  0.22544000  0.98268000  1.0
  H  H11  1  0.56078000  0.77456000  0.01732000  1.0
  H  H12  1  0.70137000  0.10236000  0.97974000  1.0
  H  H13  1  0.29863000  0.89764000  0.02026000  1.0
  H  H14  1  0.83834000  0.98241000  0.86159000  1.0
  H  H15  1  0.16166000  0.01759000  0.13841000  1.0
  H  H16  1  0.75715000  0.97188000  0.69750000  1.0
  H  H17  1  0.24285000  0.02812000  0.30250000  1.0
  H  H18  1  0.68021000  0.91650000  0.51905000  1.0
  H  H19  1  0.31979000  0.08350000  0.48095000  1.0
  H  H20  1  0.90494000  0.73473000  0.39977000  1.0
  H  H21  1  0.09506000  0.26527000  0.60023000  1.0
  H  H22  1  0.20567000  0.61478000  0.46568000  1.0
  H  H23  1  0.79433000  0.38522000  0.53432000  1.0
  C  C24  1  0.26132000  0.48290000  0.21195000  1.0
  C  C25  1  0.73868000  0.51710000  0.78805000  1.0
  C  C26  1  0.15668000  0.50137000  0.12371000  1.0
  C  C27  1  0.84332000  0.49863000  0.87629000  1.0
  C  C28  1  0.22148000  0.40834000  0.03946000  1.0
  C  C29  1  0.77852000  0.59166000  0.96054000  1.0
  C  C30  1  0.38708000  0.30196000  0.04497000  1.0
  C  C31  1  0.61292000  0.69804000  0.95503000  1.0
  C  C32  1  0.48568000  0.29483000  0.13276000  1.0
  C  C33  1  0.51432000  0.70517000  0.86724000  1.0
  C  C34  1  0.67006000  0.20039000  0.13504000  1.0
  C  C35  1  0.32994000  0.79961000  0.86496000  1.0
  C  C36  1  0.76661000  0.11368000  0.04736000  1.0
  C  C37  1  0.23339000  0.88632000  0.95264000  1.0
  C  C38  1  0.94636000  0.04496000  0.04708000  1.0
  C  C39  1  0.05364000  0.95504000  0.95292000  1.0
  C  C40  1  0.97788000  0.93466000  0.86342000  1.0
  C  C41  1  0.02212000  0.06534000  0.13658000  1.0
  C  C42  1  0.08429000  0.85123000  0.77466000  1.0
  C  C43  1  0.91571000  0.14877000  0.22534000  1.0
  C  C44  1  0.02299000  0.82358000  0.67308000  1.0
  C  C45  1  0.97701000  0.17642000  0.32692000  1.0
  C  C46  1  0.85400000  0.89424000  0.64357000  1.0
  C  C47  1  0.14600000  0.10576000  0.35642000  1.0
  C  C48  1  0.81083000  0.86272000  0.54433000  1.0
  C  C49  1  0.18917000  0.13727000  0.45567000  1.0
  C  C50  1  0.93576000  0.76082000  0.47814000  1.0
  C  C51  1  0.06424000  0.23917000  0.52186000  1.0
  C  C52  1  0.10125000  0.69455000  0.51385000  1.0
  C  C53  1  0.89875000  0.30545000  0.48615000  1.0
  N  N54  1  0.42143000  0.38307000  0.21589000  1.0
  N  N55  1  0.57857000  0.61693000  0.78411000  1.0
  N  N56  1  0.25536000  0.78708000  0.77728000  1.0
  N  N57  1  0.74464000  0.21292000  0.22272000  1.0
  N  N58  1  0.14390000  0.72577000  0.60822000  1.0
  N  N59  1  0.85610000  0.27423000  0.39178000  1.0
  O  O60  1  0.52178000  0.78404000  0.45986000  1.0
  O  O61  1  0.47822000  0.21596000  0.54015000  1.0
  O  O62  1  0.44758000  0.90903000  0.17538000  1.0
  O  O63  1  0.55242000  0.09097000  0.82462000  1.0
  O  O64  1  0.52003000  0.56721000  0.33124000  1.0
  O  O65  1  0.47997000  0.43279000  0.66876000  1.0
  O  O66  1  0.79681000  0.73258000  0.22364000  1.0
  O  O67  1  0.20318000  0.26742000  0.77636000  1.0
