# generated using pymatgen
data_CoH3C2N5O3
_symmetry_space_group_name_H-M   'P 1'
_cell_length_a   6.45520000
_cell_length_b   8.66268000
_cell_length_c   10.17350000
_cell_angle_alpha   89.99910000
_cell_angle_beta   89.99880000
_cell_angle_gamma   90.84660000
_symmetry_Int_Tables_number   1
_chemical_formula_structural   CoH3C2N5O3
_chemical_formula_sum   'Co4 H12 C8 N20 O12'
_cell_volume   568.83322123
_cell_formula_units_Z   4
loop_
 _symmetry_equiv_pos_site_id
 _symmetry_equiv_pos_as_xyz
  1  'x, y, z'
loop_
 _atom_site_type_symbol
 _atom_site_label
 _atom_site_symmetry_multiplicity
 _atom_site_fract_x
 _atom_site_fract_y
 _atom_site_fract_z
 _atom_site_occupancy
  Co  Co0  1  0.74745000  0.69911000  0.31026000  1.0
  Co  Co1  1  0.75255000  0.30089000  0.81026000  1.0
  Co  Co2  1  0.25255000  0.30089000  0.68974000  1.0
  Co  Co3  1  0.24745000  0.69911000  0.18974000  1.0
  H  H4  1  0.48950000  0.90157000  0.26438000  1.0
  H  H5  1  0.01050000  0.09842000  0.76438000  1.0
  H  H6  1  0.51050000  0.09843000  0.73562000  1.0
  H  H7  1  0.98951000  0.90157000  0.23562000  1.0
  H  H8  1  0.79725000  0.22788000  0.53483000  1.0
  H  H9  1  0.70276000  0.77213000  0.03483000  1.0
  H  H10  1  0.20276000  0.77212000  0.46517000  1.0
  H  H11  1  0.29725000  0.22787000  0.96518000  1.0
  H  H12  1  0.77539000  0.32275000  0.37924000  1.0
  H  H13  1  0.72461000  0.67726000  0.87923000  1.0
  H  H14  1  0.22461000  0.67725000  0.62077000  1.0
  H  H15  1  0.27539000  0.32274000  0.12077000  1.0
  C  C16  1  0.75308000  0.45874000  0.54360000  1.0
  C  C17  1  0.74693000  0.54127000  0.04359000  1.0
  C  C18  1  0.24692000  0.54126000  0.45640000  1.0
  C  C19  1  0.25308000  0.45874000  0.95641000  1.0
  C  C20  1  0.72320000  0.69543000  0.59434000  1.0
  C  C21  1  0.77681000  0.30458000  0.09435000  1.0
  C  C22  1  0.27681000  0.30456000  0.40565000  1.0
  C  C23  1  0.22319000  0.69542000  0.90566000  1.0
  N  N24  1  0.73875000  0.60097000  0.48725000  1.0
  N  N25  1  0.76125000  0.39904000  0.98725000  1.0
  N  N26  1  0.26125000  0.39903000  0.51275000  1.0
  N  N27  1  0.23875000  0.60096000  0.01275000  1.0
  N  N28  1  0.74728000  0.47201000  0.67892000  1.0
  N  N29  1  0.75272000  0.52800000  0.17892000  1.0
  N  N30  1  0.25272000  0.52800000  0.32108000  1.0
  N  N31  1  0.24728000  0.47200000  0.82108000  1.0
  N  N32  1  0.72758000  0.62274000  0.70889000  1.0
  N  N33  1  0.77243000  0.37727000  0.20889000  1.0
  N  N34  1  0.27242000  0.37726000  0.29110000  1.0
  N  N35  1  0.22758000  0.62273000  0.79111000  1.0
  N  N36  1  0.76741000  0.32402000  0.48108000  1.0
  N  N37  1  0.73259000  0.67599000  0.98108000  1.0
  N  N38  1  0.23259000  0.67599000  0.51891000  1.0
  N  N39  1  0.26742000  0.32400000  0.01892000  1.0
  N  N40  1  0.70653000  0.85541000  0.58279000  1.0
  N  N41  1  0.79347000  0.14460000  0.08279000  1.0
  N  N42  1  0.29347000  0.14460000  0.41721000  1.0
  N  N43  1  0.20653000  0.85540000  0.91721000  1.0
  O  O44  1  0.68358000  0.93434000  0.68487000  1.0
  O  O45  1  0.81643000  0.06568000  0.18488000  1.0
  O  O46  1  0.31642000  0.06567000  0.31512000  1.0
  O  O47  1  0.18357000  0.93432000  0.81512000  1.0
  O  O48  1  0.71798000  0.91157000  0.46784000  1.0
  O  O49  1  0.78200000  0.08844000  0.96786000  1.0
  O  O50  1  0.28201000  0.08843000  0.53215000  1.0
  O  O51  1  0.21799000  0.91156000  0.03215000  1.0
  O  O52  1  0.51320000  0.79605000  0.23288000  1.0
  O  O53  1  0.98680000  0.20394000  0.73288000  1.0
  O  O54  1  0.48681000  0.20395000  0.76712000  1.0
  O  O55  1  0.01320000  0.79606000  0.26712000  1.0
