# generated using pymatgen
data_KH6C6SBrNClO3
_symmetry_space_group_name_H-M   'P 1'
_cell_length_a   6.69927000
_cell_length_b   10.03140000
_cell_length_c   15.66150000
_cell_angle_alpha   89.99980000
_cell_angle_beta   100.27600000
_cell_angle_gamma   89.99980000
_symmetry_Int_Tables_number   1
_chemical_formula_structural   KH6C6SBrNClO3
_chemical_formula_sum   'K4 H24 C24 S4 Br4 N4 Cl4 O12'
_cell_volume   1035.61840767
_cell_formula_units_Z   4
loop_
 _symmetry_equiv_pos_site_id
 _symmetry_equiv_pos_as_xyz
  1  'x, y, z'
loop_
 _atom_site_type_symbol
 _atom_site_label
 _atom_site_symmetry_multiplicity
 _atom_site_fract_x
 _atom_site_fract_y
 _atom_site_fract_z
 _atom_site_occupancy
  K  K0  1  0.61645000  0.37877000  0.44225000  1.0
  K  K1  1  0.88355000  0.87876000  0.55775000  1.0
  K  K2  1  0.38357000  0.62123000  0.55775000  1.0
  K  K3  1  0.11644000  0.12123000  0.44225000  1.0
  H  H4  1  0.74898000  0.16186000  0.58338000  1.0
  H  H5  1  0.75101000  0.66186000  0.41661000  1.0
  H  H6  1  0.25102000  0.83814000  0.41662000  1.0
  H  H7  1  0.24898000  0.33814000  0.58338000  1.0
  H  H8  1  0.93621000  0.25630000  0.59974000  1.0
  H  H9  1  0.56379000  0.75630000  0.40026000  1.0
  H  H10  1  0.06379000  0.74370000  0.40026000  1.0
  H  H11  1  0.43621000  0.24369000  0.59974000  1.0
  H  H12  1  0.18808000  0.65357000  0.22459000  1.0
  H  H13  1  0.31193000  0.15356000  0.77541000  1.0
  H  H14  1  0.81192000  0.34643000  0.77541000  1.0
  H  H15  1  0.68808000  0.84644000  0.22459000  1.0
  H  H16  1  0.28243000  0.62829000  0.07865000  1.0
  H  H17  1  0.21758000  0.12829000  0.92135000  1.0
  H  H18  1  0.71757000  0.37171000  0.92135000  1.0
  H  H19  1  0.78243000  0.87171000  0.07865000  1.0
  H  H20  1  0.15712000  0.20646000  0.08424000  1.0
  H  H21  1  0.34287000  0.70646000  0.91577000  1.0
  H  H22  1  0.84287000  0.79355000  0.91576000  1.0
  H  H23  1  0.65712000  0.29355000  0.08424000  1.0
  H  H24  1  0.06438000  0.23218000  0.23030000  1.0
  H  H25  1  0.43562000  0.73217000  0.76970000  1.0
  H  H26  1  0.93563000  0.76783000  0.76970000  1.0
  H  H27  1  0.56437000  0.26783000  0.23030000  1.0
  C  C28  1  0.12103000  0.44393000  0.23590000  1.0
  C  C29  1  0.37897000  0.94392000  0.76410000  1.0
  C  C30  1  0.87897000  0.55607000  0.76410000  1.0
  C  C31  1  0.62103000  0.05607000  0.23590000  1.0
  C  C32  1  0.18487000  0.55554000  0.19434000  1.0
  C  C33  1  0.31514000  0.05554000  0.80566000  1.0
  C  C34  1  0.81514000  0.44446000  0.80566000  1.0
  C  C35  1  0.68487000  0.94447000  0.19434000  1.0
  C  C36  1  0.23764000  0.54163000  0.11262000  1.0
  C  C37  1  0.26236000  0.04164000  0.88737000  1.0
  C  C38  1  0.76236000  0.45837000  0.88737000  1.0
  C  C39  1  0.73764000  0.95837000  0.11263000  1.0
  C  C40  1  0.22433000  0.41577000  0.07338000  1.0
  C  C41  1  0.27567000  0.91578000  0.92662000  1.0
  C  C42  1  0.77567000  0.58423000  0.92661000  1.0
  C  C43  1  0.72432000  0.08424000  0.07338000  1.0
  C  C44  1  0.16450000  0.30385000  0.11528000  1.0
  C  C45  1  0.33549000  0.80385000  0.88472000  1.0
  C  C46  1  0.83550000  0.69615000  0.88472000  1.0
  C  C47  1  0.66450000  0.19615000  0.11528000  1.0
  C  C48  1  0.11234000  0.31845000  0.19714000  1.0
  C  C49  1  0.38766000  0.81845000  0.80287000  1.0
  C  C50  1  0.88766000  0.68156000  0.80286000  1.0
  C  C51  1  0.61233000  0.18156000  0.19714000  1.0
  S  S52  1  0.04902000  0.46529000  0.33935000  1.0
  S  S53  1  0.45097000  0.96528000  0.66065000  1.0
  S  S54  1  0.95097000  0.53471000  0.66065000  1.0
  S  S55  1  0.54902000  0.03471000  0.33936000  1.0
  Br  Br56  1  0.66586000  0.56984000  0.25106000  1.0
  Br  Br57  1  0.83415000  0.06983000  0.74893000  1.0
  Br  Br58  1  0.33415000  0.43017000  0.74893000  1.0
  Br  Br59  1  0.16585000  0.93018000  0.25107000  1.0
  N  N60  1  0.91046000  0.59536000  0.33562000  1.0
  N  N61  1  0.58954000  0.09535000  0.66438000  1.0
  N  N62  1  0.08954000  0.40464000  0.66437000  1.0
  N  N63  1  0.41046000  0.90464000  0.33563000  1.0
  Cl  Cl64  1  0.27799000  0.39991000  0.96964000  1.0
  Cl  Cl65  1  0.22201000  0.89992000  0.03037000  1.0
  Cl  Cl66  1  0.72201000  0.60009000  0.03036000  1.0
  Cl  Cl67  1  0.77798000  0.10009000  0.96964000  1.0
  O  O68  1  0.94956000  0.33996000  0.35649000  1.0
  O  O69  1  0.55044000  0.83996000  0.64351000  1.0
  O  O70  1  0.05042000  0.66003000  0.64350000  1.0
  O  O71  1  0.44958000  0.16003000  0.35650000  1.0
  O  O72  1  0.23218000  0.49868000  0.40182000  1.0
  O  O73  1  0.26782000  0.99868000  0.59818000  1.0
  O  O74  1  0.76781000  0.50131000  0.59818000  1.0
  O  O75  1  0.73219000  0.00131000  0.40182000  1.0
  O  O76  1  0.85635000  0.19947000  0.55463000  1.0
  O  O77  1  0.64365000  0.69946000  0.44537000  1.0
  O  O78  1  0.14365000  0.80053000  0.44538000  1.0
  O  O79  1  0.35635000  0.30053000  0.55462000  1.0
