# generated using pymatgen
data_VH12C12SO5
_symmetry_space_group_name_H-M   'P 1'
_cell_length_a   6.71298000
_cell_length_b   13.16260000
_cell_length_c   16.63540000
_cell_angle_alpha   89.99970000
_cell_angle_beta   90.00010000
_cell_angle_gamma   89.99880000
_symmetry_Int_Tables_number   1
_chemical_formula_structural   VH12C12SO5
_chemical_formula_sum   'V4 H48 C48 S4 O20'
_cell_volume   1469.90844433
_cell_formula_units_Z   4
loop_
 _symmetry_equiv_pos_site_id
 _symmetry_equiv_pos_as_xyz
  1  'x, y, z'
loop_
 _atom_site_type_symbol
 _atom_site_label
 _atom_site_symmetry_multiplicity
 _atom_site_fract_x
 _atom_site_fract_y
 _atom_site_fract_z
 _atom_site_occupancy
  V  V0  1  0.91710000  0.23013000  0.00058000  1.0
  V  V1  1  0.58291000  0.76988000  0.50059000  1.0
  V  V2  1  0.08290000  0.73012000  0.49942000  1.0
  V  V3  1  0.41709000  0.26988000  0.99942000  1.0
  H  H4  1  0.47252000  0.59722000  0.69828000  1.0
  H  H5  1  0.02748000  0.40278000  0.19829000  1.0
  H  H6  1  0.52751000  0.09723000  0.80170000  1.0
  H  H7  1  0.97251000  0.90277000  0.30171000  1.0
  H  H8  1  0.43367000  0.48426000  0.81729000  1.0
  H  H9  1  0.06633000  0.51572000  0.31730000  1.0
  H  H10  1  0.56634000  0.98428000  0.68270000  1.0
  H  H11  1  0.93367000  0.01571000  0.18269000  1.0
  H  H12  1  0.06117000  0.47733000  0.65712000  1.0
  H  H13  1  0.43883000  0.52268000  0.15712000  1.0
  H  H14  1  0.93887000  0.97733000  0.84289000  1.0
  H  H15  1  0.56114000  0.02268000  0.34288000  1.0
  H  H16  1  0.02199000  0.36344000  0.77678000  1.0
  H  H17  1  0.47802000  0.63656000  0.27679000  1.0
  H  H18  1  0.97805000  0.86345000  0.72323000  1.0
  H  H19  1  0.52194000  0.13656000  0.22323000  1.0
  H  H20  1  0.42566000  0.34796000  0.55935000  1.0
  H  H21  1  0.07433000  0.65203000  0.05936000  1.0
  H  H22  1  0.57435000  0.84795000  0.94064000  1.0
  H  H23  1  0.92566000  0.15206000  0.44065000  1.0
  H  H24  1  0.34323000  0.47627000  0.56791000  1.0
  H  H25  1  0.15676000  0.52372000  0.06792000  1.0
  H  H26  1  0.65675000  0.97627000  0.93206000  1.0
  H  H27  1  0.84326000  0.02374000  0.43207000  1.0
  H  H28  1  0.08901000  0.45272000  0.46507000  1.0
  H  H29  1  0.41096000  0.54726000  0.96507000  1.0
  H  H30  1  0.91098000  0.95274000  0.03492000  1.0
  H  H31  1  0.58902000  0.04726000  0.53491000  1.0
  H  H32  1  0.07258000  0.33712000  0.52018000  1.0
  H  H33  1  0.42742000  0.66286000  0.02018000  1.0
  H  H34  1  0.92744000  0.83714000  0.97981000  1.0
  H  H35  1  0.57257000  0.16287000  0.47981000  1.0
  H  H36  1  0.46317000  0.51636000  0.43296000  1.0
  H  H37  1  0.03682000  0.48364000  0.93297000  1.0
  H  H38  1  0.53680000  0.01636000  0.06702000  1.0
  H  H39  1  0.96320000  0.98364000  0.56702000  1.0
  H  H40  1  0.66378000  0.45290000  0.48117000  1.0
  H  H41  1  0.83620000  0.54709000  0.98117000  1.0
  H  H42  1  0.33620000  0.95289000  0.01882000  1.0
  H  H43  1  0.16380000  0.04711000  0.51883000  1.0
  H  H44  1  0.60516000  0.29753000  0.40869000  1.0
  H  H45  1  0.89483000  0.70247000  0.90869000  1.0
  H  H46  1  0.39487000  0.79752000  0.09130000  1.0
  H  H47  1  0.10514000  0.20247000  0.59132000  1.0
  H  H48  1  0.54031000  0.38903000  0.33438000  1.0
  H  H49  1  0.95968000  0.61095000  0.83438000  1.0
  H  H50  1  0.45970000  0.88903000  0.16561000  1.0
  H  H51  1  0.04028000  0.11095000  0.66562000  1.0
  C  C52  1  0.79004000  0.61424000  0.60185000  1.0
  C  C53  1  0.70996000  0.38577000  0.10185000  1.0
  C  C54  1  0.20998000  0.11425000  0.89815000  1.0
  C  C55  1  0.29003000  0.88577000  0.39816000  1.0
  C  C56  1  0.76832000  0.54331000  0.67047000  1.0
  C  C57  1  0.73167000  0.45669000  0.17047000  1.0
  C  C58  1  0.23172000  0.04332000  0.82954000  1.0
  C  C59  1  0.26828000  0.95669000  0.32955000  1.0
  C  C60  1  0.59073000  0.54471000  0.71505000  1.0
  C  C61  1  0.90927000  0.45529000  0.21505000  1.0
  C  C62  1  0.40930000  0.04472000  0.78495000  1.0
  C  C63  1  0.09070000  0.95529000  0.28495000  1.0
  C  C64  1  0.56907000  0.48156000  0.78127000  1.0
  C  C65  1  0.93095000  0.51843000  0.28128000  1.0
  C  C66  1  0.43095000  0.98159000  0.71872000  1.0
  C  C67  1  0.06905000  0.01841000  0.21872000  1.0
  C  C68  1  0.92427000  0.47775000  0.69226000  1.0
  C  C69  1  0.57573000  0.52226000  0.19227000  1.0
  C  C70  1  0.07578000  0.97775000  0.80776000  1.0
  C  C71  1  0.42422000  0.02226000  0.30775000  1.0
  C  C72  1  0.90262000  0.41453000  0.75848000  1.0
  C  C73  1  0.59739000  0.58547000  0.25849000  1.0
  C  C74  1  0.09743000  0.91454000  0.74152000  1.0
  C  C75  1  0.40258000  0.08547000  0.24152000  1.0
  C  C76  1  0.72538000  0.41668000  0.80339000  1.0
  C  C77  1  0.77463000  0.58332000  0.30340000  1.0
  C  C78  1  0.27462000  0.91669000  0.69660000  1.0
  C  C79  1  0.22536000  0.08330000  0.19659000  1.0
  C  C80  1  0.70727000  0.35335000  0.87657000  1.0
  C  C81  1  0.79273000  0.64665000  0.37658000  1.0
  C  C82  1  0.29272000  0.85335000  0.62344000  1.0
  C  C83  1  0.20727000  0.14665000  0.12343000  1.0
  C  C84  1  0.36612000  0.41320000  0.52554000  1.0
  C  C85  1  0.13387000  0.58679000  0.02554000  1.0
  C  C86  1  0.63388000  0.91321000  0.97445000  1.0
  C  C87  1  0.86612000  0.08680000  0.47446000  1.0
  C  C88  1  0.17178000  0.38449000  0.48343000  1.0
  C  C89  1  0.32821000  0.61549000  0.98343000  1.0
  C  C90  1  0.82823000  0.88450000  0.01656000  1.0
  C  C91  1  0.67178000  0.11549000  0.51656000  1.0
  C  C92  1  0.51084000  0.44338000  0.45868000  1.0
  C  C93  1  0.98915000  0.55662000  0.95868000  1.0
  C  C94  1  0.48917000  0.94338000  0.04131000  1.0
  C  C95  1  0.01084000  0.05662000  0.54132000  1.0
  C  C96  1  0.50315000  0.36019000  0.39441000  1.0
  C  C97  1  0.99685000  0.63980000  0.89441000  1.0
  C  C98  1  0.49688000  0.86020000  0.10558000  1.0
  C  C99  1  0.00312000  0.13980000  0.60559000  1.0
  S  S100  1  0.24578000  0.31209000  0.39397000  1.0
  S  S101  1  0.25422000  0.68790000  0.89397000  1.0
  S  S102  1  0.75425000  0.81210000  0.10601000  1.0
  S  S103  1  0.74575000  0.18790000  0.60602000  1.0
  O  O104  1  0.68548000  0.19041000  0.00654000  1.0
  O  O105  1  0.81455000  0.80960000  0.50654000  1.0
  O  O106  1  0.31455000  0.69041000  0.49347000  1.0
  O  O107  1  0.18547000  0.30960000  0.99347000  1.0
  O  O108  1  0.86721000  0.31349000  0.90380000  1.0
  O  O109  1  0.63280000  0.68651000  0.40381000  1.0
  O  O110  1  0.13281000  0.81348000  0.59621000  1.0
  O  O111  1  0.36718000  0.18652000  0.09620000  1.0
  O  O112  1  0.96446000  0.62946000  0.57325000  1.0
  O  O113  1  0.53552000  0.37055000  0.07325000  1.0
  O  O114  1  0.03554000  0.12948000  0.92675000  1.0
  O  O115  1  0.46446000  0.87054000  0.42676000  1.0
  O  O116  1  0.53503000  0.34429000  0.90849000  1.0
  O  O117  1  0.96498000  0.65571000  0.40849000  1.0
  O  O118  1  0.46498000  0.84428000  0.59152000  1.0
  O  O119  1  0.03501000  0.15572000  0.09151000  1.0
  O  O120  1  0.63081000  0.65660000  0.57651000  1.0
  O  O121  1  0.86918000  0.34342000  0.07651000  1.0
  O  O122  1  0.36919000  0.15661000  0.92350000  1.0
  O  O123  1  0.13081000  0.84341000  0.42350000  1.0
