# generated using pymatgen
data_Pr2H12C8SO14
_symmetry_space_group_name_H-M   'P 1'
_cell_length_a   9.52098000
_cell_length_b   12.80410000
_cell_length_c   13.02030000
_cell_angle_alpha   110.29300000
_cell_angle_beta   89.99990000
_cell_angle_gamma   90.00000000
_symmetry_Int_Tables_number   1
_chemical_formula_structural   Pr2H12C8SO14
_chemical_formula_sum   'Pr8 H48 C32 S4 O56'
_cell_volume   1488.75329796
_cell_formula_units_Z   4
loop_
 _symmetry_equiv_pos_site_id
 _symmetry_equiv_pos_as_xyz
  1  'x, y, z'
loop_
 _atom_site_type_symbol
 _atom_site_label
 _atom_site_symmetry_multiplicity
 _atom_site_fract_x
 _atom_site_fract_y
 _atom_site_fract_z
 _atom_site_occupancy
  Pr  Pr0  1  0.83857000  0.95788000  0.38434000  1.0
  Pr  Pr1  1  0.33857000  0.54212000  0.11567000  1.0
  Pr  Pr2  1  0.16143000  0.04212000  0.61566000  1.0
  Pr  Pr3  1  0.66143000  0.45788000  0.88433000  1.0
  Pr  Pr4  1  0.63591000  0.05213000  0.13134000  1.0
  Pr  Pr5  1  0.13591000  0.44787000  0.36866000  1.0
  Pr  Pr6  1  0.36409000  0.94787000  0.86866000  1.0
  Pr  Pr7  1  0.86409000  0.55213000  0.63134000  1.0
  H  H8  1  0.53827000  0.36850000  0.49104000  1.0
  H  H9  1  0.03828000  0.13150000  0.00896000  1.0
  H  H10  1  0.46172000  0.63150000  0.50896000  1.0
  H  H11  1  0.96173000  0.86850000  0.99104000  1.0
  H  H12  1  0.69827000  0.29837000  0.49140000  1.0
  H  H13  1  0.19827000  0.20163000  0.00860000  1.0
  H  H14  1  0.30173000  0.70163000  0.50860000  1.0
  H  H15  1  0.80173000  0.79836000  0.99140000  1.0
  H  H16  1  0.87312000  0.23855000  0.21789000  1.0
  H  H17  1  0.37312000  0.26145000  0.28211000  1.0
  H  H18  1  0.12688000  0.76145000  0.78211000  1.0
  H  H19  1  0.62688000  0.73855000  0.71790000  1.0
  H  H20  1  0.84138000  0.18832000  0.31113000  1.0
  H  H21  1  0.34138000  0.31168000  0.18887000  1.0
  H  H22  1  0.15862000  0.81168000  0.68887000  1.0
  H  H23  1  0.65861000  0.68832000  0.81113000  1.0
  H  H24  1  0.57982000  0.77738000  0.30244000  1.0
  H  H25  1  0.07982000  0.72262000  0.19756000  1.0
  H  H26  1  0.42018000  0.22262000  0.69756000  1.0
  H  H27  1  0.92018000  0.27738000  0.80244000  1.0
  H  H28  1  0.62548000  0.82510000  0.21165000  1.0
  H  H29  1  0.12548000  0.67490000  0.28835000  1.0
  H  H30  1  0.37452000  0.17490000  0.78835000  1.0
  H  H31  1  0.87452000  0.32510000  0.71165000  1.0
  H  H32  1  0.54702000  0.14366000  0.52967000  1.0
  H  H33  1  0.04701000  0.35634000  0.97033000  1.0
  H  H34  1  0.45298000  0.85634000  0.47033000  1.0
  H  H35  1  0.95299000  0.64366000  0.02967000  1.0
  H  H36  1  0.39894000  0.20974000  0.49392000  1.0
  H  H37  1  0.89894000  0.29026000  0.00608000  1.0
  H  H38  1  0.60106000  0.79026000  0.50608000  1.0
  H  H39  1  0.10106000  0.70974000  0.99392000  1.0
  H  H40  1  0.77073000  0.88586000  0.74406000  1.0
  H  H41  1  0.27073000  0.61414000  0.75594000  1.0
  H  H42  1  0.22927000  0.11414000  0.25594000  1.0
  H  H43  1  0.72927000  0.38586000  0.24406000  1.0
  H  H44  1  0.91274000  0.97918000  0.79507000  1.0
  H  H45  1  0.41274000  0.52081000  0.70493000  1.0
  H  H46  1  0.08726000  0.02081000  0.20493000  1.0
  H  H47  1  0.58726000  0.47919000  0.29507000  1.0
  H  H48  1  0.61789000  0.04895000  0.74191000  1.0
  H  H49  1  0.11789000  0.45105000  0.75809000  1.0
  H  H50  1  0.38211000  0.95105000  0.25809000  1.0
  H  H51  1  0.88211000  0.54895000  0.24191000  1.0
  H  H52  1  0.76435000  0.13808000  0.78503000  1.0
  H  H53  1  0.26435000  0.36192000  0.71497000  1.0
  H  H54  1  0.23565000  0.86192000  0.21497000  1.0
  H  H55  1  0.73565000  0.63808000  0.28503000  1.0
  C  C56  1  0.54500000  0.13833000  0.36519000  1.0
  C  C57  1  0.04499000  0.36167000  0.13481000  1.0
  C  C58  1  0.45501000  0.86167000  0.63481000  1.0
  C  C59  1  0.95500000  0.63833000  0.86519000  1.0
  C  C60  1  0.59896000  0.36047000  0.64347000  1.0
  C  C61  1  0.09896000  0.13953000  0.85653000  1.0
  C  C62  1  0.40104000  0.63953000  0.35653000  1.0
  C  C63  1  0.90104000  0.86047000  0.14347000  1.0
  C  C64  1  0.58950000  0.30817000  0.52169000  1.0
  C  C65  1  0.08951000  0.19183000  0.97831000  1.0
  C  C66  1  0.41049000  0.69183000  0.47831000  1.0
  C  C67  1  0.91050000  0.80817000  0.02169000  1.0
  C  C68  1  0.74347000  0.99800000  0.90689000  1.0
  C  C69  1  0.24347000  0.50200000  0.59311000  1.0
  C  C70  1  0.25653000  0.00200000  0.09311000  1.0
  C  C71  1  0.75653000  0.49800000  0.40689000  1.0
  C  C72  1  0.51275000  0.19638000  0.48382000  1.0
  C  C73  1  0.01275000  0.30362000  0.01618000  1.0
  C  C74  1  0.48725000  0.80362000  0.51618000  1.0
  C  C75  1  0.98725000  0.69638000  0.98382000  1.0
  C  C76  1  0.77608000  0.02467000  0.62192000  1.0
  C  C77  1  0.27608000  0.47533000  0.87809000  1.0
  C  C78  1  0.22392000  0.97533000  0.37808000  1.0
  C  C79  1  0.72392000  0.52467000  0.12192000  1.0
  C  C80  1  0.79810000  0.97231000  0.79200000  1.0
  C  C81  1  0.29810000  0.52769000  0.70800000  1.0
  C  C82  1  0.20190000  0.02769000  0.20800000  1.0
  C  C83  1  0.70190000  0.47231000  0.29200000  1.0
  C  C84  1  0.73277000  0.05185000  0.73968000  1.0
  C  C85  1  0.23277000  0.44815000  0.76032000  1.0
  C  C86  1  0.26723000  0.94815000  0.26032000  1.0
  C  C87  1  0.76723000  0.55185000  0.23968000  1.0
  S  S88  1  0.00264000  0.24937000  0.50247000  1.0
  S  S89  1  0.50265000  0.25063000  0.99753000  1.0
  S  S90  1  0.99735000  0.75063000  0.49753000  1.0
  S  S91  1  0.49735000  0.74937000  0.00247000  1.0
  O  O92  1  0.63417000  0.05816000  0.33425000  1.0
  O  O93  1  0.13417000  0.44184000  0.16575000  1.0
  O  O94  1  0.36583000  0.94184000  0.66575000  1.0
  O  O95  1  0.86583000  0.55816000  0.83425000  1.0
  O  O96  1  0.66625000  0.45335000  0.68478000  1.0
  O  O97  1  0.16625000  0.04665000  0.81522000  1.0
  O  O98  1  0.33375000  0.54665000  0.31522000  1.0
  O  O99  1  0.83375000  0.95335000  0.18478000  1.0
  O  O100  1  0.89756000  0.16352000  0.43939000  1.0
  O  O101  1  0.39756000  0.33648000  0.06061000  1.0
  O  O102  1  0.10244000  0.83648000  0.56061000  1.0
  O  O103  1  0.60244000  0.66352000  0.93939000  1.0
  O  O104  1  0.48970000  0.17141000  0.29260000  1.0
  O  O105  1  0.98969000  0.32859000  0.20740000  1.0
  O  O106  1  0.51030000  0.82859000  0.70740000  1.0
  O  O107  1  0.01031000  0.67141000  0.79260000  1.0
  O  O108  1  0.10176000  0.20246000  0.56263000  1.0
  O  O109  1  0.60176000  0.29754000  0.93737000  1.0
  O  O110  1  0.89824000  0.79754000  0.43737000  1.0
  O  O111  1  0.39824000  0.70246000  0.06263000  1.0
  O  O112  1  0.92459000  0.34404000  0.58398000  1.0
  O  O113  1  0.42459000  0.15596000  0.91602000  1.0
  O  O114  1  0.07541000  0.65596000  0.41602000  1.0
  O  O115  1  0.57541000  0.84404000  0.08398000  1.0
  O  O116  1  0.80302000  0.19466000  0.24325000  1.0
  O  O117  1  0.30302000  0.30534000  0.25675000  1.0
  O  O118  1  0.19698000  0.80534000  0.75675000  1.0
  O  O119  1  0.69698000  0.69466000  0.74325000  1.0
  O  O120  1  0.08036000  0.28816000  0.42408000  1.0
  O  O121  1  0.58036000  0.21184000  0.07592000  1.0
  O  O122  1  0.91964000  0.71184000  0.57592000  1.0
  O  O123  1  0.41964000  0.78816000  0.92408000  1.0
  O  O124  1  0.68311000  0.00066000  0.54751000  1.0
  O  O125  1  0.18311000  0.49934000  0.95249000  1.0
  O  O126  1  0.31690000  0.99934000  0.45249000  1.0
  O  O127  1  0.81689000  0.50066000  0.04751000  1.0
  O  O128  1  0.65522000  0.82137000  0.28304000  1.0
  O  O129  1  0.15522000  0.67863000  0.21696000  1.0
  O  O130  1  0.34478000  0.17863000  0.71696000  1.0
  O  O131  1  0.84478000  0.32137000  0.78304000  1.0
  O  O132  1  0.61458000  0.97360000  0.92139000  1.0
  O  O133  1  0.11458000  0.52639000  0.57861000  1.0
  O  O134  1  0.38542000  0.02640000  0.07861000  1.0
  O  O135  1  0.88542000  0.47360000  0.42139000  1.0
  O  O136  1  0.54528000  0.31668000  0.70784000  1.0
  O  O137  1  0.04528000  0.18332000  0.79216000  1.0
  O  O138  1  0.45472000  0.68332000  0.29216000  1.0
  O  O139  1  0.95472000  0.81668000  0.20784000  1.0
  O  O140  1  0.90677000  0.02560000  0.59624000  1.0
  O  O141  1  0.40677000  0.47440000  0.90376000  1.0
  O  O142  1  0.09323000  0.97440000  0.40376000  1.0
  O  O143  1  0.59323000  0.52560000  0.09624000  1.0
  O  O144  1  0.82111000  0.04320000  0.98925000  1.0
  O  O145  1  0.32111000  0.45680000  0.51075000  1.0
  O  O146  1  0.17889000  0.95680000  0.01075000  1.0
  O  O147  1  0.67889000  0.54320000  0.48925000  1.0
