# generated using pymatgen
data_KBH27C27N9O
_symmetry_space_group_name_H-M   'P 1'
_cell_length_a   8.80296000
_cell_length_b   11.70980000
_cell_length_c   13.24580000
_cell_angle_alpha   75.29830000
_cell_angle_beta   83.28480000
_cell_angle_gamma   88.28290000
_symmetry_Int_Tables_number   1
_chemical_formula_structural   KBH27C27N9O
_chemical_formula_sum   'K2 B2 H54 C54 N18 O2'
_cell_volume   1311.62605424
_cell_formula_units_Z   2
loop_
 _symmetry_equiv_pos_site_id
 _symmetry_equiv_pos_as_xyz
  1  'x, y, z'
loop_
 _atom_site_type_symbol
 _atom_site_label
 _atom_site_symmetry_multiplicity
 _atom_site_fract_x
 _atom_site_fract_y
 _atom_site_fract_z
 _atom_site_occupancy
  K  K0  1  0.11883000  0.77695000  0.62268000  1.0
  K  K1  1  0.88117000  0.22305000  0.37732000  1.0
  B  B2  1  0.31350000  0.58769000  0.83805000  1.0
  B  B3  1  0.68650000  0.41231000  0.16195000  1.0
  H  H4  1  0.11845000  0.90778000  0.35444000  1.0
  H  H5  1  0.88155000  0.09222000  0.64556000  1.0
  H  H6  1  0.96988000  0.95179000  0.40734000  1.0
  H  H7  1  0.03012000  0.04821000  0.59266000  1.0
  H  H8  1  0.69247000  0.88206000  0.71164000  1.0
  H  H9  1  0.30754000  0.11794000  0.28837000  1.0
  H  H10  1  0.62899000  0.78640000  0.92380000  1.0
  H  H11  1  0.37101000  0.21360000  0.07621000  1.0
  H  H12  1  0.54259000  0.64390000  0.95710000  1.0
  H  H13  1  0.45741000  0.35610000  0.04290000  1.0
  H  H14  1  0.42601000  0.77031000  0.94888000  1.0
  H  H15  1  0.57399000  0.22969000  0.05112000  1.0
  H  H16  1  0.78143000  0.93931000  0.54373000  1.0
  H  H17  1  0.21857000  0.06069000  0.45627000  1.0
  H  H18  1  0.71963000  0.02238000  0.22945000  1.0
  H  H19  1  0.28037000  0.97762000  0.77055000  1.0
  H  H20  1  0.47906000  0.90131000  0.26639000  1.0
  H  H21  1  0.52094000  0.09869000  0.73361000  1.0
  H  H22  1  0.39267000  0.79002000  0.45057000  1.0
  H  H23  1  0.60733000  0.20998000  0.54943000  1.0
  H  H24  1  0.21538000  0.27874000  0.68380000  1.0
  H  H25  1  0.78463000  0.72126000  0.31620000  1.0
  H  H26  1  0.48998000  0.28473000  0.75790000  1.0
  H  H27  1  0.51002000  0.71527000  0.24210000  1.0
  H  H28  1  0.44497000  0.31892000  0.88161000  1.0
  H  H29  1  0.55503000  0.68108000  0.11839000  1.0
  H  H30  1  0.54422000  0.42265000  0.77490000  1.0
  H  H31  1  0.45578000  0.57735000  0.22510000  1.0
  H  H32  1  0.00747000  0.28346000  0.59317000  1.0
  H  H33  1  0.99254000  0.71654000  0.40683000  1.0
  H  H34  1  0.60817000  0.43319000  0.48482000  1.0
  H  H35  1  0.39183000  0.56680000  0.51518000  1.0
  H  H36  1  0.61813000  0.59380000  0.57972000  1.0
  H  H37  1  0.38186000  0.40619000  0.42028000  1.0
  H  H38  1  0.83878000  0.59895000  0.68057000  1.0
  H  H39  1  0.16122000  0.40104000  0.31944000  1.0
  H  H40  1  0.97490000  0.68444000  0.10849000  1.0
  H  H41  1  0.02510000  0.31556000  0.89151000  1.0
  H  H42  1  0.11829000  0.47252000  0.14771000  1.0
  H  H43  1  0.88170000  0.52749000  0.85229000  1.0
  H  H44  1  0.31227000  0.50519000  0.09249000  1.0
  H  H45  1  0.68773000  0.49482000  0.90751000  1.0
  H  H46  1  0.19461000  0.42219000  0.03696000  1.0
  H  H47  1  0.80539000  0.57781000  0.96304000  1.0
  H  H48  1  0.00639000  0.93788000  0.75312000  1.0
  H  H49  1  0.99361000  0.06212000  0.24688000  1.0
  H  H50  1  0.69491000  0.16875000  0.85370000  1.0
  H  H51  1  0.30509000  0.83126000  0.14630000  1.0
  H  H52  1  0.67479000  0.04396000  0.03868000  1.0
  H  H53  1  0.32521000  0.95604000  0.96132000  1.0
  H  H54  1  0.82881000  0.85796000  0.08022000  1.0
  H  H55  1  0.17120000  0.14204000  0.91978000  1.0
  H  H56  1  0.38998000  0.52529000  0.90069000  1.0
  H  H57  1  0.61001000  0.47471000  0.09931000  1.0
  C  C58  1  0.52363000  0.74669000  0.79977000  1.0
  C  C59  1  0.47637000  0.25331000  0.20023000  1.0
  C  C60  1  0.60446000  0.81913000  0.71175000  1.0
  C  C61  1  0.39554000  0.18087000  0.28825000  1.0
  C  C62  1  0.53993000  0.79775000  0.62522000  1.0
  C  C63  1  0.46007000  0.20225000  0.37478000  1.0
  C  C64  1  0.53138000  0.73633000  0.91328000  1.0
  C  C65  1  0.46862000  0.26367000  0.08672000  1.0
  C  C66  1  0.58105000  0.85388000  0.51410000  1.0
  C  C67  1  0.41895000  0.14613000  0.48590000  1.0
  C  C68  1  0.71208000  0.92523000  0.48474000  1.0
  C  C69  1  0.28792000  0.07477000  0.51526000  1.0
  C  C70  1  0.67845000  0.97229000  0.30891000  1.0
  C  C71  1  0.32155000  0.02771000  0.69109000  1.0
  C  C72  1  0.54536000  0.90453000  0.33015000  1.0
  C  C73  1  0.45464000  0.09548000  0.66985000  1.0
  C  C74  1  0.49640000  0.84354000  0.43311000  1.0
  C  C75  1  0.50360000  0.15646000  0.56689000  1.0
  C  C76  1  0.30518000  0.40481000  0.76130000  1.0
  C  C77  1  0.69482000  0.59519000  0.23870000  1.0
  C  C78  1  0.20257000  0.36005000  0.70898000  1.0
  C  C79  1  0.79743000  0.63995000  0.29102000  1.0
  C  C80  1  0.08255000  0.44386000  0.69505000  1.0
  C  C81  1  0.91745000  0.55614000  0.30495000  1.0
  C  C82  1  0.45385000  0.35543000  0.79608000  1.0
  C  C83  1  0.54615000  0.64457000  0.20392000  1.0
  C  C84  1  0.94550000  0.44322000  0.64295000  1.0
  C  C85  1  0.05450000  0.55678000  0.35705000  1.0
  C  C86  1  0.92409000  0.35474000  0.59146000  1.0
  C  C87  1  0.07592000  0.64526000  0.40853000  1.0
  C  C88  1  0.70043000  0.43729000  0.53215000  1.0
  C  C89  1  0.29957000  0.56271000  0.46785000  1.0
  C  C90  1  0.70791000  0.52735000  0.58300000  1.0
  C  C91  1  0.29209000  0.47265000  0.41700000  1.0
  C  C92  1  0.83112000  0.53017000  0.63923000  1.0
  C  C93  1  0.16888000  0.46983000  0.36077000  1.0
  C  C94  1  0.14010000  0.60663000  0.00584000  1.0
  C  C95  1  0.85990000  0.39337000  0.99416000  1.0
  C  C96  1  0.03543000  0.68868000  0.03145000  1.0
  C  C97  1  0.96457000  0.31132000  0.96855000  1.0
  C  C98  1  0.02548000  0.77562000  0.93648000  1.0
  C  C99  1  0.97452000  0.22438000  0.06352000  1.0
  C  C100  1  0.19515000  0.49570000  0.07429000  1.0
  C  C101  1  0.80484000  0.50430000  0.92571000  1.0
  C  C102  1  0.93113000  0.88185000  0.91901000  1.0
  C  C103  1  0.06887000  0.11815000  0.08099000  1.0
  C  C104  1  0.93230000  0.95826000  0.81823000  1.0
  C  C105  1  0.06770000  0.04174000  0.18177000  1.0
  C  C106  1  0.75906000  0.08644000  0.87400000  1.0
  C  C107  1  0.24094000  0.91357000  0.12600000  1.0
  C  C108  1  0.74891000  0.01674000  0.97712000  1.0
  C  C109  1  0.25109000  0.98326000  0.02289000  1.0
  C  C110  1  0.83491000  0.91351000  0.00009000  1.0
  C  C111  1  0.16509000  0.08649000  0.99991000  1.0
  N  N112  1  0.42782000  0.71581000  0.65858000  1.0
  N  N113  1  0.57217000  0.28419000  0.34142000  1.0
  N  N114  1  0.11085000  0.53427000  0.73613000  1.0
  N  N115  1  0.88915000  0.46573000  0.26387000  1.0
  N  N116  1  0.11888000  0.74856000  0.85701000  1.0
  N  N117  1  0.88112000  0.25144000  0.14299000  1.0
  N  N118  1  0.42024000  0.68487000  0.76498000  1.0
  N  N119  1  0.57976000  0.31513000  0.23502000  1.0
  N  N120  1  0.76128000  0.98225000  0.38544000  1.0
  N  N121  1  0.23871000  0.01775000  0.61456000  1.0
  N  N122  1  0.24595000  0.50916000  0.77707000  1.0
  N  N123  1  0.75405000  0.49084000  0.22292000  1.0
  N  N124  1  0.80573000  0.35114000  0.53725000  1.0
  N  N125  1  0.19428000  0.64886000  0.46275000  1.0
  N  N126  1  0.18823000  0.64551000  0.90069000  1.0
  N  N127  1  0.81177000  0.35449000  0.09931000  1.0
  N  N128  1  0.84886000  0.05704000  0.79506000  1.0
  N  N129  1  0.15114000  0.94296000  0.20494000  1.0
  O  O130  1  0.07290000  0.92170000  0.42254000  1.0
  O  O131  1  0.92709000  0.07830000  0.57747000  1.0
