# generated using pymatgen
data_AlH2C8O5F3
_symmetry_space_group_name_H-M   'P 1'
_cell_length_a   6.65504000
_cell_length_b   8.77236000
_cell_length_c   11.21343702
_cell_angle_alpha   92.90565092
_cell_angle_beta   107.02614766
_cell_angle_gamma   104.31940000
_symmetry_Int_Tables_number   1
_chemical_formula_structural   AlH2C8O5F3
_chemical_formula_sum   'Al2 H4 C16 O10 F6'
_cell_volume   601.12705420
_cell_formula_units_Z   2
loop_
 _symmetry_equiv_pos_site_id
 _symmetry_equiv_pos_as_xyz
  1  'x, y, z'
loop_
 _atom_site_type_symbol
 _atom_site_label
 _atom_site_symmetry_multiplicity
 _atom_site_fract_x
 _atom_site_fract_y
 _atom_site_fract_z
 _atom_site_occupancy
  Al  Al0  1  0.02560000  0.52708000  0.50769000  1.0
  Al  Al1  1  0.52232000  0.52267000  0.50348000  1.0
  H  H2  1  0.87787000  0.63230000  0.65647000  1.0
  H  H3  1  0.16232000  0.33941000  0.41406000  1.0
  H  H4  1  0.74413000  0.00563000  0.48973000  1.0
  H  H5  1  0.30184000  0.03730000  0.50911000  1.0
  C  C6  1  0.37943000  0.51536000  0.73230000  1.0
  C  C7  1  0.37374000  0.80632000  0.50681000  1.0
  C  C8  1  0.67015000  0.52059000  0.28068000  1.0
  C  C9  1  0.67271000  0.23770000  0.49613000  1.0
  C  C10  1  0.61909000  0.06342000  0.49518000  1.0
  C  C11  1  0.42627000  0.97957000  0.50279000  1.0
  C  C12  1  0.44631000  0.50060000  0.87126000  1.0
  C  C13  1  0.53406000  0.37700000  0.92395000  1.0
  C  C14  1  0.42951000  0.61701000  0.95199000  1.0
  C  C15  1  0.53737000  0.24495000  0.84718000  1.0
  C  C16  1  0.63149000  0.12900000  0.89638000  1.0
  C  C17  1  0.59578000  0.50603000  0.13870000  1.0
  C  C18  1  0.50162000  0.61902000  0.08364000  1.0
  C  C19  1  0.61405000  0.38111000  0.05897000  1.0
  C  C20  1  0.69965000  0.25528000  0.10579000  1.0
  C  C21  1  0.71533000  0.13521000  0.02761000  1.0
  O  O22  1  0.18050000  0.51035000  0.68125000  1.0
  O  O23  1  0.51352000  0.73537000  0.49534000  1.0
  O  O24  1  0.51990000  0.50585000  0.33068000  1.0
  O  O25  1  0.86294000  0.30633000  0.49173000  1.0
  O  O26  1  0.87262000  0.54696000  0.33647000  1.0
  O  O27  1  0.52613000  0.30560000  0.50108000  1.0
  O  O28  1  0.52913000  0.53712000  0.68115000  1.0
  O  O29  1  0.19173000  0.74201000  0.52349000  1.0
  O  O30  1  0.82527000  0.59325000  0.56730000  1.0
  O  O31  1  0.22022000  0.45033000  0.44974000  1.0
  F  F32  1  0.48127000  0.73955000  0.15484000  1.0
  F  F33  1  0.34878000  0.73735000  0.90740000  1.0
  F  F34  1  0.76403000  0.24485000  0.23047000  1.0
  F  F35  1  0.80245000  0.01984000  0.07575000  1.0
  F  F36  1  0.63668000  0.00667000  0.82086000  1.0
  F  F37  1  0.43859000  0.22538000  0.72166000  1.0
