# generated using pymatgen
data_FeH13C20N2O5
_symmetry_space_group_name_H-M   'P 1'
_cell_length_a   8.87624000
_cell_length_b   13.53150000
_cell_length_c   30.29870000
_cell_angle_alpha   90.00140000
_cell_angle_beta   90.00020000
_cell_angle_gamma   89.99700000
_symmetry_Int_Tables_number   1
_chemical_formula_structural   FeH13C20N2O5
_chemical_formula_sum   'Fe8 H104 C160 N16 O40'
_cell_volume   3639.14175168
_cell_formula_units_Z   8
loop_
 _symmetry_equiv_pos_site_id
 _symmetry_equiv_pos_as_xyz
  1  'x, y, z'
loop_
 _atom_site_type_symbol
 _atom_site_label
 _atom_site_symmetry_multiplicity
 _atom_site_fract_x
 _atom_site_fract_y
 _atom_site_fract_z
 _atom_site_occupancy
  Fe  Fe0  1  0.80681000  0.61920000  0.71480000  1.0
  Fe  Fe1  1  0.69319000  0.38076000  0.71479000  1.0
  Fe  Fe2  1  0.19321000  0.61922000  0.78522000  1.0
  Fe  Fe3  1  0.30676000  0.38079000  0.78522000  1.0
  Fe  Fe4  1  0.19325000  0.38079000  0.28522000  1.0
  Fe  Fe5  1  0.30680000  0.61920000  0.28521000  1.0
  Fe  Fe6  1  0.80683000  0.38079000  0.21479000  1.0
  Fe  Fe7  1  0.69318000  0.61925000  0.21479000  1.0
  H  H8  1  0.58369000  0.62349000  0.84067000  1.0
  H  H9  1  0.49914000  0.62117000  0.91986000  1.0
  H  H10  1  0.93118000  0.73193000  0.96036000  1.0
  H  H11  1  0.01417000  0.73653000  0.88058000  1.0
  H  H12  1  0.67014000  0.65012000  0.07372000  1.0
  H  H13  1  0.66990000  0.84086000  0.75525000  1.0
  H  H14  1  0.58501000  0.98666000  0.69508000  1.0
  H  H15  1  0.67510000  0.71769000  0.62818000  1.0
  H  H16  1  0.74773000  0.81411000  0.57336000  1.0
  H  H17  1  0.68632000  0.87475000  0.50038000  1.0
  H  H18  1  0.36540000  0.07827000  0.55795000  1.0
  H  H19  1  0.42330000  0.01359000  0.63099000  1.0
  H  H20  1  0.91628000  0.37651000  0.84067000  1.0
  H  H21  1  0.00085000  0.37883000  0.91985000  1.0
  H  H22  1  0.56880000  0.26809000  0.96037000  1.0
  H  H23  1  0.48580000  0.26348000  0.88059000  1.0
  H  H24  1  0.82986000  0.34987000  0.07372000  1.0
  H  H25  1  0.83010000  0.15915000  0.75526000  1.0
  H  H26  1  0.91496000  0.01335000  0.69509000  1.0
  H  H27  1  0.82489000  0.28232000  0.62819000  1.0
  H  H28  1  0.75224000  0.18590000  0.57337000  1.0
  H  H29  1  0.81365000  0.12526000  0.50038000  1.0
  H  H30  1  0.13457000  0.92174000  0.55795000  1.0
  H  H31  1  0.07667000  0.98643000  0.63100000  1.0
  H  H32  1  0.41635000  0.62347000  0.65933000  1.0
  H  H33  1  0.50086000  0.62116000  0.58015000  1.0
  H  H34  1  0.06883000  0.73201000  0.53966000  1.0
  H  H35  1  0.98589000  0.73662000  0.61944000  1.0
  H  H36  1  0.32983000  0.65013000  0.42629000  1.0
  H  H37  1  0.33006000  0.84082000  0.74476000  1.0
  H  H38  1  0.41490000  0.98661000  0.80493000  1.0
  H  H39  1  0.32491000  0.71765000  0.87183000  1.0
  H  H40  1  0.25226000  0.81408000  0.92665000  1.0
  H  H41  1  0.31369000  0.87474000  0.99963000  1.0
  H  H42  1  0.63453000  0.07826000  0.94204000  1.0
  H  H43  1  0.57662000  0.01355000  0.86900000  1.0
  H  H44  1  0.08367000  0.37651000  0.65934000  1.0
  H  H45  1  0.99916000  0.37884000  0.58016000  1.0
  H  H46  1  0.43119000  0.26802000  0.53967000  1.0
  H  H47  1  0.51415000  0.26341000  0.61944000  1.0
  H  H48  1  0.17018000  0.34986000  0.42629000  1.0
  H  H49  1  0.16993000  0.15917000  0.74476000  1.0
  H  H50  1  0.08508000  0.01337000  0.80493000  1.0
  H  H51  1  0.17508000  0.28234000  0.87183000  1.0
  H  H52  1  0.24774000  0.18591000  0.92665000  1.0
  H  H53  1  0.18631000  0.12526000  0.99963000  1.0
  H  H54  1  0.86544000  0.92175000  0.94204000  1.0
  H  H55  1  0.92335000  0.98645000  0.86900000  1.0
  H  H56  1  0.41631000  0.37651000  0.15933000  1.0
  H  H57  1  0.50086000  0.37883000  0.08014000  1.0
  H  H58  1  0.06881000  0.26808000  0.03964000  1.0
  H  H59  1  0.98582000  0.26348000  0.11942000  1.0
  H  H60  1  0.32986000  0.34986000  0.92628000  1.0
  H  H61  1  0.33011000  0.15915000  0.24474000  1.0
  H  H62  1  0.41496000  0.01334000  0.30491000  1.0
  H  H63  1  0.32492000  0.28231000  0.37182000  1.0
  H  H64  1  0.25225000  0.18589000  0.42663000  1.0
  H  H65  1  0.31366000  0.12527000  0.49961000  1.0
  H  H66  1  0.63458000  0.92174000  0.44205000  1.0
  H  H67  1  0.57668000  0.98642000  0.36900000  1.0
  H  H68  1  0.08370000  0.62350000  0.15933000  1.0
  H  H69  1  0.99913000  0.62118000  0.08014000  1.0
  H  H70  1  0.43119000  0.73192000  0.03963000  1.0
  H  H71  1  0.51418000  0.73652000  0.11942000  1.0
  H  H72  1  0.17016000  0.65013000  0.92628000  1.0
  H  H73  1  0.16990000  0.84084000  0.24475000  1.0
  H  H74  1  0.08500000  0.98664000  0.30491000  1.0
  H  H75  1  0.17510000  0.71769000  0.37182000  1.0
  H  H76  1  0.24773000  0.81412000  0.42663000  1.0
  H  H77  1  0.18632000  0.87475000  0.49962000  1.0
  H  H78  1  0.86540000  0.07827000  0.44205000  1.0
  H  H79  1  0.92330000  0.01358000  0.36900000  1.0
  H  H80  1  0.58370000  0.37650000  0.34066000  1.0
  H  H81  1  0.49916000  0.37883000  0.41984000  1.0
  H  H82  1  0.93118000  0.26801000  0.46034000  1.0
  H  H83  1  0.01416000  0.26339000  0.38057000  1.0
  H  H84  1  0.67018000  0.34986000  0.57371000  1.0
  H  H85  1  0.66995000  0.15919000  0.25523000  1.0
  H  H86  1  0.58508000  0.01339000  0.19507000  1.0
  H  H87  1  0.67510000  0.28235000  0.12817000  1.0
  H  H88  1  0.74774000  0.18592000  0.07335000  1.0
  H  H89  1  0.68631000  0.12526000  0.00037000  1.0
  H  H90  1  0.36545000  0.92175000  0.05796000  1.0
  H  H91  1  0.42337000  0.98646000  0.13100000  1.0
  H  H92  1  0.91635000  0.62348000  0.34067000  1.0
  H  H93  1  0.00085000  0.62115000  0.41986000  1.0
  H  H94  1  0.56883000  0.73200000  0.46034000  1.0
  H  H95  1  0.48588000  0.73661000  0.38056000  1.0
  H  H96  1  0.82984000  0.65012000  0.57371000  1.0
  H  H97  1  0.83008000  0.84085000  0.25523000  1.0
  H  H98  1  0.91491000  0.98664000  0.19506000  1.0
  H  H99  1  0.82493000  0.71766000  0.12816000  1.0
  H  H100  1  0.75227000  0.81409000  0.07334000  1.0
  H  H101  1  0.81369000  0.87474000  0.00036000  1.0
  H  H102  1  0.13456000  0.07826000  0.05795000  1.0
  H  H103  1  0.07664000  0.01356000  0.13099000  1.0
  H  H104  1  0.99999000  0.35376000  0.75004000  1.0
  H  H105  1  0.49999000  0.64620000  0.75005000  1.0
  H  H106  1  0.00002000  0.64621000  0.24997000  1.0
  H  H107  1  0.50003000  0.35378000  0.24997000  1.0
  H  H108  1  0.75000000  0.50000000  0.95033000  1.0
  H  H109  1  0.25001000  0.50001000  0.54968000  1.0
  H  H110  1  0.24999000  0.50000000  0.04967000  1.0
  H  H111  1  0.75000000  0.50000000  0.45032000  1.0
  C  C112  1  0.86309000  0.67324000  0.80976000  1.0
  C  C113  1  0.80455000  0.68067000  0.85595000  1.0
  C  C114  1  0.65816000  0.64958000  0.86678000  1.0
  C  C115  1  0.61050000  0.64832000  0.91069000  1.0
  C  C116  1  0.71028000  0.67769000  0.94374000  1.0
  C  C117  1  0.85494000  0.71139000  0.93365000  1.0
  C  C118  1  0.90091000  0.71313000  0.88971000  1.0
  C  C119  1  0.70890000  0.58477000  0.00960000  1.0
  C  C120  1  0.70649000  0.58514000  0.05562000  1.0
  C  C121  1  0.65801000  0.83728000  0.71970000  1.0
  C  C122  1  0.61383000  0.90958000  0.69053000  1.0
  C  C123  1  0.66358000  0.77061000  0.65466000  1.0
  C  C124  1  0.58749000  0.90805000  0.60721000  1.0
  C  C125  1  0.66096000  0.87041000  0.56993000  1.0
  C  C126  1  0.62573000  0.90592000  0.52832000  1.0
  C  C127  1  0.51811000  0.98112000  0.52223000  1.0
  C  C128  1  0.44858000  0.01948000  0.56039000  1.0
  C  C129  1  0.48168000  0.98365000  0.60230000  1.0
  C  C130  1  0.63689000  0.32674000  0.80976000  1.0
  C  C131  1  0.69543000  0.31932000  0.85595000  1.0
  C  C132  1  0.84182000  0.35041000  0.86678000  1.0
  C  C133  1  0.88949000  0.35167000  0.91068000  1.0
  C  C134  1  0.78970000  0.32230000  0.94374000  1.0
  C  C135  1  0.64504000  0.28862000  0.93365000  1.0
  C  C136  1  0.59907000  0.28687000  0.88972000  1.0
  C  C137  1  0.79110000  0.41522000  0.00960000  1.0
  C  C138  1  0.79350000  0.41486000  0.05562000  1.0
  C  C139  1  0.84198000  0.16273000  0.71970000  1.0
  C  C140  1  0.88616000  0.09043000  0.69054000  1.0
  C  C141  1  0.83641000  0.22940000  0.65466000  1.0
  C  C142  1  0.91248000  0.09196000  0.60721000  1.0
  C  C143  1  0.83901000  0.12960000  0.56993000  1.0
  C  C144  1  0.87424000  0.09410000  0.52832000  1.0
  C  C145  1  0.98186000  0.01890000  0.52224000  1.0
  C  C146  1  0.05139000  0.98054000  0.56039000  1.0
  C  C147  1  0.01830000  0.01636000  0.60230000  1.0
  C  C148  1  0.13697000  0.67322000  0.69027000  1.0
  C  C149  1  0.19549000  0.68071000  0.64408000  1.0
  C  C150  1  0.34188000  0.64959000  0.63323000  1.0
  C  C151  1  0.38951000  0.64833000  0.58932000  1.0
  C  C152  1  0.28971000  0.67772000  0.55627000  1.0
  C  C153  1  0.14508000  0.71145000  0.56638000  1.0
  C  C154  1  0.09913000  0.71320000  0.61031000  1.0
  C  C155  1  0.29108000  0.58478000  0.49041000  1.0
  C  C156  1  0.29349000  0.58514000  0.44439000  1.0
  C  C157  1  0.34194000  0.83724000  0.78031000  1.0
  C  C158  1  0.38611000  0.90954000  0.80948000  1.0
  C  C159  1  0.33640000  0.77056000  0.84535000  1.0
  C  C160  1  0.41247000  0.90802000  0.89280000  1.0
  C  C161  1  0.33903000  0.87038000  0.93008000  1.0
  C  C162  1  0.37426000  0.90589000  0.97169000  1.0
  C  C163  1  0.48187000  0.98111000  0.97777000  1.0
  C  C164  1  0.55138000  0.01946000  0.93961000  1.0
  C  C165  1  0.51827000  0.98362000  0.89770000  1.0
  C  C166  1  0.36304000  0.32675000  0.69027000  1.0
  C  C167  1  0.30453000  0.31929000  0.64408000  1.0
  C  C168  1  0.15814000  0.35040000  0.63324000  1.0
  C  C169  1  0.11051000  0.35168000  0.58933000  1.0
  C  C170  1  0.21030000  0.32230000  0.55627000  1.0
  C  C171  1  0.35494000  0.28858000  0.56638000  1.0
  C  C172  1  0.40089000  0.28682000  0.61031000  1.0
  C  C173  1  0.20892000  0.41523000  0.49041000  1.0
  C  C174  1  0.20652000  0.41486000  0.44439000  1.0
  C  C175  1  0.15804000  0.16275000  0.78031000  1.0
  C  C176  1  0.11387000  0.09045000  0.80948000  1.0
  C  C177  1  0.16358000  0.22943000  0.84536000  1.0
  C  C178  1  0.08751000  0.09198000  0.89280000  1.0
  C  C179  1  0.16097000  0.12962000  0.93008000  1.0
  C  C180  1  0.12573000  0.09411000  0.97169000  1.0
  C  C181  1  0.01812000  0.01890000  0.97776000  1.0
  C  C182  1  0.94860000  0.98054000  0.93961000  1.0
  C  C183  1  0.98171000  0.01638000  0.89770000  1.0
  C  C184  1  0.13693000  0.32675000  0.19024000  1.0
  C  C185  1  0.19546000  0.31933000  0.14405000  1.0
  C  C186  1  0.34185000  0.35042000  0.13322000  1.0
  C  C187  1  0.38950000  0.35168000  0.08931000  1.0
  C  C188  1  0.28970000  0.32231000  0.05626000  1.0
  C  C189  1  0.14505000  0.28862000  0.06636000  1.0
  C  C190  1  0.09909000  0.28687000  0.11029000  1.0
  C  C191  1  0.29110000  0.41522000  0.99040000  1.0
  C  C192  1  0.29351000  0.41486000  0.94437000  1.0
  C  C193  1  0.34200000  0.16272000  0.28030000  1.0
  C  C194  1  0.38617000  0.09042000  0.30946000  1.0
  C  C195  1  0.33643000  0.22939000  0.34534000  1.0
  C  C196  1  0.41249000  0.09195000  0.39279000  1.0
  C  C197  1  0.33903000  0.12960000  0.43007000  1.0
  C  C198  1  0.37426000  0.09410000  0.47168000  1.0
  C  C199  1  0.48188000  0.01889000  0.47776000  1.0
  C  C200  1  0.55141000  0.98053000  0.43961000  1.0
  C  C201  1  0.51831000  0.01636000  0.39770000  1.0
  C  C202  1  0.36310000  0.67325000  0.19025000  1.0
  C  C203  1  0.30455000  0.68068000  0.14406000  1.0
  C  C204  1  0.15816000  0.64959000  0.13322000  1.0
  C  C205  1  0.11050000  0.64833000  0.08931000  1.0
  C  C206  1  0.21028000  0.67770000  0.05626000  1.0
  C  C207  1  0.35494000  0.71138000  0.06635000  1.0
  C  C208  1  0.40091000  0.71313000  0.11029000  1.0
  C  C209  1  0.20890000  0.58477000  0.99040000  1.0
  C  C210  1  0.20651000  0.58514000  0.94437000  1.0
  C  C211  1  0.15802000  0.83727000  0.28030000  1.0
  C  C212  1  0.11383000  0.90957000  0.30946000  1.0
  C  C213  1  0.16359000  0.77060000  0.34534000  1.0
  C  C214  1  0.08748000  0.90805000  0.39279000  1.0
  C  C215  1  0.16095000  0.87041000  0.43007000  1.0
  C  C216  1  0.12572000  0.90591000  0.47168000  1.0
  C  C217  1  0.01810000  0.98112000  0.47776000  1.0
  C  C218  1  0.94857000  0.01947000  0.43961000  1.0
  C  C219  1  0.98167000  0.98365000  0.39770000  1.0
  C  C220  1  0.86308000  0.32674000  0.30974000  1.0
  C  C221  1  0.80455000  0.31928000  0.35593000  1.0
  C  C222  1  0.65816000  0.35040000  0.36676000  1.0
  C  C223  1  0.61051000  0.35166000  0.41067000  1.0
  C  C224  1  0.71030000  0.32229000  0.44372000  1.0
  C  C225  1  0.85494000  0.28856000  0.43363000  1.0
  C  C226  1  0.90090000  0.28680000  0.38969000  1.0
  C  C227  1  0.70892000  0.41522000  0.50959000  1.0
  C  C228  1  0.70652000  0.41485000  0.55561000  1.0
  C  C229  1  0.65806000  0.16276000  0.21969000  1.0
  C  C230  1  0.61388000  0.09046000  0.19052000  1.0
  C  C231  1  0.66360000  0.22944000  0.15464000  1.0
  C  C232  1  0.58752000  0.09199000  0.10720000  1.0
  C  C233  1  0.66097000  0.12963000  0.06992000  1.0
  C  C234  1  0.62573000  0.09411000  0.02831000  1.0
  C  C235  1  0.51812000  0.01890000  0.02223000  1.0
  C  C236  1  0.44861000  0.98055000  0.06039000  1.0
  C  C237  1  0.48172000  0.01639000  0.10230000  1.0
  C  C238  1  0.63696000  0.67324000  0.30974000  1.0
  C  C239  1  0.69549000  0.68071000  0.35593000  1.0
  C  C240  1  0.84187000  0.64959000  0.36677000  1.0
  C  C241  1  0.88951000  0.64832000  0.41068000  1.0
  C  C242  1  0.78971000  0.67771000  0.44373000  1.0
  C  C243  1  0.64508000  0.71144000  0.43363000  1.0
  C  C244  1  0.59913000  0.71320000  0.38969000  1.0
  C  C245  1  0.79109000  0.58477000  0.50959000  1.0
  C  C246  1  0.79350000  0.58513000  0.55561000  1.0
  C  C247  1  0.84196000  0.83727000  0.21968000  1.0
  C  C248  1  0.88612000  0.90956000  0.19052000  1.0
  C  C249  1  0.83642000  0.77058000  0.15464000  1.0
  C  C250  1  0.91248000  0.90803000  0.10719000  1.0
  C  C251  1  0.83903000  0.87039000  0.06991000  1.0
  C  C252  1  0.87427000  0.90590000  0.02831000  1.0
  C  C253  1  0.98188000  0.98111000  0.02223000  1.0
  C  C254  1  0.05139000  0.01946000  0.06038000  1.0
  C  C255  1  0.01829000  0.98363000  0.10229000  1.0
  C  C256  1  0.00000000  0.43503000  0.75002000  1.0
  C  C257  1  0.49997000  0.56493000  0.75002000  1.0
  C  C258  1  0.00001000  0.56494000  0.24998000  1.0
  C  C259  1  0.50003000  0.43505000  0.24998000  1.0
  C  C260  1  0.75000000  0.50000000  0.98619000  1.0
  C  C261  1  0.75000000  0.50000000  0.12834000  1.0
  C  C262  1  0.75000000  0.50000000  0.07855000  1.0
  C  C263  1  0.25000000  0.50001000  0.51383000  1.0
  C  C264  1  0.25000000  0.50000000  0.37166000  1.0
  C  C265  1  0.25000000  0.50000000  0.42145000  1.0
  C  C266  1  0.24999000  0.50000000  0.01381000  1.0
  C  C267  1  0.25001000  0.50000000  0.87166000  1.0
  C  C268  1  0.25001000  0.49999000  0.92144000  1.0
  C  C269  1  0.75001000  0.50000000  0.48618000  1.0
  C  C270  1  0.75001000  0.49999000  0.62834000  1.0
  C  C271  1  0.75001000  0.49999000  0.57855000  1.0
  N  N272  1  0.68789000  0.75099000  0.69689000  1.0
  N  N273  1  0.61924000  0.86625000  0.64896000  1.0
  N  N274  1  0.81210000  0.24902000  0.69689000  1.0
  N  N275  1  0.88073000  0.13376000  0.64896000  1.0
  N  N276  1  0.31209000  0.75094000  0.80313000  1.0
  N  N277  1  0.38071000  0.86620000  0.85106000  1.0
  N  N278  1  0.18789000  0.24904000  0.80313000  1.0
  N  N279  1  0.11927000  0.13378000  0.85106000  1.0
  N  N280  1  0.31213000  0.24901000  0.30311000  1.0
  N  N281  1  0.38075000  0.13375000  0.35104000  1.0
  N  N282  1  0.18791000  0.75098000  0.30312000  1.0
  N  N283  1  0.11924000  0.86624000  0.35104000  1.0
  N  N284  1  0.68792000  0.24905000  0.19687000  1.0
  N  N285  1  0.61928000  0.13380000  0.14894000  1.0
  N  N286  1  0.81211000  0.75097000  0.19687000  1.0
  N  N287  1  0.88072000  0.86622000  0.14894000  1.0
  O  O288  1  0.71796000  0.58086000  0.14746000  1.0
  O  O289  1  0.76938000  0.64956000  0.77938000  1.0
  O  O290  1  0.00233000  0.68906000  0.80330000  1.0
  O  O291  1  0.66744000  0.67120000  0.98820000  1.0
  O  O292  1  0.90250000  0.47727000  0.72572000  1.0
  O  O293  1  0.78205000  0.41913000  0.14745000  1.0
  O  O294  1  0.73061000  0.35043000  0.77938000  1.0
  O  O295  1  0.49767000  0.31089000  0.80330000  1.0
  O  O296  1  0.83256000  0.32879000  0.98820000  1.0
  O  O297  1  0.59747000  0.52269000  0.72572000  1.0
  O  O298  1  0.28198000  0.58085000  0.35254000  1.0
  O  O299  1  0.23070000  0.64954000  0.72064000  1.0
  O  O300  1  0.99774000  0.68903000  0.69672000  1.0
  O  O301  1  0.33252000  0.67122000  0.51181000  1.0
  O  O302  1  0.09753000  0.47730000  0.77431000  1.0
  O  O303  1  0.21801000  0.41912000  0.35255000  1.0
  O  O304  1  0.26929000  0.35039000  0.72064000  1.0
  O  O305  1  0.50229000  0.31097000  0.69672000  1.0
  O  O306  1  0.16749000  0.32880000  0.51181000  1.0
  O  O307  1  0.40244000  0.52267000  0.77430000  1.0
  O  O308  1  0.28204000  0.41913000  0.85255000  1.0
  O  O309  1  0.23066000  0.35043000  0.22062000  1.0
  O  O310  1  0.99772000  0.31090000  0.19670000  1.0
  O  O311  1  0.33255000  0.32879000  0.01180000  1.0
  O  O312  1  0.09754000  0.52271000  0.27428000  1.0
  O  O313  1  0.21798000  0.58086000  0.85254000  1.0
  O  O314  1  0.26941000  0.64954000  0.22062000  1.0
  O  O315  1  0.50232000  0.68912000  0.19670000  1.0
  O  O316  1  0.16743000  0.67120000  0.01180000  1.0
  O  O317  1  0.40252000  0.47729000  0.27428000  1.0
  O  O318  1  0.71800000  0.41912000  0.64745000  1.0
  O  O319  1  0.76933000  0.35042000  0.27937000  1.0
  O  O320  1  0.00233000  0.31094000  0.30328000  1.0
  O  O321  1  0.66747000  0.32879000  0.48818000  1.0
  O  O322  1  0.90251000  0.52270000  0.22569000  1.0
  O  O323  1  0.78200000  0.58085000  0.64745000  1.0
  O  O324  1  0.73069000  0.64958000  0.27936000  1.0
  O  O325  1  0.49772000  0.68902000  0.30328000  1.0
  O  O326  1  0.83253000  0.67121000  0.48819000  1.0
  O  O327  1  0.59752000  0.47732000  0.22570000  1.0
