# generated using pymatgen
data_ZnH17C19I2NO6
_symmetry_space_group_name_H-M   'P 1'
_cell_length_a   9.58791000
_cell_length_b   10.94910000
_cell_length_c   16.10270000
_cell_angle_alpha   93.04600000
_cell_angle_beta   93.68170000
_cell_angle_gamma   92.25710000
_symmetry_Int_Tables_number   1
_chemical_formula_structural   ZnH17C19I2NO6
_chemical_formula_sum   'Zn2 H34 C38 I4 N2 O12'
_cell_volume   1683.01886922
_cell_formula_units_Z   2
loop_
 _symmetry_equiv_pos_site_id
 _symmetry_equiv_pos_as_xyz
  1  'x, y, z'
loop_
 _atom_site_type_symbol
 _atom_site_label
 _atom_site_symmetry_multiplicity
 _atom_site_fract_x
 _atom_site_fract_y
 _atom_site_fract_z
 _atom_site_occupancy
  Zn  Zn0  1  0.35688000  0.49262000  0.49775000  1.0
  Zn  Zn1  1  0.64385000  0.50272000  0.50422000  1.0
  H  H2  1  0.69378000  0.62615000  0.07815000  1.0
  H  H3  1  0.29885000  0.39621000  0.92623000  1.0
  H  H4  1  0.84668000  0.46136000  0.37491000  1.0
  H  H5  1  0.15415000  0.53364000  0.62785000  1.0
  H  H6  1  0.11472000  0.45434000  0.37247000  1.0
  H  H7  1  0.88627000  0.54073000  0.63027000  1.0
  H  H8  1  0.10723000  0.54508000  0.95551000  1.0
  H  H9  1  0.20874000  0.67918000  0.93470000  1.0
  H  H10  1  0.99625000  0.66848000  0.06880000  1.0
  H  H11  1  0.09346000  0.79989000  0.04330000  1.0
  H  H12  1  0.97576000  0.78346000  0.89696000  1.0
  H  H13  1  0.85029000  0.79550000  0.97274000  1.0
  H  H14  1  0.87753000  0.65126000  0.92231000  1.0
  H  H15  1  0.78550000  0.33855000  0.06592000  1.0
  H  H16  1  0.88758000  0.47310000  0.04664000  1.0
  H  H17  1  0.89607000  0.22158000  0.95350000  1.0
  H  H18  1  0.99325000  0.35383000  0.92944000  1.0
  H  H19  1  0.11722000  0.36390000  0.07448000  1.0
  H  H20  1  0.14193000  0.22202000  0.02013000  1.0
  H  H21  1  0.01974000  0.23033000  0.09798000  1.0
  H  H22  1  0.91585000  0.80895000  0.55826000  1.0
  H  H23  1  0.75043000  0.77810000  0.59925000  1.0
  H  H24  1  0.93068000  0.01732000  0.62069000  1.0
  H  H25  1  0.75339000  0.00916000  0.64473000  1.0
  H  H26  1  0.80160000  0.85369000  0.74949000  1.0
  H  H27  1  0.91240000  0.98670000  0.77287000  1.0
  H  H28  1  0.98032000  0.85344000  0.72647000  1.0
  H  H29  1  0.38582000  0.25458000  0.66239000  1.0
  H  H30  1  0.33978000  0.11032000  0.70371000  1.0
  H  H31  1  0.13136000  0.29430000  0.63968000  1.0
  H  H32  1  0.08749000  0.15418000  0.68295000  1.0
  H  H33  1  0.21268000  0.22956000  0.82055000  1.0
  H  H34  1  0.07997000  0.32977000  0.79011000  1.0
  H  H35  1  0.25859000  0.37019000  0.77652000  1.0
  C  C36  1  0.50362000  0.73359000  0.51359000  1.0
  C  C37  1  0.49486000  0.26429000  0.50551000  1.0
  C  C38  1  0.61857000  0.06435000  0.48972000  1.0
  C  C39  1  0.39633000  0.93671000  0.55509000  1.0
  C  C40  1  0.50114000  0.12788000  0.51176000  1.0
  C  C41  1  0.51010000  0.87064000  0.52787000  1.0
  C  C42  1  0.91712000  0.47714000  0.43070000  1.0
  C  C43  1  0.08387000  0.51767000  0.57203000  1.0
  C  C44  1  0.06191000  0.47284000  0.42954000  1.0
  C  C45  1  0.93911000  0.52178000  0.57327000  1.0
  C  C46  1  0.51737000  0.51467000  0.66495000  1.0
  C  C47  1  0.48672000  0.48923000  0.33884000  1.0
  C  C48  1  0.37409000  0.55988000  0.02433000  1.0
  C  C49  1  0.61882000  0.46239000  0.97959000  1.0
  C  C50  1  0.49740000  0.62987000  0.98200000  1.0
  C  C51  1  0.49568000  0.39228000  0.02164000  1.0
  C  C52  1  0.51747000  0.52060000  0.75465000  1.0
  C  C53  1  0.48427000  0.49196000  0.24928000  1.0
  C  C54  1  0.38588000  0.44740000  0.96070000  1.0
  C  C55  1  0.60710000  0.57489000  0.04326000  1.0
  C  C56  1  0.50635000  0.51609000  0.91697000  1.0
  C  C57  1  0.48649000  0.50589000  0.08702000  1.0
  C  C58  1  0.51414000  0.52008000  0.83006000  1.0
  C  C59  1  0.48244000  0.49902000  0.17402000  1.0
  C  C60  1  0.62907000  0.93959000  0.50476000  1.0
  C  C61  1  0.39242000  0.06391000  0.54907000  1.0
  C  C62  1  0.15411000  0.63284000  0.98325000  1.0
  C  C63  1  0.04303000  0.71317000  0.01687000  1.0
  C  C64  1  0.93060000  0.73698000  0.94857000  1.0
  C  C65  1  0.83917000  0.38660000  0.01778000  1.0
  C  C66  1  0.94817000  0.30702000  0.98104000  1.0
  C  C67  1  0.06295000  0.27947000  0.04693000  1.0
  C  C68  1  0.81847000  0.84994000  0.57589000  1.0
  C  C69  1  0.84783000  0.95558000  0.64098000  1.0
  C  C70  1  0.88764000  0.90974000  0.72698000  1.0
  C  C71  1  0.30428000  0.18057000  0.66128000  1.0
  C  C72  1  0.16666000  0.23008000  0.68612000  1.0
  C  C73  1  0.18032000  0.29363000  0.77322000  1.0
  I  I74  1  0.50037000  0.81556000  0.95115000  1.0
  I  I75  1  0.49241000  0.20597000  0.05066000  1.0
  I  I76  1  0.78922000  0.14361000  0.43207000  1.0
  I  I77  1  0.22976000  0.85940000  0.61798000  1.0
  N  N78  1  0.14334000  0.49289000  0.50019000  1.0
  N  N79  1  0.85763000  0.50173000  0.50261000  1.0
  O  O80  1  0.38638000  0.67798000  0.52036000  1.0
  O  O81  1  0.60633000  0.32604000  0.53051000  1.0
  O  O82  1  0.61291000  0.68173000  0.49151000  1.0
  O  O83  1  0.38154000  0.30786000  0.47802000  1.0
  O  O84  1  0.40124000  0.48025000  0.62569000  1.0
  O  O85  1  0.60323000  0.46745000  0.37673000  1.0
  O  O86  1  0.63171000  0.54259000  0.63324000  1.0
  O  O87  1  0.37222000  0.50987000  0.37202000  1.0
  O  O88  1  0.25433000  0.60753000  0.05097000  1.0
  O  O89  1  0.73772000  0.41502000  0.95155000  1.0
  O  O90  1  0.75624000  0.89037000  0.49756000  1.0
  O  O91  1  0.28150000  0.12520000  0.57747000  1.0
