# generated using pymatgen
data_MgH2(CO2)2
_symmetry_space_group_name_H-M   'P 1'
_cell_length_a   9.91548000
_cell_length_b   11.40360000
_cell_length_c   14.59180000
_cell_angle_alpha   91.41670000
_cell_angle_beta   89.99990000
_cell_angle_gamma   90.00000000
_symmetry_Int_Tables_number   1
_chemical_formula_structural   MgH2(CO2)2
_chemical_formula_sum   'Mg12 H24 C24 O48'
_cell_volume   1649.42211755
_cell_formula_units_Z   12
loop_
 _symmetry_equiv_pos_site_id
 _symmetry_equiv_pos_as_xyz
  1  'x, y, z'
loop_
 _atom_site_type_symbol
 _atom_site_label
 _atom_site_symmetry_multiplicity
 _atom_site_fract_x
 _atom_site_fract_y
 _atom_site_fract_z
 _atom_site_occupancy
  Mg  Mg0  1  0.92240000  0.74349000  0.86494000  1.0
  Mg  Mg1  1  0.42240000  0.75651000  0.63506000  1.0
  Mg  Mg2  1  0.07760000  0.25651000  0.13506000  1.0
  Mg  Mg3  1  0.57760000  0.24349000  0.36494000  1.0
  Mg  Mg4  1  0.00000000  0.00000000  0.00000000  1.0
  Mg  Mg5  1  0.50000000  0.50000000  0.50000000  1.0
  Mg  Mg6  1  0.11191000  0.76023000  0.68945000  1.0
  Mg  Mg7  1  0.61191000  0.73977000  0.81055000  1.0
  Mg  Mg8  1  0.88809000  0.23977000  0.31055000  1.0
  Mg  Mg9  1  0.38809000  0.26023000  0.18945000  1.0
  Mg  Mg10  1  0.00000000  0.50000000  0.00000000  1.0
  Mg  Mg11  1  0.50000000  0.00000000  0.50000000  1.0
  H  H12  1  0.04373000  0.02928000  0.72633000  1.0
  H  H13  1  0.54373000  0.47072000  0.77367000  1.0
  H  H14  1  0.95627000  0.97072000  0.27367000  1.0
  H  H15  1  0.45627000  0.52928000  0.22633000  1.0
  H  H16  1  0.60302000  0.93801000  0.95870000  1.0
  H  H17  1  0.10302000  0.56199000  0.54131000  1.0
  H  H18  1  0.39698000  0.06199000  0.04130000  1.0
  H  H19  1  0.89698000  0.43801000  0.45870000  1.0
  H  H20  1  0.74946000  0.63191000  0.62446000  1.0
  H  H21  1  0.24946000  0.86809000  0.87554000  1.0
  H  H22  1  0.25053000  0.36810000  0.37554000  1.0
  H  H23  1  0.75054000  0.13191000  0.12446000  1.0
  H  H24  1  0.70507000  0.49605000  0.99228000  1.0
  H  H25  1  0.20507000  0.00395000  0.50772000  1.0
  H  H26  1  0.29493000  0.50395000  0.00772000  1.0
  H  H27  1  0.79493000  0.99605000  0.49228000  1.0
  H  H28  1  0.20771000  0.51680000  0.76237000  1.0
  H  H29  1  0.70771000  0.98320000  0.73763000  1.0
  H  H30  1  0.79229000  0.48320000  0.23763000  1.0
  H  H31  1  0.29229000  0.01680000  0.26237000  1.0
  H  H32  1  0.16683000  0.81032000  0.07726000  1.0
  H  H33  1  0.66683000  0.68968000  0.42274000  1.0
  H  H34  1  0.83317000  0.18968000  0.92274000  1.0
  H  H35  1  0.33317000  0.31032000  0.57726000  1.0
  C  C36  1  0.01735000  0.98170000  0.78904000  1.0
  C  C37  1  0.51735000  0.51830000  0.71095000  1.0
  C  C38  1  0.98265000  0.01830000  0.21096000  1.0
  C  C39  1  0.48265000  0.48170000  0.28905000  1.0
  C  C40  1  0.71250000  0.92211000  0.95035000  1.0
  C  C41  1  0.21250000  0.57789000  0.54965000  1.0
  C  C42  1  0.28750000  0.07789000  0.04965000  1.0
  C  C43  1  0.78750000  0.42211000  0.45035000  1.0
  C  C44  1  0.83031000  0.66896000  0.66837000  1.0
  C  C45  1  0.33031000  0.83104000  0.83163000  1.0
  C  C46  1  0.16969000  0.33104000  0.33162000  1.0
  C  C47  1  0.66969000  0.16896000  0.16837000  1.0
  C  C48  1  0.72379000  0.56860000  0.94529000  1.0
  C  C49  1  0.22380000  0.93140000  0.55471000  1.0
  C  C50  1  0.27621000  0.43140000  0.05471000  1.0
  C  C51  1  0.77620000  0.06860000  0.44529000  1.0
  C  C52  1  0.13353000  0.54708000  0.81470000  1.0
  C  C53  1  0.63353000  0.95292000  0.68530000  1.0
  C  C54  1  0.86646000  0.45292000  0.18530000  1.0
  C  C55  1  0.36647000  0.04708000  0.31470000  1.0
  C  C56  1  0.10241000  0.75743000  0.03042000  1.0
  C  C57  1  0.60241000  0.74257000  0.46958000  1.0
  C  C58  1  0.89759000  0.24257000  0.96958000  1.0
  C  C59  1  0.39759000  0.25743000  0.53042000  1.0
  O  O60  1  0.00726000  0.86960000  0.77988000  1.0
  O  O61  1  0.50726000  0.63040000  0.72012000  1.0
  O  O62  1  0.99274000  0.13040000  0.22012000  1.0
  O  O63  1  0.49274000  0.36960000  0.27988000  1.0
  O  O64  1  0.74530000  0.84314000  0.88964000  1.0
  O  O65  1  0.24530000  0.65686000  0.61036000  1.0
  O  O66  1  0.25470000  0.15686000  0.11036000  1.0
  O  O67  1  0.75470000  0.34314000  0.38964000  1.0
  O  O68  1  0.80010000  0.69279000  0.75251000  1.0
  O  O69  1  0.30010000  0.80721000  0.74749000  1.0
  O  O70  1  0.19990000  0.30721000  0.24749000  1.0
  O  O71  1  0.69990000  0.19279000  0.25251000  1.0
  O  O72  1  0.84747000  0.60172000  0.93713000  1.0
  O  O73  1  0.34747000  0.89828000  0.56287000  1.0
  O  O74  1  0.15253000  0.39828000  0.06287000  1.0
  O  O75  1  0.65253000  0.10172000  0.43713000  1.0
  O  O76  1  0.08249000  0.64937000  0.80279000  1.0
  O  O77  1  0.58249000  0.85063000  0.69721000  1.0
  O  O78  1  0.91751000  0.35063000  0.19721000  1.0
  O  O79  1  0.41751000  0.14937000  0.30279000  1.0
  O  O80  1  0.02761000  0.81569000  0.97514000  1.0
  O  O81  1  0.52761000  0.68432000  0.52486000  1.0
  O  O82  1  0.97239000  0.18431000  0.02486000  1.0
  O  O83  1  0.47239000  0.31568000  0.47514000  1.0
  O  O84  1  0.99990000  0.03903000  0.86214000  1.0
  O  O85  1  0.49990000  0.46097000  0.63786000  1.0
  O  O86  1  0.00010000  0.96097000  0.13786000  1.0
  O  O87  1  0.50010000  0.53903000  0.36214000  1.0
  O  O88  1  0.79304000  0.98086000  0.99872000  1.0
  O  O89  1  0.29304000  0.51914000  0.50128000  1.0
  O  O90  1  0.20696000  0.01914000  0.00128000  1.0
  O  O91  1  0.70696000  0.48086000  0.49872000  1.0
  O  O92  1  0.62475000  0.61121000  0.90439000  1.0
  O  O93  1  0.12475000  0.88879000  0.59561000  1.0
  O  O94  1  0.37525000  0.38879000  0.09561000  1.0
  O  O95  1  0.87525000  0.11121000  0.40439000  1.0
  O  O96  1  0.10758000  0.48069000  0.87903000  1.0
  O  O97  1  0.60758000  0.01931000  0.62097000  1.0
  O  O98  1  0.89243000  0.51931000  0.12097000  1.0
  O  O99  1  0.39242000  0.98069000  0.37903000  1.0
  O  O100  1  0.10810000  0.64840000  0.03428000  1.0
  O  O101  1  0.60810000  0.85160000  0.46572000  1.0
  O  O102  1  0.89190000  0.35160000  0.96572000  1.0
  O  O103  1  0.39190000  0.14840000  0.53428000  1.0
  O  O104  1  0.94396000  0.68392000  0.63262000  1.0
  O  O105  1  0.44396000  0.81608000  0.86738000  1.0
  O  O106  1  0.05604000  0.31608000  0.36738000  1.0
  O  O107  1  0.55604000  0.18392000  0.13262000  1.0
