# generated using pymatgen
data_ZnH12C18N2(O3F2)2
_symmetry_space_group_name_H-M   'P 1'
_cell_length_a   8.07760000
_cell_length_b   8.07773000
_cell_length_c   13.95920000
_cell_angle_alpha   78.33350000
_cell_angle_beta   78.33280000
_cell_angle_gamma   89.63900000
_symmetry_Int_Tables_number   1
_chemical_formula_structural   ZnH12C18N2(O3F2)2
_chemical_formula_sum   'Zn2 H24 C36 N4 O12 F8'
_cell_volume   873.00454714
_cell_formula_units_Z   2
loop_
 _symmetry_equiv_pos_site_id
 _symmetry_equiv_pos_as_xyz
  1  'x, y, z'
loop_
 _atom_site_type_symbol
 _atom_site_label
 _atom_site_symmetry_multiplicity
 _atom_site_fract_x
 _atom_site_fract_y
 _atom_site_fract_z
 _atom_site_occupancy
  Zn  Zn0  1  0.93994000  0.06005000  0.75000000  1.0
  Zn  Zn1  1  0.06005000  0.93995000  0.25000000  1.0
  H  H2  1  0.32005000  0.04680000  0.74003000  1.0
  H  H3  1  0.95321000  0.67997000  0.75998000  1.0
  H  H4  1  0.67997000  0.95322000  0.25997000  1.0
  H  H5  1  0.04681000  0.32004000  0.24003000  1.0
  H  H6  1  0.54641000  0.83677000  0.74168000  1.0
  H  H7  1  0.16322000  0.45359000  0.75833000  1.0
  H  H8  1  0.45359000  0.16323000  0.25831000  1.0
  H  H9  1  0.83677000  0.54640000  0.24168000  1.0
  H  H10  1  0.71342000  0.66355000  0.66080000  1.0
  H  H11  1  0.33645000  0.28659000  0.83920000  1.0
  H  H12  1  0.28659000  0.33646000  0.33921000  1.0
  H  H13  1  0.66356000  0.71341000  0.16080000  1.0
  H  H14  1  0.92245000  0.43847000  0.66551000  1.0
  H  H15  1  0.56152000  0.07755000  0.83448000  1.0
  H  H16  1  0.07755000  0.56154000  0.33449000  1.0
  H  H17  1  0.43848000  0.92245000  0.16551000  1.0
  H  H18  1  0.96986000  0.09230000  0.56391000  1.0
  H  H19  1  0.90769000  0.03015000  0.93609000  1.0
  H  H20  1  0.03016000  0.90769000  0.43609000  1.0
  H  H21  1  0.09230000  0.96986000  0.06391000  1.0
  H  H22  1  0.84863000  0.92933000  0.58667000  1.0
  H  H23  1  0.07065000  0.15139000  0.91332000  1.0
  H  H24  1  0.15139000  0.07066000  0.41333000  1.0
  H  H25  1  0.92934000  0.84862000  0.08668000  1.0
  C  C26  1  0.29116000  0.91381000  0.74414000  1.0
  C  C27  1  0.08618000  0.70885000  0.75586000  1.0
  C  C28  1  0.70885000  0.08619000  0.25585000  1.0
  C  C29  1  0.91382000  0.29116000  0.24414000  1.0
  C  C30  1  0.41727000  0.79626000  0.74329000  1.0
  C  C31  1  0.20374000  0.58276000  0.75671000  1.0
  C  C32  1  0.58275000  0.20374000  0.25671000  1.0
  C  C33  1  0.79627000  0.41726000  0.24329000  1.0
  C  C34  1  0.37445000  0.62557000  0.75000000  1.0
  C  C35  1  0.62557000  0.37445000  0.25000000  1.0
  C  C36  1  0.50404000  0.49595000  0.75000000  1.0
  C  C37  1  0.49597000  0.50405000  0.25000000  1.0
  C  C38  1  0.67318000  0.53651000  0.70245000  1.0
  C  C39  1  0.46348000  0.32684000  0.79755000  1.0
  C  C40  1  0.32683000  0.46350000  0.29755000  1.0
  C  C41  1  0.53652000  0.67317000  0.20245000  1.0
  C  C42  1  0.79115000  0.41057000  0.70367000  1.0
  C  C43  1  0.58942000  0.20886000  0.79632000  1.0
  C  C44  1  0.20885000  0.58944000  0.29633000  1.0
  C  C45  1  0.41058000  0.79115000  0.20367000  1.0
  C  C46  1  0.73238000  0.79758000  0.93007000  1.0
  C  C47  1  0.20242000  0.26760000  0.56994000  1.0
  C  C48  1  0.26759000  0.20241000  0.06994000  1.0
  C  C49  1  0.79760000  0.73239000  0.43006000  1.0
  C  C50  1  0.61346000  0.64256000  0.96578000  1.0
  C  C51  1  0.35743000  0.38653000  0.53422000  1.0
  C  C52  1  0.38651000  0.35743000  0.03422000  1.0
  C  C53  1  0.64257000  0.61347000  0.46577000  1.0
  C  C54  1  0.43888000  0.66066000  0.98316000  1.0
  C  C55  1  0.33934000  0.56111000  0.51685000  1.0
  C  C56  1  0.56110000  0.33933000  0.01685000  1.0
  C  C57  1  0.66067000  0.43888000  0.48314000  1.0
  C  C58  1  0.32680000  0.52077000  0.01669000  1.0
  C  C59  1  0.47923000  0.67319000  0.48332000  1.0
  C  C60  1  0.67317000  0.47922000  0.98332000  1.0
  C  C61  1  0.52077000  0.32681000  0.51667000  1.0
  N  N62  1  0.12779000  0.87222000  0.75000000  1.0
  N  N63  1  0.87222000  0.12779000  0.25000000  1.0
  N  N64  1  0.75123000  0.24876000  0.75000000  1.0
  N  N65  1  0.24877000  0.75124000  0.25000000  1.0
  O  O66  1  0.75426000  0.86295000  0.83749000  1.0
  O  O67  1  0.13705000  0.24573000  0.66252000  1.0
  O  O68  1  0.24572000  0.13705000  0.16252000  1.0
  O  O69  1  0.86295000  0.75427000  0.33747000  1.0
  O  O70  1  0.79562000  0.84953000  0.99465000  1.0
  O  O71  1  0.15047000  0.20436000  0.50536000  1.0
  O  O72  1  0.20437000  0.15046000  0.00536000  1.0
  O  O73  1  0.84955000  0.79560000  0.49464000  1.0
  O  O74  1  0.87406000  0.02698000  0.61384000  1.0
  O  O75  1  0.97301000  0.12594000  0.88616000  1.0
  O  O76  1  0.12594000  0.97302000  0.38616000  1.0
  O  O77  1  0.02698000  0.87407000  0.11384000  1.0
  F  F78  1  0.37698000  0.81845000  0.96845000  1.0
  F  F79  1  0.18155000  0.62301000  0.53157000  1.0
  F  F80  1  0.62299000  0.18155000  0.03155000  1.0
  F  F81  1  0.81845000  0.37699000  0.46843000  1.0
  F  F82  1  0.15811000  0.54400000  0.03240000  1.0
  F  F83  1  0.45600000  0.84186000  0.46762000  1.0
  F  F84  1  0.84186000  0.45598000  0.96761000  1.0
  F  F85  1  0.54400000  0.15813000  0.53237000  1.0
