# generated using pymatgen
data_NaBH6C6N2(O2F)2
_symmetry_space_group_name_H-M   'P 1'
_cell_length_a   6.58484000
_cell_length_b   11.72700000
_cell_length_c   13.96090000
_cell_angle_alpha   90.00040000
_cell_angle_beta   90.00000000
_cell_angle_gamma   89.99990000
_symmetry_Int_Tables_number   1
_chemical_formula_structural   NaBH6C6N2(O2F)2
_chemical_formula_sum   'Na4 B4 H24 C24 N8 O16 F8'
_cell_volume   1078.06654312
_cell_formula_units_Z   4
loop_
 _symmetry_equiv_pos_site_id
 _symmetry_equiv_pos_as_xyz
  1  'x, y, z'
loop_
 _atom_site_type_symbol
 _atom_site_label
 _atom_site_symmetry_multiplicity
 _atom_site_fract_x
 _atom_site_fract_y
 _atom_site_fract_z
 _atom_site_occupancy
  Na  Na0  1  0.20914000  0.53952000  0.25000000  1.0
  Na  Na1  1  0.29086000  0.03952000  0.25000000  1.0
  Na  Na2  1  0.79086000  0.46048000  0.75000000  1.0
  Na  Na3  1  0.70914000  0.96048000  0.75000000  1.0
  B  B4  1  0.53865000  0.30240000  0.25000000  1.0
  B  B5  1  0.96135000  0.80240000  0.25000000  1.0
  B  B6  1  0.46135000  0.69760000  0.75000000  1.0
  B  B7  1  0.03865000  0.19760000  0.75000000  1.0
  H  H8  1  0.87096000  0.60880000  0.03244000  1.0
  H  H9  1  0.62904000  0.10880000  0.46756000  1.0
  H  H10  1  0.12904000  0.39120000  0.53244000  1.0
  H  H11  1  0.37096000  0.89120000  0.96756000  1.0
  H  H12  1  0.12903000  0.39120000  0.96756000  1.0
  H  H13  1  0.37097000  0.89120000  0.53244000  1.0
  H  H14  1  0.87096000  0.60880000  0.46756000  1.0
  H  H15  1  0.62904000  0.10880000  0.03244000  1.0
  H  H16  1  0.75048000  0.74079000  0.00125000  1.0
  H  H17  1  0.74951000  0.24079000  0.49876000  1.0
  H  H18  1  0.24951000  0.25921000  0.50124000  1.0
  H  H19  1  0.25049000  0.75921000  0.99876000  1.0
  H  H20  1  0.24951000  0.25921000  0.99875000  1.0
  H  H21  1  0.25049000  0.75921000  0.50125000  1.0
  H  H22  1  0.75049000  0.74079000  0.49876000  1.0
  H  H23  1  0.74951000  0.24079000  0.00124000  1.0
  H  H24  1  0.69365000  0.61325000  0.93602000  1.0
  H  H25  1  0.80635000  0.11326000  0.56399000  1.0
  H  H26  1  0.30635000  0.38674000  0.43601000  1.0
  H  H27  1  0.19365000  0.88674000  0.06399000  1.0
  H  H28  1  0.30635000  0.38674000  0.06399000  1.0
  H  H29  1  0.19365000  0.88674000  0.43602000  1.0
  H  H30  1  0.69365000  0.61326000  0.56399000  1.0
  H  H31  1  0.80635000  0.11326000  0.93601000  1.0
  C  C32  1  0.81921000  0.40075000  0.19470000  1.0
  C  C33  1  0.68079000  0.90075000  0.30530000  1.0
  C  C34  1  0.18079000  0.59925000  0.69470000  1.0
  C  C35  1  0.31922000  0.09925000  0.80530000  1.0
  C  C36  1  0.18079000  0.59925000  0.80530000  1.0
  C  C37  1  0.31922000  0.09925000  0.69470000  1.0
  C  C38  1  0.81921000  0.40075000  0.30530000  1.0
  C  C39  1  0.68079000  0.90075000  0.19470000  1.0
  C  C40  1  0.56724000  0.62284000  0.07271000  1.0
  C  C41  1  0.93276000  0.12284000  0.42730000  1.0
  C  C42  1  0.43275000  0.37716000  0.57270000  1.0
  C  C43  1  0.06725000  0.87715000  0.92730000  1.0
  C  C44  1  0.43276000  0.37716000  0.92729000  1.0
  C  C45  1  0.06724000  0.87716000  0.57271000  1.0
  C  C46  1  0.56726000  0.62284000  0.42730000  1.0
  C  C47  1  0.93275000  0.12285000  0.07270000  1.0
  C  C48  1  0.72988000  0.64820000  0.00679000  1.0
  C  C49  1  0.77012000  0.14820000  0.49321000  1.0
  C  C50  1  0.27012000  0.35180000  0.50679000  1.0
  C  C51  1  0.22988000  0.85180000  0.99321000  1.0
  C  C52  1  0.27011000  0.35180000  0.99321000  1.0
  C  C53  1  0.22989000  0.85180000  0.50679000  1.0
  C  C54  1  0.72988000  0.64820000  0.49321000  1.0
  C  C55  1  0.77011000  0.14820000  0.00679000  1.0
  N  N56  1  0.43547000  0.60176000  0.12541000  1.0
  N  N57  1  0.06453000  0.10177000  0.37459000  1.0
  N  N58  1  0.56454000  0.39824000  0.62541000  1.0
  N  N59  1  0.93546000  0.89824000  0.87459000  1.0
  N  N60  1  0.56453000  0.39824000  0.87460000  1.0
  N  N61  1  0.93548000  0.89824000  0.62541000  1.0
  N  N62  1  0.43546000  0.60176000  0.37459000  1.0
  N  N63  1  0.06453000  0.10177000  0.12541000  1.0
  O  O64  1  0.94801000  0.44663000  0.14484000  1.0
  O  O65  1  0.55199000  0.94663000  0.35515000  1.0
  O  O66  1  0.05198000  0.55337000  0.64485000  1.0
  O  O67  1  0.44801000  0.05336000  0.85515000  1.0
  O  O68  1  0.05199000  0.55337000  0.85516000  1.0
  O  O69  1  0.44801000  0.05337000  0.64484000  1.0
  O  O70  1  0.94801000  0.44663000  0.35515000  1.0
  O  O71  1  0.55199000  0.94663000  0.14485000  1.0
  O  O72  1  0.65806000  0.34341000  0.16471000  1.0
  O  O73  1  0.84194000  0.84341000  0.33529000  1.0
  O  O74  1  0.34194000  0.65659000  0.66471000  1.0
  O  O75  1  0.15806000  0.15659000  0.83529000  1.0
  O  O76  1  0.34194000  0.65659000  0.83529000  1.0
  O  O77  1  0.15806000  0.15659000  0.66471000  1.0
  O  O78  1  0.65806000  0.34341000  0.33529000  1.0
  O  O79  1  0.84194000  0.84341000  0.16471000  1.0
  F  F80  1  0.34443000  0.35102000  0.25000000  1.0
  F  F81  1  0.15558000  0.85102000  0.25000000  1.0
  F  F82  1  0.65558000  0.64898000  0.75000000  1.0
  F  F83  1  0.84443000  0.14899000  0.75000000  1.0
  F  F84  1  0.52718000  0.18359000  0.25000000  1.0
  F  F85  1  0.97283000  0.68359000  0.25000000  1.0
  F  F86  1  0.47283000  0.81641000  0.75000000  1.0
  F  F87  1  0.02718000  0.31641000  0.75000000  1.0
