# generated using pymatgen
data_CuH4C3BrN3
_symmetry_space_group_name_H-M   'P 1'
_cell_length_a   6.21900000
_cell_length_b   6.42057000
_cell_length_c   7.55813000
_cell_angle_alpha   83.78600000
_cell_angle_beta   74.20030000
_cell_angle_gamma   85.47660000
_symmetry_Int_Tables_number   1
_chemical_formula_structural   CuH4C3BrN3
_chemical_formula_sum   'Cu2 H8 C6 Br2 N6'
_cell_volume   288.29933130
_cell_formula_units_Z   2
loop_
 _symmetry_equiv_pos_site_id
 _symmetry_equiv_pos_as_xyz
  1  'x, y, z'
loop_
 _atom_site_type_symbol
 _atom_site_label
 _atom_site_symmetry_multiplicity
 _atom_site_fract_x
 _atom_site_fract_y
 _atom_site_fract_z
 _atom_site_occupancy
  Cu  Cu0  1  0.53028000  0.27146000  0.96703000  1.0
  Cu  Cu1  1  0.46973000  0.72856000  0.03296000  1.0
  H  H2  1  0.24281000  0.35701000  0.64987000  1.0
  H  H3  1  0.75717000  0.64299000  0.35014000  1.0
  H  H4  1  0.05958000  0.73268000  0.82676000  1.0
  H  H5  1  0.94041000  0.26733000  0.17325000  1.0
  H  H6  1  0.93890000  0.23388000  0.53098000  1.0
  H  H7  1  0.06110000  0.76613000  0.46902000  1.0
  H  H8  1  0.78867000  0.01872000  0.66330000  1.0
  H  H9  1  0.21133000  0.98128000  0.33670000  1.0
  C  C10  1  0.23282000  0.20212000  0.72378000  1.0
  C  C11  1  0.76720000  0.79786000  0.27620000  1.0
  C  C12  1  0.14259000  0.87877000  0.81237000  1.0
  C  C13  1  0.85743000  0.12122000  0.18763000  1.0
  C  C14  1  0.95398000  0.06780000  0.58027000  1.0
  C  C15  1  0.04601000  0.93220000  0.41972000  1.0
  Br  Br16  1  0.27712000  0.44580000  0.24703000  1.0
  Br  Br17  1  0.72288000  0.55421000  0.75297000  1.0
  N  N18  1  0.34248000  0.12941000  0.84694000  1.0
  N  N19  1  0.65752000  0.87058000  0.15306000  1.0
  N  N20  1  0.28610000  0.92198000  0.90238000  1.0
  N  N21  1  0.71389000  0.07802000  0.09762000  1.0
  N  N22  1  0.10503000  0.05020000  0.69927000  1.0
  N  N23  1  0.89496000  0.94979000  0.30075000  1.0
