# generated using pymatgen
data_CdH26C32N6O5
_symmetry_space_group_name_H-M   'P 1'
_cell_length_a   9.47453000
_cell_length_b   12.20900000
_cell_length_c   13.08000000
_cell_angle_alpha   79.63460000
_cell_angle_beta   88.36490000
_cell_angle_gamma   83.22790000
_symmetry_Int_Tables_number   1
_chemical_formula_structural   CdH26C32N6O5
_chemical_formula_sum   'Cd2 H52 C64 N12 O10'
_cell_volume   1477.90538580
_cell_formula_units_Z   2
loop_
 _symmetry_equiv_pos_site_id
 _symmetry_equiv_pos_as_xyz
  1  'x, y, z'
loop_
 _atom_site_type_symbol
 _atom_site_label
 _atom_site_symmetry_multiplicity
 _atom_site_fract_x
 _atom_site_fract_y
 _atom_site_fract_z
 _atom_site_occupancy
  Cd  Cd0  1  0.25349000  0.08970000  0.10733000  1.0
  Cd  Cd1  1  0.74652000  0.91030000  0.89267000  1.0
  H  H2  1  0.00074000  0.10922000  0.92385000  1.0
  H  H3  1  0.99927000  0.89078000  0.07615000  1.0
  H  H4  1  0.26754000  0.35503000  0.95223000  1.0
  H  H5  1  0.73245000  0.64497000  0.04778000  1.0
  H  H6  1  0.06634000  0.44382000  0.79851000  1.0
  H  H7  1  0.93366000  0.55619000  0.20149000  1.0
  H  H8  1  0.80015000  0.35489000  0.79039000  1.0
  H  H9  1  0.19985000  0.64511000  0.20961000  1.0
  H  H10  1  0.82724000  0.20836000  0.80054000  1.0
  H  H11  1  0.17276000  0.79164000  0.19947000  1.0
  H  H12  1  0.11550000  0.19220000  0.68892000  1.0
  H  H13  1  0.88451000  0.80779000  0.31109000  1.0
  H  H14  1  0.18144000  0.20765000  0.50230000  1.0
  H  H15  1  0.81857000  0.79235000  0.49771000  1.0
  H  H16  1  0.01550000  0.31859000  0.36711000  1.0
  H  H17  1  0.98452000  0.68141000  0.63289000  1.0
  H  H18  1  0.79243000  0.42210000  0.42178000  1.0
  H  H19  1  0.20758000  0.57788000  0.57822000  1.0
  H  H20  1  0.80154000  0.55412000  0.66624000  1.0
  H  H21  1  0.19848000  0.44587000  0.33377000  1.0
  H  H22  1  0.58387000  0.65484000  0.73289000  1.0
  H  H23  1  0.41614000  0.34516000  0.26710000  1.0
  H  H24  1  0.34935000  0.58636000  0.71809000  1.0
  H  H25  1  0.65066000  0.41364000  0.28191000  1.0
  H  H26  1  0.33416000  0.41905000  0.63643000  1.0
  H  H27  1  0.66584000  0.58095000  0.36358000  1.0
  H  H28  1  0.44891000  0.29169000  0.52176000  1.0
  H  H29  1  0.55109000  0.70830000  0.47825000  1.0
  H  H30  1  0.63588000  0.25985000  0.52008000  1.0
  H  H31  1  0.36412000  0.74016000  0.47992000  1.0
  H  H32  1  0.32948000  0.23626000  0.71760000  1.0
  H  H33  1  0.67051000  0.76373000  0.28238000  1.0
  H  H34  1  0.41213000  0.05324000  0.87104000  1.0
  H  H35  1  0.58784000  0.94674000  0.12895000  1.0
  H  H36  1  0.74487000  0.09494000  0.65174000  1.0
  H  H37  1  0.25513000  0.90506000  0.34826000  1.0
  H  H38  1  0.52891000  0.40668000  0.94637000  1.0
  H  H39  1  0.47109000  0.59332000  0.05362000  1.0
  H  H40  1  0.74690000  0.50639000  0.92488000  1.0
  H  H41  1  0.25310000  0.49361000  0.07511000  1.0
  H  H42  1  0.94920000  0.43422000  0.04944000  1.0
  H  H43  1  0.05079000  0.56579000  0.95056000  1.0
  H  H44  1  0.49680000  0.09336000  0.42933000  1.0
  H  H45  1  0.50320000  0.90664000  0.57067000  1.0
  H  H46  1  0.71723000  0.97966000  0.51153000  1.0
  H  H47  1  0.28276000  0.02033000  0.48847000  1.0
  H  H48  1  0.94483000  0.98271000  0.40772000  1.0
  H  H49  1  0.05516000  0.01729000  0.59228000  1.0
  H  H50  1  0.17901000  0.93840000  0.96118000  1.0
  H  H51  1  0.82099000  0.06161000  0.03882000  1.0
  H  H52  1  0.34154000  0.90527000  0.99505000  1.0
  H  H53  1  0.65845000  0.09473000  0.00495000  1.0
  C  C54  1  0.04833000  0.18694000  0.91266000  1.0
  C  C55  1  0.95167000  0.81306000  0.08735000  1.0
  C  C56  1  0.18378000  0.31670000  0.92250000  1.0
  C  C57  1  0.81622000  0.68331000  0.07750000  1.0
  C  C58  1  0.08485000  0.36173000  0.84705000  1.0
  C  C59  1  0.91514000  0.63827000  0.15295000  1.0
  C  C60  1  0.87782000  0.28554000  0.77532000  1.0
  C  C61  1  0.12218000  0.71446000  0.22469000  1.0
  C  C62  1  0.91837000  0.29998000  0.66131000  1.0
  C  C63  1  0.08163000  0.70001000  0.33869000  1.0
  C  C64  1  0.04549000  0.24409000  0.62997000  1.0
  C  C65  1  0.95452000  0.75591000  0.37004000  1.0
  C  C66  1  0.08226000  0.25213000  0.52512000  1.0
  C  C67  1  0.91775000  0.74787000  0.47488000  1.0
  C  C68  1  0.99025000  0.31524000  0.44946000  1.0
  C  C69  1  0.00975000  0.68476000  0.55054000  1.0
  C  C70  1  0.86424000  0.37199000  0.48008000  1.0
  C  C71  1  0.13576000  0.62800000  0.51993000  1.0
  C  C72  1  0.82673000  0.36595000  0.58541000  1.0
  C  C73  1  0.17327000  0.63405000  0.41460000  1.0
  C  C74  1  0.69201000  0.42782000  0.61701000  1.0
  C  C75  1  0.30800000  0.57218000  0.38299000  1.0
  C  C76  1  0.69838000  0.52432000  0.66059000  1.0
  C  C77  1  0.30163000  0.47567000  0.33941000  1.0
  C  C78  1  0.57677000  0.58130000  0.69750000  1.0
  C  C79  1  0.42324000  0.41869000  0.30250000  1.0
  C  C80  1  0.44521000  0.54245000  0.68947000  1.0
  C  C81  1  0.55480000  0.45755000  0.31053000  1.0
  C  C82  1  0.43710000  0.44839000  0.64436000  1.0
  C  C83  1  0.56290000  0.55161000  0.35564000  1.0
  C  C84  1  0.55908000  0.38965000  0.60862000  1.0
  C  C85  1  0.44092000  0.61035000  0.39139000  1.0
  C  C86  1  0.54518000  0.28256000  0.56884000  1.0
  C  C87  1  0.45481000  0.71744000  0.43116000  1.0
  C  C88  1  0.42578000  0.17836000  0.72630000  1.0
  C  C89  1  0.57421000  0.82163000  0.27369000  1.0
  C  C90  1  0.46861000  0.08842000  0.80217000  1.0
  C  C91  1  0.53137000  0.91157000  0.19782000  1.0
  C  C92  1  0.64323000  0.10657000  0.69094000  1.0
  C  C93  1  0.35678000  0.89343000  0.30906000  1.0
  C  C94  1  0.48079000  0.22651000  0.08924000  1.0
  C  C95  1  0.51921000  0.77349000  0.91076000  1.0
  C  C96  1  0.60792000  0.29068000  0.08274000  1.0
  C  C97  1  0.39208000  0.70932000  0.91726000  1.0
  C  C98  1  0.61696000  0.38052000  0.00057000  1.0
  C  C99  1  0.38304000  0.61948000  0.99942000  1.0
  C  C100  1  0.73908000  0.43495000  0.98750000  1.0
  C  C101  1  0.26092000  0.56505000  0.01250000  1.0
  C  C102  1  0.85008000  0.39597000  0.05756000  1.0
  C  C103  1  0.14991000  0.60404000  0.94244000  1.0
  C  C104  1  0.72450000  0.25933000  0.15065000  1.0
  C  C105  1  0.27550000  0.74067000  0.84935000  1.0
  C  C106  1  0.72413000  0.16982000  0.24434000  1.0
  C  C107  1  0.27587000  0.83019000  0.75566000  1.0
  C  C108  1  0.59982000  0.09571000  0.38966000  1.0
  C  C109  1  0.40018000  0.90429000  0.61033000  1.0
  C  C110  1  0.72128000  0.03116000  0.43441000  1.0
  C  C111  1  0.27871000  0.96884000  0.56558000  1.0
  C  C112  1  0.84781000  0.03372000  0.37739000  1.0
  C  C113  1  0.15219000  0.96629000  0.62261000  1.0
  C  C114  1  0.84983000  0.10007000  0.27868000  1.0
  C  C115  1  0.15016000  0.89993000  0.72132000  1.0
  C  C116  1  0.97948000  0.08868000  0.21082000  1.0
  C  C117  1  0.02052000  0.91134000  0.78918000  1.0
  N  N118  1  0.15958000  0.20794000  0.96270000  1.0
  N  N119  1  0.84042000  0.79206000  0.03731000  1.0
  N  N120  1  0.99956000  0.27815000  0.84239000  1.0
  N  N121  1  0.00044000  0.72185000  0.15761000  1.0
  N  N122  1  0.53708000  0.18888000  0.65581000  1.0
  N  N123  1  0.46292000  0.81111000  0.34418000  1.0
  N  N124  1  0.60417000  0.04425000  0.77910000  1.0
  N  N125  1  0.39582000  0.95574000  0.22090000  1.0
  N  N126  1  0.84304000  0.31154000  0.13754000  1.0
  N  N127  1  0.15696000  0.68846000  0.86246000  1.0
  N  N128  1  0.60162000  0.16538000  0.29826000  1.0
  N  N129  1  0.39837000  0.83463000  0.70173000  1.0
  O  O130  1  0.49873000  0.13604000  0.05134000  1.0
  O  O131  1  0.50126000  0.86396000  0.94867000  1.0
  O  O132  1  0.36429000  0.26487000  0.12539000  1.0
  O  O133  1  0.63571000  0.73513000  0.87462000  1.0
  O  O134  1  0.96349000  0.06360000  0.12212000  1.0
  O  O135  1  0.03649000  0.93643000  0.87787000  1.0
  O  O136  1  0.09940000  0.09778000  0.24838000  1.0
  O  O137  1  0.90061000  0.90223000  0.75162000  1.0
  O  O138  1  0.24574000  0.93547000  0.01920000  1.0
  O  O139  1  0.75425000  0.06453000  0.98080000  1.0
