# generated using pymatgen
data_CdP2H34C30(NO3)2
_symmetry_space_group_name_H-M   'P 1'
_cell_length_a   5.63458000
_cell_length_b   15.27750000
_cell_length_c   16.96570000
_cell_angle_alpha   100.53100000
_cell_angle_beta   89.99970000
_cell_angle_gamma   89.99970000
_symmetry_Int_Tables_number   1
_chemical_formula_structural   CdP2H34C30(NO3)2
_chemical_formula_sum   'Cd2 P4 H68 C60 N4 O12'
_cell_volume   1435.84688965
_cell_formula_units_Z   2
loop_
 _symmetry_equiv_pos_site_id
 _symmetry_equiv_pos_as_xyz
  1  'x, y, z'
loop_
 _atom_site_type_symbol
 _atom_site_label
 _atom_site_symmetry_multiplicity
 _atom_site_fract_x
 _atom_site_fract_y
 _atom_site_fract_z
 _atom_site_occupancy
  Cd  Cd0  1  0.81321000  0.80802000  0.27744000  1.0
  Cd  Cd1  1  0.31323000  0.19198000  0.72257000  1.0
  P  P2  1  0.29659000  0.92571000  0.21131000  1.0
  P  P3  1  0.79659000  0.07429000  0.78869000  1.0
  P  P4  1  0.30470000  0.67062000  0.33082000  1.0
  P  P5  1  0.80475000  0.32938000  0.66918000  1.0
  H  H6  1  0.86665000  0.96095000  0.12080000  1.0
  H  H7  1  0.36661000  0.03903000  0.87918000  1.0
  H  H8  1  0.78379000  0.93881000  0.97479000  1.0
  H  H9  1  0.28374000  0.06116000  0.02518000  1.0
  H  H10  1  0.08286000  0.86578000  0.87679000  1.0
  H  H11  1  0.58278000  0.13419000  0.12320000  1.0
  H  H12  1  0.47074000  0.81722000  0.92495000  1.0
  H  H13  1  0.97066000  0.18276000  0.07505000  1.0
  H  H14  1  0.55615000  0.84211000  0.07202000  1.0
  H  H15  1  0.05610000  0.15789000  0.92799000  1.0
  H  H16  1  0.73612000  0.01539000  0.27430000  1.0
  H  H17  1  0.23612000  0.98461000  0.72571000  1.0
  H  H18  1  0.83965000  0.17597000  0.31625000  1.0
  H  H19  1  0.33966000  0.82403000  0.68375000  1.0
  H  H20  1  0.55079000  0.29292000  0.29960000  1.0
  H  H21  1  0.05081000  0.70707000  0.70040000  1.0
  H  H22  1  0.15386000  0.25010000  0.23804000  1.0
  H  H23  1  0.65386000  0.74989000  0.76196000  1.0
  H  H24  1  0.04894000  0.09096000  0.19741000  1.0
  H  H25  1  0.54894000  0.90903000  0.80259000  1.0
  H  H26  1  0.72696000  0.71209000  0.43238000  1.0
  H  H27  1  0.22704000  0.28792000  0.56763000  1.0
  H  H28  1  0.81750000  0.69128000  0.57119000  1.0
  H  H29  1  0.31756000  0.30872000  0.42881000  1.0
  H  H30  1  0.53387000  0.61076000  0.64489000  1.0
  H  H31  1  0.03394000  0.38923000  0.35511000  1.0
  H  H32  1  0.15388000  0.55191000  0.57900000  1.0
  H  H33  1  0.65395000  0.44809000  0.42100000  1.0
  H  H34  1  0.05625000  0.57850000  0.44336000  1.0
  H  H35  1  0.55631000  0.42151000  0.55664000  1.0
  H  H36  1  0.85788000  0.60651000  0.24886000  1.0
  H  H37  1  0.35790000  0.39349000  0.75114000  1.0
  H  H38  1  0.75838000  0.46687000  0.15514000  1.0
  H  H39  1  0.25841000  0.53314000  0.84486000  1.0
  H  H40  1  0.05030000  0.34224000  0.12908000  1.0
  H  H41  1  0.55035000  0.65776000  0.87093000  1.0
  H  H42  1  0.44432000  0.35904000  0.19631000  1.0
  H  H43  1  0.94436000  0.64095000  0.80369000  1.0
  H  H44  1  0.54819000  0.50045000  0.28748000  1.0
  H  H45  1  0.04822000  0.49955000  0.71252000  1.0
  H  H46  1  0.26265000  0.71143000  0.18347000  1.0
  H  H47  1  0.76269000  0.28858000  0.81654000  1.0
  H  H48  1  0.98067000  0.58449000  0.97729000  1.0
  H  H49  1  0.48072000  0.41552000  0.02272000  1.0
  H  H50  1  0.15190000  0.66947000  0.94424000  1.0
  H  H51  1  0.65193000  0.33053000  0.05577000  1.0
  H  H52  1  0.90242000  0.69928000  0.00832000  1.0
  H  H53  1  0.40243000  0.30073000  0.99169000  1.0
  H  H54  1  0.54035000  0.64519000  0.11093000  1.0
  H  H55  1  0.04035000  0.35483000  0.88908000  1.0
  H  H56  1  0.53110000  0.64806000  0.00639000  1.0
  H  H57  1  0.03111000  0.35196000  0.99361000  1.0
  H  H58  1  0.43190000  0.55107000  0.04108000  1.0
  H  H59  1  0.93188000  0.44895000  0.95892000  1.0
  H  H60  1  0.35274000  0.86257000  0.37870000  1.0
  H  H61  1  0.85275000  0.13744000  0.62130000  1.0
  H  H62  1  0.07189000  0.86395000  0.46441000  1.0
  H  H63  1  0.57192000  0.13606000  0.53560000  1.0
  H  H64  1  0.11096000  0.92712000  0.56375000  1.0
  H  H65  1  0.61098000  0.07288000  0.43626000  1.0
  H  H66  1  0.18241000  0.81158000  0.54275000  1.0
  H  H67  1  0.68243000  0.18843000  0.45726000  1.0
  H  H68  1  0.74688000  0.95022000  0.54159000  1.0
  H  H69  1  0.24691000  0.04978000  0.45841000  1.0
  H  H70  1  0.63806000  0.86582000  0.59227000  1.0
  H  H71  1  0.13806000  0.13418000  0.40773000  1.0
  H  H72  1  0.50613000  0.97441000  0.61055000  1.0
  H  H73  1  0.00614000  0.02559000  0.38944000  1.0
  C  C74  1  0.22000000  0.90491000  0.10544000  1.0
  C  C75  1  0.71997000  0.09508000  0.89455000  1.0
  C  C76  1  0.00089000  0.93084000  0.07792000  1.0
  C  C77  1  0.50086000  0.06915000  0.92206000  1.0
  C  C78  1  0.95267000  0.91701000  0.99583000  1.0
  C  C79  1  0.45261000  0.08297000  0.00415000  1.0
  C  C80  1  0.12109000  0.87596000  0.94075000  1.0
  C  C81  1  0.62101000  0.12402000  0.05924000  1.0
  C  C82  1  0.33799000  0.84854000  0.96793000  1.0
  C  C83  1  0.83791000  0.15144000  0.03207000  1.0
  C  C84  1  0.38769000  0.86308000  0.04985000  1.0
  C  C85  1  0.88764000  0.13691000  0.95014000  1.0
  C  C86  1  0.38365000  0.04251000  0.23470000  1.0
  C  C87  1  0.88365000  0.95749000  0.76530000  1.0
  C  C88  1  0.60795000  0.06696000  0.26710000  1.0
  C  C89  1  0.10795000  0.93303000  0.73290000  1.0
  C  C90  1  0.66643000  0.15701000  0.29011000  1.0
  C  C91  1  0.16644000  0.84298000  0.70989000  1.0
  C  C92  1  0.50378000  0.22299000  0.28034000  1.0
  C  C93  1  0.00379000  0.77701000  0.71966000  1.0
  C  C94  1  0.28156000  0.19891000  0.24634000  1.0
  C  C95  1  0.78157000  0.80109000  0.75366000  1.0
  C  C96  1  0.22255000  0.10926000  0.22359000  1.0
  C  C97  1  0.72255000  0.89075000  0.77640000  1.0
  C  C98  1  0.38242000  0.64903000  0.42958000  1.0
  C  C99  1  0.88250000  0.35098000  0.57043000  1.0
  C  C100  1  0.59862000  0.67944000  0.46560000  1.0
  C  C101  1  0.09869000  0.32057000  0.53441000  1.0
  C  C102  1  0.65001000  0.66692000  0.54336000  1.0
  C  C103  1  0.15009000  0.33309000  0.45664000  1.0
  C  C104  1  0.49026000  0.62187000  0.58479000  1.0
  C  C105  1  0.99033000  0.37813000  0.41522000  1.0
  C  C106  1  0.27754000  0.58919000  0.54821000  1.0
  C  C107  1  0.77761000  0.41082000  0.45180000  1.0
  C  C108  1  0.22322000  0.60346000  0.47129000  1.0
  C  C109  1  0.72331000  0.39655000  0.52871000  1.0
  C  C110  1  0.21197000  0.56343000  0.27293000  1.0
  C  C111  1  0.71201000  0.43657000  0.72708000  1.0
  C  C112  1  0.98798000  0.55283000  0.23651000  1.0
  C  C113  1  0.48803000  0.44717000  0.76349000  1.0
  C  C114  1  0.93168000  0.47380000  0.18412000  1.0
  C  C115  1  0.43172000  0.52620000  0.81588000  1.0
  C  C116  1  0.09528000  0.40416000  0.16946000  1.0
  C  C117  1  0.59531000  0.59584000  0.83055000  1.0
  C  C118  1  0.31675000  0.41352000  0.20731000  1.0
  C  C119  1  0.81678000  0.58648000  0.79269000  1.0
  C  C120  1  0.37430000  0.49266000  0.25875000  1.0
  C  C121  1  0.87433000  0.50733000  0.74125000  1.0
  C  C122  1  0.12495000  0.70296000  0.13645000  1.0
  C  C123  1  0.62499000  0.29704000  0.86355000  1.0
  C  C124  1  0.05048000  0.65260000  0.99463000  1.0
  C  C125  1  0.55051000  0.34741000  0.00538000  1.0
  C  C126  1  0.43924000  0.62431000  0.05549000  1.0
  C  C127  1  0.93924000  0.37570000  0.94451000  1.0
  C  C128  1  0.49521000  0.88307000  0.42271000  1.0
  C  C129  1  0.99525000  0.11693000  0.57729000  1.0
  C  C130  1  0.18269000  0.87347000  0.51826000  1.0
  C  C131  1  0.68272000  0.12653000  0.48175000  1.0
  C  C132  1  0.58776000  0.92317000  0.56491000  1.0
  C  C133  1  0.08776000  0.07683000  0.43509000  1.0
  N  N134  1  0.20181000  0.66128000  0.06464000  1.0
  N  N135  1  0.70184000  0.33872000  0.93536000  1.0
  N  N136  1  0.42353000  0.89607000  0.49889000  1.0
  N  N137  1  0.92355000  0.10393000  0.50111000  1.0
  O  O138  1  0.51104000  0.86862000  0.21954000  1.0
  O  O139  1  0.01104000  0.13138000  0.78046000  1.0
  O  O140  1  0.07630000  0.91793000  0.26179000  1.0
  O  O141  1  0.57633000  0.08207000  0.73819000  1.0
  O  O142  1  0.09096000  0.73267000  0.33958000  1.0
  O  O143  1  0.59100000  0.26733000  0.66042000  1.0
  O  O144  1  0.52874000  0.69734000  0.29102000  1.0
  O  O145  1  0.02879000  0.30265000  0.70898000  1.0
  O  O146  1  0.91677000  0.73104000  0.14917000  1.0
  O  O147  1  0.41682000  0.26895000  0.85084000  1.0
  O  O148  1  0.70666000  0.89307000  0.40154000  1.0
  O  O149  1  0.20667000  0.10693000  0.59846000  1.0
