# generated using pymatgen
data_Sm2Cu3H24(C4O5)6
_symmetry_space_group_name_H-M   'P 1'
_cell_length_a   14.71040000
_cell_length_b   14.90820000
_cell_length_c   14.90820000
_cell_angle_alpha   60.00000000
_cell_angle_beta   90.00000000
_cell_angle_gamma   89.99990000
_symmetry_Int_Tables_number   1
_chemical_formula_structural   Sm2Cu3H24(C4O5)6
_chemical_formula_sum   'Sm4 Cu6 H48 C48 O60'
_cell_volume   2831.42807836
_cell_formula_units_Z   2
loop_
 _symmetry_equiv_pos_site_id
 _symmetry_equiv_pos_as_xyz
  1  'x, y, z'
loop_
 _atom_site_type_symbol
 _atom_site_label
 _atom_site_symmetry_multiplicity
 _atom_site_fract_x
 _atom_site_fract_y
 _atom_site_fract_z
 _atom_site_occupancy
  Sm  Sm0  1  0.75000000  0.33333333  0.33333333  1.0
  Sm  Sm1  1  0.75000000  0.66666667  0.66666667  1.0
  Sm  Sm2  1  0.25000000  0.66666667  0.66666667  1.0
  Sm  Sm3  1  0.25000000  0.33333333  0.33333333  1.0
  Cu  Cu4  1  0.00000000  0.50000000  0.50000000  1.0
  Cu  Cu5  1  0.00000000  0.50000000  0.00000000  1.0
  Cu  Cu6  1  0.00000000  0.00000000  0.50000000  1.0
  Cu  Cu7  1  0.50000000  0.50000000  1.00000000  1.0
  Cu  Cu8  1  0.50000000  0.50000000  0.50000000  1.0
  Cu  Cu9  1  0.50000000  0.00000000  0.50000000  1.0
  H  H10  1  0.84771000  0.20179000  0.64088000  1.0
  H  H11  1  0.75786000  0.28664000  0.63389000  1.0
  H  H12  1  0.84771000  0.64089000  0.15733000  1.0
  H  H13  1  0.75786000  0.63389000  0.07947000  1.0
  H  H14  1  0.84771000  0.15733000  0.20179000  1.0
  H  H15  1  0.75786000  0.07947000  0.28664000  1.0
  H  H16  1  0.84771000  0.79821000  0.35912000  1.0
  H  H17  1  0.75786000  0.71336000  0.36611000  1.0
  H  H18  1  0.84771000  0.35911000  0.84267000  1.0
  H  H19  1  0.75786000  0.36611000  0.92053000  1.0
  H  H20  1  0.84771000  0.84267000  0.79821000  1.0
  H  H21  1  0.75786000  0.92053000  0.71336000  1.0
  H  H22  1  0.65229000  0.79821000  0.84267000  1.0
  H  H23  1  0.74214000  0.71336000  0.92053000  1.0
  H  H24  1  0.65229000  0.35912000  0.79822000  1.0
  H  H25  1  0.74214000  0.36611000  0.71336000  1.0
  H  H26  1  0.65229000  0.84267000  0.35912000  1.0
  H  H27  1  0.74214000  0.92053000  0.36611000  1.0
  H  H28  1  0.65229000  0.20179000  0.15733000  1.0
  H  H29  1  0.74214000  0.28664000  0.07947000  1.0
  H  H30  1  0.65229000  0.64088000  0.20179000  1.0
  H  H31  1  0.74214000  0.63389000  0.28664000  1.0
  H  H32  1  0.65229000  0.15734000  0.64088000  1.0
  H  H33  1  0.74214000  0.07947000  0.63389000  1.0
  H  H34  1  0.15229000  0.79821000  0.35912000  1.0
  H  H35  1  0.24214000  0.71336000  0.36611000  1.0
  H  H36  1  0.15229000  0.35911000  0.84267000  1.0
  H  H37  1  0.24214000  0.36611000  0.92053000  1.0
  H  H38  1  0.15229000  0.84267000  0.79821000  1.0
  H  H39  1  0.24214000  0.92053000  0.71336000  1.0
  H  H40  1  0.15229000  0.20179000  0.64088000  1.0
  H  H41  1  0.24215000  0.28664000  0.63389000  1.0
  H  H42  1  0.15229000  0.64089000  0.15733000  1.0
  H  H43  1  0.24214000  0.63389000  0.07947000  1.0
  H  H44  1  0.15229000  0.15733000  0.20179000  1.0
  H  H45  1  0.24214000  0.07947000  0.28664000  1.0
  H  H46  1  0.34771000  0.20179000  0.15733000  1.0
  H  H47  1  0.25786000  0.28664000  0.07947000  1.0
  H  H48  1  0.34771000  0.64089000  0.20178000  1.0
  H  H49  1  0.25786000  0.63389000  0.28664000  1.0
  H  H50  1  0.34771000  0.15733000  0.64088000  1.0
  H  H51  1  0.25786000  0.07947000  0.63389000  1.0
  H  H52  1  0.34771000  0.79821000  0.84267000  1.0
  H  H53  1  0.25786000  0.71336000  0.92053000  1.0
  H  H54  1  0.34771000  0.35911000  0.79822000  1.0
  H  H55  1  0.25786000  0.36611000  0.71336000  1.0
  H  H56  1  0.34771000  0.84266000  0.35912000  1.0
  H  H57  1  0.25786000  0.92053000  0.36611000  1.0
  C  C58  1  0.86088000  0.35833000  0.51581000  1.0
  C  C59  1  0.80274000  0.26576000  0.58786000  1.0
  C  C60  1  0.86088000  0.51581000  0.12586000  1.0
  C  C61  1  0.80274000  0.58786000  0.14638000  1.0
  C  C62  1  0.86088000  0.12586000  0.35833000  1.0
  C  C63  1  0.80274000  0.14638000  0.26576000  1.0
  C  C64  1  0.86088000  0.64168000  0.48418000  1.0
  C  C65  1  0.80274000  0.73424000  0.41214000  1.0
  C  C66  1  0.86088000  0.48418000  0.87415000  1.0
  C  C67  1  0.80274000  0.41214000  0.85362000  1.0
  C  C68  1  0.86088000  0.87414000  0.64167000  1.0
  C  C69  1  0.80274000  0.85362000  0.73424000  1.0
  C  C70  1  0.63912000  0.64167000  0.87414000  1.0
  C  C71  1  0.69726000  0.73424000  0.85362000  1.0
  C  C72  1  0.63912000  0.48419000  0.64167000  1.0
  C  C73  1  0.69726000  0.41214000  0.73424000  1.0
  C  C74  1  0.63912000  0.87414000  0.48419000  1.0
  C  C75  1  0.69726000  0.85362000  0.41214000  1.0
  C  C76  1  0.63912000  0.35833000  0.12586000  1.0
  C  C77  1  0.69726000  0.26576000  0.14638000  1.0
  C  C78  1  0.63912000  0.51582000  0.35833000  1.0
  C  C79  1  0.69726000  0.58786000  0.26576000  1.0
  C  C80  1  0.63912000  0.12586000  0.51581000  1.0
  C  C81  1  0.69726000  0.14638000  0.58786000  1.0
  C  C82  1  0.13912000  0.64167000  0.48419000  1.0
  C  C83  1  0.19726000  0.73424000  0.41214000  1.0
  C  C84  1  0.13912000  0.48419000  0.87414000  1.0
  C  C85  1  0.19726000  0.41214000  0.85362000  1.0
  C  C86  1  0.13911000  0.87415000  0.64167000  1.0
  C  C87  1  0.19726000  0.85362000  0.73424000  1.0
  C  C88  1  0.13912000  0.35833000  0.51581000  1.0
  C  C89  1  0.19726000  0.26576000  0.58786000  1.0
  C  C90  1  0.13912000  0.51582000  0.12585000  1.0
  C  C91  1  0.19726000  0.58786000  0.14638000  1.0
  C  C92  1  0.13912000  0.12586000  0.35833000  1.0
  C  C93  1  0.19726000  0.14638000  0.26576000  1.0
  C  C94  1  0.36088000  0.35833000  0.12586000  1.0
  C  C95  1  0.30274000  0.26576000  0.14638000  1.0
  C  C96  1  0.36088000  0.51581000  0.35833000  1.0
  C  C97  1  0.30274000  0.58786000  0.26576000  1.0
  C  C98  1  0.36088000  0.12586000  0.51581000  1.0
  C  C99  1  0.30274000  0.14638000  0.58786000  1.0
  C  C100  1  0.36088000  0.64168000  0.87414000  1.0
  C  C101  1  0.30274000  0.73424000  0.85362000  1.0
  C  C102  1  0.36088000  0.48419000  0.64167000  1.0
  C  C103  1  0.30274000  0.41214000  0.73424000  1.0
  C  C104  1  0.36088000  0.87414000  0.48419000  1.0
  C  C105  1  0.30274000  0.85362000  0.41214000  1.0
  O  O106  1  0.90841000  0.39193000  0.56428000  1.0
  O  O107  1  0.85787000  0.39205000  0.41969000  1.0
  O  O108  1  0.90841000  0.56428000  0.04380000  1.0
  O  O109  1  0.85788000  0.41969000  0.18826000  1.0
  O  O110  1  0.90841000  0.04379000  0.39193000  1.0
  O  O111  1  0.85788000  0.18826000  0.39205000  1.0
  O  O112  1  0.90841000  0.60808000  0.43572000  1.0
  O  O113  1  0.85788000  0.60795000  0.58031000  1.0
  O  O114  1  0.90841000  0.43573000  0.95620000  1.0
  O  O115  1  0.85788000  0.58031000  0.81174000  1.0
  O  O116  1  0.90841000  0.95621000  0.60807000  1.0
  O  O117  1  0.85788000  0.81174000  0.60795000  1.0
  O  O118  1  0.59159000  0.60808000  0.95620000  1.0
  O  O119  1  0.64212000  0.60795000  0.81174000  1.0
  O  O120  1  0.59159000  0.43572000  0.60808000  1.0
  O  O121  1  0.64212000  0.58031000  0.60795000  1.0
  O  O122  1  0.59159000  0.95621000  0.43572000  1.0
  O  O123  1  0.64212000  0.81174000  0.58031000  1.0
  O  O124  1  0.59159000  0.39193000  0.04379000  1.0
  O  O125  1  0.64212000  0.39205000  0.18827000  1.0
  O  O126  1  0.59159000  0.56427000  0.39193000  1.0
  O  O127  1  0.64212000  0.41968000  0.39205000  1.0
  O  O128  1  0.59159000  0.04379000  0.56428000  1.0
  O  O129  1  0.64212000  0.18826000  0.41969000  1.0
  O  O130  1  0.09159000  0.60807000  0.43572000  1.0
  O  O131  1  0.14213000  0.60795000  0.58031000  1.0
  O  O132  1  0.09159000  0.43572000  0.95620000  1.0
  O  O133  1  0.14212000  0.58031000  0.81174000  1.0
  O  O134  1  0.09159000  0.95621000  0.60807000  1.0
  O  O135  1  0.14212000  0.81174000  0.60795000  1.0
  O  O136  1  0.09159000  0.39192000  0.56428000  1.0
  O  O137  1  0.14213000  0.39205000  0.41969000  1.0
  O  O138  1  0.09159000  0.56427000  0.04380000  1.0
  O  O139  1  0.14212000  0.41969000  0.18826000  1.0
  O  O140  1  0.09159000  0.04379000  0.39193000  1.0
  O  O141  1  0.14212000  0.18826000  0.39205000  1.0
  O  O142  1  0.40841000  0.39192000  0.04380000  1.0
  O  O143  1  0.35788000  0.39205000  0.18826000  1.0
  O  O144  1  0.40841000  0.56428000  0.39192000  1.0
  O  O145  1  0.35788000  0.41969000  0.39205000  1.0
  O  O146  1  0.40841000  0.04379000  0.56428000  1.0
  O  O147  1  0.35788000  0.18826000  0.41969000  1.0
  O  O148  1  0.40841000  0.60807000  0.95621000  1.0
  O  O149  1  0.35788000  0.60795000  0.81174000  1.0
  O  O150  1  0.40841000  0.43573000  0.60807000  1.0
  O  O151  1  0.35788000  0.58031000  0.60795000  1.0
  O  O152  1  0.40841000  0.95621000  0.43572000  1.0
  O  O153  1  0.35788000  0.81174000  0.58031000  1.0
  O  O154  1  0.75000000  0.23635000  0.52729000  1.0
  O  O155  1  0.75000000  0.52728000  0.23636000  1.0
  O  O156  1  0.75000000  0.23635000  0.23636000  1.0
  O  O157  1  0.75000000  0.76365000  0.47271000  1.0
  O  O158  1  0.75000000  0.47272000  0.76364000  1.0
  O  O159  1  0.75000000  0.76365000  0.76364000  1.0
  O  O160  1  0.25000000  0.76365000  0.47271000  1.0
  O  O161  1  0.25000000  0.47272000  0.76364000  1.0
  O  O162  1  0.25000000  0.76365000  0.76364000  1.0
  O  O163  1  0.25000000  0.23635000  0.52729000  1.0
  O  O164  1  0.25000000  0.52728000  0.23636000  1.0
  O  O165  1  0.25000000  0.23635000  0.23636000  1.0
