# generated using pymatgen
data_AgH6C7N3
_symmetry_space_group_name_H-M   'P 1'
_cell_length_a   9.13935000
_cell_length_b   12.40610000
_cell_length_c   12.56210000
_cell_angle_alpha   90.00000000
_cell_angle_beta   90.00010000
_cell_angle_gamma   90.00000000
_symmetry_Int_Tables_number   1
_chemical_formula_structural   AgH6C7N3
_chemical_formula_sum   'Ag8 H48 C56 N24'
_cell_volume   1424.33725259
_cell_formula_units_Z   8
loop_
 _symmetry_equiv_pos_site_id
 _symmetry_equiv_pos_as_xyz
  1  'x, y, z'
loop_
 _atom_site_type_symbol
 _atom_site_label
 _atom_site_symmetry_multiplicity
 _atom_site_fract_x
 _atom_site_fract_y
 _atom_site_fract_z
 _atom_site_occupancy
  Ag  Ag0  1  0.76361000  0.16654000  0.49325000  1.0
  Ag  Ag1  1  0.26361000  0.83346000  0.00675000  1.0
  Ag  Ag2  1  0.23639000  0.33346000  0.99325000  1.0
  Ag  Ag3  1  0.73639000  0.66654000  0.50675000  1.0
  Ag  Ag4  1  0.23639000  0.83346000  0.50675000  1.0
  Ag  Ag5  1  0.73639000  0.16654000  0.99326000  1.0
  Ag  Ag6  1  0.76361000  0.66654000  0.00675000  1.0
  Ag  Ag7  1  0.26361000  0.33346000  0.49325000  1.0
  H  H8  1  0.98757000  0.63392000  0.33799000  1.0
  H  H9  1  0.48757000  0.36608000  0.16201000  1.0
  H  H10  1  0.01243000  0.86608000  0.83799000  1.0
  H  H11  1  0.51243000  0.13392000  0.66201000  1.0
  H  H12  1  0.01243000  0.36608000  0.66201000  1.0
  H  H13  1  0.51243000  0.63392000  0.83799000  1.0
  H  H14  1  0.98757000  0.13392000  0.16201000  1.0
  H  H15  1  0.48757000  0.86608000  0.33799000  1.0
  H  H16  1  0.17661000  0.54157000  0.22665000  1.0
  H  H17  1  0.67662000  0.45843000  0.27335000  1.0
  H  H18  1  0.82339000  0.95843000  0.72665000  1.0
  H  H19  1  0.32338000  0.04158000  0.77335000  1.0
  H  H20  1  0.82339000  0.45842000  0.77335000  1.0
  H  H21  1  0.32339000  0.54157000  0.72665000  1.0
  H  H22  1  0.17661000  0.04157000  0.27335000  1.0
  H  H23  1  0.67662000  0.95843000  0.22665000  1.0
  H  H24  1  0.19314000  0.34307000  0.22104000  1.0
  H  H25  1  0.69314000  0.65693000  0.27896000  1.0
  H  H26  1  0.80686000  0.15693000  0.72104000  1.0
  H  H27  1  0.30686000  0.84307000  0.77896000  1.0
  H  H28  1  0.80686000  0.65693000  0.77896000  1.0
  H  H29  1  0.30686000  0.34307000  0.72104000  1.0
  H  H30  1  0.19314000  0.84307000  0.27896000  1.0
  H  H31  1  0.69314000  0.15693000  0.22104000  1.0
  H  H32  1  0.02127000  0.22841000  0.32837000  1.0
  H  H33  1  0.52127000  0.77159000  0.17163000  1.0
  H  H34  1  0.97873000  0.27159000  0.82837000  1.0
  H  H35  1  0.47873000  0.72841000  0.67163000  1.0
  H  H36  1  0.97873000  0.77159000  0.67163000  1.0
  H  H37  1  0.47873000  0.22841000  0.82837000  1.0
  H  H38  1  0.02127000  0.72841000  0.17163000  1.0
  H  H39  1  0.52127000  0.27159000  0.32837000  1.0
  H  H40  1  0.59383000  0.33843000  0.60087000  1.0
  H  H41  1  0.09383000  0.66157000  0.89913000  1.0
  H  H42  1  0.40617000  0.16157000  0.10087000  1.0
  H  H43  1  0.90617000  0.83843000  0.39913000  1.0
  H  H44  1  0.40617000  0.66157000  0.39913000  1.0
  H  H45  1  0.90617000  0.33843000  0.10087000  1.0
  H  H46  1  0.59383000  0.83843000  0.89913000  1.0
  H  H47  1  0.09383000  0.16157000  0.60087000  1.0
  H  H48  1  0.57703000  0.47461000  0.60022000  1.0
  H  H49  1  0.07703000  0.52539000  0.89978000  1.0
  H  H50  1  0.42297000  0.02539000  0.10022000  1.0
  H  H51  1  0.92297000  0.97461000  0.39978000  1.0
  H  H52  1  0.42297000  0.52539000  0.39978000  1.0
  H  H53  1  0.92297000  0.47461000  0.10022000  1.0
  H  H54  1  0.57703000  0.97461000  0.89978000  1.0
  H  H55  1  0.07703000  0.02539000  0.60022000  1.0
  C  C56  1  0.72808000  0.41506000  0.49603000  1.0
  C  C57  1  0.22808000  0.58494000  0.00397000  1.0
  C  C58  1  0.27192000  0.08494000  0.99603000  1.0
  C  C59  1  0.77192000  0.91506000  0.50397000  1.0
  C  C60  1  0.27192000  0.58494000  0.50397000  1.0
  C  C61  1  0.77192000  0.41506000  0.99603000  1.0
  C  C62  1  0.72808000  0.91506000  0.00397000  1.0
  C  C63  1  0.22808000  0.08494000  0.49603000  1.0
  C  C64  1  0.89704000  0.48238000  0.39314000  1.0
  C  C65  1  0.39704000  0.51762000  0.10686000  1.0
  C  C66  1  0.10296000  0.01762000  0.89314000  1.0
  C  C67  1  0.60296000  0.98238000  0.60686000  1.0
  C  C68  1  0.10296000  0.51762000  0.60686000  1.0
  C  C69  1  0.60296000  0.48238000  0.89314000  1.0
  C  C70  1  0.89704000  0.98238000  0.10686000  1.0
  C  C71  1  0.39704000  0.01762000  0.39314000  1.0
  C  C72  1  0.99307000  0.54612000  0.33419000  1.0
  C  C73  1  0.49307000  0.45388000  0.16581000  1.0
  C  C74  1  0.00693000  0.95388000  0.83419000  1.0
  C  C75  1  0.50693000  0.04612000  0.66581000  1.0
  C  C76  1  0.00693000  0.45388000  0.66581000  1.0
  C  C77  1  0.50693000  0.54612000  0.83419000  1.0
  C  C78  1  0.99307000  0.04612000  0.16581000  1.0
  C  C79  1  0.49307000  0.95388000  0.33419000  1.0
  C  C80  1  0.09874000  0.49403000  0.27237000  1.0
  C  C81  1  0.59874000  0.50597000  0.22763000  1.0
  C  C82  1  0.90126000  0.00597000  0.77237000  1.0
  C  C83  1  0.40126000  0.99403000  0.72763000  1.0
  C  C84  1  0.90126000  0.50597000  0.72763000  1.0
  C  C85  1  0.40126000  0.49403000  0.77237000  1.0
  C  C86  1  0.09874000  0.99403000  0.22763000  1.0
  C  C87  1  0.59874000  0.00597000  0.27237000  1.0
  C  C88  1  0.10870000  0.38088000  0.26985000  1.0
  C  C89  1  0.60870000  0.61912000  0.23015000  1.0
  C  C90  1  0.89130000  0.11912000  0.76985000  1.0
  C  C91  1  0.39130000  0.88088000  0.73015000  1.0
  C  C92  1  0.89130000  0.61912000  0.73015000  1.0
  C  C93  1  0.39130000  0.38088000  0.76985000  1.0
  C  C94  1  0.10870000  0.88088000  0.23015000  1.0
  C  C95  1  0.60870000  0.11912000  0.26985000  1.0
  C  C96  1  0.01263000  0.31611000  0.32884000  1.0
  C  C97  1  0.51263000  0.68389000  0.17116000  1.0
  C  C98  1  0.98736000  0.18389000  0.82885000  1.0
  C  C99  1  0.48737000  0.81611000  0.67116000  1.0
  C  C100  1  0.98737000  0.68389000  0.67116000  1.0
  C  C101  1  0.48737000  0.31611000  0.82884000  1.0
  C  C102  1  0.01263000  0.81611000  0.17116000  1.0
  C  C103  1  0.51263000  0.18389000  0.32884000  1.0
  C  C104  1  0.90676000  0.36795000  0.39053000  1.0
  C  C105  1  0.40677000  0.63205000  0.10947000  1.0
  C  C106  1  0.09324000  0.13205000  0.89053000  1.0
  C  C107  1  0.59324000  0.86795000  0.60947000  1.0
  C  C108  1  0.09324000  0.63205000  0.60947000  1.0
  C  C109  1  0.59324000  0.36795000  0.89053000  1.0
  C  C110  1  0.90676000  0.86795000  0.10947000  1.0
  C  C111  1  0.40676000  0.13205000  0.39053000  1.0
  N  N112  1  0.79906000  0.32727000  0.45716000  1.0
  N  N113  1  0.29906000  0.67273000  0.04284000  1.0
  N  N114  1  0.20094000  0.17273000  0.95716000  1.0
  N  N115  1  0.70094000  0.82727000  0.54284000  1.0
  N  N116  1  0.20094000  0.67273000  0.54284000  1.0
  N  N117  1  0.70094000  0.32727000  0.95716000  1.0
  N  N118  1  0.79906000  0.82727000  0.04284000  1.0
  N  N119  1  0.29906000  0.17273000  0.45716000  1.0
  N  N120  1  0.78275000  0.50997000  0.46043000  1.0
  N  N121  1  0.28276000  0.49003000  0.03957000  1.0
  N  N122  1  0.21725000  0.99003000  0.96043000  1.0
  N  N123  1  0.71724000  0.00997000  0.53957000  1.0
  N  N124  1  0.21725000  0.49003000  0.53957000  1.0
  N  N125  1  0.71725000  0.50997000  0.96043000  1.0
  N  N126  1  0.78275000  0.00997000  0.03957000  1.0
  N  N127  1  0.28275000  0.99003000  0.46043000  1.0
  N  N128  1  0.60706000  0.40770000  0.55904000  1.0
  N  N129  1  0.10705000  0.59230000  0.94096000  1.0
  N  N130  1  0.39294000  0.09230000  0.05904000  1.0
  N  N131  1  0.89295000  0.90770000  0.44096000  1.0
  N  N132  1  0.39295000  0.59230000  0.44096000  1.0
  N  N133  1  0.89295000  0.40770000  0.05904000  1.0
  N  N134  1  0.60705000  0.90770000  0.94096000  1.0
  N  N135  1  0.10706000  0.09230000  0.55904000  1.0
