# generated using pymatgen
data_Hf3H23C63N3O16F15
_symmetry_space_group_name_H-M   'P 1'
_cell_length_a   17.44740000
_cell_length_b   17.46630000
_cell_length_c   17.72960000
_cell_angle_alpha   92.47720000
_cell_angle_beta   92.42610000
_cell_angle_gamma   92.95700000
_symmetry_Int_Tables_number   1
_chemical_formula_structural   Hf3H23C63N3O16F15
_chemical_formula_sum   'Hf6 H46 C126 N6 O32 F30'
_cell_volume   5385.33012470
_cell_formula_units_Z   2
loop_
 _symmetry_equiv_pos_site_id
 _symmetry_equiv_pos_as_xyz
  1  'x, y, z'
loop_
 _atom_site_type_symbol
 _atom_site_label
 _atom_site_symmetry_multiplicity
 _atom_site_fract_x
 _atom_site_fract_y
 _atom_site_fract_z
 _atom_site_occupancy
  Hf  Hf0  1  0.81169000  0.95169000  0.85069000  1.0
  Hf  Hf1  1  0.75625000  0.84537000  0.00397000  1.0
  Hf  Hf2  1  0.99698000  0.98145000  0.93227000  1.0
  Hf  Hf3  1  0.91570000  0.79419000  0.90192000  1.0
  Hf  Hf4  1  0.83852000  0.03165000  0.03549000  1.0
  Hf  Hf5  1  0.94242000  0.87454000  0.08546000  1.0
  H  H6  1  0.13788000  0.25915000  0.58967000  1.0
  H  H7  1  0.14347000  0.23189000  0.44174000  1.0
  H  H8  1  0.63048000  0.57033000  0.34388000  1.0
  H  H9  1  0.61805000  0.59350000  0.49103000  1.0
  H  H10  1  0.21262000  0.53944000  0.22053000  1.0
  H  H11  1  0.19807000  0.38859000  0.23596000  1.0
  H  H12  1  0.53471000  0.28696000  0.71243000  1.0
  H  H13  1  0.56604000  0.43746000  0.71045000  1.0
  H  H14  1  0.50401000  0.16653000  0.32678000  1.0
  H  H15  1  0.35292000  0.17998000  0.30298000  1.0
  H  H16  1  0.24947000  0.66312000  0.60920000  1.0
  H  H17  1  0.40004000  0.64925000  0.63438000  1.0
  H  H18  1  0.76061000  0.79561000  0.85071000  1.0
  H  H19  1  0.88821000  0.09303000  0.90401000  1.0
  H  H20  1  0.05654000  0.84843000  0.97887000  1.0
  H  H21  1  0.80910000  0.92070000  0.14488000  1.0
  H  H22  1  0.04393000  0.76103000  0.70549000  1.0
  H  H23  1  0.29003000  0.91269000  0.69249000  1.0
  H  H24  1  0.46134000  0.69684000  0.73712000  1.0
  H  H25  1  0.60087000  0.94945000  0.73011000  1.0
  H  H26  1  0.14571000  0.88460000  0.21162000  1.0
  H  H27  1  0.29988000  0.12794000  0.19495000  1.0
  H  H28  1  0.70482000  0.07156000  0.22057000  1.0
  H  H29  1  0.46279000  0.91588000  0.24413000  1.0
  H  H30  1  0.31190000  0.03473000  0.45068000  1.0
  H  H31  1  0.44295000  0.79481000  0.48587000  1.0
  H  H32  1  0.62320000  0.08140000  0.80476000  1.0
  H  H33  1  0.58118000  0.31160000  0.96754000  1.0
  H  H34  1  0.58461000  0.56094000  0.75022000  1.0
  H  H35  1  0.68979000  0.57014000  0.01497000  1.0
  H  H36  1  0.06074000  0.17306000  0.15641000  1.0
  H  H37  1  0.17445000  0.34523000  0.97082000  1.0
  H  H38  1  0.06023000  0.59836000  0.93886000  1.0
  H  H39  1  0.24113000  0.65735000  0.15954000  1.0
  H  H40  1  0.31795000  0.30368000  0.03891000  1.0
  H  H41  1  0.43267000  0.51429000  0.89830000  1.0
  H  H42  1  0.90922000  0.73203000  0.27420000  1.0
  H  H43  1  0.69292000  0.53807000  0.22700000  1.0
  H  H44  1  0.65559000  0.66631000  0.57708000  1.0
  H  H45  1  0.92674000  0.69326000  0.66947000  1.0
  H  H46  1  0.10648000  0.18555000  0.33589000  1.0
  H  H47  1  0.82896000  0.12356000  0.28401000  1.0
  H  H48  1  0.04638000  0.16736000  0.79464000  1.0
  H  H49  1  0.88203000  0.19473000  0.56340000  1.0
  H  H50  1  0.97028000  0.36940000  0.37423000  1.0
  H  H51  1  0.79282000  0.45625000  0.56468000  1.0
  C  C52  1  0.01638000  0.27894000  0.56561000  1.0
  C  C53  1  0.09214000  0.26885000  0.54838000  1.0
  C  C54  1  0.09455000  0.25406000  0.46959000  1.0
  C  C55  1  0.02073000  0.25685000  0.43760000  1.0
  C  C56  1  0.75066000  0.54781000  0.37254000  1.0
  C  C57  1  0.67418000  0.55869000  0.38664000  1.0
  C  C58  1  0.66837000  0.57213000  0.46510000  1.0
  C  C59  1  0.74111000  0.56964000  0.49994000  1.0
  C  C60  1  0.24176000  0.50970000  0.10398000  1.0
  C  C61  1  0.22871000  0.49617000  0.17924000  1.0
  C  C62  1  0.21991000  0.41622000  0.18713000  1.0
  C  C63  1  0.22705000  0.38010000  0.11658000  1.0
  C  C64  1  0.50647000  0.31035000  0.83026000  1.0
  C  C65  1  0.52222000  0.32858000  0.75678000  1.0
  C  C66  1  0.53869000  0.40851000  0.75596000  1.0
  C  C67  1  0.53152000  0.44021000  0.82840000  1.0
  C  C68  1  0.47343000  0.04389000  0.33428000  1.0
  C  C69  1  0.45994000  0.12116000  0.33196000  1.0
  C  C70  1  0.37967000  0.12793000  0.31897000  1.0
  C  C71  1  0.34399000  0.05528000  0.31527000  1.0
  C  C72  1  0.28062000  0.78565000  0.60132000  1.0
  C  C73  1  0.29374000  0.70836000  0.60434000  1.0
  C  C74  1  0.37383000  0.70144000  0.61805000  1.0
  C  C75  1  0.40991000  0.77402000  0.62159000  1.0
  C  C76  1  0.93576000  0.05529000  0.77628000  1.0
  C  C77  1  0.64496000  0.87415000  0.85178000  1.0
  C  C78  1  0.84017000  0.79825000  0.73738000  1.0
  C  C79  1  0.72996000  0.10280000  0.91645000  1.0
  C  C80  1  0.82107000  0.76297000  0.15360000  1.0
  C  C81  1  0.10626000  0.95689000  0.08737000  1.0
  C  C82  1  0.76028000  0.67883000  0.92832000  1.0
  C  C83  1  0.67980000  0.96715000  0.10633000  1.0
  C  C84  1  0.99847000  0.14352000  0.01407000  1.0
  C  C85  1  0.06878000  0.86218000  0.82321000  1.0
  C  C86  1  0.01904000  0.71963000  0.02423000  1.0
  C  C87  1  0.91812000  0.03396000  0.19724000  1.0
  C  C88  1  0.09642000  0.79650000  0.70029000  1.0
  C  C89  1  0.11641000  0.85456000  0.75620000  1.0
  C  C90  1  0.18433000  0.89926000  0.74716000  1.0
  C  C91  1  0.23403000  0.88227000  0.69079000  1.0
  C  C92  1  0.21682000  0.82085000  0.63761000  1.0
  C  C93  1  0.14427000  0.78227000  0.64192000  1.0
  C  C94  1  0.49289000  0.75167000  0.73267000  1.0
  C  C95  1  0.47664000  0.79845000  0.67142000  1.0
  C  C96  1  0.51716000  0.87033000  0.67435000  1.0
  C  C97  1  0.56906000  0.89443000  0.73261000  1.0
  C  C98  1  0.58269000  0.84856000  0.79448000  1.0
  C  C99  1  0.54277000  0.77692000  0.79243000  1.0
  C  C100  1  0.18039000  0.93768000  0.20746000  1.0
  C  C101  1  0.16964000  0.98163000  0.14361000  1.0
  C  C102  1  0.21433000  0.05035000  0.14220000  1.0
  C  C103  1  0.26521000  0.07528000  0.20125000  1.0
  C  C104  1  0.27746000  0.03090000  0.26509000  1.0
  C  C105  1  0.23325000  0.96135000  0.26499000  1.0
  C  C106  1  0.65346000  0.03507000  0.22821000  1.0
  C  C107  1  0.63251000  0.97607000  0.17346000  1.0
  C  C108  1  0.56590000  0.93048000  0.18538000  1.0
  C  C109  1  0.51818000  0.94716000  0.24353000  1.0
  C  C110  1  0.53623000  0.00928000  0.29576000  1.0
  C  C111  1  0.60782000  0.04891000  0.28841000  1.0
  C  C112  1  0.34094000  0.98155000  0.45703000  1.0
  C  C113  1  0.38813000  0.95575000  0.40018000  1.0
  C  C114  1  0.42422000  0.88760000  0.41415000  1.0
  C  C115  1  0.41377000  0.84789000  0.47943000  1.0
  C  C116  1  0.36640000  0.87363000  0.53617000  1.0
  C  C117  1  0.33045000  0.94188000  0.52230000  1.0
  C  C118  1  0.61172000  0.13037000  0.84187000  1.0
  C  C119  1  0.66083000  0.14766000  0.90608000  1.0
  C  C120  1  0.64313000  0.21057000  0.95302000  1.0
  C  C121  1  0.58597000  0.25902000  0.93318000  1.0
  C  C122  1  0.54146000  0.24578000  0.86520000  1.0
  C  C123  1  0.55287000  0.17687000  0.82393000  1.0
  C  C124  1  0.60746000  0.56062000  0.80830000  1.0
  C  C125  1  0.57663000  0.50803000  0.85888000  1.0
  C  C126  1  0.60853000  0.51540000  0.93349000  1.0
  C  C127  1  0.66903000  0.56691000  0.95613000  1.0
  C  C128  1  0.70241000  0.61462000  0.90391000  1.0
  C  C129  1  0.66893000  0.61049000  0.83090000  1.0
  C  C130  1  0.08567000  0.21020000  0.11535000  1.0
  C  C131  1  0.05699000  0.20579000  0.04042000  1.0
  C  C132  1  0.09399000  0.25281000  0.98978000  1.0
  C  C133  1  0.15343000  0.30550000  0.01183000  1.0
  C  C134  1  0.18201000  0.31158000  0.08778000  1.0
  C  C135  1  0.14805000  0.25951000  0.13661000  1.0
  C  C136  1  0.10047000  0.61188000  0.98683000  1.0
  C  C137  1  0.08884000  0.67563000  0.03526000  1.0
  C  C138  1  0.14424000  0.69190000  0.09461000  1.0
  C  C139  1  0.20248000  0.64352000  0.11043000  1.0
  C  C140  1  0.20779000  0.57404000  0.06809000  1.0
  C  C141  1  0.15889000  0.56380000  0.00237000  1.0
  C  C142  1  0.34099000  0.35144000  0.00797000  1.0
  C  C143  1  0.31013000  0.42396000  0.01506000  1.0
  C  C144  1  0.34723000  0.48052000  0.97330000  1.0
  C  C145  1  0.40917000  0.46651000  0.92899000  1.0
  C  C146  1  0.44032000  0.39413000  0.92235000  1.0
  C  C147  1  0.40267000  0.33738000  0.96347000  1.0
  C  C148  1  0.86239000  0.68879000  0.26327000  1.0
  C  C149  1  0.81265000  0.69435000  0.19964000  1.0
  C  C150  1  0.75433000  0.63608000  0.18729000  1.0
  C  C151  1  0.74140000  0.57944000  0.23809000  1.0
  C  C152  1  0.78518000  0.57970000  0.30669000  1.0
  C  C153  1  0.84922000  0.63299000  0.31457000  1.0
  C  C154  1  0.71581000  0.67015000  0.59590000  1.0
  C  C155  1  0.76788000  0.61835000  0.56608000  1.0
  C  C156  1  0.84443000  0.63127000  0.59447000  1.0
  C  C157  1  0.86735000  0.68920000  0.64767000  1.0
  C  C158  1  0.81571000  0.74208000  0.67376000  1.0
  C  C159  1  0.73975000  0.73071000  0.64538000  1.0
  C  C160  1  0.04503000  0.17269000  0.32714000  1.0
  C  C161  1  0.99179000  0.21284000  0.36961000  1.0
  C  C162  1  0.91386000  0.19177000  0.35092000  1.0
  C  C163  1  0.89022000  0.13510000  0.29653000  1.0
  C  C164  1  0.94384000  0.09202000  0.25921000  1.0
  C  C165  1  0.02115000  0.11276000  0.27696000  1.0
  C  C166  1  0.00906000  0.17489000  0.74502000  1.0
  C  C167  1  0.94645000  0.12194000  0.72814000  1.0
  C  C168  1  0.89885000  0.13516000  0.66457000  1.0
  C  C169  1  0.91640000  0.19264000  0.61585000  1.0
  C  C170  1  0.98241000  0.24211000  0.62943000  1.0
  C  C171  1  0.02447000  0.23404000  0.69799000  1.0
  C  C172  1  0.93120000  0.38679000  0.41723000  1.0
  C  C173  1  0.92525000  0.34588000  0.48325000  1.0
  C  C174  1  0.87394000  0.37495000  0.53488000  1.0
  C  C175  1  0.83224000  0.43895000  0.52196000  1.0
  C  C176  1  0.83877000  0.48038000  0.45626000  1.0
  C  C177  1  0.88937000  0.45072000  0.40420000  1.0
  N  N178  1  0.97298000  0.28279000  0.49561000  1.0
  N  N179  1  0.79082000  0.54315000  0.44368000  1.0
  N  N180  1  0.25115000  0.43736000  0.06669000  1.0
  N  N181  1  0.50127000  0.38113000  0.87287000  1.0
  N  N182  1  0.40037000  0.00208000  0.33560000  1.0
  N  N183  1  0.35378000  0.82719000  0.60063000  1.0
  O  O184  1  0.99140000  0.04077000  0.82120000  1.0
  O  O185  1  0.64946000  0.84764000  0.91711000  1.0
  O  O186  1  0.81413000  0.86437000  0.74314000  1.0
  O  O187  1  0.74668000  0.05927000  0.86072000  1.0
  O  O188  1  0.76896000  0.11141000  0.97971000  1.0
  O  O189  1  0.88672000  0.76934000  0.78537000  1.0
  O  O190  1  0.69408000  0.92226000  0.82528000  1.0
  O  O191  1  0.87025000  0.01772000  0.77090000  1.0
  O  O192  1  0.78438000  0.94998000  0.96268000  1.0
  O  O193  1  0.91550000  0.90799000  0.87714000  1.0
  O  O194  1  0.79389000  0.82900000  0.88448000  1.0
  O  O195  1  0.88579000  0.04095000  0.92100000  1.0
  O  O196  1  0.76549000  0.77833000  0.10937000  1.0
  O  O197  1  0.10118000  0.98395000  0.02226000  1.0
  O  O198  1  0.82696000  0.68372000  0.90312000  1.0
  O  O199  1  0.72462000  0.02386000  0.09192000  1.0
  O  O200  1  0.93344000  0.13697000  0.04267000  1.0
  O  O201  1  0.02410000  0.80493000  0.83681000  1.0
  O  O202  1  0.99936000  0.76213000  0.07920000  1.0
  O  O203  1  0.94620000  0.96888000  0.19198000  1.0
  O  O204  1  0.98327000  0.71180000  0.95897000  1.0
  O  O205  1  0.86644000  0.05949000  0.15230000  1.0
  O  O206  1  0.73077000  0.72733000  0.97318000  1.0
  O  O207  1  0.07665000  0.92542000  0.86297000  1.0
  O  O208  1  0.02458000  0.09874000  0.96314000  1.0
  O  O209  1  0.67416000  0.90224000  0.06908000  1.0
  O  O210  1  0.88467000  0.80375000  0.16447000  1.0
  O  O211  1  0.05825000  0.90733000  0.11341000  1.0
  O  O212  1  0.93978000  0.97641000  0.03173000  1.0
  O  O213  1  0.87042000  0.81941000  0.00409000  1.0
  O  O214  1  0.00389000  0.86379000  0.97614000  1.0
  O  O215  1  0.82616000  0.91958000  0.09351000  1.0
  F  F216  1  0.12372000  0.72352000  0.59040000  1.0
  F  F217  1  0.20790000  0.95685000  0.79780000  1.0
  F  F218  1  0.55182000  0.72925000  0.85024000  1.0
  F  F219  1  0.50493000  0.91934000  0.61768000  1.0
  F  F220  1  0.24238000  0.91449000  0.32410000  1.0
  F  F221  1  0.20923000  0.09541000  0.08196000  1.0
  F  F222  1  0.62949000  0.10833000  0.33886000  1.0
  F  F223  1  0.54180000  0.87194000  0.13601000  1.0
  F  F224  1  0.28371000  0.97279000  0.57365000  1.0
  F  F225  1  0.47124000  0.85683000  0.36286000  1.0
  F  F226  1  0.50859000  0.15932000  0.75937000  1.0
  F  F227  1  0.68566000  0.23025000  0.01741000  1.0
  F  F228  1  0.69597000  0.66100000  0.78025000  1.0
  F  F229  1  0.58174000  0.46747000  0.98653000  1.0
  F  F230  1  0.17546000  0.25945000  0.21040000  1.0
  F  F231  1  0.06811000  0.25014000  0.91604000  1.0
  F  F232  1  0.16372000  0.50007000  0.95584000  1.0
  F  F233  1  0.14208000  0.75637000  0.13994000  1.0
  F  F234  1  0.42578000  0.26414000  0.96150000  1.0
  F  F235  1  0.32396000  0.55380000  0.97538000  1.0
  F  F236  1  0.89575000  0.63574000  0.37831000  1.0
  F  F237  1  0.70644000  0.63429000  0.12473000  1.0
  F  F238  1  0.68569000  0.77864000  0.66874000  1.0
  F  F239  1  0.90013000  0.58621000  0.56865000  1.0
  F  F240  1  0.07634000  0.07457000  0.24120000  1.0
  F  F241  1  0.85767000  0.22596000  0.38930000  1.0
  F  F242  1  0.08730000  0.28270000  0.71509000  1.0
  F  F243  1  0.83627000  0.08812000  0.64490000  1.0
  F  F244  1  0.89947000  0.48348000  0.33680000  1.0
  F  F245  1  0.86273000  0.34054000  0.60126000  1.0
