# generated using pymatgen
data_Zn4H12C44O21F8
_symmetry_space_group_name_H-M   'P 1'
_cell_length_a   23.70291313
_cell_length_b   23.70320000
_cell_length_c   23.70190000
_cell_angle_alpha   65.80010000
_cell_angle_beta   72.83786828
_cell_angle_gamma   107.15916892
_symmetry_Int_Tables_number   1
_chemical_formula_structural   Zn4H12C44O21F8
_chemical_formula_sum   'Zn8 H24 C88 O42 F16'
_cell_volume   10198.09182484
_cell_formula_units_Z   2
loop_
 _symmetry_equiv_pos_site_id
 _symmetry_equiv_pos_as_xyz
  1  'x, y, z'
loop_
 _atom_site_type_symbol
 _atom_site_label
 _atom_site_symmetry_multiplicity
 _atom_site_fract_x
 _atom_site_fract_y
 _atom_site_fract_z
 _atom_site_occupancy
  Zn  Zn0  1  0.06000000  0.10038000  0.45564000  1.0
  Zn  Zn1  1  0.06000000  0.95962000  0.48436000  1.0
  Zn  Zn2  1  0.94000000  0.95564000  0.60039000  1.0
  Zn  Zn3  1  0.94001000  0.98437000  0.45961000  1.0
  Zn  Zn4  1  0.94398000  0.39962000  0.04038000  1.0
  Zn  Zn5  1  0.05603000  0.54039000  0.89961000  1.0
  Zn  Zn6  1  0.94398000  0.54436000  0.01564000  1.0
  Zn  Zn7  1  0.05602000  0.51563000  0.04437000  1.0
  H  H8  1  0.92150000  0.26874000  0.96371000  1.0
  H  H9  1  0.07852000  0.46375000  0.76870000  1.0
  H  H10  1  0.92773000  0.03175000  0.72990000  1.0
  H  H11  1  0.07220000  0.22986000  0.53177000  1.0
  H  H12  1  0.07850000  0.61481000  0.15277000  1.0
  H  H13  1  0.92149000  0.65278000  0.11477000  1.0
  H  H14  1  0.07222000  0.84234000  0.39601000  1.0
  H  H15  1  0.92776000  0.89600000  0.34237000  1.0
  H  H16  1  0.73837000  0.27015000  0.15765000  1.0
  H  H17  1  0.73836000  0.46825000  0.10400000  1.0
  H  H18  1  0.26756000  0.03628000  0.38521000  1.0
  H  H19  1  0.26757000  0.23127000  0.34723000  1.0
  H  H20  1  0.26165000  0.65765000  0.77012000  1.0
  H  H21  1  0.26163000  0.60398000  0.96825000  1.0
  H  H22  1  0.73246000  0.88524000  0.53626000  1.0
  H  H23  1  0.73242000  0.84722000  0.73129000  1.0
  H  H24  1  0.83668000  0.10446000  0.35181000  1.0
  H  H25  1  0.04376000  0.39554000  0.26780000  1.0
  H  H26  1  0.95624000  0.18847000  0.14820000  1.0
  H  H27  1  0.16333000  0.31153000  0.23221000  1.0
  H  H28  1  0.83666000  0.73220000  0.81155000  1.0
  H  H29  1  0.04374000  0.64820000  0.68846000  1.0
  H  H30  1  0.95625000  0.76777000  0.89555000  1.0
  H  H31  1  0.16333000  0.85179000  0.60445000  1.0
  C  C32  1  0.18491000  0.09245000  0.40754000  1.0
  C  C33  1  0.00000000  0.86269000  0.63732000  1.0
  C  C34  1  0.99996000  0.08960000  0.58965000  1.0
  C  C35  1  0.81510000  0.90756000  0.59245000  1.0
  C  C36  1  0.00001000  0.13732000  0.36268000  1.0
  C  C37  1  0.00000000  0.91037000  0.41038000  1.0
  C  C38  1  0.00001000  0.40756000  0.90754000  1.0
  C  C39  1  0.00001000  0.63731000  0.86269000  1.0
  C  C40  1  0.82076000  0.41040000  0.08962000  1.0
  C  C41  1  0.99999000  0.59245000  0.09246000  1.0
  C  C42  1  0.00000000  0.36269000  0.13731000  1.0
  C  C43  1  0.17925000  0.58962000  0.91038000  1.0
  C  C44  1  0.00000000  0.19554000  0.30447000  1.0
  C  C45  1  0.99999000  0.30446000  0.19554000  1.0
  C  C46  1  0.95719000  0.17945000  0.27680000  1.0
  C  C47  1  0.04376000  0.32056000  0.22225000  1.0
  C  C48  1  0.95624000  0.23398000  0.22320000  1.0
  C  C49  1  0.04282000  0.26602000  0.27774000  1.0
  C  C50  1  0.00000000  0.80447000  0.69554000  1.0
  C  C51  1  0.00001000  0.69554000  0.80445000  1.0
  C  C52  1  0.95718000  0.77774000  0.76602000  1.0
  C  C53  1  0.04376000  0.72320000  0.73398000  1.0
  C  C54  1  0.95624000  0.72225000  0.82057000  1.0
  C  C55  1  0.04282000  0.77681000  0.67943000  1.0
  C  C56  1  0.00001000  0.37012000  0.87009000  1.0
  C  C57  1  0.95582000  0.29779000  0.90762000  1.0
  C  C58  1  0.95680000  0.26405000  0.87192000  1.0
  C  C59  1  0.00001000  0.29915000  0.79909000  1.0
  C  C60  1  0.04321000  0.37197000  0.76400000  1.0
  C  C61  1  0.04420000  0.40766000  0.79776000  1.0
  C  C62  1  0.00000000  0.26387000  0.76382000  1.0
  C  C63  1  0.99998000  0.23322000  0.73322000  1.0
  C  C64  1  0.99997000  0.19794000  0.69796000  1.0
  C  C65  1  0.95963000  0.12438000  0.73383000  1.0
  C  C66  1  0.95907000  0.08856000  0.70023000  1.0
  C  C67  1  0.99996000  0.12704000  0.62708000  1.0
  C  C68  1  0.04085000  0.20019000  0.58859000  1.0
  C  C69  1  0.04030000  0.23379000  0.62441000  1.0
  C  C70  1  0.99999000  0.62990000  0.12989000  1.0
  C  C71  1  0.04418000  0.63657000  0.15803000  1.0
  C  C72  1  0.04319000  0.67129000  0.19276000  1.0
  C  C73  1  0.99998000  0.70091000  0.20087000  1.0
  C  C74  1  0.95679000  0.69279000  0.17123000  1.0
  C  C75  1  0.95580000  0.65804000  0.13654000  1.0
  C  C76  1  0.99998000  0.73617000  0.23614000  1.0
  C  C77  1  0.99999000  0.76679000  0.26677000  1.0
  C  C78  1  0.99999000  0.80206000  0.30205000  1.0
  C  C79  1  0.04032000  0.80653000  0.33527000  1.0
  C  C80  1  0.04087000  0.84067000  0.37055000  1.0
  C  C81  1  0.99999000  0.87293000  0.37296000  1.0
  C  C82  1  0.95910000  0.87053000  0.34070000  1.0
  C  C83  1  0.95966000  0.83527000  0.30653000  1.0
  C  C84  1  0.74589000  0.37296000  0.12706000  1.0
  C  C85  1  0.71123000  0.29982000  0.15932000  1.0
  C  C86  1  0.64180000  0.26621000  0.19349000  1.0
  C  C87  1  0.60411000  0.30207000  0.19797000  1.0
  C  C88  1  0.64180000  0.37561000  0.16474000  1.0
  C  C89  1  0.71123000  0.41145000  0.12946000  1.0
  C  C90  1  0.53356000  0.26678000  0.23325000  1.0
  C  C91  1  0.47231000  0.23614000  0.26388000  1.0
  C  C92  1  0.40177000  0.20086000  0.29914000  1.0
  C  C93  1  0.36403000  0.12804000  0.32876000  1.0
  C  C94  1  0.29459000  0.09235000  0.36345000  1.0
  C  C95  1  0.25979000  0.12989000  0.37011000  1.0
  C  C96  1  0.29460000  0.20222000  0.34197000  1.0
  C  C97  1  0.36404000  0.23596000  0.30724000  1.0
  C  C98  1  0.25412000  0.62706000  0.87294000  1.0
  C  C99  1  0.28878000  0.65932000  0.79980000  1.0
  C  C100  1  0.35821000  0.69349000  0.76619000  1.0
  C  C101  1  0.39590000  0.69796000  0.80205000  1.0
  C  C102  1  0.35820000  0.66473000  0.87561000  1.0
  C  C103  1  0.28878000  0.62946000  0.91143000  1.0
  C  C104  1  0.46644000  0.73323000  0.76678000  1.0
  C  C105  1  0.52770000  0.76387000  0.73613000  1.0
  C  C106  1  0.59824000  0.79914000  0.70086000  1.0
  C  C107  1  0.63598000  0.82877000  0.62803000  1.0
  C  C108  1  0.70542000  0.86347000  0.59235000  1.0
  C  C109  1  0.74021000  0.87011000  0.62989000  1.0
  C  C110  1  0.70540000  0.84197000  0.70223000  1.0
  C  C111  1  0.63596000  0.80724000  0.73597000  1.0
  C  C112  1  0.91612000  0.10451000  0.29874000  1.0
  C  C113  1  0.09675000  0.39549000  0.18839000  1.0
  C  C114  1  0.90324000  0.21486000  0.20127000  1.0
  C  C115  1  0.08388000  0.28514000  0.31161000  1.0
  C  C116  1  0.91611000  0.81159000  0.78516000  1.0
  C  C117  1  0.09676000  0.70127000  0.71484000  1.0
  C  C118  1  0.90325000  0.68838000  0.89550000  1.0
  C  C119  1  0.08388000  0.79875000  0.60449000  1.0
  O  O120  1  0.00000000  0.00000000  0.50000000  1.0
  O  O121  1  0.15580000  0.12789000  0.41667000  1.0
  O  O122  1  0.05189000  0.89857000  0.57736000  1.0
  O  O123  1  0.96347000  0.02275000  0.62764000  1.0
  O  O124  1  0.15580000  0.02791000  0.42753000  1.0
  O  O125  1  0.03648000  0.12761000  0.52277000  1.0
  O  O126  1  0.94812000  0.87075000  0.65332000  1.0
  O  O127  1  0.84419000  0.91666000  0.62791000  1.0
  O  O128  1  0.94812000  0.07737000  0.39856000  1.0
  O  O129  1  0.84421000  0.92754000  0.52790000  1.0
  O  O130  1  0.05188000  0.15332000  0.37075000  1.0
  O  O131  1  0.03650000  0.90888000  0.44074000  1.0
  O  O132  1  0.96350000  0.94073000  0.40889000  1.0
  O  O133  1  0.00000000  0.50000000  1.00000000  1.0
  O  O134  1  0.95544000  0.37211000  0.97209000  1.0
  O  O135  1  0.02408000  0.60144000  0.84667000  1.0
  O  O136  1  0.84962000  0.47725000  0.05926000  1.0
  O  O137  1  0.04457000  0.47210000  0.87210000  1.0
  O  O138  1  0.84962000  0.37240000  0.09111000  1.0
  O  O139  1  0.97594000  0.62926000  0.92263000  1.0
  O  O140  1  0.95543000  0.58332000  0.07247000  1.0
  O  O141  1  0.02406000  0.42263000  0.12926000  1.0
  O  O142  1  0.04455000  0.57246000  0.08334000  1.0
  O  O143  1  0.97593000  0.34668000  0.10144000  1.0
  O  O144  1  0.15039000  0.59112000  0.87238000  1.0
  O  O145  1  0.15038000  0.55926000  0.97724000  1.0
  O  O146  1  0.84891000  0.07348000  0.33962000  1.0
  O  O147  1  0.94169000  0.07575000  0.27595000  1.0
  O  O148  1  0.08691000  0.42651000  0.22458000  1.0
  O  O149  1  0.14830000  0.42426000  0.13404000  1.0
  O  O150  1  0.91307000  0.18851000  0.16041000  1.0
  O  O151  1  0.85169000  0.21765000  0.22407000  1.0
  O  O152  1  0.15109000  0.31148000  0.27543000  1.0
  O  O153  1  0.05831000  0.28237000  0.36594000  1.0
  O  O154  1  0.84890000  0.77541000  0.81150000  1.0
  O  O155  1  0.94168000  0.86592000  0.78239000  1.0
  O  O156  1  0.08692000  0.66040000  0.68849000  1.0
  O  O157  1  0.14831000  0.72406000  0.71761000  1.0
  O  O158  1  0.91309000  0.72456000  0.92654000  1.0
  O  O159  1  0.85170000  0.63403000  0.92428000  1.0
  O  O160  1  0.15109000  0.83961000  0.57346000  1.0
  O  O161  1  0.05830000  0.77597000  0.57573000  1.0
  F  F162  1  0.08533000  0.40764000  0.69413000  1.0
  F  F163  1  0.91467000  0.19419000  0.90758000  1.0
  F  F164  1  0.07980000  0.30427000  0.58819000  1.0
  F  F165  1  0.92015000  0.08818000  0.80432000  1.0
  F  F166  1  0.91467000  0.72053000  0.17768000  1.0
  F  F167  1  0.08531000  0.67775000  0.22050000  1.0
  F  F168  1  0.92016000  0.83199000  0.27554000  1.0
  F  F169  1  0.07981000  0.77553000  0.33199000  1.0
  F  F170  1  0.60753000  0.41183000  0.16802000  1.0
  F  F171  1  0.60754000  0.19573000  0.22448000  1.0
  F  F172  1  0.39824000  0.30581000  0.27951000  1.0
  F  F173  1  0.39822000  0.09238000  0.32231000  1.0
  F  F174  1  0.39246000  0.66800000  0.91183000  1.0
  F  F175  1  0.39248000  0.72448000  0.69571000  1.0
  F  F176  1  0.60175000  0.77950000  0.80583000  1.0
  F  F177  1  0.60179000  0.82232000  0.59236000  1.0
