# generated using pymatgen
data_CdH10C10S(NO3)2
_symmetry_space_group_name_H-M   'P 1'
_cell_length_a   8.43437000
_cell_length_b   12.88190000
_cell_length_c   12.88190000
_cell_angle_alpha   92.82900000
_cell_angle_beta   97.50330000
_cell_angle_gamma   97.50260000
_symmetry_Int_Tables_number   1
_chemical_formula_structural   CdH10C10S(NO3)2
_chemical_formula_sum   'Cd4 H40 C40 S4 N8 O24'
_cell_volume   1372.62025798
_cell_formula_units_Z   4
loop_
 _symmetry_equiv_pos_site_id
 _symmetry_equiv_pos_as_xyz
  1  'x, y, z'
loop_
 _atom_site_type_symbol
 _atom_site_label
 _atom_site_symmetry_multiplicity
 _atom_site_fract_x
 _atom_site_fract_y
 _atom_site_fract_z
 _atom_site_occupancy
  Cd  Cd0  1  0.15161000  0.10824000  0.55619000  1.0
  Cd  Cd1  1  0.34839000  0.44381000  0.89176000  1.0
  Cd  Cd2  1  0.84839000  0.89176000  0.44382000  1.0
  Cd  Cd3  1  0.65160000  0.55619000  0.10824000  1.0
  H  H4  1  0.20540000  0.72880000  0.56287000  1.0
  H  H5  1  0.29461000  0.43714000  0.27120000  1.0
  H  H6  1  0.79459000  0.27119000  0.43715000  1.0
  H  H7  1  0.70541000  0.56286000  0.72880000  1.0
  H  H8  1  0.09061000  0.18090000  0.88787000  1.0
  H  H9  1  0.40940000  0.11214000  0.81911000  1.0
  H  H10  1  0.90939000  0.81911000  0.11214000  1.0
  H  H11  1  0.59060000  0.88786000  0.18089000  1.0
  H  H12  1  0.03200000  0.11246000  0.99892000  1.0
  H  H13  1  0.46801000  0.00108000  0.88754000  1.0
  H  H14  1  0.96800000  0.88755000  0.00108000  1.0
  H  H15  1  0.53200000  0.99891000  0.11245000  1.0
  H  H16  1  0.88766000  0.11889000  0.88421000  1.0
  H  H17  1  0.61235000  0.11579000  0.88111000  1.0
  H  H18  1  0.11234000  0.88112000  0.11579000  1.0
  H  H19  1  0.38765000  0.88421000  0.11887000  1.0
  H  H20  1  0.51808000  0.26753000  0.63209000  1.0
  H  H21  1  0.98191000  0.36791000  0.73247000  1.0
  H  H22  1  0.48192000  0.73247000  0.36790000  1.0
  H  H23  1  0.01807000  0.63210000  0.26753000  1.0
  H  H24  1  0.81145000  0.18375000  0.66789000  1.0
  H  H25  1  0.68854000  0.33211000  0.81625000  1.0
  H  H26  1  0.18854000  0.81625000  0.33210000  1.0
  H  H27  1  0.31145000  0.66789000  0.18376000  1.0
  H  H28  1  0.42314000  0.93675000  0.61070000  1.0
  H  H29  1  0.07686000  0.38929000  0.06325000  1.0
  H  H30  1  0.57686000  0.06325000  0.38929000  1.0
  H  H31  1  0.92315000  0.61072000  0.93675000  1.0
  H  H32  1  0.72322000  0.98292000  0.64625000  1.0
  H  H33  1  0.77678000  0.35375000  0.01708000  1.0
  H  H34  1  0.27678000  0.01708000  0.35375000  1.0
  H  H35  1  0.22322000  0.64625000  0.98293000  1.0
  H  H36  1  0.98393000  0.27633000  0.54926000  1.0
  H  H37  1  0.51608000  0.45074000  0.72367000  1.0
  H  H38  1  0.01609000  0.72367000  0.45074000  1.0
  H  H39  1  0.48393000  0.54926000  0.27632000  1.0
  H  H40  1  0.16352000  0.30814000  0.53032000  1.0
  H  H41  1  0.33649000  0.46968000  0.69186000  1.0
  H  H42  1  0.83650000  0.69186000  0.46967000  1.0
  H  H43  1  0.66351000  0.53033000  0.30814000  1.0
  C  C44  1  0.07028000  0.00734000  0.77086000  1.0
  C  C45  1  0.42973000  0.22915000  0.99267000  1.0
  C  C46  1  0.92971000  0.99267000  0.22915000  1.0
  C  C47  1  0.57028000  0.77085000  0.00733000  1.0
  C  C48  1  0.12107000  0.91069000  0.73810000  1.0
  C  C49  1  0.37894000  0.26190000  0.08931000  1.0
  C  C50  1  0.87892000  0.08931000  0.26191000  1.0
  C  C51  1  0.62107000  0.73809000  0.91068000  1.0
  C  C52  1  0.13372000  0.87511000  0.63351000  1.0
  C  C53  1  0.36628000  0.36650000  0.12489000  1.0
  C  C54  1  0.86628000  0.12489000  0.36651000  1.0
  C  C55  1  0.63372000  0.63349000  0.87511000  1.0
  C  C56  1  0.18049000  0.77221000  0.63220000  1.0
  C  C57  1  0.31952000  0.36781000  0.22779000  1.0
  C  C58  1  0.81951000  0.22780000  0.36781000  1.0
  C  C59  1  0.68049000  0.63219000  0.77220000  1.0
  C  C60  1  0.19700000  0.73202000  0.72943000  1.0
  C  C61  1  0.30301000  0.27058000  0.26798000  1.0
  C  C62  1  0.80299000  0.26798000  0.27058000  1.0
  C  C63  1  0.69700000  0.72942000  0.73201000  1.0
  C  C64  1  0.23867000  0.62600000  0.75199000  1.0
  C  C65  1  0.26133000  0.24802000  0.37401000  1.0
  C  C66  1  0.76132000  0.37401000  0.24802000  1.0
  C  C67  1  0.73868000  0.75198000  0.62599000  1.0
  C  C68  1  0.01457000  0.11421000  0.91357000  1.0
  C  C69  1  0.48544000  0.08643000  0.88579000  1.0
  C  C70  1  0.98542000  0.88579000  0.08643000  1.0
  C  C71  1  0.51457000  0.91357000  0.11420000  1.0
  C  C72  1  0.54272000  0.18693000  0.63234000  1.0
  C  C73  1  0.95727000  0.36765000  0.81307000  1.0
  C  C74  1  0.45728000  0.81307000  0.36765000  1.0
  C  C75  1  0.04271000  0.63235000  0.18693000  1.0
  C  C76  1  0.68718000  0.14731000  0.64950000  1.0
  C  C77  1  0.81281000  0.35050000  0.85269000  1.0
  C  C78  1  0.31282000  0.85269000  0.35049000  1.0
  C  C79  1  0.18718000  0.64950000  0.14731000  1.0
  C  C80  1  0.48571000  0.01630000  0.62163000  1.0
  C  C81  1  0.01428000  0.37837000  0.98370000  1.0
  C  C82  1  0.51429000  0.98369000  0.37836000  1.0
  C  C83  1  0.98571000  0.62164000  0.01630000  1.0
  S  S84  1  0.16298000  0.81808000  0.82746000  1.0
  S  S85  1  0.33702000  0.17254000  0.18192000  1.0
  S  S86  1  0.83699000  0.18192000  0.17255000  1.0
  S  S87  1  0.66299000  0.82745000  0.81807000  1.0
  N  N88  1  0.41776000  0.10413000  0.61546000  1.0
  N  N89  1  0.08224000  0.38454000  0.89587000  1.0
  N  N90  1  0.58224000  0.89587000  0.38453000  1.0
  N  N91  1  0.91775000  0.61547000  0.10413000  1.0
  N  N92  1  0.64780000  0.03977000  0.64275000  1.0
  N  N93  1  0.85219000  0.35725000  0.96023000  1.0
  N  N94  1  0.35220000  0.96023000  0.35724000  1.0
  N  N95  1  0.14780000  0.64276000  0.03977000  1.0
  O  O96  1  0.05964000  0.01644000  0.87484000  1.0
  O  O97  1  0.44038000  0.12516000  0.98356000  1.0
  O  O98  1  0.94036000  0.98357000  0.12516000  1.0
  O  O99  1  0.55963000  0.87483000  0.01643000  1.0
  O  O100  1  0.03685000  0.07894000  0.71294000  1.0
  O  O101  1  0.46315000  0.28707000  0.92107000  1.0
  O  O102  1  0.96315000  0.92106000  0.28707000  1.0
  O  O103  1  0.53683000  0.71293000  0.07893000  1.0
  O  O104  1  0.10611000  0.92635000  0.54869000  1.0
  O  O105  1  0.39389000  0.45131000  0.07364000  1.0
  O  O106  1  0.89389000  0.07364000  0.45132000  1.0
  O  O107  1  0.60612000  0.54868000  0.92635000  1.0
  O  O108  1  0.26353000  0.60532000  0.84909000  1.0
  O  O109  1  0.23646000  0.15092000  0.39468000  1.0
  O  O110  1  0.73646000  0.39468000  0.15092000  1.0
  O  O111  1  0.76354000  0.84908000  0.60532000  1.0
  O  O112  1  0.24586000  0.56501000  0.67351000  1.0
  O  O113  1  0.25415000  0.32650000  0.43499000  1.0
  O  O114  1  0.75412000  0.43499000  0.32650000  1.0
  O  O115  1  0.74588000  0.67350000  0.56500000  1.0
  O  O116  1  0.09367000  0.27857000  0.58498000  1.0
  O  O117  1  0.40634000  0.41502000  0.72143000  1.0
  O  O118  1  0.90634000  0.72143000  0.41502000  1.0
  O  O119  1  0.59367000  0.58498000  0.27857000  1.0
