# generated using pymatgen
data_InH6C12N2ClO4
_symmetry_space_group_name_H-M   'P 1'
_cell_length_a   9.15140000
_cell_length_b   11.51900000
_cell_length_c   16.69430000
_cell_angle_alpha   89.99970000
_cell_angle_beta   89.99960000
_cell_angle_gamma   89.99930000
_symmetry_Int_Tables_number   1
_chemical_formula_structural   InH6C12N2ClO4
_chemical_formula_sum   'In4 H24 C48 N8 Cl4 O16'
_cell_volume   1759.82924366
_cell_formula_units_Z   4
loop_
 _symmetry_equiv_pos_site_id
 _symmetry_equiv_pos_as_xyz
  1  'x, y, z'
loop_
 _atom_site_type_symbol
 _atom_site_label
 _atom_site_symmetry_multiplicity
 _atom_site_fract_x
 _atom_site_fract_y
 _atom_site_fract_z
 _atom_site_occupancy
  In  In0  1  0.51935000  0.29223000  0.83101000  1.0
  In  In1  1  0.48065000  0.79222000  0.16900000  1.0
  In  In2  1  0.98067000  0.29222000  0.33101000  1.0
  In  In3  1  0.01933000  0.79222000  0.66899000  1.0
  H  H4  1  0.47250000  0.48444000  0.96957000  1.0
  H  H5  1  0.52750000  0.98444000  0.03044000  1.0
  H  H6  1  0.02752000  0.48443000  0.46955000  1.0
  H  H7  1  0.97249000  0.98443000  0.53043000  1.0
  H  H8  1  0.88531000  0.65430000  0.00830000  1.0
  H  H9  1  0.11470000  0.15432000  0.99171000  1.0
  H  H10  1  0.61471000  0.65432000  0.50828000  1.0
  H  H11  1  0.38528000  0.15432000  0.49171000  1.0
  H  H12  1  0.00334000  0.50134000  0.92413000  1.0
  H  H13  1  0.99666000  0.00136000  0.07587000  1.0
  H  H14  1  0.49668000  0.50136000  0.42412000  1.0
  H  H15  1  0.50332000  0.00135000  0.57588000  1.0
  H  H16  1  0.09068000  0.33982000  0.87992000  1.0
  H  H17  1  0.90932000  0.83984000  0.12007000  1.0
  H  H18  1  0.40932000  0.33983000  0.37993000  1.0
  H  H19  1  0.59067000  0.83983000  0.62007000  1.0
  H  H20  1  0.16657000  0.15904000  0.81044000  1.0
  H  H21  1  0.83342000  0.65906000  0.18955000  1.0
  H  H22  1  0.33342000  0.15906000  0.31046000  1.0
  H  H23  1  0.66658000  0.65905000  0.68955000  1.0
  H  H24  1  0.71361000  0.09727000  0.75240000  1.0
  H  H25  1  0.28638000  0.59726000  0.24760000  1.0
  H  H26  1  0.78637000  0.09727000  0.25240000  1.0
  H  H27  1  0.21362000  0.59726000  0.74760000  1.0
  C  C28  1  0.59049000  0.48992000  0.96152000  1.0
  C  C29  1  0.40951000  0.98992000  0.03849000  1.0
  C  C30  1  0.90953000  0.48992000  0.46151000  1.0
  C  C31  1  0.09048000  0.98992000  0.53849000  1.0
  C  C32  1  0.67087000  0.57873000  0.99769000  1.0
  C  C33  1  0.32913000  0.07873000  0.00231000  1.0
  C  C34  1  0.82915000  0.57873000  0.49768000  1.0
  C  C35  1  0.17085000  0.07873000  0.50231000  1.0
  C  C36  1  0.59508000  0.66127000  0.05241000  1.0
  C  C37  1  0.40493000  0.16127000  0.94760000  1.0
  C  C38  1  0.90493000  0.66126000  0.55240000  1.0
  C  C39  1  0.09507000  0.16127000  0.44760000  1.0
  C  C40  1  0.82108000  0.58375000  0.98289000  1.0
  C  C41  1  0.17893000  0.08376000  0.01712000  1.0
  C  C42  1  0.67894000  0.58376000  0.48288000  1.0
  C  C43  1  0.32106000  0.08376000  0.51712000  1.0
  C  C44  1  0.88663000  0.49818000  0.93624000  1.0
  C  C45  1  0.11337000  0.99819000  0.06376000  1.0
  C  C46  1  0.61338000  0.49819000  0.43624000  1.0
  C  C47  1  0.38662000  0.99819000  0.56376000  1.0
  C  C48  1  0.79994000  0.41010000  0.90351000  1.0
  C  C49  1  0.20006000  0.91011000  0.09649000  1.0
  C  C50  1  0.70007000  0.41010000  0.40351000  1.0
  C  C51  1  0.29993000  0.91010000  0.59649000  1.0
  C  C52  1  0.85934000  0.31233000  0.85592000  1.0
  C  C53  1  0.14065000  0.81233000  0.14408000  1.0
  C  C54  1  0.64066000  0.31233000  0.35592000  1.0
  C  C55  1  0.35934000  0.81233000  0.64408000  1.0
  C  C56  1  0.00836000  0.28528000  0.85172000  1.0
  C  C57  1  0.99165000  0.78529000  0.14828000  1.0
  C  C58  1  0.49165000  0.28529000  0.35172000  1.0
  C  C59  1  0.50835000  0.78528000  0.64828000  1.0
  C  C60  1  0.05163000  0.18347000  0.81330000  1.0
  C  C61  1  0.94837000  0.68348000  0.18670000  1.0
  C  C62  1  0.44837000  0.18348000  0.31330000  1.0
  C  C63  1  0.55163000  0.68347000  0.68670000  1.0
  C  C64  1  0.94575000  0.11220000  0.77825000  1.0
  C  C65  1  0.05424000  0.61220000  0.22175000  1.0
  C  C66  1  0.55424000  0.11220000  0.27825000  1.0
  C  C67  1  0.44576000  0.61220000  0.72175000  1.0
  C  C68  1  0.98220000  0.99806000  0.74128000  1.0
  C  C69  1  0.01778000  0.49806000  0.25871000  1.0
  C  C70  1  0.51779000  0.99807000  0.24128000  1.0
  C  C71  1  0.48221000  0.49807000  0.75872000  1.0
  C  C72  1  0.80007000  0.14796000  0.78070000  1.0
  C  C73  1  0.19992000  0.64796000  0.21930000  1.0
  C  C74  1  0.69991000  0.14797000  0.28070000  1.0
  C  C75  1  0.30008000  0.64796000  0.71930000  1.0
  N  N76  1  0.65349000  0.40953000  0.91550000  1.0
  N  N77  1  0.34650000  0.90952000  0.08451000  1.0
  N  N78  1  0.84652000  0.40952000  0.41549000  1.0
  N  N79  1  0.15349000  0.90952000  0.58451000  1.0
  N  N80  1  0.75967000  0.24423000  0.81901000  1.0
  N  N81  1  0.24033000  0.74422000  0.18100000  1.0
  N  N82  1  0.74034000  0.24422000  0.31900000  1.0
  N  N83  1  0.25967000  0.74422000  0.68100000  1.0
  Cl  Cl84  1  0.42949000  0.16737000  0.72581000  1.0
  Cl  Cl85  1  0.57051000  0.66737000  0.27420000  1.0
  Cl  Cl86  1  0.07052000  0.16736000  0.22580000  1.0
  Cl  Cl87  1  0.92949000  0.66735000  0.77419000  1.0
  O  O88  1  0.66374000  0.75079000  0.07842000  1.0
  O  O89  1  0.33627000  0.25079000  0.92158000  1.0
  O  O90  1  0.83626000  0.75077000  0.57842000  1.0
  O  O91  1  0.16376000  0.25078000  0.42158000  1.0
  O  O92  1  0.46532000  0.63864000  0.07459000  1.0
  O  O93  1  0.53470000  0.13864000  0.92542000  1.0
  O  O94  1  0.03470000  0.63864000  0.57458000  1.0
  O  O95  1  0.96531000  0.13865000  0.42542000  1.0
  O  O96  1  0.88816000  0.95333000  0.69253000  1.0
  O  O97  1  0.11182000  0.45333000  0.30747000  1.0
  O  O98  1  0.61181000  0.95334000  0.19252000  1.0
  O  O99  1  0.38819000  0.45334000  0.80748000  1.0
  O  O100  1  0.10046000  0.94756000  0.75878000  1.0
  O  O101  1  0.89953000  0.44757000  0.24121000  1.0
  O  O102  1  0.39954000  0.94757000  0.25879000  1.0
  O  O103  1  0.60047000  0.44757000  0.74121000  1.0
