# generated using pymatgen
data_CdH14C16(NO3)2
_symmetry_space_group_name_H-M   'P 1'
_cell_length_a   7.77866000
_cell_length_b   8.02673000
_cell_length_c   14.25920000
_cell_angle_alpha   87.72790000
_cell_angle_beta   77.21210000
_cell_angle_gamma   77.64230000
_symmetry_Int_Tables_number   1
_chemical_formula_structural   CdH14C16(NO3)2
_chemical_formula_sum   'Cd2 H28 C32 N4 O12'
_cell_volume   848.07745728
_cell_formula_units_Z   2
loop_
 _symmetry_equiv_pos_site_id
 _symmetry_equiv_pos_as_xyz
  1  'x, y, z'
loop_
 _atom_site_type_symbol
 _atom_site_label
 _atom_site_symmetry_multiplicity
 _atom_site_fract_x
 _atom_site_fract_y
 _atom_site_fract_z
 _atom_site_occupancy
  Cd  Cd0  1  0.26889000  0.33287000  0.25633000  1.0
  Cd  Cd1  1  0.73110000  0.66713000  0.74367000  1.0
  H  H2  1  0.11659000  0.47475000  0.42970000  1.0
  H  H3  1  0.88341000  0.52525000  0.57030000  1.0
  H  H4  1  0.95184000  0.37345000  0.44317000  1.0
  H  H5  1  0.04815000  0.62655000  0.55683000  1.0
  H  H6  1  0.15187000  0.04009000  0.26844000  1.0
  H  H7  1  0.84812000  0.95992000  0.73157000  1.0
  H  H8  1  0.96437000  0.17746000  0.29319000  1.0
  H  H9  1  0.03561000  0.82255000  0.70681000  1.0
  H  H10  1  0.60789000  0.61998000  0.45417000  1.0
  H  H11  1  0.39211000  0.38002000  0.54582000  1.0
  H  H12  1  0.63564000  0.90558000  0.40285000  1.0
  H  H13  1  0.36436000  0.09443000  0.59715000  1.0
  H  H14  1  0.95596000  0.69162000  0.30876000  1.0
  H  H15  1  0.04405000  0.30839000  0.69123000  1.0
  H  H16  1  0.78578000  0.93332000  0.22467000  1.0
  H  H17  1  0.21423000  0.06668000  0.77533000  1.0
  H  H18  1  0.85539000  0.93417000  0.04426000  1.0
  H  H19  1  0.14461000  0.06582000  0.95573000  1.0
  H  H20  1  0.03471000  0.79429000  0.88823000  1.0
  H  H21  1  0.96529000  0.20570000  0.11176000  1.0
  H  H22  1  0.28326000  0.56727000  0.80291000  1.0
  H  H23  1  0.71676000  0.43273000  0.19709000  1.0
  H  H24  1  0.52077000  0.30872000  0.80842000  1.0
  H  H25  1  0.47923000  0.69127000  0.19159000  1.0
  H  H26  1  0.67703000  0.08603000  0.90614000  1.0
  H  H27  1  0.32297000  0.91397000  0.09387000  1.0
  H  H28  1  0.57363000  0.10095000  0.08773000  1.0
  H  H29  1  0.42636000  0.89904000  0.91228000  1.0
  C  C30  1  0.38225000  0.59450000  0.39181000  1.0
  C  C31  1  0.61775000  0.40551000  0.60819000  1.0
  C  C32  1  0.51591000  0.69138000  0.41156000  1.0
  C  C33  1  0.48409000  0.30862000  0.58843000  1.0
  C  C34  1  0.41766000  0.95890000  0.32390000  1.0
  C  C35  1  0.58235000  0.04111000  0.67609000  1.0
  C  C36  1  0.53271000  0.84947000  0.38267000  1.0
  C  C37  1  0.46729000  0.15054000  0.61733000  1.0
  C  C38  1  0.98209000  0.69832000  0.23048000  1.0
  C  C39  1  0.01792000  0.30168000  0.76952000  1.0
  C  C40  1  0.88780000  0.83286000  0.18310000  1.0
  C  C41  1  0.11220000  0.16714000  0.81689000  1.0
  C  C42  1  0.92613000  0.83300000  0.08380000  1.0
  C  C43  1  0.07388000  0.16700000  0.91619000  1.0
  C  C44  1  0.05920000  0.70137000  0.03171000  1.0
  C  C45  1  0.94079000  0.29863000  0.96828000  1.0
  C  C46  1  0.10772000  0.69660000  0.92887000  1.0
  C  C47  1  0.89228000  0.30339000  0.07113000  1.0
  C  C48  1  0.24225000  0.57054000  0.88125000  1.0
  C  C49  1  0.75776000  0.42945000  0.11875000  1.0
  C  C50  1  0.33623000  0.43886000  0.93327000  1.0
  C  C51  1  0.66377000  0.56113000  0.06673000  1.0
  C  C52  1  0.47829000  0.30843000  0.88659000  1.0
  C  C53  1  0.52171000  0.69156000  0.11342000  1.0
  C  C54  1  0.56533000  0.18609000  0.94089000  1.0
  C  C55  1  0.43468000  0.81390000  0.05912000  1.0
  C  C56  1  0.50916000  0.19414000  0.04161000  1.0
  C  C57  1  0.49083000  0.80586000  0.95840000  1.0
  C  C58  1  0.28873000  0.43729000  0.03542000  1.0
  C  C59  1  0.71127000  0.56271000  0.96458000  1.0
  C  C60  1  0.14793000  0.57176000  0.08589000  1.0
  C  C61  1  0.85207000  0.42824000  0.91411000  1.0
  N  N62  1  0.10733000  0.57212000  0.18326000  1.0
  N  N63  1  0.89267000  0.42788000  0.81674000  1.0
  N  N64  1  0.37531000  0.31513000  0.08719000  1.0
  N  N65  1  0.62468000  0.68487000  0.91281000  1.0
  O  O66  1  0.42821000  0.50665000  0.31439000  1.0
  O  O67  1  0.57178000  0.49336000  0.68561000  1.0
  O  O68  1  0.24225000  0.59462000  0.45771000  1.0
  O  O69  1  0.75776000  0.40539000  0.54229000  1.0
  O  O70  1  0.46573000  0.09866000  0.29316000  1.0
  O  O71  1  0.53427000  0.90135000  0.70684000  1.0
  O  O72  1  0.28358000  0.90720000  0.30717000  1.0
  O  O73  1  0.71642000  0.09281000  0.69283000  1.0
  O  O74  1  0.05389000  0.40438000  0.39692000  1.0
  O  O75  1  0.94611000  0.59562000  0.60309000  1.0
  O  O76  1  0.07110000  0.14353000  0.24196000  1.0
  O  O77  1  0.92889000  0.85648000  0.75805000  1.0
