# generated using pymatgen
data_AgH7C5NClO6
_symmetry_space_group_name_H-M   'P 1'
_cell_length_a   7.47556000
_cell_length_b   10.56570000
_cell_length_c   11.66980000
_cell_angle_alpha   80.90940000
_cell_angle_beta   88.23950000
_cell_angle_gamma   77.17820000
_symmetry_Int_Tables_number   1
_chemical_formula_structural   AgH7C5NClO6
_chemical_formula_sum   'Ag4 H28 C20 N4 Cl4 O24'
_cell_volume   887.45260989
_cell_formula_units_Z   4
loop_
 _symmetry_equiv_pos_site_id
 _symmetry_equiv_pos_as_xyz
  1  'x, y, z'
loop_
 _atom_site_type_symbol
 _atom_site_label
 _atom_site_symmetry_multiplicity
 _atom_site_fract_x
 _atom_site_fract_y
 _atom_site_fract_z
 _atom_site_occupancy
  Ag  Ag0  1  0.08293000  0.81844000  0.02831000  1.0
  Ag  Ag1  1  0.91707000  0.18156000  0.97169000  1.0
  Ag  Ag2  1  0.50000000  0.50000000  0.00000000  1.0
  Ag  Ag3  1  0.00000000  0.50000000  0.00000000  1.0
  H  H4  1  0.91763000  0.94439000  0.23698000  1.0
  H  H5  1  0.08237000  0.05561000  0.76302000  1.0
  H  H6  1  0.89448000  0.90262000  0.45451000  1.0
  H  H7  1  0.10552000  0.09738000  0.54549000  1.0
  H  H8  1  0.73032000  0.72920000  0.54775000  1.0
  H  H9  1  0.26968000  0.27080000  0.45225000  1.0
  H  H10  1  0.58922000  0.60879000  0.41743000  1.0
  H  H11  1  0.41077000  0.39121000  0.58257000  1.0
  H  H12  1  0.61682000  0.66619000  0.20201000  1.0
  H  H13  1  0.38317000  0.33381000  0.79798000  1.0
  H  H14  1  0.08178000  0.54724000  0.76513000  1.0
  H  H15  1  0.91822000  0.45276000  0.23487000  1.0
  H  H16  1  0.10723000  0.60833000  0.54893000  1.0
  H  H17  1  0.89277000  0.39167000  0.45107000  1.0
  H  H18  1  0.27591000  0.78445000  0.47079000  1.0
  H  H19  1  0.72409000  0.21555000  0.52920000  1.0
  H  H20  1  0.41705000  0.88977000  0.61431000  1.0
  H  H21  1  0.58296000  0.11023000  0.38569000  1.0
  H  H22  1  0.38375000  0.81387000  0.82839000  1.0
  H  H23  1  0.61624000  0.18613000  0.17161000  1.0
  H  H24  1  0.36878000  0.92432000  0.07949000  1.0
  H  H25  1  0.63122000  0.07568000  0.92051000  1.0
  H  H26  1  0.29615000  0.00305000  0.95994000  1.0
  H  H27  1  0.70385000  0.99695000  0.04006000  1.0
  H  H28  1  0.27924000  0.29776000  0.11227000  1.0
  H  H29  1  0.72075000  0.70224000  0.88773000  1.0
  H  H30  1  0.27562000  0.27403000  0.98170000  1.0
  H  H31  1  0.72437000  0.72597000  0.01830000  1.0
  C  C32  1  0.84497000  0.87332000  0.28301000  1.0
  C  C33  1  0.15503000  0.12668000  0.71699000  1.0
  C  C34  1  0.83137000  0.84756000  0.40245000  1.0
  C  C35  1  0.16863000  0.15244000  0.59755000  1.0
  C  C36  1  0.73945000  0.75182000  0.45374000  1.0
  C  C37  1  0.26055000  0.24818000  0.54626000  1.0
  C  C38  1  0.66184000  0.68465000  0.38194000  1.0
  C  C39  1  0.33816000  0.31535000  0.61806000  1.0
  C  C40  1  0.67636000  0.71367000  0.26254000  1.0
  C  C41  1  0.32364000  0.28633000  0.73746000  1.0
  C  C42  1  0.15507000  0.62108000  0.72548000  1.0
  C  C43  1  0.84493000  0.37892000  0.27452000  1.0
  C  C44  1  0.16996000  0.65729000  0.60694000  1.0
  C  C45  1  0.83004000  0.34271000  0.39306000  1.0
  C  C46  1  0.26458000  0.75449000  0.56390000  1.0
  C  C47  1  0.73542000  0.24551000  0.43610000  1.0
  C  C48  1  0.34238000  0.81314000  0.64298000  1.0
  C  C49  1  0.65762000  0.18687000  0.35702000  1.0
  C  C50  1  0.32636000  0.77411000  0.76106000  1.0
  C  C51  1  0.67364000  0.22589000  0.23894000  1.0
  N  N52  1  0.76754000  0.80661000  0.21573000  1.0
  N  N53  1  0.23246000  0.19339000  0.78427000  1.0
  N  N54  1  0.23398000  0.67880000  0.80007000  1.0
  N  N55  1  0.76602000  0.32120000  0.19993000  1.0
  Cl  Cl56  1  0.76823000  0.92455000  0.74696000  1.0
  Cl  Cl57  1  0.23177000  0.07545000  0.25304000  1.0
  Cl  Cl58  1  0.24387000  0.58882000  0.26212000  1.0
  Cl  Cl59  1  0.75613000  0.41118000  0.73788000  1.0
  O  O60  1  0.78132000  0.83390000  0.09930000  1.0
  O  O61  1  0.21868000  0.16610000  0.90070000  1.0
  O  O62  1  0.22235000  0.64034000  0.91487000  1.0
  O  O63  1  0.77766000  0.35966000  0.08513000  1.0
  O  O64  1  0.33302000  0.91147000  0.00242000  1.0
  O  O65  1  0.66698000  0.08853000  0.99758000  1.0
  O  O66  1  0.28062000  0.34234000  0.03118000  1.0
  O  O67  1  0.71938000  0.65766000  0.96882000  1.0
  O  O68  1  0.91518000  0.92267000  0.82850000  1.0
  O  O69  1  0.08482000  0.07733000  0.17150000  1.0
  O  O70  1  0.59481000  0.99983000  0.78653000  1.0
  O  O71  1  0.40519000  0.00017000  0.21347000  1.0
  O  O72  1  0.81171000  0.98288000  0.63153000  1.0
  O  O73  1  0.18829000  0.01712000  0.36847000  1.0
  O  O74  1  0.75068000  0.78889000  0.74512000  1.0
  O  O75  1  0.24932000  0.21111000  0.25488000  1.0
  O  O76  1  0.41855000  0.51974000  0.21805000  1.0
  O  O77  1  0.58145000  0.48026000  0.78195000  1.0
  O  O78  1  0.20456000  0.51900000  0.37428000  1.0
  O  O79  1  0.79544000  0.48100000  0.62572000  1.0
  O  O80  1  0.25332000  0.72337000  0.27084000  1.0
  O  O81  1  0.74668000  0.27663000  0.72916000  1.0
  O  O82  1  0.09555000  0.59309000  0.17929000  1.0
  O  O83  1  0.90445000  0.40691000  0.82071000  1.0
