# generated using pymatgen
data_Cd2H10C18N8O7
_symmetry_space_group_name_H-M   'P 1'
_cell_length_a   8.05466000
_cell_length_b   9.23942000
_cell_length_c   15.17530000
_cell_angle_alpha   101.07900000
_cell_angle_beta   95.78050000
_cell_angle_gamma   99.68690000
_symmetry_Int_Tables_number   1
_chemical_formula_structural   Cd2H10C18N8O7
_chemical_formula_sum   'Cd4 H20 C36 N16 O14'
_cell_volume   1082.11908337
_cell_formula_units_Z   2
loop_
 _symmetry_equiv_pos_site_id
 _symmetry_equiv_pos_as_xyz
  1  'x, y, z'
loop_
 _atom_site_type_symbol
 _atom_site_label
 _atom_site_symmetry_multiplicity
 _atom_site_fract_x
 _atom_site_fract_y
 _atom_site_fract_z
 _atom_site_occupancy
  Cd  Cd0  1  0.31635000  0.34537000  0.93233000  1.0
  Cd  Cd1  1  0.68365000  0.65463000  0.06768000  1.0
  Cd  Cd2  1  0.47393000  0.19272000  0.62143000  1.0
  Cd  Cd3  1  0.52608000  0.80728000  0.37857000  1.0
  H  H4  1  0.70512000  0.40845000  0.55203000  1.0
  H  H5  1  0.29489000  0.59156000  0.44797000  1.0
  H  H6  1  0.52375000  0.38971000  0.49351000  1.0
  H  H7  1  0.47625000  0.61033000  0.50650000  1.0
  H  H8  1  0.39255000  0.78975000  0.79085000  1.0
  H  H9  1  0.60746000  0.21027000  0.20915000  1.0
  H  H10  1  0.24694000  0.85289000  0.06062000  1.0
  H  H11  1  0.75305000  0.14711000  0.93937000  1.0
  H  H12  1  0.05386000  0.10628000  0.79177000  1.0
  H  H13  1  0.94615000  0.89372000  0.20824000  1.0
  H  H14  1  0.95441000  0.52036000  0.91826000  1.0
  H  H15  1  0.04558000  0.47964000  0.08173000  1.0
  H  H16  1  0.68796000  0.47617000  0.81052000  1.0
  H  H17  1  0.31204000  0.52382000  0.18947000  1.0
  H  H18  1  0.13685000  0.78083000  0.55699000  1.0
  H  H19  1  0.86315000  0.21918000  0.44301000  1.0
  H  H20  1  0.01639000  0.44331000  0.32220000  1.0
  H  H21  1  0.98364000  0.55670000  0.67780000  1.0
  H  H22  1  0.73890000  0.52712000  0.28564000  1.0
  H  H23  1  0.26111000  0.47287000  0.71435000  1.0
  C  C24  1  0.33993000  0.00594000  0.84967000  1.0
  C  C25  1  0.66008000  0.99407000  0.15034000  1.0
  C  C26  1  0.35448000  0.85798000  0.84926000  1.0
  C  C27  1  0.64554000  0.14203000  0.15074000  1.0
  C  C28  1  0.32502000  0.80263000  0.92701000  1.0
  C  C29  1  0.67501000  0.19738000  0.07299000  1.0
  C  C30  1  0.27408000  0.89362000  0.00003000  1.0
  C  C31  1  0.72593000  0.10638000  0.99997000  1.0
  C  C32  1  0.25981000  0.04037000  0.99485000  1.0
  C  C33  1  0.74018000  0.95962000  0.00516000  1.0
  C  C34  1  0.37421000  0.07819000  0.77084000  1.0
  C  C35  1  0.62578000  0.92181000  0.22917000  1.0
  C  C36  1  0.34519000  0.64578000  0.93045000  1.0
  C  C37  1  0.65482000  0.35423000  0.06954000  1.0
  C  C38  1  0.20580000  0.14857000  0.07165000  1.0
  C  C39  1  0.79418000  0.85143000  0.92836000  1.0
  C  C40  1  0.81368000  0.06030000  0.64494000  1.0
  C  C41  1  0.18632000  0.93969000  0.35506000  1.0
  C  C42  1  0.83531000  0.88408000  0.54021000  1.0
  C  C43  1  0.16468000  0.11591000  0.45979000  1.0
  C  C44  1  0.84170000  0.17846000  0.72627000  1.0
  C  C45  1  0.15830000  0.82153000  0.27372000  1.0
  C  C46  1  0.97840000  0.19348000  0.79405000  1.0
  C  C47  1  0.02159000  0.80651000  0.20594000  1.0
  C  C48  1  0.92014000  0.41828000  0.86542000  1.0
  C  C49  1  0.07985000  0.58171000  0.13458000  1.0
  C  C50  1  0.77326000  0.39605000  0.80318000  1.0
  C  C51  1  0.22673000  0.60394000  0.19682000  1.0
  C  C52  1  0.88849000  0.76306000  0.48025000  1.0
  C  C53  1  0.11152000  0.23694000  0.51975000  1.0
  C  C54  1  0.04610000  0.72063000  0.49762000  1.0
  C  C55  1  0.95391000  0.27938000  0.50238000  1.0
  C  C56  1  0.97927000  0.53581000  0.36731000  1.0
  C  C57  1  0.02074000  0.46418000  0.63269000  1.0
  C  C58  1  0.82489000  0.58044000  0.34798000  1.0
  C  C59  1  0.17512000  0.41955000  0.65202000  1.0
  N  N60  1  0.29682000  0.09318000  0.92164000  1.0
  N  N61  1  0.70318000  0.90682000  0.07836000  1.0
  N  N62  1  0.67844000  0.04509000  0.58120000  1.0
  N  N63  1  0.32155000  0.95490000  0.41881000  1.0
  N  N64  1  0.69132000  0.93133000  0.51457000  1.0
  N  N65  1  0.30868000  0.06867000  0.48543000  1.0
  N  N66  1  0.91709000  0.96228000  0.62184000  1.0
  N  N67  1  0.08290000  0.03771000  0.37816000  1.0
  N  N68  1  0.73636000  0.27843000  0.73274000  1.0
  N  N69  1  0.26364000  0.72156000  0.26726000  1.0
  N  N70  1  0.02038000  0.31535000  0.86141000  1.0
  N  N71  1  0.97962000  0.68465000  0.13859000  1.0
  N  N72  1  0.78080000  0.69383000  0.40399000  1.0
  N  N73  1  0.21921000  0.30616000  0.59600000  1.0
  N  N74  1  0.08986000  0.60802000  0.44115000  1.0
  N  N75  1  0.91015000  0.39198000  0.55885000  1.0
  O  O76  1  0.57958000  0.40702000  0.55578000  1.0
  O  O77  1  0.42043000  0.59298000  0.44422000  1.0
  O  O78  1  0.37866000  0.21967000  0.78103000  1.0
  O  O79  1  0.62133000  0.78033000  0.21897000  1.0
  O  O80  1  0.39787000  0.99514000  0.69836000  1.0
  O  O81  1  0.60212000  0.00487000  0.30164000  1.0
  O  O82  1  0.32933000  0.55030000  0.85661000  1.0
  O  O83  1  0.67067000  0.44970000  0.14338000  1.0
  O  O84  1  0.37279000  0.61212000  0.00832000  1.0
  O  O85  1  0.62722000  0.38787000  0.99167000  1.0
  O  O86  1  0.14387000  0.09284000  0.13253000  1.0
  O  O87  1  0.85610000  0.90715000  0.86746000  1.0
  O  O88  1  0.22959000  0.28772000  0.06607000  1.0
  O  O89  1  0.77042000  0.71228000  0.93394000  1.0
