# generated using pymatgen
data_CdH12(C2N)10
_symmetry_space_group_name_H-M   'P 1'
_cell_length_a   8.23489000
_cell_length_b   11.30140000
_cell_length_c   11.30130000
_cell_angle_alpha   72.80640000
_cell_angle_beta   78.09030000
_cell_angle_gamma   78.08940000
_symmetry_Int_Tables_number   1
_chemical_formula_structural   CdH12(C2N)10
_chemical_formula_sum   'Cd2 H24 C40 N20'
_cell_volume   971.17030500
_cell_formula_units_Z   2
loop_
 _symmetry_equiv_pos_site_id
 _symmetry_equiv_pos_as_xyz
  1  'x, y, z'
loop_
 _atom_site_type_symbol
 _atom_site_label
 _atom_site_symmetry_multiplicity
 _atom_site_fract_x
 _atom_site_fract_y
 _atom_site_fract_z
 _atom_site_occupancy
  Cd  Cd0  1  0.25000000  0.41010000  0.58990000  1.0
  Cd  Cd1  1  0.75000000  0.58990000  0.41011000  1.0
  H  H2  1  0.56565000  0.26226000  0.66973000  1.0
  H  H3  1  0.93435000  0.33028000  0.73774000  1.0
  H  H4  1  0.43434000  0.73774000  0.33027000  1.0
  H  H5  1  0.06565000  0.66971000  0.26227000  1.0
  H  H6  1  0.81992000  0.12532000  0.74812000  1.0
  H  H7  1  0.68008000  0.25189000  0.87467000  1.0
  H  H8  1  0.18007000  0.87469000  0.25189000  1.0
  H  H9  1  0.31992000  0.74809000  0.12533000  1.0
  H  H10  1  0.85723000  0.89544000  0.78170000  1.0
  H  H11  1  0.64278000  0.21831000  0.10455000  1.0
  H  H12  1  0.14277000  0.10456000  0.21830000  1.0
  H  H13  1  0.35722000  0.78169000  0.89545000  1.0
  H  H14  1  0.64118000  0.79870000  0.73240000  1.0
  H  H15  1  0.85881000  0.26762000  0.20130000  1.0
  H  H16  1  0.35881000  0.20130000  0.26760000  1.0
  H  H17  1  0.14118000  0.73239000  0.79870000  1.0
  H  H18  1  0.37339000  0.82525000  0.64994000  1.0
  H  H19  1  0.12661000  0.35007000  0.17475000  1.0
  H  H20  1  0.62662000  0.17475000  0.35005000  1.0
  H  H21  1  0.87338000  0.64994000  0.82524000  1.0
  H  H22  1  0.13016000  0.96886000  0.56095000  1.0
  H  H23  1  0.36984000  0.43905000  0.03115000  1.0
  H  H24  1  0.86984000  0.03114000  0.43904000  1.0
  H  H25  1  0.63015000  0.56095000  0.96886000  1.0
  C  C26  1  0.45619000  0.10835000  0.65880000  1.0
  C  C27  1  0.04382000  0.34120000  0.89165000  1.0
  C  C28  1  0.54381000  0.89165000  0.34119000  1.0
  C  C29  1  0.95618000  0.65880000  0.10835000  1.0
  C  C30  1  0.58099000  0.16076000  0.68669000  1.0
  C  C31  1  0.91901000  0.31332000  0.83924000  1.0
  C  C32  1  0.41901000  0.83925000  0.31331000  1.0
  C  C33  1  0.08099000  0.68668000  0.16077000  1.0
  C  C34  1  0.72220000  0.08432000  0.72963000  1.0
  C  C35  1  0.77780000  0.27038000  0.91567000  1.0
  C  C36  1  0.27780000  0.91568000  0.27038000  1.0
  C  C37  1  0.22220000  0.72962000  0.08432000  1.0
  C  C38  1  0.74385000  0.95310000  0.74860000  1.0
  C  C39  1  0.75615000  0.25140000  0.04690000  1.0
  C  C40  1  0.25615000  0.04691000  0.25140000  1.0
  C  C41  1  0.24385000  0.74859000  0.95311000  1.0
  C  C42  1  0.62444000  0.89941000  0.72208000  1.0
  C  C43  1  0.87557000  0.27794000  0.10058000  1.0
  C  C44  1  0.37556000  0.10060000  0.27792000  1.0
  C  C45  1  0.12443000  0.72207000  0.89941000  1.0
  C  C46  1  0.47957000  0.97526000  0.67549000  1.0
  C  C47  1  0.02044000  0.32452000  0.02473000  1.0
  C  C48  1  0.52044000  0.02474000  0.32451000  1.0
  C  C49  1  0.97957000  0.67548000  0.97526000  1.0
  C  C50  1  0.35787000  0.92578000  0.64025000  1.0
  C  C51  1  0.14213000  0.35975000  0.07422000  1.0
  C  C52  1  0.64213000  0.07423000  0.35974000  1.0
  C  C53  1  0.85787000  0.64024000  0.92578000  1.0
  C  C54  1  0.22372000  0.00489000  0.59058000  1.0
  C  C55  1  0.27628000  0.40943000  0.99511000  1.0
  C  C56  1  0.77629000  0.99510000  0.40941000  1.0
  C  C57  1  0.72372000  0.59058000  0.00489000  1.0
  C  C58  1  0.21011000  0.13508000  0.57655000  1.0
  C  C59  1  0.28989000  0.42346000  0.86492000  1.0
  C  C60  1  0.78989000  0.86492000  0.42345000  1.0
  C  C61  1  0.71010000  0.57654000  0.13508000  1.0
  C  C62  1  0.07418000  0.22159000  0.51743000  1.0
  C  C63  1  0.42583000  0.48258000  0.77841000  1.0
  C  C64  1  0.92583000  0.77841000  0.48257000  1.0
  C  C65  1  0.57417000  0.51742000  0.22160000  1.0
  N  N66  1  0.31992000  0.18547000  0.61141000  1.0
  N  N67  1  0.18009000  0.38859000  0.81452000  1.0
  N  N68  1  0.68008000  0.81453000  0.38859000  1.0
  N  N69  1  0.81992000  0.61140000  0.18547000  1.0
  N  N70  1  0.03575000  0.34304000  0.51797000  1.0
  N  N71  1  0.46425000  0.48203000  0.65697000  1.0
  N  N72  1  0.96424000  0.65696000  0.48203000  1.0
  N  N73  1  0.53575000  0.51797000  0.34304000  1.0
  N  N74  1  0.91027000  0.38967000  0.45036000  1.0
  N  N75  1  0.58973000  0.54964000  0.61033000  1.0
  N  N76  1  0.08972000  0.61032000  0.54964000  1.0
  N  N77  1  0.41027000  0.45036000  0.38968000  1.0
  N  N78  1  0.87372000  0.30019000  0.41050000  1.0
  N  N79  1  0.62628000  0.58950000  0.69981000  1.0
  N  N80  1  0.12627000  0.69980000  0.58950000  1.0
  N  N81  1  0.37373000  0.41050000  0.30019000  1.0
  N  N82  1  0.97528000  0.19341000  0.45159000  1.0
  N  N83  1  0.52473000  0.54842000  0.80659000  1.0
  N  N84  1  0.02473000  0.80658000  0.54841000  1.0
  N  N85  1  0.47528000  0.45158000  0.19342000  1.0
