# generated using pymatgen
data_AlH3C12(SO2)3
_symmetry_space_group_name_H-M   'P 1'
_cell_length_a   3.96316000
_cell_length_b   20.14400000
_cell_length_c   20.14400000
_cell_angle_alpha   60.00000000
_cell_angle_beta   89.99990000
_cell_angle_gamma   89.99990000
_symmetry_Int_Tables_number   1
_chemical_formula_structural   AlH3C12(SO2)3
_chemical_formula_sum   'Al2 H6 C24 S6 O12'
_cell_volume   1392.71952184
_cell_formula_units_Z   2
loop_
 _symmetry_equiv_pos_site_id
 _symmetry_equiv_pos_as_xyz
  1  'x, y, z'
loop_
 _atom_site_type_symbol
 _atom_site_label
 _atom_site_symmetry_multiplicity
 _atom_site_fract_x
 _atom_site_fract_y
 _atom_site_fract_z
 _atom_site_occupancy
  Al  Al0  1  0.00183000  0.00000000  0.50000000  1.0
  Al  Al1  1  0.00183000  0.66666000  0.16667000  1.0
  H  H2  1  0.47855000  0.22889000  0.28069000  1.0
  H  H3  1  0.47851000  0.43777000  0.38598000  1.0
  H  H4  1  0.47855000  0.78069000  0.49042000  1.0
  H  H5  1  0.47851000  0.88597000  0.17625000  1.0
  H  H6  1  0.47855000  0.99042000  0.72889000  1.0
  H  H7  1  0.47852000  0.67624000  0.93778000  1.0
  C  C8  1  0.50154000  0.94122000  0.61777000  1.0
  C  C9  1  0.50154000  0.11777000  0.44101000  1.0
  C  C10  1  0.50155000  0.94101000  0.44122000  1.0
  C  C11  1  0.50155000  0.54889000  0.22566000  1.0
  C  C12  1  0.50155000  0.72566000  0.22545000  1.0
  C  C13  1  0.50155000  0.72545000  0.04889000  1.0
  C  C14  1  0.48822000  0.25023000  0.32069000  1.0
  C  C15  1  0.48821000  0.41644000  0.34598000  1.0
  C  C16  1  0.49876000  0.20253000  0.39915000  1.0
  C  C17  1  0.49877000  0.46414000  0.26752000  1.0
  C  C18  1  0.50550000  0.33857000  0.36539000  1.0
  C  C19  1  0.50552000  0.32809000  0.30128000  1.0
  C  C20  1  0.48823000  0.82069000  0.42908000  1.0
  C  C21  1  0.48821000  0.84598000  0.23758000  1.0
  C  C22  1  0.49877000  0.89915000  0.39832000  1.0
  C  C23  1  0.49877000  0.76751000  0.26835000  1.0
  C  C24  1  0.50550000  0.86539000  0.29604000  1.0
  C  C25  1  0.50552000  0.80127000  0.37063000  1.0
  C  C26  1  0.48822000  0.92908000  0.75023000  1.0
  C  C27  1  0.48821000  0.73758000  0.91644000  1.0
  C  C28  1  0.49876000  0.89832000  0.70253000  1.0
  C  C29  1  0.49877000  0.76834000  0.96414000  1.0
  C  C30  1  0.50550000  0.79604000  0.83857000  1.0
  C  C31  1  0.50551000  0.87063000  0.82809000  1.0
  S  S32  1  0.52137000  0.25173000  0.44944000  1.0
  S  S33  1  0.52141000  0.41494000  0.21723000  1.0
  S  S34  1  0.52138000  0.94943000  0.29884000  1.0
  S  S35  1  0.52141000  0.71723000  0.36783000  1.0
  S  S36  1  0.52136000  0.79883000  0.75173000  1.0
  S  S37  1  0.52141000  0.86783000  0.91494000  1.0
  O  O38  1  0.73681000  0.98996000  0.42577000  1.0
  O  O39  1  0.73681000  0.92577000  0.58427000  1.0
  O  O40  1  0.73681000  0.08427000  0.48996000  1.0
  O  O41  1  0.26864000  0.92542000  0.49062000  1.0
  O  O42  1  0.26864000  0.08396000  0.42542000  1.0
  O  O43  1  0.26864000  0.99062000  0.58396000  1.0
  O  O44  1  0.73682000  0.74089000  0.08240000  1.0
  O  O45  1  0.73682000  0.58239000  0.17671000  1.0
  O  O46  1  0.73682000  0.67670000  0.24090000  1.0
  O  O47  1  0.26865000  0.67604000  0.08271000  1.0
  O  O48  1  0.26865000  0.74124000  0.17605000  1.0
  O  O49  1  0.26865000  0.58271000  0.24125000  1.0
