# generated using pymatgen
data_Zn2H22C29(NO4)2
_symmetry_space_group_name_H-M   'P 1'
_cell_length_a   9.48536000
_cell_length_b   9.81877000
_cell_length_c   15.16720000
_cell_angle_alpha   81.36280000
_cell_angle_beta   73.32450000
_cell_angle_gamma   75.45800000
_symmetry_Int_Tables_number   1
_chemical_formula_structural   Zn2H22C29(NO4)2
_chemical_formula_sum   'Zn4 H44 C58 N4 O16'
_cell_volume   1305.17611390
_cell_formula_units_Z   2
loop_
 _symmetry_equiv_pos_site_id
 _symmetry_equiv_pos_as_xyz
  1  'x, y, z'
loop_
 _atom_site_type_symbol
 _atom_site_label
 _atom_site_symmetry_multiplicity
 _atom_site_fract_x
 _atom_site_fract_y
 _atom_site_fract_z
 _atom_site_occupancy
  Zn  Zn0  1  0.25119000  0.90846000  0.30375000  1.0
  Zn  Zn1  1  0.74881000  0.09154000  0.69625000  1.0
  Zn  Zn2  1  0.31329000  0.12741000  0.10192000  1.0
  Zn  Zn3  1  0.68670000  0.87259000  0.89808000  1.0
  H  H4  1  0.78533000  0.08248000  0.10938000  1.0
  H  H5  1  0.21467000  0.91752000  0.89062000  1.0
  H  H6  1  0.14526000  0.05163000  0.48409000  1.0
  H  H7  1  0.85473000  0.94837000  0.51591000  1.0
  H  H8  1  0.22486000  0.46664000  0.27584000  1.0
  H  H9  1  0.77514000  0.53336000  0.72416000  1.0
  H  H10  1  0.56681000  0.19529000  0.95021000  1.0
  H  H11  1  0.43319000  0.80471000  0.04978000  1.0
  H  H12  1  0.55462000  0.65658000  0.81673000  1.0
  H  H13  1  0.44538000  0.34342000  0.18327000  1.0
  H  H14  1  0.37839000  0.75571000  0.87274000  1.0
  H  H15  1  0.62160000  0.24428000  0.12726000  1.0
  H  H16  1  0.26106000  0.70907000  0.75666000  1.0
  H  H17  1  0.73894000  0.29093000  0.24333000  1.0
  H  H18  1  0.43028000  0.59176000  0.70465000  1.0
  H  H19  1  0.56972000  0.40824000  0.29535000  1.0
  H  H20  1  0.21200000  0.01894000  0.63250000  1.0
  H  H21  1  0.78800000  0.98106000  0.36750000  1.0
  H  H22  1  0.69911000  0.66666667  0.19984000  1.0
  H  H23  1  0.30089000  0.33333333  0.80017000  1.0
  H  H24  1  0.12237000  0.40063000  0.05583000  1.0
  H  H25  1  0.87764000  0.59937000  0.94417000  1.0
  H  H26  1  0.14864000  0.73741000  0.14558000  1.0
  H  H27  1  0.85136000  0.26259000  0.85442000  1.0
  H  H28  1  0.62101000  0.40319000  0.84220000  1.0
  H  H29  1  0.37899000  0.59681000  0.15780000  1.0
  H  H30  1  0.97384000  0.57184000  0.18600000  1.0
  H  H31  1  0.02616000  0.42816000  0.81400000  1.0
  H  H32  1  0.16243000  0.62447000  0.95678000  1.0
  H  H33  1  0.83757000  0.37553000  0.04322000  1.0
  H  H34  1  0.82608000  0.68130000  0.46131000  1.0
  H  H35  1  0.17392000  0.31871000  0.53869000  1.0
  H  H36  1  0.49934000  0.72537000  0.37668000  1.0
  H  H37  1  0.50066000  0.27463000  0.62332000  1.0
  H  H38  1  0.39997000  0.90720000  0.72009000  1.0
  H  H39  1  0.60003000  0.09280000  0.27991000  1.0
  H  H40  1  0.56807000  0.78882000  0.66880000  1.0
  H  H41  1  0.43193000  0.21118000  0.33120000  1.0
  H  H42  1  0.57849000  0.67459000  0.52429000  1.0
  H  H43  1  0.42151000  0.32541000  0.47571000  1.0
  H  H44  1  0.87103000  0.24741000  0.41249000  1.0
  H  H45  1  0.12897000  0.75259000  0.58751000  1.0
  H  H46  1  0.71981000  0.46254000  0.49094000  1.0
  H  H47  1  0.28019000  0.53746000  0.50906000  1.0
  C  C48  1  0.56090000  0.93740000  0.16135000  1.0
  C  C49  1  0.43910000  0.06260000  0.83865000  1.0
  C  C50  1  0.39743000  0.53331000  0.89236000  1.0
  C  C51  1  0.60257000  0.46669000  0.10764000  1.0
  C  C52  1  0.14346000  0.21901000  0.28603000  1.0
  C  C53  1  0.85655000  0.78099000  0.71398000  1.0
  C  C54  1  0.05598000  0.34413000  0.33842000  1.0
  C  C55  1  0.94402000  0.65587000  0.66159000  1.0
  C  C56  1  0.72466000  0.88021000  0.15501000  1.0
  C  C57  1  0.27534000  0.11979000  0.84499000  1.0
  C  C58  1  0.82452000  0.97093000  0.12830000  1.0
  C  C59  1  0.17548000  0.02907000  0.87170000  1.0
  C  C60  1  0.97602000  0.92102000  0.12813000  1.0
  C  C61  1  0.02398000  0.07898000  0.87187000  1.0
  C  C62  1  0.07445000  0.02487000  0.11190000  1.0
  C  C63  1  0.92555000  0.97513000  0.88810000  1.0
  C  C64  1  0.24210000  0.97028000  0.49475000  1.0
  C  C65  1  0.75790000  0.02972000  0.50525000  1.0
  C  C66  1  0.11466000  0.46543000  0.32339000  1.0
  C  C67  1  0.88534000  0.53456000  0.67661000  1.0
  C  C68  1  0.03223000  0.58579000  0.36847000  1.0
  C  C69  1  0.96778000  0.41421000  0.63153000  1.0
  C  C70  1  0.47972000  0.29160000  0.94892000  1.0
  C  C71  1  0.52028000  0.70840000  0.05108000  1.0
  C  C72  1  0.43268000  0.66310000  0.83304000  1.0
  C  C73  1  0.56732000  0.33690000  0.16696000  1.0
  C  C74  1  0.38486000  0.68765000  0.74231000  1.0
  C  C75  1  0.61514000  0.31235000  0.25769000  1.0
  C  C76  1  0.28056000  0.95054000  0.57841000  1.0
  C  C77  1  0.71944000  0.04945000  0.42159000  1.0
  C  C78  1  0.77816000  0.73650000  0.17809000  1.0
  C  C79  1  0.22183000  0.26350000  0.82192000  1.0
  C  C80  1  0.23134000  0.40837000  0.00834000  1.0
  C  C81  1  0.76866000  0.59163000  0.99166000  1.0
  C  C82  1  0.03012000  0.77611000  0.14701000  1.0
  C  C83  1  0.96988000  0.22389000  0.85299000  1.0
  C  C84  1  0.40237000  0.84241000  0.59176000  1.0
  C  C85  1  0.59763000  0.15759000  0.40824000  1.0
  C  C86  1  0.50970000  0.40930000  0.89012000  1.0
  C  C87  1  0.49030000  0.59070000  0.10988000  1.0
  C  C88  1  0.93155000  0.68423000  0.17061000  1.0
  C  C89  1  0.06844000  0.31577000  0.82939000  1.0
  C  C90  1  0.25451000  0.53092000  0.95276000  1.0
  C  C91  1  0.74549000  0.46908000  0.04724000  1.0
  C  C92  1  0.88862000  0.58535000  0.42779000  1.0
  C  C93  1  0.11138000  0.41465000  0.57221000  1.0
  C  C94  1  0.43871000  0.78627000  0.43597000  1.0
  C  C95  1  0.56129000  0.21373000  0.56403000  1.0
  C  C96  1  0.44442000  0.81245000  0.68184000  1.0
  C  C97  1  0.55558000  0.18755000  0.31816000  1.0
  C  C98  1  0.48205000  0.75960000  0.51788000  1.0
  C  C99  1  0.51794000  0.24040000  0.48212000  1.0
  C  C100  1  0.91435000  0.34305000  0.40008000  1.0
  C  C101  1  0.08565000  0.65695000  0.59992000  1.0
  C  C102  1  0.83039000  0.46436000  0.44356000  1.0
  C  C103  1  0.16961000  0.53564000  0.55644000  1.0
  C  C104  1  0.09294000  0.71642000  0.35265000  1.0
  C  C105  1  0.90706000  0.28358000  0.64735000  1.0
  N  N106  1  0.34259000  0.29113000  0.00738000  1.0
  N  N107  1  0.65742000  0.70887000  0.99262000  1.0
  N  N108  1  0.31968000  0.88968000  0.42452000  1.0
  N  N109  1  0.68032000  0.11032000  0.57548000  1.0
  O  O110  1  0.52752000  0.03664000  0.10089000  1.0
  O  O111  1  0.47248000  0.96336000  0.89911000  1.0
  O  O112  1  0.46787000  0.88331000  0.22637000  1.0
  O  O113  1  0.53213000  0.11669000  0.77363000  1.0
  O  O114  1  0.11467000  0.09862000  0.31877000  1.0
  O  O115  1  0.88533000  0.90138000  0.68123000  1.0
  O  O116  1  0.24149000  0.24277000  0.21147000  1.0
  O  O117  1  0.75851000  0.75723000  0.78853000  1.0
  O  O118  1  0.22643000  0.71326000  0.29689000  1.0
  O  O119  1  0.77357000  0.28674000  0.70311000  1.0
  O  O120  1  0.01580000  0.82484000  0.39200000  1.0
  O  O121  1  0.98420000  0.17516000  0.60800000  1.0
  O  O122  1  0.21349000  0.97086000  0.11669000  1.0
  O  O123  1  0.78651000  0.02914000  0.88331000  1.0
  O  O124  1  0.02442000  0.15448000  0.09782000  1.0
  O  O125  1  0.97558000  0.84552000  0.90218000  1.0
