# generated using pymatgen
data_Zn6H23C62I4(O8F3)3
_symmetry_space_group_name_H-M   'P 1'
_cell_length_a   18.47140000
_cell_length_b   18.79990000
_cell_length_c   18.84700000
_cell_angle_alpha   109.93100000
_cell_angle_beta   108.86700000
_cell_angle_gamma   109.07800000
_symmetry_Int_Tables_number   1
_chemical_formula_structural   Zn6H23C62I4(O8F3)3
_chemical_formula_sum   'Zn6 H23 C62 I4 O24 F9'
_cell_volume   5070.98931939
_cell_formula_units_Z   1
loop_
 _symmetry_equiv_pos_site_id
 _symmetry_equiv_pos_as_xyz
  1  'x, y, z'
loop_
 _atom_site_type_symbol
 _atom_site_label
 _atom_site_symmetry_multiplicity
 _atom_site_fract_x
 _atom_site_fract_y
 _atom_site_fract_z
 _atom_site_occupancy
  Zn  Zn0  1  0.00257000  0.44262000  0.94020000  1.0
  Zn  Zn1  1  0.00110000  0.56573000  0.06685000  1.0
  Zn  Zn2  1  0.56181000  0.00070000  0.05668000  1.0
  Zn  Zn3  1  0.43151000  0.99802000  0.93425000  1.0
  Zn  Zn4  1  0.43978000  0.43660000  0.50459000  1.0
  Zn  Zn5  1  0.56382000  0.56548000  0.50501000  1.0
  H  H6  1  0.73322000  0.39725000  0.57684000  1.0
  H  H7  1  0.75640000  0.34271000  0.71587000  1.0
  H  H8  1  0.84286000  0.39966000  0.70010000  1.0
  H  H9  1  0.28197000  0.72021000  0.13219000  1.0
  H  H10  1  0.40572000  0.84016000  0.14811000  1.0
  H  H11  1  0.20551000  0.74929000  0.82035000  1.0
  H  H12  1  0.26453000  0.69282000  0.80105000  1.0
  H  H13  1  0.14922000  0.56220000  0.78653000  1.0
  H  H14  1  0.22690000  0.64618000  0.31876000  1.0
  H  H15  1  0.76811000  0.26831000  0.81618000  1.0
  H  H16  1  0.21008000  0.39846000  0.05442000  1.0
  H  H17  1  0.33008000  0.11614000  0.10878000  1.0
  H  H18  1  0.67257000  0.43211000  0.35915000  1.0
  H  H19  1  0.68413000  0.37365000  0.41647000  1.0
  H  H20  1  0.63846000  0.13970000  0.67994000  1.0
  H  H21  1  0.43615000  0.83521000  0.69128000  1.0
  H  H22  1  0.44460000  0.71559000  0.59229000  1.0
  H  H23  1  0.52062000  0.61340000  0.82380000  1.0
  H  H24  1  0.40986000  0.68220000  0.88478000  1.0
  H  H25  1  0.52623000  0.74326000  0.93062000  1.0
  H  H26  1  0.78496000  0.23522000  0.12343000  1.0
  H  H27  1  0.84306000  0.66585000  0.92854000  1.0
  H  H28  1  0.64694000  0.34248000  0.59428000  1.0
  C  C29  1  0.89629000  0.54202000  0.91753000  1.0
  C  C30  1  0.74206000  0.22007000  0.89977000  1.0
  C  C31  1  0.81793000  0.29254000  0.97844000  1.0
  C  C32  1  0.83147000  0.29390000  0.05549000  1.0
  C  C33  1  0.77250000  0.22881000  0.06038000  1.0
  C  C34  1  0.69766000  0.15883000  0.98590000  1.0
  C  C35  1  0.79426000  0.48136000  0.76210000  1.0
  C  C36  1  0.83496000  0.54674000  0.84787000  1.0
  C  C37  1  0.81317000  0.61369000  0.86241000  1.0
  C  C38  1  0.75384000  0.61371000  0.79351000  1.0
  C  C39  1  0.71243000  0.54703000  0.70677000  1.0
  C  C40  1  0.88390000  0.36468000  0.97859000  1.0
  C  C41  1  0.73454000  0.48142000  0.69443000  1.0
  C  C42  1  0.71481000  0.39505000  0.62627000  1.0
  C  C43  1  0.78344000  0.39563000  0.70330000  1.0
  C  C44  1  0.20806000  0.66511000  0.92260000  1.0
  C  C45  1  0.20698000  0.65783000  0.99330000  1.0
  C  C46  1  0.28033000  0.72297000  0.07487000  1.0
  C  C47  1  0.34968000  0.79124000  0.08399000  1.0
  C  C48  1  0.34668000  0.80138000  0.01258000  1.0
  C  C49  1  0.27404000  0.73654000  0.93199000  1.0
  C  C50  1  0.22923000  0.70739000  0.83614000  1.0
  C  C51  1  0.11811000  0.52748000  0.14274000  1.0
  C  C52  1  0.15702000  0.62524000  0.82611000  1.0
  C  C53  1  0.21840000  0.46791000  0.18188000  1.0
  C  C54  1  0.19317000  0.53057000  0.20710000  1.0
  C  C55  1  0.24340000  0.59565000  0.29441000  1.0
  C  C56  1  0.31506000  0.59640000  0.35108000  1.0
  C  C57  1  0.34069000  0.53362000  0.32737000  1.0
  C  C58  1  0.28826000  0.46903000  0.24056000  1.0
  C  C59  1  0.27616000  0.38766000  0.17331000  1.0
  C  C60  1  0.19879000  0.38858000  0.10490000  1.0
  C  C61  1  0.47276000  0.11384000  0.09025000  1.0
  C  C62  1  0.12997000  0.59093000  0.98592000  1.0
  C  C63  1  0.63091000  0.10103000  0.99855000  1.0
  C  C64  1  0.45653000  0.87212000  0.85280000  1.0
  C  C65  1  0.41284000  0.88013000  0.02237000  1.0
  C  C66  1  0.46031000  0.58478000  0.60892000  1.0
  C  C67  1  0.64359000  0.53874000  0.63053000  1.0
  C  C68  1  0.47883000  0.36542000  0.38453000  1.0
  C  C69  1  0.41164000  0.53025000  0.39084000  1.0
  C  C70  1  0.54917000  0.24935000  0.23481000  1.0
  C  C71  1  0.47159000  0.17848000  0.16207000  1.0
  C  C72  1  0.39369000  0.16930000  0.16330000  1.0
  C  C73  1  0.72391000  0.21540000  0.81857000  1.0
  C  C74  1  0.39628000  0.22695000  0.23583000  1.0
  C  C75  1  0.47415000  0.30015000  0.30862000  1.0
  C  C76  1  0.55009000  0.30944000  0.30356000  1.0
  C  C77  1  0.64924000  0.36771000  0.35346000  1.0
  C  C78  1  0.64842000  0.29861000  0.27694000  1.0
  C  C79  1  0.45165000  0.72822000  0.80254000  1.0
  C  C80  1  0.44728000  0.79403000  0.78626000  1.0
  C  C81  1  0.44022000  0.78539000  0.70679000  1.0
  C  C82  1  0.44408000  0.71741000  0.65051000  1.0
  C  C83  1  0.44881000  0.65111000  0.66739000  1.0
  C  C84  1  0.65277000  0.14404000  0.74256000  1.0
  C  C85  1  0.44926000  0.65703000  0.74329000  1.0
  C  C86  1  0.46168000  0.61992000  0.80276000  1.0
  C  C87  1  0.46360000  0.69964000  0.86978000  1.0
  C  C88  1  0.59892000  0.07372000  0.74538000  1.0
  C  C89  1  0.61397000  0.07627000  0.82307000  1.0
  C  C90  1  0.68270000  0.15070000  0.90332000  1.0
  I  I91  1  0.02441000  0.60655000  0.77486000  1.0
  I  I92  1  0.38786000  0.40172000  0.15132000  1.0
  I  I93  1  0.35468000  0.49386000  0.75828000  1.0
  I  I94  1  0.72097000  0.71372000  0.82244000  1.0
  O  O95  1  0.91665000  0.48323000  0.89213000  1.0
  O  O96  1  0.41411000  0.08232000  0.01197000  1.0
  O  O97  1  0.65950000  0.07657000  0.05262000  1.0
  O  O98  1  0.55248000  0.08490000  0.95915000  1.0
  O  O99  1  0.51432000  0.90265000  0.92999000  1.0
  O  O100  1  0.40645000  0.90316000  0.82892000  1.0
  O  O101  1  0.49440000  0.91372000  0.07751000  1.0
  O  O102  1  0.38346000  0.90885000  0.97443000  1.0
  O  O103  1  0.41542000  0.50466000  0.58701000  1.0
  O  O104  1  0.51431000  0.61229000  0.58418000  1.0
  O  O105  1  0.56644000  0.47781000  0.59778000  1.0
  O  O106  1  0.92442000  0.59464000  0.99762000  1.0
  O  O107  1  0.66747000  0.59015000  0.60191000  1.0
  O  O108  1  0.42623000  0.33852000  0.41207000  1.0
  O  O109  1  0.53685000  0.44375000  0.41760000  1.0
  O  O110  1  0.38516000  0.47329000  0.41118000  1.0
  O  O111  1  0.49174000  0.58361000  0.41815000  1.0
  O  O112  1  0.91275000  0.34149000  0.92580000  1.0
  O  O113  1  0.90671000  0.44194000  0.02989000  1.0
  O  O114  1  0.08775000  0.47242000  0.06446000  1.0
  O  O115  1  0.09032000  0.58015000  0.16959000  1.0
  O  O116  1  0.09570000  0.51136000  0.92669000  1.0
  O  O117  1  0.10300000  0.61696000  0.03811000  1.0
  O  O118  1  0.53301000  0.09496000  0.11367000  1.0
  F  F119  1  0.90462000  0.35977000  0.13085000  1.0
  F  F120  1  0.36119000  0.66132000  0.43508000  1.0
  F  F121  1  0.24877000  0.31613000  0.18326000  1.0
  F  F122  1  0.11760000  0.31534000  0.06527000  1.0
  F  F123  1  0.31858000  0.21144000  0.23349000  1.0
  F  F124  1  0.68226000  0.32963000  0.23159000  1.0
  F  F125  1  0.69178000  0.25629000  0.30070000  1.0
  F  F126  1  0.53180000  0.00088000  0.67053000  1.0
  F  F127  1  0.56318000  0.00329000  0.81991000  1.0
