# generated using pymatgen
data_HgH8C10(NCl)2
_symmetry_space_group_name_H-M   'P 1'
_cell_length_a   7.40178000
_cell_length_b   9.32778000
_cell_length_c   9.47212000
_cell_angle_alpha   119.41900000
_cell_angle_beta   106.06900000
_cell_angle_gamma   90.16330000
_symmetry_Int_Tables_number   1
_chemical_formula_structural   HgH8C10(NCl)2
_chemical_formula_sum   'Hg2 H16 C20 N4 Cl4'
_cell_volume   539.80988853
_cell_formula_units_Z   2
loop_
 _symmetry_equiv_pos_site_id
 _symmetry_equiv_pos_as_xyz
  1  'x, y, z'
loop_
 _atom_site_type_symbol
 _atom_site_label
 _atom_site_symmetry_multiplicity
 _atom_site_fract_x
 _atom_site_fract_y
 _atom_site_fract_z
 _atom_site_occupancy
  Hg  Hg0  1  0.25027000  0.08096000  0.99995000  1.0
  Hg  Hg1  1  0.74973000  0.91904000  0.00005000  1.0
  H  H2  1  0.58215000  0.35435000  0.34801000  1.0
  H  H3  1  0.91849000  0.00548000  0.65205000  1.0
  H  H4  1  0.41785000  0.64565000  0.65199000  1.0
  H  H5  1  0.08150000  0.99452000  0.34795000  1.0
  H  H6  1  0.71107000  0.66489000  0.52714000  1.0
  H  H7  1  0.78886000  0.13675000  0.47302000  1.0
  H  H8  1  0.28893000  0.33511000  0.47285000  1.0
  H  H9  1  0.21113000  0.86325000  0.52698000  1.0
  H  H10  1  0.58007000  0.84435000  0.40572000  1.0
  H  H11  1  0.91933000  0.43806000  0.59450000  1.0
  H  H12  1  0.41992000  0.15564000  0.59428000  1.0
  H  H13  1  0.08067000  0.56195000  0.40550000  1.0
  H  H14  1  0.33866000  0.71506000  0.12179000  1.0
  H  H15  1  0.16091000  0.59319000  0.87830000  1.0
  H  H16  1  0.66134000  0.28494000  0.87821000  1.0
  H  H17  1  0.83909000  0.40681000  0.12170000  1.0
  C  C18  1  0.53108000  0.44059000  0.30515000  1.0
  C  C19  1  0.96933000  0.13471000  0.69487000  1.0
  C  C20  1  0.46892000  0.55941000  0.69485000  1.0
  C  C21  1  0.03066000  0.86529000  0.30513000  1.0
  C  C22  1  0.60144000  0.61122000  0.40254000  1.0
  C  C23  1  0.89855000  0.20789000  0.59756000  1.0
  C  C24  1  0.39856000  0.38878000  0.59745000  1.0
  C  C25  1  0.10144000  0.79211000  0.40244000  1.0
  C  C26  1  0.52999000  0.71023000  0.33481000  1.0
  C  C27  1  0.96974000  0.37488000  0.66534000  1.0
  C  C28  1  0.47001000  0.28977000  0.66519000  1.0
  C  C29  1  0.03026000  0.62512000  0.33466000  1.0
  C  C30  1  0.39249000  0.63690000  0.17417000  1.0
  C  C31  1  0.10734000  0.46246000  0.82589000  1.0
  C  C32  1  0.60751000  0.36310000  0.82583000  1.0
  C  C33  1  0.89266000  0.53754000  0.17411000  1.0
  C  C34  1  0.32542000  0.46505000  0.08498000  1.0
  C  C35  1  0.17482000  0.37990000  0.91502000  1.0
  C  C36  1  0.67458000  0.53495000  0.91502000  1.0
  C  C37  1  0.82518000  0.62010000  0.08498000  1.0
  N  N38  1  0.39608000  0.37104000  0.15208000  1.0
  N  N39  1  0.10447000  0.21854000  0.84785000  1.0
  N  N40  1  0.60392000  0.62896000  0.84792000  1.0
  N  N41  1  0.89553000  0.78146000  0.15215000  1.0
  Cl  Cl42  1  0.48916000  0.01809000  0.20807000  1.0
  Cl  Cl43  1  0.01067000  0.80969000  0.79233000  1.0
  Cl  Cl44  1  0.51084000  0.98191000  0.79193000  1.0
  Cl  Cl45  1  0.98933000  0.19031000  0.20767000  1.0
