# generated using pymatgen
data_AgH12C10N2O2F3
_symmetry_space_group_name_H-M   'P 1'
_cell_length_a   8.90998000
_cell_length_b   9.08989000
_cell_length_c   9.44522000
_cell_angle_alpha   117.17700000
_cell_angle_beta   115.99200000
_cell_angle_gamma   91.94180000
_symmetry_Int_Tables_number   1
_chemical_formula_structural   AgH12C10N2O2F3
_chemical_formula_sum   'Ag2 H24 C20 N4 O4 F6'
_cell_volume   584.90131968
_cell_formula_units_Z   2
loop_
 _symmetry_equiv_pos_site_id
 _symmetry_equiv_pos_as_xyz
  1  'x, y, z'
loop_
 _atom_site_type_symbol
 _atom_site_label
 _atom_site_symmetry_multiplicity
 _atom_site_fract_x
 _atom_site_fract_y
 _atom_site_fract_z
 _atom_site_occupancy
  Ag  Ag0  1  0.39035000  0.88752000  0.73197000  1.0
  Ag  Ag1  1  0.60965000  0.11248000  0.26803000  1.0
  H  H2  1  0.07866000  0.45763000  0.20262000  1.0
  H  H3  1  0.92134000  0.54237000  0.79738000  1.0
  H  H4  1  0.16919000  0.67724000  0.38932000  1.0
  H  H5  1  0.83081000  0.32275000  0.61068000  1.0
  H  H6  1  0.21530000  0.60730000  0.20735000  1.0
  H  H7  1  0.78470000  0.39269000  0.79265000  1.0
  H  H8  1  0.86689000  0.76781000  0.92388000  1.0
  H  H9  1  0.13311000  0.23219000  0.07612000  1.0
  H  H10  1  0.71224000  0.88867000  0.89970000  1.0
  H  H11  1  0.28776000  0.11133000  0.10030000  1.0
  H  H12  1  0.69788000  0.74010000  0.96886000  1.0
  H  H13  1  0.30212000  0.25990000  0.03114000  1.0
  H  H14  1  0.29840000  0.98552000  0.36463000  1.0
  H  H15  1  0.70160000  0.01448000  0.63537000  1.0
  H  H16  1  0.42387000  0.06482000  0.60676000  1.0
  H  H17  1  0.57613000  0.93518000  0.39324000  1.0
  H  H18  1  0.34788000  0.20700000  0.52945000  1.0
  H  H19  1  0.65212000  0.79300000  0.47054000  1.0
  H  H20  1  0.91529000  0.72935000  0.62945000  1.0
  H  H21  1  0.08470000  0.27065000  0.37054000  1.0
  H  H22  1  0.13435000  0.86163000  0.80121000  1.0
  H  H23  1  0.86565000  0.13836000  0.19879000  1.0
  H  H24  1  0.95522000  0.93939000  0.81019000  1.0
  H  H25  1  0.04477000  0.06061000  0.18980000  1.0
  C  C26  1  0.67301000  0.26561000  0.00734000  1.0
  C  C27  1  0.32699000  0.73439000  0.99266000  1.0
  C  C28  1  0.72418000  0.45838000  0.16382000  1.0
  C  C29  1  0.27582000  0.54162000  0.83618000  1.0
  C  C30  1  0.35225000  0.53170000  0.40264000  1.0
  C  C31  1  0.64775000  0.46830000  0.59736000  1.0
  C  C32  1  0.61080000  0.62470000  0.68093000  1.0
  C  C33  1  0.38920000  0.37530000  0.31907000  1.0
  C  C34  1  0.19516000  0.56989000  0.29502000  1.0
  C  C35  1  0.80484000  0.43011000  0.70498000  1.0
  C  C36  1  0.72963000  0.76276000  0.87902000  1.0
  C  C37  1  0.27037000  0.23724000  0.12098000  1.0
  C  C38  1  0.15037000  0.03622000  0.50138000  1.0
  C  C39  1  0.84963000  0.96377000  0.49862000  1.0
  C  C40  1  0.00160000  0.93421000  0.60382000  1.0
  C  C41  1  0.99840000  0.06579000  0.39618000  1.0
  C  C42  1  0.31388000  0.07530000  0.50070000  1.0
  C  C43  1  0.68612000  0.92470000  0.49930000  1.0
  C  C44  1  0.00221000  0.86241000  0.71794000  1.0
  C  C45  1  0.99779000  0.13759000  0.28206000  1.0
  N  N46  1  0.46365000  0.65284000  0.58259000  1.0
  N  N47  1  0.53635000  0.34716000  0.41741000  1.0
  N  N48  1  0.14913000  0.97041000  0.60324000  1.0
  N  N49  1  0.85087000  0.02959000  0.39676000  1.0
  O  O50  1  0.57092000  0.16249000  0.00559000  1.0
  O  O51  1  0.42908000  0.83751000  0.99442000  1.0
  O  O52  1  0.73902000  0.23466000  0.90854000  1.0
  O  O53  1  0.26098000  0.76534000  0.09147000  1.0
  F  F54  1  0.58515000  0.50577000  0.17799000  1.0
  F  F55  1  0.41485000  0.49423000  0.82201000  1.0
  F  F56  1  0.84328000  0.48295000  0.33275000  1.0
  F  F57  1  0.15672000  0.51705000  0.66726000  1.0
  F  F58  1  0.79858000  0.57384000  0.14222000  1.0
  F  F59  1  0.20143000  0.42616000  0.85778000  1.0
