# generated using pymatgen
data_ZnH14C22N2O9
_symmetry_space_group_name_H-M   'P 1'
_cell_length_a   9.75194000
_cell_length_b   10.17010000
_cell_length_c   11.28450000
_cell_angle_alpha   87.12320000
_cell_angle_beta   72.00810000
_cell_angle_gamma   64.69690000
_symmetry_Int_Tables_number   1
_chemical_formula_structural   ZnH14C22N2O9
_chemical_formula_sum   'Zn2 H28 C44 N4 O18'
_cell_volume   957.95736093
_cell_formula_units_Z   2
loop_
 _symmetry_equiv_pos_site_id
 _symmetry_equiv_pos_as_xyz
  1  'x, y, z'
loop_
 _atom_site_type_symbol
 _atom_site_label
 _atom_site_symmetry_multiplicity
 _atom_site_fract_x
 _atom_site_fract_y
 _atom_site_fract_z
 _atom_site_occupancy
  Zn  Zn0  1  0.53085000  0.64389000  0.76029000  1.0
  Zn  Zn1  1  0.46915000  0.35611000  0.23971000  1.0
  H  H2  1  0.19583000  0.83204000  0.97032000  1.0
  H  H3  1  0.80417000  0.16796000  0.02968000  1.0
  H  H4  1  0.06305000  0.08295000  0.08159000  1.0
  H  H5  1  0.93695000  0.91705000  0.91840000  1.0
  H  H6  1  0.20735000  0.24328000  0.02831000  1.0
  H  H7  1  0.79265000  0.75673000  0.97169000  1.0
  H  H8  1  0.45935000  0.26852000  0.90959000  1.0
  H  H9  1  0.54065000  0.73148000  0.09041000  1.0
  H  H10  1  0.73343000  0.15870000  0.75809000  1.0
  H  H11  1  0.26657000  0.84130000  0.24192000  1.0
  H  H12  1  0.96125000  0.94359000  0.61050000  1.0
  H  H13  1  0.03875000  0.05641000  0.38950000  1.0
  H  H14  1  0.06199000  0.69087000  0.51229000  1.0
  H  H15  1  0.93802000  0.30913000  0.48771000  1.0
  H  H16  1  0.87783000  0.56590000  0.56805000  1.0
  H  H17  1  0.12217000  0.43410000  0.43195000  1.0
  H  H18  1  0.66226000  0.75219000  0.38820000  1.0
  H  H19  1  0.33774000  0.24782000  0.61180000  1.0
  H  H20  1  0.99524000  0.24763000  0.77865000  1.0
  H  H21  1  0.00476000  0.75237000  0.22135000  1.0
  H  H22  1  0.02448000  0.50440000  0.77503000  1.0
  H  H23  1  0.97552000  0.49560000  0.22497000  1.0
  H  H24  1  0.66864000  0.39997000  0.34683000  1.0
  H  H25  1  0.33136000  0.60003000  0.65318000  1.0
  H  H26  1  0.73566000  0.38121000  0.73023000  1.0
  H  H27  1  0.26434000  0.61879000  0.26977000  1.0
  H  H28  1  0.67594000  0.37376000  0.61269000  1.0
  H  H29  1  0.32406000  0.62624000  0.38730000  1.0
  C  C30  1  0.25243000  0.90603000  0.94716000  1.0
  C  C31  1  0.74757000  0.09397000  0.05284000  1.0
  C  C32  1  0.17913000  0.04712000  0.00919000  1.0
  C  C33  1  0.82087000  0.95288000  0.99080000  1.0
  C  C34  1  0.25904000  0.13452000  0.98040000  1.0
  C  C35  1  0.74096000  0.86548000  0.01960000  1.0
  C  C36  1  0.50803000  0.16069000  0.86031000  1.0
  C  C37  1  0.49197000  0.83931000  0.13969000  1.0
  C  C38  1  0.65968000  0.09981000  0.77732000  1.0
  C  C39  1  0.34032000  0.90019000  0.22267000  1.0
  C  C40  1  0.88473000  0.88702000  0.63116000  1.0
  C  C41  1  0.11527000  0.11297000  0.36884000  1.0
  C  C42  1  0.94111000  0.74671000  0.57736000  1.0
  C  C43  1  0.05889000  0.25329000  0.42264000  1.0
  C  C44  1  0.84020000  0.67607000  0.60805000  1.0
  C  C45  1  0.15980000  0.32393000  0.39195000  1.0
  C  C46  1  0.41313000  0.08075000  0.89065000  1.0
  C  C47  1  0.58687000  0.91925000  0.10935000  1.0
  C  C48  1  0.72767000  0.95595000  0.71597000  1.0
  C  C49  1  0.27233000  0.04405000  0.28403000  1.0
  C  C50  1  0.47711000  0.93740000  0.83256000  1.0
  C  C51  1  0.52289000  0.06260000  0.16744000  1.0
  C  C52  1  0.63563000  0.87518000  0.74272000  1.0
  C  C53  1  0.36437000  0.12481000  0.25728000  1.0
  C  C54  1  0.59019000  0.86087000  0.43799000  1.0
  C  C55  1  0.40981000  0.13914000  0.56202000  1.0
  C  C56  1  0.43843000  0.89452000  0.52253000  1.0
  C  C57  1  0.56158000  0.10548000  0.47747000  1.0
  C  C58  1  0.38022000  0.77695000  0.53583000  1.0
  C  C59  1  0.61978000  0.22305000  0.46417000  1.0
  C  C60  1  0.34699000  0.03596000  0.58518000  1.0
  C  C61  1  0.65302000  0.96404000  0.41482000  1.0
  C  C62  1  0.18364000  0.07678000  0.67603000  1.0
  C  C63  1  0.81637000  0.92323000  0.32396000  1.0
  C  C64  1  0.77172000  0.46134000  0.90366000  1.0
  C  C65  1  0.22828000  0.53866000  0.09634000  1.0
  C  C66  1  0.88870000  0.47683000  0.95782000  1.0
  C  C67  1  0.11130000  0.52317000  0.04218000  1.0
  C  C68  1  0.01293000  0.50145000  0.87407000  1.0
  C  C69  1  0.98707000  0.49855000  0.12593000  1.0
  C  C70  1  0.87643000  0.47532000  0.08552000  1.0
  C  C71  1  0.12357000  0.52468000  0.91448000  1.0
  C  C72  1  0.74955000  0.44428000  0.17732000  1.0
  C  C73  1  0.25045000  0.55572000  0.82268000  1.0
  N  N74  1  0.39628000  0.85363000  0.86087000  1.0
  N  N75  1  0.60372000  0.14636000  0.13913000  1.0
  N  N76  1  0.69249000  0.73838000  0.68844000  1.0
  N  N77  1  0.30751000  0.26161000  0.31156000  1.0
  O  O78  1  0.42441000  0.67926000  0.61167000  1.0
  O  O79  1  0.57559000  0.32074000  0.38833000  1.0
  O  O80  1  0.64872000  0.57624000  0.90674000  1.0
  O  O81  1  0.35128000  0.42375000  0.09326000  1.0
  O  O82  1  0.65722000  0.41466000  0.13954000  1.0
  O  O83  1  0.34278000  0.58535000  0.86046000  1.0
  O  O84  1  0.81444000  0.33690000  0.84733000  1.0
  O  O85  1  0.18556000  0.66310000  0.15266000  1.0
  O  O86  1  0.30497000  0.77178000  0.46596000  1.0
  O  O87  1  0.69503000  0.22822000  0.53403000  1.0
  O  O88  1  0.11050000  0.21694000  0.72033000  1.0
  O  O89  1  0.88950000  0.78306000  0.27967000  1.0
  O  O90  1  0.12460000  0.98948000  0.70592000  1.0
  O  O91  1  0.87540000  0.01052000  0.29408000  1.0
  O  O92  1  0.74568000  0.44759000  0.29436000  1.0
  O  O93  1  0.25432000  0.55241000  0.70564000  1.0
  O  O94  1  0.69105000  0.43925000  0.66568000  1.0
  O  O95  1  0.30895000  0.56075000  0.33432000  1.0
