# generated using pymatgen
data_SnH17C12ClO3
_symmetry_space_group_name_H-M   'P 1'
_cell_length_a   9.78645000
_cell_length_b   12.08240000
_cell_length_c   12.63810000
_cell_angle_alpha   69.51300000
_cell_angle_beta   89.99980000
_cell_angle_gamma   89.99910000
_symmetry_Int_Tables_number   1
_chemical_formula_structural   SnH17C12ClO3
_chemical_formula_sum   'Sn4 H68 C48 Cl4 O12'
_cell_volume   1399.86009440
_cell_formula_units_Z   4
loop_
 _symmetry_equiv_pos_site_id
 _symmetry_equiv_pos_as_xyz
  1  'x, y, z'
loop_
 _atom_site_type_symbol
 _atom_site_label
 _atom_site_symmetry_multiplicity
 _atom_site_fract_x
 _atom_site_fract_y
 _atom_site_fract_z
 _atom_site_occupancy
  Sn  Sn0  1  0.64732000  0.27868000  0.54579000  1.0
  Sn  Sn1  1  0.14732000  0.22132000  0.45421000  1.0
  Sn  Sn2  1  0.35268000  0.72132000  0.45421000  1.0
  Sn  Sn3  1  0.85269000  0.77869000  0.54578000  1.0
  H  H4  1  0.59390000  0.07621000  0.50514000  1.0
  H  H5  1  0.09389000  0.42379000  0.49484000  1.0
  H  H6  1  0.40608000  0.92379000  0.49485000  1.0
  H  H7  1  0.90611000  0.57621000  0.50515000  1.0
  H  H8  1  0.58913000  0.04619000  0.65422000  1.0
  H  H9  1  0.08911000  0.45379000  0.34577000  1.0
  H  H10  1  0.41087000  0.95380000  0.34577000  1.0
  H  H11  1  0.91089000  0.54621000  0.65423000  1.0
  H  H12  1  0.74968000  0.06003000  0.58382000  1.0
  H  H13  1  0.24966000  0.43997000  0.41617000  1.0
  H  H14  1  0.25031000  0.93997000  0.41617000  1.0
  H  H15  1  0.75033000  0.56005000  0.58383000  1.0
  H  H16  1  0.02892000  0.36908000  0.77274000  1.0
  H  H17  1  0.52892000  0.13092000  0.22728000  1.0
  H  H18  1  0.97107000  0.63091000  0.22727000  1.0
  H  H19  1  0.47108000  0.86909000  0.77273000  1.0
  H  H20  1  0.15767000  0.32769000  0.69352000  1.0
  H  H21  1  0.65768000  0.17230000  0.30650000  1.0
  H  H22  1  0.84232000  0.67230000  0.30649000  1.0
  H  H23  1  0.34232000  0.82771000  0.69351000  1.0
  H  H24  1  0.16554000  0.27451000  0.84384000  1.0
  H  H25  1  0.66554000  0.22549000  0.15618000  1.0
  H  H26  1  0.83446000  0.72549000  0.15617000  1.0
  H  H27  1  0.33446000  0.77452000  0.84383000  1.0
  H  H28  1  0.52146000  0.45033000  0.60151000  1.0
  H  H29  1  0.02147000  0.04966000  0.39850000  1.0
  H  H30  1  0.47853000  0.54967000  0.39849000  1.0
  H  H31  1  0.97854000  0.95034000  0.60151000  1.0
  H  H32  1  0.52407000  0.31676000  0.72249000  1.0
  H  H33  1  0.02407000  0.18323000  0.27752000  1.0
  H  H34  1  0.47592000  0.68323000  0.27752000  1.0
  H  H35  1  0.97593000  0.81677000  0.72248000  1.0
  H  H36  1  0.40187000  0.33491000  0.61221000  1.0
  H  H37  1  0.90187000  0.16508000  0.38779000  1.0
  H  H38  1  0.59813000  0.66508000  0.38778000  1.0
  H  H39  1  0.09814000  0.83492000  0.61221000  1.0
  H  H40  1  0.92429000  0.98973000  0.77671000  1.0
  H  H41  1  0.42428000  0.51027000  0.22329000  1.0
  H  H42  1  0.07571000  0.01026000  0.22330000  1.0
  H  H43  1  0.57572000  0.48973000  0.77672000  1.0
  H  H44  1  0.76548000  0.82015000  0.83536000  1.0
  H  H45  1  0.26547000  0.67986000  0.16463000  1.0
  H  H46  1  0.23453000  0.17984000  0.16464000  1.0
  H  H47  1  0.73452000  0.32014000  0.83538000  1.0
  H  H48  1  0.85241000  0.42641000  0.44151000  1.0
  H  H49  1  0.35241000  0.07359000  0.55850000  1.0
  H  H50  1  0.14759000  0.57358000  0.55848000  1.0
  H  H51  1  0.64759000  0.92641000  0.44151000  1.0
  H  H52  1  0.69560000  0.47734000  0.36701000  1.0
  H  H53  1  0.19561000  0.02266000  0.63300000  1.0
  H  H54  1  0.30440000  0.52265000  0.63300000  1.0
  H  H55  1  0.80439000  0.97735000  0.36699000  1.0
  H  H56  1  0.78770000  0.35820000  0.34762000  1.0
  H  H57  1  0.28770000  0.14180000  0.65238000  1.0
  H  H58  1  0.21229000  0.64179000  0.65238000  1.0
  H  H59  1  0.71231000  0.85820000  0.34762000  1.0
  H  H60  1  0.60975000  0.78681000  0.99881000  1.0
  H  H61  1  0.10974000  0.71319000  0.00118000  1.0
  H  H62  1  0.39026000  0.21318000  0.00120000  1.0
  H  H63  1  0.89025000  0.28680000  0.99883000  1.0
  H  H64  1  0.77396000  0.09755000  0.04761000  1.0
  H  H65  1  0.27396000  0.40244000  0.95240000  1.0
  H  H66  1  0.22604000  0.90245000  0.95240000  1.0
  H  H67  1  0.72604000  0.59757000  0.04760000  1.0
  H  H68  1  0.08165000  0.11676000  0.77620000  1.0
  H  H69  1  0.58165000  0.38324000  0.22382000  1.0
  H  H70  1  0.91835000  0.88323000  0.22381000  1.0
  H  H71  1  0.41835000  0.61677000  0.77618000  1.0
  C  C72  1  0.64428000  0.09238000  0.57569000  1.0
  C  C73  1  0.14427000  0.40762000  0.42430000  1.0
  C  C74  1  0.35571000  0.90762000  0.42430000  1.0
  C  C75  1  0.85573000  0.59239000  0.57570000  1.0
  C  C76  1  0.09639000  0.29724000  0.77105000  1.0
  C  C77  1  0.59639000  0.20276000  0.22896000  1.0
  C  C78  1  0.90360000  0.70276000  0.22894000  1.0
  C  C79  1  0.40361000  0.79725000  0.77104000  1.0
  C  C80  1  0.85914000  0.05516000  0.90855000  1.0
  C  C81  1  0.35914000  0.44483000  0.09145000  1.0
  C  C82  1  0.14086000  0.94482000  0.09145000  1.0
  C  C83  1  0.64086000  0.55517000  0.90854000  1.0
  C  C84  1  0.50632000  0.35439000  0.63133000  1.0
  C  C85  1  0.00632000  0.14560000  0.36868000  1.0
  C  C86  1  0.49368000  0.64560000  0.36867000  1.0
  C  C87  1  0.99369000  0.85440000  0.63132000  1.0
  C  C88  1  0.91782000  0.21772000  0.67380000  1.0
  C  C89  1  0.41782000  0.28228000  0.32621000  1.0
  C  C90  1  0.08219000  0.78227000  0.32620000  1.0
  C  C91  1  0.58218000  0.71774000  0.67378000  1.0
  C  C92  1  0.85808000  0.97646000  0.84932000  1.0
  C  C93  1  0.35807000  0.52355000  0.15067000  1.0
  C  C94  1  0.14193000  0.02354000  0.15067000  1.0
  C  C95  1  0.64192000  0.47645000  0.84932000  1.0
  C  C96  1  0.76924000  0.87981000  0.88310000  1.0
  C  C97  1  0.26922000  0.62021000  0.11688000  1.0
  C  C98  1  0.23077000  0.12019000  0.11690000  1.0
  C  C99  1  0.73076000  0.37981000  0.88311000  1.0
  C  C100  1  0.68679000  0.93852000  0.03386000  1.0
  C  C101  1  0.18679000  0.56148000  0.96615000  1.0
  C  C102  1  0.31321000  0.06147000  0.96616000  1.0
  C  C103  1  0.81322000  0.43853000  0.03386000  1.0
  C  C104  1  0.75951000  0.39982000  0.40870000  1.0
  C  C105  1  0.25951000  0.10018000  0.59131000  1.0
  C  C106  1  0.24049000  0.60017000  0.59130000  1.0
  C  C107  1  0.74049000  0.89983000  0.40869000  1.0
  C  C108  1  0.68205000  0.85982000  0.97515000  1.0
  C  C109  1  0.18204000  0.64018000  0.02485000  1.0
  C  C110  1  0.31797000  0.14018000  0.02486000  1.0
  C  C111  1  0.81795000  0.35981000  0.97515000  1.0
  C  C112  1  0.77378000  0.03559000  0.00253000  1.0
  C  C113  1  0.27378000  0.46440000  0.99747000  1.0
  C  C114  1  0.22623000  0.96440000  0.99747000  1.0
  C  C115  1  0.72622000  0.53560000  0.00252000  1.0
  C  C116  1  0.01319000  0.18889000  0.77686000  1.0
  C  C117  1  0.51319000  0.31112000  0.22314000  1.0
  C  C118  1  0.98681000  0.81111000  0.22314000  1.0
  C  C119  1  0.48681000  0.68889000  0.77685000  1.0
  Cl  Cl120  1  0.57780000  0.91595000  0.14803000  1.0
  Cl  Cl121  1  0.07780000  0.58404000  0.85197000  1.0
  Cl  Cl122  1  0.42220000  0.08405000  0.85197000  1.0
  Cl  Cl123  1  0.92219000  0.41596000  0.14803000  1.0
  O  O124  1  0.79865000  0.25676000  0.68385000  1.0
  O  O125  1  0.29864000  0.24324000  0.31615000  1.0
  O  O126  1  0.20136000  0.74323000  0.31615000  1.0
  O  O127  1  0.70136000  0.75678000  0.68383000  1.0
  O  O128  1  0.96014000  0.20342000  0.58515000  1.0
  O  O129  1  0.46013000  0.29657000  0.41485000  1.0
  O  O130  1  0.03987000  0.79656000  0.41485000  1.0
  O  O131  1  0.53986000  0.70344000  0.58514000  1.0
  O  O132  1  0.93890000  0.15442000  0.88110000  1.0
  O  O133  1  0.43891000  0.34559000  0.11892000  1.0
  O  O134  1  0.06109000  0.84558000  0.11890000  1.0
  O  O135  1  0.56110000  0.65443000  0.88108000  1.0
