# generated using pymatgen
data_GdPH9C8NO9
_symmetry_space_group_name_H-M   'P 1'
_cell_length_a   9.55085000
_cell_length_b   10.53620000
_cell_length_c   15.51460000
_cell_angle_alpha   89.99980000
_cell_angle_beta   77.02800000
_cell_angle_gamma   89.99980000
_symmetry_Int_Tables_number   1
_chemical_formula_structural   GdPH9C8NO9
_chemical_formula_sum   'Gd4 P4 H36 C32 N4 O36'
_cell_volume   1521.38626119
_cell_formula_units_Z   4
loop_
 _symmetry_equiv_pos_site_id
 _symmetry_equiv_pos_as_xyz
  1  'x, y, z'
loop_
 _atom_site_type_symbol
 _atom_site_label
 _atom_site_symmetry_multiplicity
 _atom_site_fract_x
 _atom_site_fract_y
 _atom_site_fract_z
 _atom_site_occupancy
  Gd  Gd0  1  0.21740000  0.87974000  0.60238000  1.0
  Gd  Gd1  1  0.28259000  0.37975000  0.89761000  1.0
  Gd  Gd2  1  0.78261000  0.12026000  0.39762000  1.0
  Gd  Gd3  1  0.71739000  0.62026000  0.10238000  1.0
  P  P4  1  0.16684000  0.13268000  0.76748000  1.0
  P  P5  1  0.33316000  0.63267000  0.73251000  1.0
  P  P6  1  0.83316000  0.86733000  0.23251000  1.0
  P  P7  1  0.66684000  0.36733000  0.26749000  1.0
  H  H8  1  0.33489000  0.11226000  0.07290000  1.0
  H  H9  1  0.16510000  0.61226000  0.42710000  1.0
  H  H10  1  0.66510000  0.88774000  0.92710000  1.0
  H  H11  1  0.83489000  0.38773000  0.57291000  1.0
  H  H12  1  0.39649000  0.87677000  0.07575000  1.0
  H  H13  1  0.10350000  0.37677000  0.42426000  1.0
  H  H14  1  0.60349000  0.12323000  0.92426000  1.0
  H  H15  1  0.89650000  0.62322000  0.57575000  1.0
  H  H16  1  0.29472000  0.72887000  0.97758000  1.0
  H  H17  1  0.20527000  0.22887000  0.52242000  1.0
  H  H18  1  0.70528000  0.27113000  0.02242000  1.0
  H  H19  1  0.79473000  0.77112000  0.47759000  1.0
  H  H20  1  0.14653000  0.81995000  0.87911000  1.0
  H  H21  1  0.35347000  0.31995000  0.62089000  1.0
  H  H22  1  0.85348000  0.18005000  0.12088000  1.0
  H  H23  1  0.64653000  0.68005000  0.37912000  1.0
  H  H24  1  0.00249000  0.14933000  0.90784000  1.0
  H  H25  1  0.49751000  0.64934000  0.59216000  1.0
  H  H26  1  0.99750000  0.85066000  0.09216000  1.0
  H  H27  1  0.50249000  0.35067000  0.40785000  1.0
  H  H28  1  0.98875000  0.99885000  0.85590000  1.0
  H  H29  1  0.51126000  0.49886000  0.64410000  1.0
  H  H30  1  0.01127000  0.00114000  0.14410000  1.0
  H  H31  1  0.48874000  0.50115000  0.35591000  1.0
  H  H32  1  0.03056000  0.15122000  0.67507000  1.0
  H  H33  1  0.46944000  0.65122000  0.82492000  1.0
  H  H34  1  0.96944000  0.84879000  0.32493000  1.0
  H  H35  1  0.53056000  0.34879000  0.17507000  1.0
  H  H36  1  0.01707000  0.73755000  0.72699000  1.0
  H  H37  1  0.48293000  0.23756000  0.77301000  1.0
  H  H38  1  0.98294000  0.26244000  0.27301000  1.0
  H  H39  1  0.51706000  0.76244000  0.22699000  1.0
  H  H40  1  0.88929000  0.82302000  0.70777000  1.0
  H  H41  1  0.61071000  0.32301000  0.79223000  1.0
  H  H42  1  0.11071000  0.17698000  0.29222000  1.0
  H  H43  1  0.38929000  0.67698000  0.20778000  1.0
  C  C44  1  0.29662000  0.04007000  0.03360000  1.0
  C  C45  1  0.20338000  0.54007000  0.46640000  1.0
  C  C46  1  0.70338000  0.95993000  0.96640000  1.0
  C  C47  1  0.79661000  0.45992000  0.53361000  1.0
  C  C48  1  0.32902000  0.91208000  0.03292000  1.0
  C  C49  1  0.17098000  0.41208000  0.46708000  1.0
  C  C50  1  0.67097000  0.08793000  0.96709000  1.0
  C  C51  1  0.82902000  0.58792000  0.53292000  1.0
  C  C52  1  0.27425000  0.83035000  0.97766000  1.0
  C  C53  1  0.22574000  0.33036000  0.52233000  1.0
  C  C54  1  0.72574000  0.16964000  0.02234000  1.0
  C  C55  1  0.77426000  0.66964000  0.47767000  1.0
  C  C56  1  0.18930000  0.88046000  0.92396000  1.0
  C  C57  1  0.31070000  0.38047000  0.57604000  1.0
  C  C58  1  0.81071000  0.11952000  0.07604000  1.0
  C  C59  1  0.68930000  0.61953000  0.42396000  1.0
  C  C60  1  0.15568000  0.00925000  0.92600000  1.0
  C  C61  1  0.34433000  0.50926000  0.57399000  1.0
  C  C62  1  0.84433000  0.99074000  0.07400000  1.0
  C  C63  1  0.65567000  0.49075000  0.42601000  1.0
  C  C64  1  0.06321000  0.06941000  0.87227000  1.0
  C  C65  1  0.43679000  0.56942000  0.62773000  1.0
  C  C66  1  0.93680000  0.93058000  0.12773000  1.0
  C  C67  1  0.56321000  0.43058000  0.37227000  1.0
  C  C68  1  0.54247000  0.96166000  0.52870000  1.0
  C  C69  1  0.95753000  0.46166000  0.97130000  1.0
  C  C70  1  0.45754000  0.03833000  0.47129000  1.0
  C  C71  1  0.04246000  0.53834000  0.02871000  1.0
  C  C72  1  0.01571000  0.94359000  0.46722000  1.0
  C  C73  1  0.48430000  0.44359000  0.03277000  1.0
  C  C74  1  0.98430000  0.05640000  0.53279000  1.0
  C  C75  1  0.51571000  0.55641000  0.96721000  1.0
  N  N76  1  0.21093000  0.08669000  0.98155000  1.0
  N  N77  1  0.28908000  0.58669000  0.51844000  1.0
  N  N78  1  0.78908000  0.91331000  0.01844000  1.0
  N  N79  1  0.71092000  0.41330000  0.48156000  1.0
  O  O80  1  0.23243000  0.02171000  0.71012000  1.0
  O  O81  1  0.26758000  0.52170000  0.78987000  1.0
  O  O82  1  0.76758000  0.97830000  0.28988000  1.0
  O  O83  1  0.73243000  0.47830000  0.21013000  1.0
  O  O84  1  0.05237000  0.20427000  0.72518000  1.0
  O  O85  1  0.44762000  0.70428000  0.77482000  1.0
  O  O86  1  0.94763000  0.79573000  0.27482000  1.0
  O  O87  1  0.55237000  0.29574000  0.22519000  1.0
  O  O88  1  0.27476000  0.22750000  0.78853000  1.0
  O  O89  1  0.22523000  0.72749000  0.71147000  1.0
  O  O90  1  0.72523000  0.77251000  0.21147000  1.0
  O  O91  1  0.77476000  0.27251000  0.28854000  1.0
  O  O92  1  0.17609000  0.20811000  0.98749000  1.0
  O  O93  1  0.32391000  0.70812000  0.51251000  1.0
  O  O94  1  0.82391000  0.79189000  0.01251000  1.0
  O  O95  1  0.67607000  0.29188000  0.48750000  1.0
  O  O96  1  0.67807000  0.97636000  0.51027000  1.0
  O  O97  1  0.82193000  0.47636000  0.98973000  1.0
  O  O98  1  0.32194000  0.02364000  0.48972000  1.0
  O  O99  1  0.17807000  0.52364000  0.01028000  1.0
  O  O100  1  0.47088000  0.89132000  0.58821000  1.0
  O  O101  1  0.02913000  0.39133000  0.91178000  1.0
  O  O102  1  0.52914000  0.10867000  0.41177000  1.0
  O  O103  1  0.97086000  0.60868000  0.08823000  1.0
  O  O104  1  0.08198000  0.84942000  0.48755000  1.0
  O  O105  1  0.41801000  0.34942000  0.01245000  1.0
  O  O106  1  0.91802000  0.15059000  0.51246000  1.0
  O  O107  1  0.58198000  0.65059000  0.98754000  1.0
  O  O108  1  0.96911000  0.95712000  0.39683000  1.0
  O  O109  1  0.53090000  0.45711000  0.10316000  1.0
  O  O110  1  0.03090000  0.04289000  0.60317000  1.0
  O  O111  1  0.46910000  0.54288000  0.89682000  1.0
  O  O112  1  0.97970000  0.78191000  0.68116000  1.0
  O  O113  1  0.52029000  0.28191000  0.81883000  1.0
  O  O114  1  0.02030000  0.21809000  0.31883000  1.0
  O  O115  1  0.47970000  0.71809000  0.18117000  1.0
