# generated using pymatgen
data_NaBH8C8N4O
_symmetry_space_group_name_H-M   'P 1'
_cell_length_a   8.76647000
_cell_length_b   9.24184000
_cell_length_c   13.27750000
_cell_angle_alpha   90.00000000
_cell_angle_beta   89.99860000
_cell_angle_gamma   89.99860000
_symmetry_Int_Tables_number   1
_chemical_formula_structural   NaBH8C8N4O
_chemical_formula_sum   'Na4 B4 H32 C32 N16 O4'
_cell_volume   1075.72065161
_cell_formula_units_Z   4
loop_
 _symmetry_equiv_pos_site_id
 _symmetry_equiv_pos_as_xyz
  1  'x, y, z'
loop_
 _atom_site_type_symbol
 _atom_site_label
 _atom_site_symmetry_multiplicity
 _atom_site_fract_x
 _atom_site_fract_y
 _atom_site_fract_z
 _atom_site_occupancy
  Na  Na0  1  0.59381000  0.75002000  0.06717000  1.0
  Na  Na1  1  0.09378000  0.24999000  0.43284000  1.0
  Na  Na2  1  0.40620000  0.24998000  0.93284000  1.0
  Na  Na3  1  0.90616000  0.75000000  0.56718000  1.0
  B  B4  1  0.09713000  0.74999000  0.27220000  1.0
  B  B5  1  0.59711000  0.25003000  0.22778000  1.0
  B  B6  1  0.90288000  0.25000000  0.72779000  1.0
  B  B7  1  0.40284000  0.74998000  0.77227000  1.0
  H  H8  1  0.77697000  0.96539000  0.93583000  1.0
  H  H9  1  0.27699000  0.03459000  0.56418000  1.0
  H  H10  1  0.22305000  0.46541000  0.06418000  1.0
  H  H11  1  0.72303000  0.53462000  0.43583000  1.0
  H  H12  1  0.22305000  0.03465000  0.06416000  1.0
  H  H13  1  0.72303000  0.96539000  0.43583000  1.0
  H  H14  1  0.77695000  0.53462000  0.93582000  1.0
  H  H15  1  0.27698000  0.46536000  0.56417000  1.0
  H  H16  1  0.78839000  0.90209000  0.80873000  1.0
  H  H17  1  0.28841000  0.09790000  0.69127000  1.0
  H  H18  1  0.21160000  0.40211000  0.19127000  1.0
  H  H19  1  0.71162000  0.59792000  0.30874000  1.0
  H  H20  1  0.21161000  0.09793000  0.19126000  1.0
  H  H21  1  0.71162000  0.90209000  0.30874000  1.0
  H  H22  1  0.78838000  0.59793000  0.80873000  1.0
  H  H23  1  0.28842000  0.40205000  0.69126000  1.0
  H  H24  1  0.05197000  0.87914000  0.83978000  1.0
  H  H25  1  0.55199000  0.12083000  0.66022000  1.0
  H  H26  1  0.94803000  0.37919000  0.16020000  1.0
  H  H27  1  0.44803000  0.62085000  0.33979000  1.0
  H  H28  1  0.94804000  0.12088000  0.16020000  1.0
  H  H29  1  0.44804000  0.87915000  0.33977000  1.0
  H  H30  1  0.05196000  0.62083000  0.83978000  1.0
  H  H31  1  0.55200000  0.37913000  0.66018000  1.0
  H  H32  1  0.02811000  0.87527000  0.97218000  1.0
  H  H33  1  0.52814000  0.12467000  0.52782000  1.0
  H  H34  1  0.97191000  0.37532000  0.02780000  1.0
  H  H35  1  0.47189000  0.62473000  0.47219000  1.0
  H  H36  1  0.97191000  0.12475000  0.02779000  1.0
  H  H37  1  0.47187000  0.87530000  0.47217000  1.0
  H  H38  1  0.02810000  0.62470000  0.97218000  1.0
  H  H39  1  0.52811000  0.37524000  0.52779000  1.0
  C  C40  1  0.23971000  0.75000000  0.19872000  1.0
  C  C41  1  0.73973000  0.25002000  0.30123000  1.0
  C  C42  1  0.76030000  0.25000000  0.80127000  1.0
  C  C43  1  0.26022000  0.74997000  0.69881000  1.0
  C  C44  1  0.09974000  0.88963000  0.34110000  1.0
  C  C45  1  0.59971000  0.11039000  0.15888000  1.0
  C  C46  1  0.90028000  0.38963000  0.65889000  1.0
  C  C47  1  0.40025000  0.61035000  0.84117000  1.0
  C  C48  1  0.90028000  0.11036000  0.65890000  1.0
  C  C49  1  0.40025000  0.88962000  0.84116000  1.0
  C  C50  1  0.09973000  0.61035000  0.34110000  1.0
  C  C51  1  0.59971000  0.38966000  0.15888000  1.0
  C  C52  1  0.94781000  0.75001000  0.20548000  1.0
  C  C53  1  0.44780000  0.25003000  0.29451000  1.0
  C  C54  1  0.05220000  0.25000000  0.79452000  1.0
  C  C55  1  0.55215000  0.74996000  0.70552000  1.0
  C  C56  1  0.81432000  0.87552000  0.88781000  1.0
  C  C57  1  0.31434000  0.12446000  0.61219000  1.0
  C  C58  1  0.18569000  0.37553000  0.11219000  1.0
  C  C59  1  0.68569000  0.62449000  0.38781000  1.0
  C  C60  1  0.18570000  0.12452000  0.11218000  1.0
  C  C61  1  0.68569000  0.87551000  0.38781000  1.0
  C  C62  1  0.81430000  0.62450000  0.88780000  1.0
  C  C63  1  0.31433000  0.37548000  0.61218000  1.0
  C  C64  1  0.98257000  0.83383000  0.90088000  1.0
  C  C65  1  0.48259000  0.16613000  0.59911000  1.0
  C  C66  1  0.01744000  0.33387000  0.09910000  1.0
  C  C67  1  0.51743000  0.66617000  0.40089000  1.0
  C  C68  1  0.01744000  0.16619000  0.09910000  1.0
  C  C69  1  0.51743000  0.83385000  0.40087000  1.0
  C  C70  1  0.98256000  0.66616000  0.90088000  1.0
  C  C71  1  0.48259000  0.33381000  0.59910000  1.0
  N  N72  1  0.34247000  0.75000000  0.14321000  1.0
  N  N73  1  0.84246000  0.25001000  0.35673000  1.0
  N  N74  1  0.65753000  0.25000000  0.85677000  1.0
  N  N75  1  0.15747000  0.74997000  0.64331000  1.0
  N  N76  1  0.10089000  0.99250000  0.39164000  1.0
  N  N77  1  0.60083000  0.00749000  0.10837000  1.0
  N  N78  1  0.89913000  0.49251000  0.60836000  1.0
  N  N79  1  0.39913000  0.50746000  0.89168000  1.0
  N  N80  1  0.89913000  0.00748000  0.60837000  1.0
  N  N81  1  0.39913000  0.99252000  0.89166000  1.0
  N  N82  1  0.10087000  0.50747000  0.39163000  1.0
  N  N83  1  0.60087000  0.49255000  0.10835000  1.0
  N  N84  1  0.83846000  0.75001000  0.15582000  1.0
  N  N85  1  0.33844000  0.25001000  0.34419000  1.0
  N  N86  1  0.16154000  0.25000000  0.84418000  1.0
  N  N87  1  0.66149000  0.74997000  0.65583000  1.0
  O  O88  1  0.72664000  0.75001000  0.91715000  1.0
  O  O89  1  0.22666000  0.24997000  0.58285000  1.0
  O  O90  1  0.27337000  0.25003000  0.08285000  1.0
  O  O91  1  0.77337000  0.75000000  0.41716000  1.0
