# generated using pymatgen
data_ZnH16C15N3O8
_symmetry_space_group_name_H-M   'P 1'
_cell_length_a   10.57070000
_cell_length_b   10.93830000
_cell_length_c   11.81990000
_cell_angle_alpha   89.99810000
_cell_angle_beta   90.00920000
_cell_angle_gamma   89.80380000
_symmetry_Int_Tables_number   1
_chemical_formula_structural   ZnH16C15N3O8
_chemical_formula_sum   'Zn2 H32 C30 N6 O16'
_cell_volume   1366.67367207
_cell_formula_units_Z   2
loop_
 _symmetry_equiv_pos_site_id
 _symmetry_equiv_pos_as_xyz
  1  'x, y, z'
loop_
 _atom_site_type_symbol
 _atom_site_label
 _atom_site_symmetry_multiplicity
 _atom_site_fract_x
 _atom_site_fract_y
 _atom_site_fract_z
 _atom_site_occupancy
  Zn  Zn0  1  0.62927000  0.49859000  0.49452000  1.0
  Zn  Zn1  1  0.37039000  0.50125000  0.49481000  1.0
  H  H2  1  0.70474000  0.89266000  0.50076000  1.0
  H  H3  1  0.30319000  0.90507000  0.48397000  1.0
  H  H4  1  0.69598000  0.09497000  0.48015000  1.0
  H  H5  1  0.29492000  0.10735000  0.50525000  1.0
  H  H6  1  0.83681000  0.94454000  0.16062000  1.0
  H  H7  1  0.82891000  0.78369000  0.18087000  1.0
  H  H8  1  0.78850000  0.84838000  0.04786000  1.0
  H  H9  1  0.59247000  0.79309000  0.14735000  1.0
  H  H10  1  0.60111000  0.95236000  0.13414000  1.0
  H  H11  1  0.70999000  0.94255000  0.33680000  1.0
  H  H12  1  0.65619000  0.79207000  0.34041000  1.0
  H  H13  1  0.22028000  0.81204000  0.12792000  1.0
  H  H14  1  0.25682000  0.67244000  0.19775000  1.0
  H  H15  1  0.10710000  0.74366000  0.21849000  1.0
  H  H16  1  0.24739000  0.77835000  0.38518000  1.0
  H  H17  1  0.20850000  0.91747000  0.31728000  1.0
  H  H18  1  0.41369000  0.89095000  0.20263000  1.0
  H  H19  1  0.44534000  0.76063000  0.28077000  1.0
  H  H20  1  0.77117000  0.18530000  0.12276000  1.0
  H  H21  1  0.73612000  0.32582000  0.19160000  1.0
  H  H22  1  0.88615000  0.25487000  0.21078000  1.0
  H  H23  1  0.74925000  0.22231000  0.38006000  1.0
  H  H24  1  0.78676000  0.08233000  0.31306000  1.0
  H  H25  1  0.57912000  0.10843000  0.20111000  1.0
  H  H26  1  0.54909000  0.23891000  0.27952000  1.0
  H  H27  1  0.15490000  0.05483000  0.16640000  1.0
  H  H28  1  0.16313000  0.21570000  0.18656000  1.0
  H  H29  1  0.20081000  0.15106000  0.05289000  1.0
  H  H30  1  0.39891000  0.20628000  0.14894000  1.0
  H  H31  1  0.38994000  0.04702000  0.13603000  1.0
  H  H32  1  0.28576000  0.05713000  0.34077000  1.0
  H  H33  1  0.33970000  0.20757000  0.34306000  1.0
  C  C34  1  0.50003000  0.50005000  0.71150000  1.0
  C  C35  1  0.49981000  0.50084000  0.04999000  1.0
  C  C36  1  0.50017000  0.73804000  0.49252000  1.0
  C  C37  1  0.49918000  0.26179000  0.49227000  1.0
  C  C38  1  0.06439000  0.50101000  0.50402000  1.0
  C  C39  1  0.93520000  0.49967000  0.50402000  1.0
  C  C40  1  0.49995000  0.50026000  0.27472000  1.0
  C  C41  1  0.50012000  0.50046000  0.83298000  1.0
  C  C42  1  0.62461000  0.92902000  0.54817000  1.0
  C  C43  1  0.37886000  0.92984000  0.54230000  1.0
  C  C44  1  0.62177000  0.07005000  0.53988000  1.0
  C  C45  1  0.37635000  0.07083000  0.55079000  1.0
  C  C46  1  0.49996000  0.50075000  0.93621000  1.0
  C  C47  1  0.50534000  0.92533000  0.36101000  1.0
  C  C48  1  0.49095000  0.07429000  0.36109000  1.0
  C  C49  1  0.50250000  0.87910000  0.49225000  1.0
  C  C50  1  0.49693000  0.12070000  0.49224000  1.0
  C  C51  1  0.49971000  0.50065000  0.15338000  1.0
  C  C52  1  0.63375000  0.88333000  0.30716000  1.0
  C  C53  1  0.64438000  0.87371000  0.17735000  1.0
  C  C54  1  0.78226000  0.86209000  0.13975000  1.0
  C  C55  1  0.40524000  0.85329000  0.28816000  1.0
  C  C56  1  0.26267000  0.83225000  0.30815000  1.0
  C  C57  1  0.20873000  0.76109000  0.20745000  1.0
  C  C58  1  0.58942000  0.14627000  0.28641000  1.0
  C  C59  1  0.73240000  0.16746000  0.30386000  1.0
  C  C60  1  0.78434000  0.23726000  0.20153000  1.0
  C  C61  1  0.36126000  0.11627000  0.30954000  1.0
  C  C62  1  0.34764000  0.12571000  0.17995000  1.0
  C  C63  1  0.20893000  0.13734000  0.14466000  1.0
  N  N64  1  0.17401000  0.50204000  0.49951000  1.0
  N  N65  1  0.82559000  0.49836000  0.49947000  1.0
  N  N66  1  0.65675000  0.88048000  0.66816000  1.0
  N  N67  1  0.33183000  0.86602000  0.65026000  1.0
  N  N68  1  0.67152000  0.13352000  0.64703000  1.0
  N  N69  1  0.34796000  0.11943000  0.67156000  1.0
  O  O70  1  0.60793000  0.50184000  0.66373000  1.0
  O  O71  1  0.39200000  0.49793000  0.66395000  1.0
  O  O72  1  0.60596000  0.68376000  0.48677000  1.0
  O  O73  1  0.39251000  0.68697000  0.49431000  1.0
  O  O74  1  0.60682000  0.31290000  0.49321000  1.0
  O  O75  1  0.39331000  0.31605000  0.48726000  1.0
  O  O76  1  0.60808000  0.49593000  0.32249000  1.0
  O  O77  1  0.39197000  0.50428000  0.32284000  1.0
  O  O78  1  0.61273000  0.93380000  0.75081000  1.0
  O  O79  1  0.72941000  0.79198000  0.67118000  1.0
  O  O80  1  0.40309000  0.79776000  0.70275000  1.0
  O  O81  1  0.21905000  0.88554000  0.67196000  1.0
  O  O82  1  0.60161000  0.20139000  0.70135000  1.0
  O  O83  1  0.78487000  0.11401000  0.66627000  1.0
  O  O84  1  0.39294000  0.06504000  0.75320000  1.0
  O  O85  1  0.27711000  0.20920000  0.67620000  1.0
