# generated using pymatgen
data_CoH10C14(NO)4
_symmetry_space_group_name_H-M   'P 1'
_cell_length_a   7.30369000
_cell_length_b   7.47644000
_cell_length_c   13.88010000
_cell_angle_alpha   99.73350000
_cell_angle_beta   105.24200000
_cell_angle_gamma   90.07860000
_symmetry_Int_Tables_number   1
_chemical_formula_structural   CoH10C14(NO)4
_chemical_formula_sum   'Co2 H20 C28 N8 O8'
_cell_volume   719.90632767
_cell_formula_units_Z   2
loop_
 _symmetry_equiv_pos_site_id
 _symmetry_equiv_pos_as_xyz
  1  'x, y, z'
loop_
 _atom_site_type_symbol
 _atom_site_label
 _atom_site_symmetry_multiplicity
 _atom_site_fract_x
 _atom_site_fract_y
 _atom_site_fract_z
 _atom_site_occupancy
  Co  Co0  1  0.50000000  0.50000000  0.50000000  1.0
  Co  Co1  1  0.00000000  0.50000000  0.50000000  1.0
  H  H2  1  0.61107000  0.62634000  0.80940000  1.0
  H  H3  1  0.80216000  0.37420000  0.19076000  1.0
  H  H4  1  0.38893000  0.37366000  0.19060000  1.0
  H  H5  1  0.19785000  0.62580000  0.80924000  1.0
  H  H6  1  0.69994000  0.75031000  0.99245000  1.0
  H  H7  1  0.70731000  0.25024000  0.00765000  1.0
  H  H8  1  0.30006000  0.24969000  0.00755000  1.0
  H  H9  1  0.29269000  0.74976000  0.99235000  1.0
  H  H10  1  0.77275000  0.83919000  0.13920000  1.0
  H  H11  1  0.63289000  0.16176000  0.86047000  1.0
  H  H12  1  0.22725000  0.16081000  0.86080000  1.0
  H  H13  1  0.36710000  0.83824000  0.13953000  1.0
  H  H14  1  0.87836000  0.91324000  0.32531000  1.0
  H  H15  1  0.55288000  0.08762000  0.67441000  1.0
  H  H16  1  0.12164000  0.08676000  0.67469000  1.0
  H  H17  1  0.44712000  0.91237000  0.32558000  1.0
  H  H18  1  0.35792000  0.89209000  0.46952000  1.0
  H  H19  1  0.88869000  0.10824000  0.53056000  1.0
  H  H20  1  0.64208000  0.10791000  0.53048000  1.0
  H  H21  1  0.11131000  0.89176000  0.46944000  1.0
  C  C22  1  0.84311000  0.53610000  0.68691000  1.0
  C  C23  1  0.15689000  0.46389000  0.31309000  1.0
  C  C24  1  0.89891000  0.61354000  0.79824000  1.0
  C  C25  1  0.10109000  0.38646000  0.20176000  1.0
  C  C26  1  0.76005000  0.65229000  0.85103000  1.0
  C  C27  1  0.90931000  0.34814000  0.14904000  1.0
  C  C28  1  0.23995000  0.34771000  0.14897000  1.0
  C  C29  1  0.09070000  0.65186000  0.85096000  1.0
  C  C30  1  0.81196000  0.72334000  0.95406000  1.0
  C  C31  1  0.85783000  0.27707000  0.04602000  1.0
  C  C32  1  0.18804000  0.27667000  0.04594000  1.0
  C  C33  1  0.14217000  0.72294000  0.95398000  1.0
  C  C34  1  0.00450000  0.75869000  0.00870000  1.0
  C  C35  1  0.99550000  0.24131000  0.99130000  1.0
  C  C36  1  0.05972000  0.82199000  0.11895000  1.0
  C  C37  1  0.94029000  0.17801000  0.88105000  1.0
  C  C38  1  0.92434000  0.85096000  0.17555000  1.0
  C  C39  1  0.74841000  0.14971000  0.82433000  1.0
  C  C40  1  0.07566000  0.14904000  0.82445000  1.0
  C  C41  1  0.25159000  0.85029000  0.17567000  1.0
  C  C42  1  0.97918000  0.89224000  0.27978000  1.0
  C  C43  1  0.69919000  0.10841000  0.72006000  1.0
  C  C44  1  0.02083000  0.10776000  0.72022000  1.0
  C  C45  1  0.30081000  0.89159000  0.27994000  1.0
  C  C46  1  0.22110000  0.95190000  0.44235000  1.0
  C  C47  1  0.77890000  0.04809000  0.55766000  1.0
  C  C48  1  0.23750000  0.15944000  0.47517000  1.0
  C  C49  1  0.76250000  0.84056000  0.52483000  1.0
  N  N50  1  0.71862000  0.39860000  0.43711000  1.0
  N  N51  1  0.28139000  0.60140000  0.56289000  1.0
  N  N52  1  0.68318000  0.27390000  0.36644000  1.0
  N  N53  1  0.31683000  0.72611000  0.63357000  1.0
  N  N54  1  0.64894000  0.15299000  0.29819000  1.0
  N  N55  1  0.35106000  0.84701000  0.70181000  1.0
  N  N56  1  0.16559000  0.90880000  0.33118000  1.0
  N  N57  1  0.83441000  0.09120000  0.66882000  1.0
  O  O58  1  0.66587000  0.50606000  0.64501000  1.0
  O  O59  1  0.02165000  0.49354000  0.35507000  1.0
  O  O60  1  0.33413000  0.49394000  0.35499000  1.0
  O  O61  1  0.97835000  0.50645000  0.64493000  1.0
  O  O62  1  0.08671000  0.23353000  0.48594000  1.0
  O  O63  1  0.60086000  0.76617000  0.51408000  1.0
  O  O64  1  0.91329000  0.76646000  0.51407000  1.0
  O  O65  1  0.39913000  0.23383000  0.48592000  1.0
