# generated using pymatgen
data_K2Zn2H16C11N2(ClO2)4
_symmetry_space_group_name_H-M   'P 1'
_cell_length_a   7.31377000
_cell_length_b   7.31375000
_cell_length_c   10.31590000
_cell_angle_alpha   100.42500000
_cell_angle_beta   100.42500000
_cell_angle_gamma   92.80130000
_symmetry_Int_Tables_number   1
_chemical_formula_structural   K2Zn2H16C11N2(ClO2)4
_chemical_formula_sum   'K2 Zn2 H16 C11 N2 Cl4 O8'
_cell_volume   531.83781776
_cell_formula_units_Z   1
loop_
 _symmetry_equiv_pos_site_id
 _symmetry_equiv_pos_as_xyz
  1  'x, y, z'
loop_
 _atom_site_type_symbol
 _atom_site_label
 _atom_site_symmetry_multiplicity
 _atom_site_fract_x
 _atom_site_fract_y
 _atom_site_fract_z
 _atom_site_occupancy
  K  K0  1  0.13566000  0.86434000  0.50000000  1.0
  K  K1  1  0.57464000  0.42536000  0.50000000  1.0
  Zn  Zn2  1  0.57480000  0.92274000  0.28763000  1.0
  Zn  Zn3  1  0.07726000  0.42520000  0.71237000  1.0
  H  H4  1  0.04186000  0.52190000  0.07684000  1.0
  H  H5  1  0.47811000  0.95814000  0.92316000  1.0
  H  H6  1  0.24256000  0.41146000  0.04011000  1.0
  H  H7  1  0.58854000  0.75744000  0.95989000  1.0
  H  H8  1  0.86075000  0.27320000  0.24659000  1.0
  H  H9  1  0.72680000  0.13926000  0.75341000  1.0
  H  H10  1  0.95763000  0.50581000  0.28519000  1.0
  H  H11  1  0.49419000  0.04237000  0.71481000  1.0
  H  H12  1  0.07133000  0.02320000  0.16033000  1.0
  H  H13  1  0.97680000  0.92867000  0.83967000  1.0
  H  H14  1  0.18698000  0.10453000  0.04153000  1.0
  H  H15  1  0.89547000  0.81302000  0.95847000  1.0
  H  H16  1  0.88018000  0.22970000  0.94515000  1.0
  H  H17  1  0.77030000  0.11982000  0.05485000  1.0
  H  H18  1  0.24929000  0.29108000  0.25098000  1.0
  H  H19  1  0.70891000  0.75072000  0.74902000  1.0
  C  C20  1  0.17088000  0.46787000  0.12142000  1.0
  C  C21  1  0.53213000  0.82912000  0.87858000  1.0
  C  C22  1  0.29775000  0.62257000  0.22182000  1.0
  C  C23  1  0.37743000  0.70225000  0.77818000  1.0
  C  C24  1  0.99217000  0.36162000  0.28401000  1.0
  C  C25  1  0.63838000  0.00783000  0.71599000  1.0
  C  C26  1  0.07389000  0.33190000  0.42458000  1.0
  C  C27  1  0.66810000  0.92612000  0.57541000  1.0
  C  C28  1  0.07197000  0.12734000  0.09600000  1.0
  C  C29  1  0.87266000  0.92802000  0.90400000  1.0
  C  C30  1  0.88605000  0.11395000  1.00000000  1.0
  N  N31  1  0.12450000  0.31237000  0.19011000  1.0
  N  N32  1  0.68763000  0.87550000  0.80989000  1.0
  Cl  Cl33  1  0.53248000  0.19452000  0.20794000  1.0
  Cl  Cl34  1  0.80548000  0.46752000  0.79206000  1.0
  Cl  Cl35  1  0.83531000  0.80192000  0.23039000  1.0
  Cl  Cl36  1  0.19807000  0.16469000  0.76961000  1.0
  O  O37  1  0.36104000  0.75395000  0.17099000  1.0
  O  O38  1  0.24605000  0.63896000  0.82901000  1.0
  O  O39  1  0.33204000  0.61161000  0.34386000  1.0
  O  O40  1  0.38840000  0.66796000  0.65614000  1.0
  O  O41  1  0.98878000  0.41348000  0.51569000  1.0
  O  O42  1  0.58652000  0.01122000  0.48431000  1.0
  O  O43  1  0.20755000  0.23298000  0.44075000  1.0
  O  O44  1  0.76702000  0.79245000  0.55925000  1.0
