# generated using pymatgen
data_ZnH5C11NO7
_symmetry_space_group_name_H-M   'P 1'
_cell_length_a   7.98860000
_cell_length_b   8.69712000
_cell_length_c   12.88300000
_cell_angle_alpha   88.50410000
_cell_angle_beta   88.20930000
_cell_angle_gamma   85.71120000
_symmetry_Int_Tables_number   1
_chemical_formula_structural   ZnH5C11NO7
_chemical_formula_sum   'Zn2 H10 C22 N2 O14'
_cell_volume   891.88662757
_cell_formula_units_Z   2
loop_
 _symmetry_equiv_pos_site_id
 _symmetry_equiv_pos_as_xyz
  1  'x, y, z'
loop_
 _atom_site_type_symbol
 _atom_site_label
 _atom_site_symmetry_multiplicity
 _atom_site_fract_x
 _atom_site_fract_y
 _atom_site_fract_z
 _atom_site_occupancy
  Zn  Zn0  1  0.32285000  0.49102000  0.48820000  1.0
  Zn  Zn1  1  0.67712000  0.50895000  0.51180000  1.0
  H  H2  1  0.67414000  0.98038000  0.54992000  1.0
  H  H3  1  0.89957000  0.26893000  0.47308000  1.0
  H  H4  1  0.32571000  0.01956000  0.45001000  1.0
  H  H5  1  0.56022000  0.78678000  0.75375000  1.0
  H  H6  1  0.43986000  0.21322000  0.24626000  1.0
  H  H7  1  0.19170000  0.41365000  0.81625000  1.0
  H  H8  1  0.80835000  0.58638000  0.18377000  1.0
  H  H9  1  0.88374000  0.59721000  0.90246000  1.0
  H  H10  1  0.11633000  0.40281000  0.09757000  1.0
  H  H11  1  0.10041000  0.73103000  0.52695000  1.0
  C  C12  1  0.53218000  0.20766000  0.53644000  1.0
  C  C13  1  0.29595000  0.44883000  0.86052000  1.0
  C  C14  1  0.46216000  0.39957000  0.12952000  1.0
  C  C15  1  0.53790000  0.60045000  0.87049000  1.0
  C  C16  1  0.43928000  0.45241000  0.02457000  1.0
  C  C17  1  0.56077000  0.54763000  0.97545000  1.0
  C  C18  1  0.55647000  0.03851000  0.52410000  1.0
  C  C19  1  0.44337000  0.96145000  0.47584000  1.0
  C  C20  1  0.60911000  0.74315000  0.82935000  1.0
  C  C21  1  0.39095000  0.25687000  0.17066000  1.0
  C  C22  1  0.85971000  0.63494000  0.98350000  1.0
  C  C23  1  0.46768000  0.79230000  0.46352000  1.0
  C  C24  1  0.14035000  0.36510000  0.01652000  1.0
  C  C25  1  0.98097000  0.69012000  0.55899000  1.0
  C  C26  1  0.01898000  0.30988000  0.44102000  1.0
  C  C27  1  0.57847000  0.44996000  0.30525000  1.0
  C  C28  1  0.42161000  0.55003000  0.69476000  1.0
  C  C29  1  0.41748000  0.53597000  0.81131000  1.0
  C  C30  1  0.58258000  0.46404000  0.18870000  1.0
  C  C31  1  0.70103000  0.58451000  0.03378000  1.0
  C  C32  1  0.29901000  0.41553000  0.96624000  1.0
  C  C33  1  0.70410000  0.55120000  0.13950000  1.0
  N  N34  1  0.93870000  0.54015000  0.52009000  1.0
  N  N35  1  0.06125000  0.45984000  0.47992000  1.0
  O  O36  1  0.38348000  0.27060000  0.53610000  1.0
  O  O37  1  0.29522000  0.18067000  0.12388000  1.0
  O  O38  1  0.96861000  0.69181000  0.03177000  1.0
  O  O39  1  0.03143000  0.30825000  0.96824000  1.0
  O  O40  1  0.88322000  0.75564000  0.61927000  1.0
  O  O41  1  0.11670000  0.24439000  0.38071000  1.0
  O  O42  1  0.61637000  0.72935000  0.46388000  1.0
  O  O43  1  0.66666667  0.27816000  0.54270000  1.0
  O  O44  1  0.33323000  0.72180000  0.45726000  1.0
  O  O45  1  0.43193000  0.44293000  0.34646000  1.0
  O  O46  1  0.56817000  0.55701000  0.65357000  1.0
  O  O47  1  0.71383000  0.45688000  0.35361000  1.0
  O  O48  1  0.28626000  0.54314000  0.64638000  1.0
  O  O49  1  0.70483000  0.81936000  0.87614000  1.0
