# generated using pymatgen
data_ZnH9C4S4N9O4
_symmetry_space_group_name_H-M   'P 1'
_cell_length_a   7.66900000
_cell_length_b   7.72250000
_cell_length_c   7.92943000
_cell_angle_alpha   89.83780000
_cell_angle_beta   62.00080000
_cell_angle_gamma   65.61530000
_symmetry_Int_Tables_number   1
_chemical_formula_structural   ZnH9C4S4N9O4
_chemical_formula_sum   'Zn1 H9 C4 S4 N9 O4'
_cell_volume   366.85127174
_cell_formula_units_Z   1
loop_
 _symmetry_equiv_pos_site_id
 _symmetry_equiv_pos_as_xyz
  1  'x, y, z'
loop_
 _atom_site_type_symbol
 _atom_site_label
 _atom_site_symmetry_multiplicity
 _atom_site_fract_x
 _atom_site_fract_y
 _atom_site_fract_z
 _atom_site_occupancy
  Zn  Zn0  1  0.84079000  0.47036000  0.77505000  1.0
  H  H1  1  0.63320000  0.79050000  0.04796000  1.0
  H  H2  1  0.48716000  0.79394000  0.94493000  1.0
  H  H3  1  0.48987000  0.67129000  0.11361000  1.0
  H  H4  1  0.13113000  0.14670000  0.41961000  1.0
  H  H5  1  0.12370000  0.11574000  0.20353000  1.0
  H  H6  1  0.16509000  0.43138000  0.42320000  1.0
  H  H7  1  0.11030000  0.73030000  0.20314000  1.0
  H  H8  1  0.03913000  0.74499000  0.02058000  1.0
  H  H9  1  0.95687000  0.09276000  0.81267000  1.0
  C  C10  1  0.82822000  0.31794000  0.43523000  1.0
  C  C11  1  0.44427000  0.53121000  0.54136000  1.0
  C  C12  1  0.77802000  0.86904000  0.30466000  1.0
  C  C13  1  0.42150000  0.04572000  0.59816000  1.0
  S  S14  1  0.67180000  0.36476000  0.32135000  1.0
  S  S15  1  0.17663000  0.66007000  0.56456000  1.0
  S  S16  1  0.69163000  0.92997000  0.55351000  1.0
  S  S17  1  0.18889000  0.16311000  0.84142000  1.0
  N  N18  1  0.59000000  0.70442000  0.99168000  1.0
  N  N19  1  0.70469000  0.42803000  0.62004000  1.0
  N  N20  1  0.48664000  0.54785000  0.67919000  1.0
  N  N21  1  0.04369000  0.18959000  0.34712000  1.0
  N  N22  1  0.08724000  0.51201000  0.56273000  1.0
  N  N23  1  0.60824000  0.93651000  0.27230000  1.0
  N  N24  1  0.40661000  0.03602000  0.44128000  1.0
  N  N25  1  0.99263000  0.76350000  0.16538000  1.0
  N  N26  1  0.97349000  0.21487000  0.83412000  1.0
  O  O27  1  0.22871000  0.73544000  0.38589000  1.0
  O  O28  1  0.03304000  0.80017000  0.75411000  1.0
  O  O29  1  0.18816000  0.34091000  0.90104000  1.0
  O  O30  1  0.23146000  0.01242000  0.95148000  1.0
