# generated using pymatgen
data_ZnH22C25N3O7F
_symmetry_space_group_name_H-M   'P 1'
_cell_length_a   9.78489000
_cell_length_b   10.16900000
_cell_length_c   12.76200000
_cell_angle_alpha   107.42400000
_cell_angle_beta   107.59400000
_cell_angle_gamma   96.31690000
_symmetry_Int_Tables_number   1
_chemical_formula_structural   ZnH22C25N3O7F
_chemical_formula_sum   'Zn2 H44 C50 N6 O14 F2'
_cell_volume   1126.48394250
_cell_formula_units_Z   2
loop_
 _symmetry_equiv_pos_site_id
 _symmetry_equiv_pos_as_xyz
  1  'x, y, z'
loop_
 _atom_site_type_symbol
 _atom_site_label
 _atom_site_symmetry_multiplicity
 _atom_site_fract_x
 _atom_site_fract_y
 _atom_site_fract_z
 _atom_site_occupancy
  Zn  Zn0  1  0.83827000  0.82670000  0.96317000  1.0
  Zn  Zn1  1  0.16176000  0.17333000  0.03683000  1.0
  H  H2  1  0.22976000  0.51597000  0.94514000  1.0
  H  H3  1  0.77024000  0.48403000  0.05486000  1.0
  H  H4  1  0.35717000  0.66426000  0.96115000  1.0
  H  H5  1  0.64283000  0.33574000  0.03885000  1.0
  H  H6  1  0.12390000  0.07296000  0.30923000  1.0
  H  H7  1  0.87610000  0.92704000  0.69077000  1.0
  H  H8  1  0.84746000  0.32548000  0.54415000  1.0
  H  H9  1  0.15255000  0.67452000  0.45585000  1.0
  H  H10  1  0.48844000  0.04614000  0.18816000  1.0
  H  H11  1  0.51155000  0.95387000  0.81183000  1.0
  H  H12  1  0.58748000  0.19861000  0.45877000  1.0
  H  H13  1  0.41253000  0.80138000  0.54123000  1.0
  H  H14  1  0.62708000  0.45962000  0.50900000  1.0
  H  H15  1  0.37292000  0.54037000  0.49101000  1.0
  H  H16  1  0.70019000  0.44779000  0.39082000  1.0
  H  H17  1  0.29980000  0.55221000  0.60918000  1.0
  H  H18  1  0.38310000  0.29571000  0.35366000  1.0
  H  H19  1  0.61690000  0.70429000  0.64635000  1.0
  H  H20  1  0.46231000  0.28608000  0.24016000  1.0
  H  H21  1  0.53768000  0.71392000  0.75985000  1.0
  H  H22  1  0.29990000  0.27069000  0.69593000  1.0
  H  H23  1  0.70010000  0.72931000  0.30407000  1.0
  H  H24  1  0.18036000  0.28134000  0.77790000  1.0
  H  H25  1  0.81963000  0.71866000  0.22209000  1.0
  H  H26  1  0.42425000  0.42760000  0.90478000  1.0
  H  H27  1  0.57575000  0.57240000  0.09522000  1.0
  H  H28  1  0.42619000  0.52278000  0.80816000  1.0
  H  H29  1  0.57381000  0.47722000  0.19183000  1.0
  H  H30  1  0.23114000  0.67474000  0.78226000  1.0
  H  H31  1  0.76886000  0.32526000  0.21774000  1.0
  H  H32  1  0.11319000  0.67873000  0.86470000  1.0
  H  H33  1  0.88681000  0.32127000  0.13530000  1.0
  H  H34  1  0.98880000  0.42874000  0.74805000  1.0
  H  H35  1  0.01120000  0.57126000  0.25195000  1.0
  H  H36  1  0.99144000  0.52495000  0.65255000  1.0
  H  H37  1  0.00856000  0.47505000  0.34745000  1.0
  H  H38  1  0.58248000  0.39403000  0.66434000  1.0
  H  H39  1  0.41752000  0.60597000  0.33567000  1.0
  H  H40  1  0.50675000  0.13032000  0.57384000  1.0
  H  H41  1  0.49325000  0.86968000  0.42616000  1.0
  H  H42  1  0.63226000  0.98150000  0.67865000  1.0
  H  H43  1  0.36774000  0.01850000  0.32135000  1.0
  H  H44  1  0.90549000  0.35390000  0.96162000  1.0
  H  H45  1  0.09451000  0.64610000  0.03838000  1.0
  C  C46  1  0.57485000  0.85269000  0.04532000  1.0
  C  C47  1  0.42514000  0.14731000  0.95467000  1.0
  C  C48  1  0.67371000  0.97347000  0.15313000  1.0
  C  C49  1  0.32630000  0.02653000  0.84687000  1.0
  C  C50  1  0.83112000  0.99529000  0.19513000  1.0
  C  C51  1  0.16887000  0.00471000  0.80487000  1.0
  C  C52  1  0.90904000  0.10121000  0.31139000  1.0
  C  C53  1  0.09096000  0.89881000  0.68861000  1.0
  C  C54  1  0.06332000  0.12615000  0.36163000  1.0
  C  C55  1  0.93669000  0.87385000  0.63837000  1.0
  C  C56  1  0.13527000  0.22025000  0.47339000  1.0
  C  C57  1  0.86473000  0.77974000  0.52662000  1.0
  C  C58  1  0.06189000  0.29480000  0.54503000  1.0
  C  C59  1  0.93811000  0.70520000  0.45497000  1.0
  C  C60  1  0.90920000  0.27261000  0.49317000  1.0
  C  C61  1  0.09080000  0.72738000  0.50684000  1.0
  C  C62  1  0.83350000  0.17961000  0.37747000  1.0
  C  C63  1  0.16650000  0.82039000  0.62252000  1.0
  C  C64  1  0.60737000  0.05869000  0.21984000  1.0
  C  C65  1  0.39263000  0.94131000  0.78017000  1.0
  C  C66  1  0.60142000  0.23981000  0.39212000  1.0
  C  C67  1  0.39858000  0.76019000  0.60788000  1.0
  C  C68  1  0.62446000  0.39748000  0.42215000  1.0
  C  C69  1  0.37553000  0.60252000  0.57786000  1.0
  C  C70  1  0.48232000  0.30119000  0.33209000  1.0
  C  C71  1  0.51768000  0.69881000  0.66791000  1.0
  C  C72  1  0.24259000  0.34111000  0.74101000  1.0
  C  C73  1  0.75741000  0.65890000  0.25899000  1.0
  C  C74  1  0.35526000  0.46571000  0.83990000  1.0
  C  C75  1  0.64475000  0.53429000  0.16010000  1.0
  C  C76  1  0.16963000  0.61072000  0.81576000  1.0
  C  C77  1  0.83037000  0.38928000  0.18424000  1.0
  C  C78  1  0.06102000  0.48478000  0.71566000  1.0
  C  C79  1  0.93899000  0.51521000  0.28434000  1.0
  C  C80  1  0.74999000  0.39099000  0.81874000  1.0
  C  C81  1  0.25001000  0.60900000  0.18126000  1.0
  C  C82  1  0.63836000  0.32776000  0.70829000  1.0
  C  C83  1  0.36163000  0.67224000  0.29171000  1.0
  C  C84  1  0.59698000  0.18033000  0.65785000  1.0
  C  C85  1  0.40302000  0.81968000  0.34216000  1.0
  C  C86  1  0.66569000  0.09633000  0.71657000  1.0
  C  C87  1  0.33431000  0.90367000  0.28343000  1.0
  C  C88  1  0.77548000  0.15937000  0.82778000  1.0
  C  C89  1  0.22453000  0.84064000  0.17223000  1.0
  C  C90  1  0.81821000  0.30587000  0.87643000  1.0
  C  C91  1  0.18179000  0.69412000  0.12357000  1.0
  C  C92  1  0.79310000  0.54706000  0.88357000  1.0
  C  C93  1  0.20690000  0.45293000  0.11643000  1.0
  C  C94  1  0.83715000  0.07565000  0.90247000  1.0
  C  C95  1  0.16285000  0.92436000  0.09753000  1.0
  N  N96  1  0.28003000  0.56644000  0.89963000  1.0
  N  N97  1  0.71996000  0.43357000  0.10037000  1.0
  N  N98  1  0.13987000  0.39038000  0.65780000  1.0
  N  N99  1  0.86011000  0.60963000  0.34219000  1.0
  N  N100  1  0.68162000  0.16052000  0.32597000  1.0
  N  N101  1  0.31838000  0.83949000  0.67403000  1.0
  O  O102  1  0.44396000  0.81666000  0.04083000  1.0
  O  O103  1  0.55604000  0.18334000  0.95917000  1.0
  O  O104  1  0.62373000  0.78877000  0.96662000  1.0
  O  O105  1  0.37628000  0.21124000  0.03338000  1.0
  O  O106  1  0.90491000  0.92532000  0.14138000  1.0
  O  O107  1  0.09508000  0.07468000  0.85862000  1.0
  O  O108  1  0.79117000  0.63207000  0.82738000  1.0
  O  O109  1  0.20882000  0.36793000  0.17261000  1.0
  O  O110  1  0.83110000  0.58970000  0.99509000  1.0
  O  O111  1  0.16890000  0.41030000  0.00492000  1.0
  O  O112  1  0.78084000  0.94311000  0.86026000  1.0
  O  O113  1  0.21918000  0.05688000  0.13976000  1.0
  O  O114  1  0.93360000  0.14062000  0.00400000  1.0
  O  O115  1  0.06639000  0.85939000  0.99599000  1.0
  F  F116  1  0.28627000  0.24740000  0.51708000  1.0
  F  F117  1  0.71374000  0.75260000  0.48292000  1.0
