# generated using pymatgen
data_Cu2H4C5I2N
_symmetry_space_group_name_H-M   'P 1'
_cell_length_a   4.07475000
_cell_length_b   13.26720000
_cell_length_c   31.49800000
_cell_angle_alpha   99.98630000
_cell_angle_beta   90.00000000
_cell_angle_gamma   90.00000000
_symmetry_Int_Tables_number   1
_chemical_formula_structural   Cu2H4C5I2N
_chemical_formula_sum   'Cu16 H32 C40 I16 N8'
_cell_volume   1676.99968051
_cell_formula_units_Z   8
loop_
 _symmetry_equiv_pos_site_id
 _symmetry_equiv_pos_as_xyz
  1  'x, y, z'
loop_
 _atom_site_type_symbol
 _atom_site_label
 _atom_site_symmetry_multiplicity
 _atom_site_fract_x
 _atom_site_fract_y
 _atom_site_fract_z
 _atom_site_occupancy
  Cu  Cu0  1  0.13472000  0.98487000  0.91005000  1.0
  Cu  Cu1  1  0.63471000  0.01513000  0.58995000  1.0
  Cu  Cu2  1  0.86530000  0.01513000  0.08995000  1.0
  Cu  Cu3  1  0.36528000  0.98487000  0.41005000  1.0
  Cu  Cu4  1  0.58720000  0.71377000  0.86525000  1.0
  Cu  Cu5  1  0.08720000  0.28623000  0.63475000  1.0
  Cu  Cu6  1  0.41280000  0.28623000  0.13475000  1.0
  Cu  Cu7  1  0.91280000  0.71377000  0.36525000  1.0
  Cu  Cu8  1  0.09020000  0.58679000  0.85745000  1.0
  Cu  Cu9  1  0.59019000  0.41321000  0.64255000  1.0
  Cu  Cu10  1  0.90981000  0.41321000  0.14255000  1.0
  Cu  Cu11  1  0.40980000  0.58679000  0.35745000  1.0
  Cu  Cu12  1  0.09239000  0.56548000  0.75396000  1.0
  Cu  Cu13  1  0.59238000  0.43452000  0.74604000  1.0
  Cu  Cu14  1  0.90762000  0.43451000  0.24604000  1.0
  Cu  Cu15  1  0.40762000  0.56548000  0.25396000  1.0
  H  H16  1  0.83814000  0.10764000  0.99517000  1.0
  H  H17  1  0.33813000  0.89236000  0.50483000  1.0
  H  H18  1  0.16185000  0.89236000  0.00483000  1.0
  H  H19  1  0.66184000  0.10763000  0.49517000  1.0
  H  H20  1  0.72323000  0.29223000  0.02233000  1.0
  H  H21  1  0.22321000  0.70777000  0.47768000  1.0
  H  H22  1  0.27676000  0.70777000  0.97768000  1.0
  H  H23  1  0.77676000  0.29222000  0.52232000  1.0
  H  H24  1  0.88301000  0.42125000  0.97574000  1.0
  H  H25  1  0.38300000  0.57875000  0.52426000  1.0
  H  H26  1  0.11699000  0.57876000  0.02426000  1.0
  H  H27  1  0.61700000  0.42125000  0.47574000  1.0
  H  H28  1  0.15806000  0.36017000  0.90555000  1.0
  H  H29  1  0.65808000  0.63983000  0.59445000  1.0
  H  H30  1  0.84194000  0.63983000  0.09446000  1.0
  H  H31  1  0.34195000  0.36017000  0.40554000  1.0
  H  H32  1  0.51319000  0.29963000  0.85824000  1.0
  H  H33  1  0.01319000  0.70037000  0.64175000  1.0
  H  H34  1  0.48683000  0.70037000  0.14176000  1.0
  H  H35  1  0.98680000  0.29963000  0.35824000  1.0
  H  H36  1  0.76316000  0.21584000  0.78901000  1.0
  H  H37  1  0.26315000  0.78415000  0.71099000  1.0
  H  H38  1  0.23685000  0.78415000  0.21099000  1.0
  H  H39  1  0.73684000  0.21585000  0.28901000  1.0
  H  H40  1  0.72538000  0.02367000  0.76835000  1.0
  H  H41  1  0.22538000  0.97632000  0.73165000  1.0
  H  H42  1  0.27461000  0.97633000  0.23165000  1.0
  H  H43  1  0.77460000  0.02367000  0.26835000  1.0
  H  H44  1  0.42875000  0.92611000  0.81773000  1.0
  H  H45  1  0.92875000  0.07389000  0.68228000  1.0
  H  H46  1  0.57124000  0.07390000  0.18228000  1.0
  H  H47  1  0.07124000  0.92611000  0.31773000  1.0
  C  C48  1  0.91082000  0.16593000  0.97652000  1.0
  C  C49  1  0.41080000  0.83407000  0.52348000  1.0
  C  C50  1  0.08918000  0.83407000  0.02348000  1.0
  C  C51  1  0.58916000  0.16593000  0.47652000  1.0
  C  C52  1  0.84555000  0.26895000  0.99140000  1.0
  C  C53  1  0.34554000  0.73105000  0.50860000  1.0
  C  C54  1  0.15446000  0.73105000  0.00860000  1.0
  C  C55  1  0.65444000  0.26895000  0.49140000  1.0
  C  C56  1  0.93689000  0.34009000  0.96574000  1.0
  C  C57  1  0.43689000  0.65991000  0.53426000  1.0
  C  C58  1  0.06310000  0.65991000  0.03426000  1.0
  C  C59  1  0.56312000  0.34009000  0.46574000  1.0
  C  C60  1  0.09169000  0.30605000  0.92645000  1.0
  C  C61  1  0.59167000  0.69395000  0.57355000  1.0
  C  C62  1  0.90831000  0.69396000  0.07355000  1.0
  C  C63  1  0.40833000  0.30605000  0.42645000  1.0
  C  C64  1  0.15591000  0.20149000  0.91398000  1.0
  C  C65  1  0.65591000  0.79851000  0.58602000  1.0
  C  C66  1  0.84408000  0.79852000  0.08602000  1.0
  C  C67  1  0.34409000  0.20149000  0.41398000  1.0
  C  C68  1  0.31894000  0.15790000  0.87311000  1.0
  C  C69  1  0.81895000  0.84209000  0.62689000  1.0
  C  C70  1  0.68108000  0.84210000  0.12689000  1.0
  C  C71  1  0.18106000  0.15791000  0.37311000  1.0
  C  C72  1  0.48939000  0.21732000  0.84774000  1.0
  C  C73  1  0.98938000  0.78267000  0.65226000  1.0
  C  C74  1  0.51063000  0.78268000  0.15226000  1.0
  C  C75  1  0.01062000  0.21732000  0.34774000  1.0
  C  C76  1  0.63312000  0.17027000  0.80930000  1.0
  C  C77  1  0.13312000  0.82973000  0.69070000  1.0
  C  C78  1  0.36689000  0.82974000  0.19071000  1.0
  C  C79  1  0.86687000  0.17027000  0.30930000  1.0
  C  C80  1  0.61222000  0.06402000  0.79778000  1.0
  C  C81  1  0.11223000  0.93598000  0.70222000  1.0
  C  C82  1  0.38778000  0.93598000  0.20222000  1.0
  C  C83  1  0.88776000  0.06402000  0.29778000  1.0
  C  C84  1  0.44658000  0.00936000  0.82501000  1.0
  C  C85  1  0.94657000  0.99064000  0.67500000  1.0
  C  C86  1  0.55342000  0.99065000  0.17500000  1.0
  C  C87  1  0.05341000  0.00935000  0.32500000  1.0
  I  I88  1  0.63817000  0.87756000  0.92460000  1.0
  I  I89  1  0.13816000  0.12244000  0.57540000  1.0
  I  I90  1  0.36185000  0.12244000  0.07540000  1.0
  I  I91  1  0.86184000  0.87756000  0.42460000  1.0
  I  I92  1  0.08616000  0.73569000  0.81220000  1.0
  I  I93  1  0.58616000  0.26431000  0.68780000  1.0
  I  I94  1  0.91385000  0.26431000  0.18780000  1.0
  I  I95  1  0.41385000  0.73568000  0.31220000  1.0
  I  I96  1  0.59004000  0.55637000  0.90599000  1.0
  I  I97  1  0.09005000  0.44363000  0.59401000  1.0
  I  I98  1  0.40995000  0.44363000  0.09401000  1.0
  I  I99  1  0.90994000  0.55637000  0.40599000  1.0
  I  I100  1  0.09137000  0.41394000  0.79694000  1.0
  I  I101  1  0.59137000  0.58606000  0.70306000  1.0
  I  I102  1  0.90864000  0.58606000  0.20306000  1.0
  I  I103  1  0.40863000  0.41393000  0.29694000  1.0
  N  N104  1  0.06456000  0.13241000  0.93897000  1.0
  N  N105  1  0.56455000  0.86759000  0.56103000  1.0
  N  N106  1  0.93545000  0.86759000  0.06103000  1.0
  N  N107  1  0.43544000  0.13241000  0.43897000  1.0
  N  N108  1  0.29708000  0.05441000  0.86145000  1.0
  N  N109  1  0.79708000  0.94558000  0.63856000  1.0
  N  N110  1  0.70293000  0.94559000  0.13856000  1.0
  N  N111  1  0.20293000  0.05441000  0.36144000  1.0
