# generated using pymatgen
data_CuH12C9(NO2)2
_symmetry_space_group_name_H-M   'P 1'
_cell_length_a   7.94897000
_cell_length_b   8.11505000
_cell_length_c   10.28204117
_cell_angle_alpha   72.08532103
_cell_angle_beta   69.34070602
_cell_angle_gamma   87.06310000
_symmetry_Int_Tables_number   1
_chemical_formula_structural   CuH12C9(NO2)2
_chemical_formula_sum   'Cu2 H24 C18 N4 O8'
_cell_volume   589.29217098
_cell_formula_units_Z   2
loop_
 _symmetry_equiv_pos_site_id
 _symmetry_equiv_pos_as_xyz
  1  'x, y, z'
loop_
 _atom_site_type_symbol
 _atom_site_label
 _atom_site_symmetry_multiplicity
 _atom_site_fract_x
 _atom_site_fract_y
 _atom_site_fract_z
 _atom_site_occupancy
  Cu  Cu0  1  0.08890000  0.58919000  0.86131000  1.0
  Cu  Cu1  1  0.91109000  0.41080000  0.13869000  1.0
  H  H2  1  0.01033000  0.98201000  0.13562000  1.0
  H  H3  1  0.98965000  0.01794000  0.86433000  1.0
  H  H4  1  0.24372000  0.96370000  0.05434000  1.0
  H  H5  1  0.75630000  0.03635000  0.94561000  1.0
  H  H6  1  0.12568000  0.84099000  0.24227000  1.0
  H  H7  1  0.87434000  0.15905000  0.75771000  1.0
  H  H8  1  0.43847000  0.13260000  0.07487000  1.0
  H  H9  1  0.56145000  0.86739000  0.92517000  1.0
  H  H10  1  0.56874000  0.31537000  0.92821000  1.0
  H  H11  1  0.43121000  0.68461000  0.07182000  1.0
  H  H12  1  0.49842000  0.31596000  0.11238000  1.0
  H  H13  1  0.50152000  0.68403000  0.88764000  1.0
  H  H14  1  0.33461000  0.10303000  0.35533000  1.0
  H  H15  1  0.66539000  0.89700000  0.64469000  1.0
  H  H16  1  0.08973000  0.97090000  0.63861000  1.0
  H  H17  1  0.91029000  0.02911000  0.36141000  1.0
  H  H18  1  0.69641000  0.79443000  0.30028000  1.0
  H  H19  1  0.30357000  0.20556000  0.69975000  1.0
  H  H20  1  0.63117000  0.00379000  0.22223000  1.0
  H  H21  1  0.36885000  0.99620000  0.77779000  1.0
  H  H22  1  0.55101000  0.81542000  0.19932000  1.0
  H  H23  1  0.44898000  0.18459000  0.80069000  1.0
  H  H24  1  0.40898000  0.46082000  0.66788000  1.0
  H  H25  1  0.59108000  0.53919000  0.33209000  1.0
  C  C26  1  0.07568000  0.74519000  0.08435000  1.0
  C  C27  1  0.92437000  0.25479000  0.91563000  1.0
  C  C28  1  0.11796000  0.89104000  0.13281000  1.0
  C  C29  1  0.88204000  0.10896000  0.86714000  1.0
  C  C30  1  0.28673000  0.35420000  0.02402000  1.0
  C  C31  1  0.71323000  0.64580000  0.97600000  1.0
  C  C32  1  0.45926000  0.27449000  0.03448000  1.0
  C  C33  1  0.54071000  0.72550000  0.96555000  1.0
  C  C34  1  0.37748000  0.70373000  0.53158000  1.0
  C  C35  1  0.62253000  0.29627000  0.46842000  1.0
  C  C36  1  0.31931000  0.97666000  0.43615000  1.0
  C  C37  1  0.68068000  0.02336000  0.56386000  1.0
  C  C38  1  0.20015000  0.90965000  0.57728000  1.0
  C  C39  1  0.79986000  0.09036000  0.42273000  1.0
  C  C40  1  0.58580000  0.86630000  0.27457000  1.0
  C  C41  1  0.41422000  0.13369000  0.72543000  1.0
  C  C42  1  0.44898000  0.53456000  0.55248000  1.0
  C  C43  1  0.55104000  0.46545000  0.44752000  1.0
  N  N44  1  0.43129000  0.84664000  0.40817000  1.0
  N  N45  1  0.56869000  0.15337000  0.59184000  1.0
  N  N46  1  0.23786000  0.74271000  0.63631000  1.0
  N  N47  1  0.76213000  0.25731000  0.36369000  1.0
  O  O48  1  0.13487000  0.76777000  0.94687000  1.0
  O  O49  1  0.86517000  0.23219000  0.05311000  1.0
  O  O50  1  0.98197000  0.61371000  0.18434000  1.0
  O  O51  1  0.01811000  0.38627000  0.81564000  1.0
  O  O52  1  0.14652000  0.30837000  0.13858000  1.0
  O  O53  1  0.85345000  0.69162000  0.86143000  1.0
  O  O54  1  0.29743000  0.46227000  0.90078000  1.0
  O  O55  1  0.70256000  0.53773000  0.09922000  1.0
