# generated using pymatgen
data_HgH22C30N6(ClO)2
_symmetry_space_group_name_H-M   'P 1'
_cell_length_a   6.75190000
_cell_length_b   13.91380000
_cell_length_c   15.24730222
_cell_angle_alpha   101.34435476
_cell_angle_beta   102.65453144
_cell_angle_gamma   90.02780000
_symmetry_Int_Tables_number   1
_chemical_formula_structural   HgH22C30N6(ClO)2
_chemical_formula_sum   'Hg2 H44 C60 N12 Cl4 O4'
_cell_volume   1368.87865369
_cell_formula_units_Z   2
loop_
 _symmetry_equiv_pos_site_id
 _symmetry_equiv_pos_as_xyz
  1  'x, y, z'
loop_
 _atom_site_type_symbol
 _atom_site_label
 _atom_site_symmetry_multiplicity
 _atom_site_fract_x
 _atom_site_fract_y
 _atom_site_fract_z
 _atom_site_occupancy
  Hg  Hg0  1  0.00000000  0.00000000  0.00000000  1.0
  Hg  Hg1  1  0.00000000  0.50000000  1.00000000  1.0
  H  H2  1  0.50115000  0.62354000  0.81596000  1.0
  H  H3  1  0.68595000  0.87642000  0.18390000  1.0
  H  H4  1  0.49885000  0.37646000  0.18404000  1.0
  H  H5  1  0.31405000  0.12358000  0.81610000  1.0
  H  H6  1  0.81835000  0.71969000  0.90967000  1.0
  H  H7  1  0.90999000  0.78018000  0.09006000  1.0
  H  H8  1  0.18165000  0.28031000  0.09033000  1.0
  H  H9  1  0.09002000  0.21982000  0.90995000  1.0
  H  H10  1  0.51644000  0.97955000  0.90334000  1.0
  H  H11  1  0.61355000  0.52042000  0.09652000  1.0
  H  H12  1  0.48356000  0.02044000  0.09666000  1.0
  H  H13  1  0.38645000  0.47958000  0.90348000  1.0
  H  H14  1  0.85609000  0.02057000  0.75255000  1.0
  H  H15  1  0.10419000  0.47927000  0.24785000  1.0
  H  H16  1  0.14391000  0.97943000  0.24745000  1.0
  H  H17  1  0.89581000  0.52073000  0.75215000  1.0
  H  H18  1  0.50809000  0.06187000  0.68044000  1.0
  H  H19  1  0.82717000  0.43799000  0.31984000  1.0
  H  H20  1  0.49191000  0.93814000  0.31956000  1.0
  H  H21  1  0.17283000  0.56201000  0.68016000  1.0
  H  H22  1  0.25237000  0.92864000  0.59210000  1.0
  H  H23  1  0.65854000  0.57127000  0.40782000  1.0
  H  H24  1  0.74763000  0.07136000  0.40790000  1.0
  H  H25  1  0.34147000  0.42873000  0.59218000  1.0
  H  H26  1  0.15922000  0.75571000  0.53597000  1.0
  H  H27  1  0.62127000  0.74428000  0.46392000  1.0
  H  H28  1  0.84078000  0.24429000  0.46403000  1.0
  H  H29  1  0.37873000  0.25572000  0.53608000  1.0
  H  H30  1  0.24697000  0.58118000  0.51760000  1.0
  H  H31  1  0.72801000  0.91877000  0.48241000  1.0
  H  H32  1  0.75304000  0.41882000  0.48241000  1.0
  H  H33  1  0.27198000  0.08122000  0.51759000  1.0
  H  H34  1  0.59901000  0.53744000  0.58896000  1.0
  H  H35  1  0.00968000  0.96243000  0.41110000  1.0
  H  H36  1  0.40099000  0.46256000  0.41104000  1.0
  H  H37  1  0.99032000  0.03757000  0.58890000  1.0
  H  H38  1  0.85429000  0.66383000  0.67316000  1.0
  H  H39  1  0.18124000  0.83596000  0.32690000  1.0
  H  H40  1  0.14571000  0.33617000  0.32684000  1.0
  H  H41  1  0.81876000  0.16404000  0.67310000  1.0
  H  H42  1  0.03608000  0.76915000  0.73239000  1.0
  H  H43  1  0.30385000  0.73077000  0.26781000  1.0
  H  H44  1  0.96392000  0.23085000  0.26761000  1.0
  H  H45  1  0.69615000  0.26923000  0.73219000  1.0
  C  C46  1  0.50291000  0.70341000  0.83378000  1.0
  C  C47  1  0.66987000  0.79656000  0.16609000  1.0
  C  C48  1  0.49709000  0.29659000  0.16622000  1.0
  C  C49  1  0.33013000  0.20344000  0.83391000  1.0
  C  C50  1  0.67954000  0.75677000  0.88687000  1.0
  C  C51  1  0.79369000  0.74315000  0.11294000  1.0
  C  C52  1  0.32046000  0.24323000  0.11313000  1.0
  C  C53  1  0.20632000  0.25685000  0.88706000  1.0
  C  C54  1  0.51447000  0.89979000  0.88328000  1.0
  C  C55  1  0.63180000  0.60018000  0.11658000  1.0
  C  C56  1  0.48552000  0.10021000  0.11671000  1.0
  C  C57  1  0.36820000  0.39982000  0.88342000  1.0
  C  C58  1  0.34011000  0.84643000  0.82929000  1.0
  C  C59  1  0.51120000  0.65357000  0.17063000  1.0
  C  C60  1  0.65989000  0.15357000  0.17071000  1.0
  C  C61  1  0.48880000  0.34643000  0.82937000  1.0
  C  C62  1  0.15377000  0.90040000  0.80016000  1.0
  C  C63  1  0.35381000  0.59954000  0.19982000  1.0
  C  C64  1  0.84623000  0.09960000  0.19984000  1.0
  C  C65  1  0.64620000  0.40046000  0.80019000  1.0
  C  C66  1  0.80310000  0.86571000  0.70394000  1.0
  C  C67  1  0.09903000  0.63415000  0.29625000  1.0
  C  C68  1  0.19690000  0.13429000  0.29606000  1.0
  C  C69  1  0.90097000  0.36585000  0.70375000  1.0
  C  C70  1  0.74651000  0.96268000  0.71247000  1.0
  C  C71  1  0.03411000  0.53716000  0.28784000  1.0
  C  C72  1  0.25350000  0.03732000  0.28753000  1.0
  C  C73  1  0.96589000  0.46284000  0.71216000  1.0
  C  C74  1  0.54826000  0.98514000  0.67194000  1.0
  C  C75  1  0.87578000  0.51472000  0.32828000  1.0
  C  C76  1  0.45174000  0.01486000  0.32806000  1.0
  C  C77  1  0.12422000  0.48528000  0.67172000  1.0
  C  C78  1  0.40611000  0.91189000  0.62351000  1.0
  C  C79  1  0.78139000  0.58801000  0.37651000  1.0
  C  C80  1  0.59389000  0.08811000  0.37649000  1.0
  C  C81  1  0.21861000  0.41199000  0.62349000  1.0
  C  C82  1  0.45733000  0.81209000  0.61413000  1.0
  C  C83  1  0.84203000  0.68781000  0.38586000  1.0
  C  C84  1  0.54267000  0.18791000  0.38587000  1.0
  C  C85  1  0.15797000  0.31219000  0.61414000  1.0
  C  C86  1  0.31181000  0.73572000  0.56560000  1.0
  C  C87  1  0.74466000  0.76422000  0.43432000  1.0
  C  C88  1  0.68818000  0.26428000  0.43440000  1.0
  C  C89  1  0.25534000  0.23578000  0.56568000  1.0
  C  C90  1  0.36111000  0.63858000  0.55563000  1.0
  C  C91  1  0.80423000  0.86134000  0.44432000  1.0
  C  C92  1  0.63889000  0.36142000  0.44437000  1.0
  C  C93  1  0.19577000  0.13866000  0.55568000  1.0
  C  C94  1  0.55907000  0.61403000  0.59529000  1.0
  C  C95  1  0.96310000  0.88586000  0.40471000  1.0
  C  C96  1  0.44093000  0.38598000  0.40471000  1.0
  C  C97  1  0.03691000  0.11414000  0.59530000  1.0
  C  C98  1  0.70399000  0.68656000  0.64347000  1.0
  C  C99  1  0.06012000  0.81328000  0.35654000  1.0
  C  C100  1  0.29601000  0.31344000  0.35653000  1.0
  C  C101  1  0.93988000  0.18672000  0.64346000  1.0
  C  C102  1  0.65881000  0.78726000  0.65433000  1.0
  C  C103  1  0.00386000  0.71261000  0.34572000  1.0
  C  C104  1  0.34119000  0.21274000  0.34567000  1.0
  C  C105  1  0.99614000  0.28739000  0.65428000  1.0
  N  N106  1  0.33363000  0.74822000  0.80364000  1.0
  N  N107  1  0.53043000  0.75178000  0.19632000  1.0
  N  N108  1  0.66637000  0.25178000  0.19636000  1.0
  N  N109  1  0.46957000  0.24822000  0.80368000  1.0
  N  N110  1  0.68522000  0.85495000  0.91105000  1.0
  N  N111  1  0.77509000  0.64498000  0.08876000  1.0
  N  N112  1  0.31478000  0.14505000  0.08895000  1.0
  N  N113  1  0.22492000  0.35501000  0.91124000  1.0
  N  N114  1  0.99839000  0.84104000  0.74318000  1.0
  N  N115  1  0.25543000  0.65887000  0.25701000  1.0
  N  N116  1  0.00161000  0.15896000  0.25682000  1.0
  N  N117  1  0.74458000  0.34113000  0.74299000  1.0
  Cl  Cl118  1  0.21088000  0.87727000  0.04636000  1.0
  Cl  Cl119  1  0.16465000  0.62300000  0.95367000  1.0
  Cl  Cl120  1  0.78912000  0.12273000  0.95364000  1.0
  Cl  Cl121  1  0.83535000  0.37700000  0.04633000  1.0
  O  O122  1  0.14763000  0.99036000  0.82816000  1.0
  O  O123  1  0.31951000  0.50962000  0.17170000  1.0
  O  O124  1  0.85237000  0.00964000  0.17184000  1.0
  O  O125  1  0.68050000  0.49038000  0.82830000  1.0
