# generated using pymatgen
data_CdH16C22N3O4
_symmetry_space_group_name_H-M   'P 1'
_cell_length_a   8.37392000
_cell_length_b   10.04340000
_cell_length_c   11.85760000
_cell_angle_alpha   90.78860000
_cell_angle_beta   105.55200000
_cell_angle_gamma   101.87300000
_symmetry_Int_Tables_number   1
_chemical_formula_structural   CdH16C22N3O4
_chemical_formula_sum   'Cd2 H32 C44 N6 O8'
_cell_volume   937.67323900
_cell_formula_units_Z   2
loop_
 _symmetry_equiv_pos_site_id
 _symmetry_equiv_pos_as_xyz
  1  'x, y, z'
loop_
 _atom_site_type_symbol
 _atom_site_label
 _atom_site_symmetry_multiplicity
 _atom_site_fract_x
 _atom_site_fract_y
 _atom_site_fract_z
 _atom_site_occupancy
  Cd  Cd0  1  0.82576000  0.39403000  0.88441000  1.0
  Cd  Cd1  1  0.17424000  0.60597000  0.11559000  1.0
  H  H2  1  0.86970000  0.87982000  0.89953000  1.0
  H  H3  1  0.13030000  0.12018000  0.10047000  1.0
  H  H4  1  0.20905000  0.75366000  0.72562000  1.0
  H  H5  1  0.79095000  0.24634000  0.27439000  1.0
  H  H6  1  0.31361000  0.99753000  0.68899000  1.0
  H  H7  1  0.68639000  0.00247000  0.31101000  1.0
  H  H8  1  0.17655000  0.17623000  0.74473000  1.0
  H  H9  1  0.82345000  0.82377000  0.25527000  1.0
  H  H10  1  0.56742000  0.17479000  0.95270000  1.0
  H  H11  1  0.43258000  0.82521000  0.04730000  1.0
  H  H12  1  0.36728000  0.12590000  0.07888000  1.0
  H  H13  1  0.63272000  0.87410000  0.92112000  1.0
  H  H14  1  0.36851000  0.31435000  0.22258000  1.0
  H  H15  1  0.63149000  0.68565000  0.77742000  1.0
  H  H16  1  0.76266000  0.57066000  0.10212000  1.0
  H  H17  1  0.23735000  0.42934000  0.89788000  1.0
  H  H18  1  0.85467000  0.78510000  0.57535000  1.0
  H  H19  1  0.14533000  0.21490000  0.42466000  1.0
  H  H20  1  0.67823000  0.90845000  0.65912000  1.0
  H  H21  1  0.32177000  0.09155000  0.34088000  1.0
  H  H22  1  0.37550000  0.89349000  0.55731000  1.0
  H  H23  1  0.62450000  0.10651000  0.44269000  1.0
  H  H24  1  0.23599000  0.75588000  0.36613000  1.0
  H  H25  1  0.76401000  0.24412000  0.63387000  1.0
  H  H26  1  0.95771000  0.70031000  0.41340000  1.0
  H  H27  1  0.04229000  0.29969000  0.58660000  1.0
  H  H28  1  0.89981000  0.56466000  0.30481000  1.0
  H  H29  1  0.10019000  0.43533000  0.69520000  1.0
  H  H30  1  0.83163000  0.39746000  0.44403000  1.0
  H  H31  1  0.16837000  0.60253000  0.55597000  1.0
  H  H32  1  0.86218000  0.52829000  0.55427000  1.0
  H  H33  1  0.13782000  0.47171000  0.44573000  1.0
  C  C34  1  0.91815000  0.14510000  0.84472000  1.0
  C  C35  1  0.08184000  0.85490000  0.15528000  1.0
  C  C36  1  0.00957000  0.03841000  0.82102000  1.0
  C  C37  1  0.99042000  0.96159000  0.17898000  1.0
  C  C38  1  0.96342000  0.90448000  0.85063000  1.0
  C  C39  1  0.03658000  0.09552000  0.14937000  1.0
  C  C40  1  0.03386000  0.80210000  0.81533000  1.0
  C  C41  1  0.96614000  0.19790000  0.18467000  1.0
  C  C42  1  0.15725000  0.83497000  0.75429000  1.0
  C  C43  1  0.84275000  0.16503000  0.24571000  1.0
  C  C44  1  0.21320000  0.97013000  0.73244000  1.0
  C  C45  1  0.78680000  0.02987000  0.26756000  1.0
  C  C46  1  0.13807000  0.07104000  0.76435000  1.0
  C  C47  1  0.86193000  0.92896000  0.23565000  1.0
  C  C48  1  0.97169000  0.65636000  0.83544000  1.0
  C  C49  1  0.02831000  0.34364000  0.16456000  1.0
  C  C50  1  0.56069000  0.25251000  0.01549000  1.0
  C  C51  1  0.43931000  0.74749000  0.98451000  1.0
  C  C52  1  0.45006000  0.22671000  0.08552000  1.0
  C  C53  1  0.54994000  0.77329000  0.91448000  1.0
  C  C54  1  0.45183000  0.33043000  0.16524000  1.0
  C  C55  1  0.54817000  0.66957000  0.83476000  1.0
  C  C56  1  0.56584000  0.45676000  0.17428000  1.0
  C  C57  1  0.43416000  0.54325000  0.82572000  1.0
  C  C58  1  0.67279000  0.47425000  0.10016000  1.0
  C  C59  1  0.32721000  0.52575000  0.89984000  1.0
  C  C60  1  0.56454000  0.56418000  0.25995000  1.0
  C  C61  1  0.43546000  0.43582000  0.74005000  1.0
  C  C62  1  0.46781000  0.69243000  0.36446000  1.0
  C  C63  1  0.53220000  0.30757000  0.63554000  1.0
  C  C64  1  0.64107000  0.70163000  0.42313000  1.0
  C  C65  1  0.35893000  0.29837000  0.57687000  1.0
  C  C66  1  0.72159000  0.77892000  0.52975000  1.0
  C  C67  1  0.27841000  0.22108000  0.47025000  1.0
  C  C68  1  0.62133000  0.84640000  0.57635000  1.0
  C  C69  1  0.37867000  0.15360000  0.42365000  1.0
  C  C70  1  0.44832000  0.83765000  0.51833000  1.0
  C  C71  1  0.55168000  0.16235000  0.48167000  1.0
  C  C72  1  0.36917000  0.76210000  0.41167000  1.0
  C  C73  1  0.63083000  0.23790000  0.58833000  1.0
  C  C74  1  0.87300000  0.59959000  0.38412000  1.0
  C  C75  1  0.12700000  0.40041000  0.61588000  1.0
  C  C76  1  0.90555000  0.50046000  0.47933000  1.0
  C  C77  1  0.09445000  0.49954000  0.52067000  1.0
  N  N78  1  0.66840000  0.37399000  0.02223000  1.0
  N  N79  1  0.33160000  0.62601000  0.97777000  1.0
  N  N80  1  0.42431000  0.60677000  0.26315000  1.0
  N  N81  1  0.57570000  0.39324000  0.73685000  1.0
  N  N82  1  0.69964000  0.62106000  0.35402000  1.0
  N  N83  1  0.30036000  0.37894000  0.64598000  1.0
  O  O84  1  0.97919000  0.26750000  0.82208000  1.0
  O  O85  1  0.02081000  0.73250000  0.17792000  1.0
  O  O86  1  0.78764000  0.11316000  0.88076000  1.0
  O  O87  1  0.21236000  0.88684000  0.11924000  1.0
  O  O88  1  0.93135000  0.62864000  0.93186000  1.0
  O  O89  1  0.06865000  0.37136000  0.06814000  1.0
  O  O90  1  0.95758000  0.56579000  0.75673000  1.0
  O  O91  1  0.04242000  0.43421000  0.24327000  1.0
