# generated using pymatgen
data_ZnH24C35N2O7
_symmetry_space_group_name_H-M   'P 1'
_cell_length_a   10.04190000
_cell_length_b   13.66050000
_cell_length_c   23.51070000
_cell_angle_alpha   105.56700000
_cell_angle_beta   89.99780000
_cell_angle_gamma   89.99550000
_symmetry_Int_Tables_number   1
_chemical_formula_structural   ZnH24C35N2O7
_chemical_formula_sum   'Zn4 H96 C140 N8 O28'
_cell_volume   3106.82937317
_cell_formula_units_Z   4
loop_
 _symmetry_equiv_pos_site_id
 _symmetry_equiv_pos_as_xyz
  1  'x, y, z'
loop_
 _atom_site_type_symbol
 _atom_site_label
 _atom_site_symmetry_multiplicity
 _atom_site_fract_x
 _atom_site_fract_y
 _atom_site_fract_z
 _atom_site_occupancy
  Zn  Zn0  1  0.22834000  0.29405000  0.49660000  1.0
  Zn  Zn1  1  0.72825000  0.70594000  0.00338000  1.0
  Zn  Zn2  1  0.77162000  0.70596000  0.50339000  1.0
  Zn  Zn3  1  0.27175000  0.29407000  0.99662000  1.0
  H  H4  1  0.91872000  0.26261000  0.40609000  1.0
  H  H5  1  0.41865000  0.73735000  0.09391000  1.0
  H  H6  1  0.08131000  0.73737000  0.59390000  1.0
  H  H7  1  0.58136000  0.26266000  0.90611000  1.0
  H  H8  1  0.50696000  0.11216000  0.12230000  1.0
  H  H9  1  0.00688000  0.88783000  0.37772000  1.0
  H  H10  1  0.49302000  0.88784000  0.87771000  1.0
  H  H11  1  0.99316000  0.11218000  0.62230000  1.0
  H  H12  1  0.22956000  0.09880000  0.45362000  1.0
  H  H13  1  0.72944000  0.90119000  0.04638000  1.0
  H  H14  1  0.77043000  0.90121000  0.54639000  1.0
  H  H15  1  0.27058000  0.09881000  0.95362000  1.0
  H  H16  1  0.17864000  0.12978000  0.52141000  1.0
  H  H17  1  0.67852000  0.87022000  0.97859000  1.0
  H  H18  1  0.82135000  0.87023000  0.47859000  1.0
  H  H19  1  0.32146000  0.12978000  0.02142000  1.0
  H  H20  1  0.45323000  0.20550000  0.56671000  1.0
  H  H21  1  0.95311000  0.79447000  0.93326000  1.0
  H  H22  1  0.54674000  0.79451000  0.43330000  1.0
  H  H23  1  0.04688000  0.20552000  0.06673000  1.0
  H  H24  1  0.62238000  0.28371000  0.64404000  1.0
  H  H25  1  0.12230000  0.71626000  0.85594000  1.0
  H  H26  1  0.37761000  0.71630000  0.35596000  1.0
  H  H27  1  0.87768000  0.28373000  0.14405000  1.0
  H  H28  1  0.66143000  0.47169000  0.66854000  1.0
  H  H29  1  0.16141000  0.52829000  0.83145000  1.0
  H  H30  1  0.33857000  0.52833000  0.33144000  1.0
  H  H31  1  0.83856000  0.47170000  0.16853000  1.0
  H  H32  1  0.61160000  0.63879000  0.64578000  1.0
  H  H33  1  0.11165000  0.36121000  0.85423000  1.0
  H  H34  1  0.38839000  0.36122000  0.35420000  1.0
  H  H35  1  0.88833000  0.63879000  0.14576000  1.0
  H  H36  1  0.47813000  0.73603000  0.59215000  1.0
  H  H37  1  0.97822000  0.26397000  0.90787000  1.0
  H  H38  1  0.52185000  0.26398000  0.40783000  1.0
  H  H39  1  0.02178000  0.73602000  0.09213000  1.0
  H  H40  1  0.28885000  0.74019000  0.52106000  1.0
  H  H41  1  0.78893000  0.25981000  0.97897000  1.0
  H  H42  1  0.71113000  0.25981000  0.47893000  1.0
  H  H43  1  0.21107000  0.74019000  0.02103000  1.0
  H  H44  1  0.10741000  0.64467000  0.45538000  1.0
  H  H45  1  0.60744000  0.35532000  0.04463000  1.0
  H  H46  1  0.89258000  0.35533000  0.54460000  1.0
  H  H47  1  0.39255000  0.64467000  0.95537000  1.0
  H  H48  1  0.08265000  0.45821000  0.44343000  1.0
  H  H49  1  0.58259000  0.54178000  0.05656000  1.0
  H  H50  1  0.91734000  0.54180000  0.55654000  1.0
  H  H51  1  0.41740000  0.45822000  0.94344000  1.0
  H  H52  1  0.78890000  0.09666000  0.15425000  1.0
  H  H53  1  0.28875000  0.90335000  0.34574000  1.0
  H  H54  1  0.21109000  0.90335000  0.84574000  1.0
  H  H55  1  0.71131000  0.09666000  0.65428000  1.0
  H  H56  1  0.93352000  0.02626000  0.06867000  1.0
  H  H57  1  0.43335000  0.97379000  0.43132000  1.0
  H  H58  1  0.06646000  0.97375000  0.93132000  1.0
  H  H59  1  0.56673000  0.02621000  0.56869000  1.0
  H  H60  1  0.18140000  0.03399000  0.07898000  1.0
  H  H61  1  0.68122000  0.96606000  0.42100000  1.0
  H  H62  1  0.81859000  0.96600000  0.92100000  1.0
  H  H63  1  0.31886000  0.03395000  0.57900000  1.0
  H  H64  1  0.28311000  0.10679000  0.17765000  1.0
  H  H65  1  0.78295000  0.89321000  0.32234000  1.0
  H  H66  1  0.71689000  0.89319000  0.82234000  1.0
  H  H67  1  0.21710000  0.10679000  0.67766000  1.0
  H  H68  1  0.25953000  0.17692000  0.28466000  1.0
  H  H69  1  0.75941000  0.82303000  0.21534000  1.0
  H  H70  1  0.74049000  0.82306000  0.71533000  1.0
  H  H71  1  0.24062000  0.17697000  0.78466000  1.0
  H  H72  1  0.67892000  0.21144000  0.30825000  1.0
  H  H73  1  0.17882000  0.78852000  0.19175000  1.0
  H  H74  1  0.32109000  0.78854000  0.69174000  1.0
  H  H75  1  0.82121000  0.21151000  0.80828000  1.0
  H  H76  1  0.67961000  0.11235000  0.24257000  1.0
  H  H77  1  0.17949000  0.88762000  0.25743000  1.0
  H  H78  1  0.32040000  0.88763000  0.75742000  1.0
  H  H79  1  0.82057000  0.11240000  0.74261000  1.0
  H  H80  1  0.51885000  0.44091000  0.13981000  1.0
  H  H81  1  0.01882000  0.55909000  0.36021000  1.0
  H  H82  1  0.48113000  0.55909000  0.86020000  1.0
  H  H83  1  0.98114000  0.44092000  0.63979000  1.0
  H  H84  1  0.60287000  0.58908000  0.21234000  1.0
  H  H85  1  0.10283000  0.41092000  0.28768000  1.0
  H  H86  1  0.39713000  0.41092000  0.78767000  1.0
  H  H87  1  0.89712000  0.58910000  0.71232000  1.0
  H  H88  1  0.72607000  0.66505000  0.30572000  1.0
  H  H89  1  0.22604000  0.33493000  0.19430000  1.0
  H  H90  1  0.27396000  0.33493000  0.69429000  1.0
  H  H91  1  0.77392000  0.66508000  0.80571000  1.0
  H  H92  1  0.81237000  0.55293000  0.36473000  1.0
  H  H93  1  0.31236000  0.44703000  0.13528000  1.0
  H  H94  1  0.18763000  0.44704000  0.63527000  1.0
  H  H95  1  0.68762000  0.55297000  0.86473000  1.0
  H  H96  1  0.78630000  0.36798000  0.33138000  1.0
  H  H97  1  0.28623000  0.63199000  0.16862000  1.0
  H  H98  1  0.21370000  0.63199000  0.66861000  1.0
  H  H99  1  0.71377000  0.36802000  0.83139000  1.0
  C  C100  1  0.47315000  0.28679000  0.57832000  1.0
  C  C101  1  0.97306000  0.71319000  0.92166000  1.0
  C  C102  1  0.52682000  0.71323000  0.42168000  1.0
  C  C103  1  0.02692000  0.28680000  0.07833000  1.0
  C  C104  1  0.56807000  0.33122000  0.62145000  1.0
  C  C105  1  0.06800000  0.66877000  0.87853000  1.0
  C  C106  1  0.43191000  0.66880000  0.37855000  1.0
  C  C107  1  0.93198000  0.33123000  0.12146000  1.0
  C  C108  1  0.58961000  0.43483000  0.63483000  1.0
  C  C109  1  0.08959000  0.56516000  0.86516000  1.0
  C  C110  1  0.41037000  0.56519000  0.36516000  1.0
  C  C111  1  0.91039000  0.43484000  0.13484000  1.0
  C  C112  1  0.51700000  0.49374000  0.60472000  1.0
  C  C113  1  0.01699000  0.50626000  0.89528000  1.0
  C  C114  1  0.48298000  0.50628000  0.39527000  1.0
  C  C115  1  0.98300000  0.49374000  0.10472000  1.0
  C  C116  1  0.53540000  0.60082000  0.61463000  1.0
  C  C117  1  0.03543000  0.39918000  0.88538000  1.0
  C  C118  1  0.46459000  0.39919000  0.38536000  1.0
  C  C119  1  0.96456000  0.60082000  0.11462000  1.0
  C  C120  1  0.46104000  0.65486000  0.58496000  1.0
  C  C121  1  0.96110000  0.34514000  0.91505000  1.0
  C  C122  1  0.53894000  0.34515000  0.41502000  1.0
  C  C123  1  0.03890000  0.65486000  0.08495000  1.0
  C  C124  1  0.35955000  0.60640000  0.54440000  1.0
  C  C125  1  0.85958000  0.39360000  0.95561000  1.0
  C  C126  1  0.64043000  0.39361000  0.45559000  1.0
  C  C127  1  0.14042000  0.60640000  0.04439000  1.0
  C  C128  1  0.27592000  0.65862000  0.51420000  1.0
  C  C129  1  0.77597000  0.34138000  0.98582000  1.0
  C  C130  1  0.72406000  0.34139000  0.48579000  1.0
  C  C131  1  0.22403000  0.65862000  0.01418000  1.0
  C  C132  1  0.17662000  0.60645000  0.47774000  1.0
  C  C133  1  0.67664000  0.39355000  0.02227000  1.0
  C  C134  1  0.82336000  0.39356000  0.52224000  1.0
  C  C135  1  0.32335000  0.60645000  0.97773000  1.0
  C  C136  1  0.16124000  0.50182000  0.47100000  1.0
  C  C137  1  0.66121000  0.49817000  0.02900000  1.0
  C  C138  1  0.83875000  0.49819000  0.52898000  1.0
  C  C139  1  0.33878000  0.50182000  0.97100000  1.0
  C  C140  1  0.33801000  0.50044000  0.53399000  1.0
  C  C141  1  0.83800000  0.49956000  0.96601000  1.0
  C  C142  1  0.66197000  0.49957000  0.46600000  1.0
  C  C143  1  0.16200000  0.50044000  0.03399000  1.0
  C  C144  1  0.42068000  0.44281000  0.56314000  1.0
  C  C145  1  0.92065000  0.55718000  0.93686000  1.0
  C  C146  1  0.57929000  0.55720000  0.43686000  1.0
  C  C147  1  0.07934000  0.44282000  0.06314000  1.0
  C  C148  1  0.13520000  0.23948000  0.38867000  1.0
  C  C149  1  0.63513000  0.76048000  0.11133000  1.0
  C  C150  1  0.86482000  0.76050000  0.61132000  1.0
  C  C151  1  0.36488000  0.23953000  0.88867000  1.0
  C  C152  1  0.07280000  0.21078000  0.32921000  1.0
  C  C153  1  0.57269000  0.78916000  0.17078000  1.0
  C  C154  1  0.92722000  0.78919000  0.67078000  1.0
  C  C155  1  0.42733000  0.21084000  0.82923000  1.0
  C  C156  1  0.93049000  0.21364000  0.32279000  1.0
  C  C157  1  0.43039000  0.78631000  0.17721000  1.0
  C  C158  1  0.06952000  0.78634000  0.67720000  1.0
  C  C159  1  0.56964000  0.21369000  0.82281000  1.0
  C  C160  1  0.86954000  0.18392000  0.26739000  1.0
  C  C161  1  0.36942000  0.81604000  0.23260000  1.0
  C  C162  1  0.13047000  0.81607000  0.73260000  1.0
  C  C163  1  0.63061000  0.18395000  0.76742000  1.0
  C  C164  1  0.95128000  0.14417000  0.21689000  1.0
  C  C165  1  0.45114000  0.85580000  0.28311000  1.0
  C  C166  1  0.04873000  0.85582000  0.78310000  1.0
  C  C167  1  0.54890000  0.14420000  0.71691000  1.0
  C  C168  1  0.89667000  0.10051000  0.15980000  1.0
  C  C169  1  0.39651000  0.89947000  0.34020000  1.0
  C  C170  1  0.10333000  0.89948000  0.84020000  1.0
  C  C171  1  0.60354000  0.10052000  0.65982000  1.0
  C  C172  1  0.97808000  0.06052000  0.11181000  1.0
  C  C173  1  0.47791000  0.93950000  0.38818000  1.0
  C  C174  1  0.02191000  0.93948000  0.88818000  1.0
  C  C175  1  0.52216000  0.06050000  0.61184000  1.0
  C  C176  1  0.11856000  0.06364000  0.11754000  1.0
  C  C177  1  0.61839000  0.93638000  0.38245000  1.0
  C  C178  1  0.88143000  0.93635000  0.88245000  1.0
  C  C179  1  0.38168000  0.06361000  0.61756000  1.0
  C  C180  1  0.17506000  0.10486000  0.17214000  1.0
  C  C181  1  0.67490000  0.89513000  0.32786000  1.0
  C  C182  1  0.82494000  0.89512000  0.82785000  1.0
  C  C183  1  0.32515000  0.10487000  0.67215000  1.0
  C  C184  1  0.09425000  0.14387000  0.22279000  1.0
  C  C185  1  0.59410000  0.85609000  0.27720000  1.0
  C  C186  1  0.90576000  0.85612000  0.77720000  1.0
  C  C187  1  0.40593000  0.14390000  0.72281000  1.0
  C  C188  1  0.15162000  0.17842000  0.27940000  1.0
  C  C189  1  0.65149000  0.82153000  0.22060000  1.0
  C  C190  1  0.84840000  0.82156000  0.72059000  1.0
  C  C191  1  0.34854000  0.17847000  0.77941000  1.0
  C  C192  1  0.71867000  0.18882000  0.26305000  1.0
  C  C193  1  0.21855000  0.81114000  0.23695000  1.0
  C  C194  1  0.28134000  0.81116000  0.73695000  1.0
  C  C195  1  0.78149000  0.18887000  0.76308000  1.0
  C  C196  1  0.66352000  0.26048000  0.22931000  1.0
  C  C197  1  0.16342000  0.73950000  0.27070000  1.0
  C  C198  1  0.33648000  0.73951000  0.77069000  1.0
  C  C199  1  0.83659000  0.26051000  0.72932000  1.0
  C  C200  1  0.58714000  0.22211000  0.17841000  1.0
  C  C201  1  0.08706000  0.77787000  0.32160000  1.0
  C  C202  1  0.41285000  0.77788000  0.82159000  1.0
  C  C203  1  0.91296000  0.22214000  0.67842000  1.0
  C  C204  1  0.53371000  0.28799000  0.14564000  1.0
  C  C205  1  0.03365000  0.71200000  0.35437000  1.0
  C  C206  1  0.46627000  0.71200000  0.85436000  1.0
  C  C207  1  0.96634000  0.28801000  0.64563000  1.0
  C  C208  1  0.44950000  0.24819000  0.09229000  1.0
  C  C209  1  0.94942000  0.75182000  0.40773000  1.0
  C  C210  1  0.55048000  0.75182000  0.90772000  1.0
  C  C211  1  0.05056000  0.24820000  0.59227000  1.0
  C  C212  1  0.55776000  0.39129000  0.16512000  1.0
  C  C213  1  0.05771000  0.60870000  0.33490000  1.0
  C  C214  1  0.44223000  0.60870000  0.83489000  1.0
  C  C215  1  0.94226000  0.39131000  0.66510000  1.0
  C  C216  1  0.62826000  0.43405000  0.21747000  1.0
  C  C217  1  0.12821000  0.56594000  0.28255000  1.0
  C  C218  1  0.37174000  0.56595000  0.78254000  1.0
  C  C219  1  0.87176000  0.43407000  0.71746000  1.0
  C  C220  1  0.64581000  0.54105000  0.23801000  1.0
  C  C221  1  0.14578000  0.45894000  0.26201000  1.0
  C  C222  1  0.35419000  0.45895000  0.76200000  1.0
  C  C223  1  0.85418000  0.54107000  0.73799000  1.0
  C  C224  1  0.71336000  0.58300000  0.28970000  1.0
  C  C225  1  0.21333000  0.41698000  0.21031000  1.0
  C  C226  1  0.28665000  0.41699000  0.71030000  1.0
  C  C227  1  0.78663000  0.58303000  0.78969000  1.0
  C  C228  1  0.76345000  0.51857000  0.32282000  1.0
  C  C229  1  0.26342000  0.48140000  0.17719000  1.0
  C  C230  1  0.23655000  0.48140000  0.67719000  1.0
  C  C231  1  0.73656000  0.51861000  0.82281000  1.0
  C  C232  1  0.74915000  0.41447000  0.30383000  1.0
  C  C233  1  0.24909000  0.58550000  0.19618000  1.0
  C  C234  1  0.25085000  0.58551000  0.69618000  1.0
  C  C235  1  0.75090000  0.41451000  0.80383000  1.0
  C  C236  1  0.68173000  0.36787000  0.25022000  1.0
  C  C237  1  0.18165000  0.63211000  0.24978000  1.0
  C  C238  1  0.31827000  0.63212000  0.74978000  1.0
  C  C239  1  0.81834000  0.36790000  0.75022000  1.0
  N  N240  1  0.40050000  0.34112000  0.55030000  1.0
  N  N241  1  0.90043000  0.65887000  0.94969000  1.0
  N  N242  1  0.59946000  0.65889000  0.44970000  1.0
  N  N243  1  0.09956000  0.34113000  0.05031000  1.0
  N  N244  1  0.24002000  0.45024000  0.49816000  1.0
  N  N245  1  0.73997000  0.54975000  0.00184000  1.0
  N  N246  1  0.75996000  0.54977000  0.50183000  1.0
  N  N247  1  0.26002000  0.45025000  0.99816000  1.0
  O  O248  1  0.25969000  0.23383000  0.39606000  1.0
  O  O249  1  0.75961000  0.76616000  0.10395000  1.0
  O  O250  1  0.74034000  0.76615000  0.60392000  1.0
  O  O251  1  0.24039000  0.23386000  0.89606000  1.0
  O  O252  1  0.05802000  0.27067000  0.43453000  1.0
  O  O253  1  0.55797000  0.72928000  0.06546000  1.0
  O  O254  1  0.94201000  0.72931000  0.56546000  1.0
  O  O255  1  0.44203000  0.27072000  0.93455000  1.0
  O  O256  1  0.85344000  0.24635000  0.37155000  1.0
  O  O257  1  0.35335000  0.75360000  0.12844000  1.0
  O  O258  1  0.14659000  0.75363000  0.62844000  1.0
  O  O259  1  0.64666000  0.24640000  0.87158000  1.0
  O  O260  1  0.56313000  0.12067000  0.15924000  1.0
  O  O261  1  0.06305000  0.87932000  0.34078000  1.0
  O  O262  1  0.43686000  0.87933000  0.84076000  1.0
  O  O263  1  0.93700000  0.12069000  0.65925000  1.0
  O  O264  1  0.42865000  0.15179000  0.07424000  1.0
  O  O265  1  0.92856000  0.84822000  0.42578000  1.0
  O  O266  1  0.57132000  0.84822000  0.92577000  1.0
  O  O267  1  0.07145000  0.15180000  0.57423000  1.0
  O  O268  1  0.40138000  0.31261000  0.06729000  1.0
  O  O269  1  0.90130000  0.68740000  0.43272000  1.0
  O  O270  1  0.59860000  0.68740000  0.93272000  1.0
  O  O271  1  0.09865000  0.31261000  0.56727000  1.0
  O  O272  1  0.25374000  0.13656000  0.49358000  1.0
  O  O273  1  0.75362000  0.86343000  0.00642000  1.0
  O  O274  1  0.74625000  0.86346000  0.50643000  1.0
  O  O275  1  0.24637000  0.13657000  0.99358000  1.0
