# generated using pymatgen
data_CdH8C12O5
_symmetry_space_group_name_H-M   'P 1'
_cell_length_a   6.31144000
_cell_length_b   7.27824000
_cell_length_c   12.13353905
_cell_angle_alpha   90.23319763
_cell_angle_beta   102.66470174
_cell_angle_gamma   93.51770000
_symmetry_Int_Tables_number   1
_chemical_formula_structural   CdH8C12O5
_chemical_formula_sum   'Cd2 H16 C24 O10'
_cell_volume   542.69502691
_cell_formula_units_Z   2
loop_
 _symmetry_equiv_pos_site_id
 _symmetry_equiv_pos_as_xyz
  1  'x, y, z'
loop_
 _atom_site_type_symbol
 _atom_site_label
 _atom_site_symmetry_multiplicity
 _atom_site_fract_x
 _atom_site_fract_y
 _atom_site_fract_z
 _atom_site_occupancy
  Cd  Cd0  1  0.67350000  0.74583000  0.99402000  1.0
  Cd  Cd1  1  0.32648000  0.25420000  0.00599000  1.0
  H  H2  1  0.08330000  0.67504000  0.94061000  1.0
  H  H3  1  0.87039000  0.15034000  0.97919000  1.0
  H  H4  1  0.91667000  0.32496000  0.05938000  1.0
  H  H5  1  0.12961000  0.84964000  0.02081000  1.0
  H  H6  1  0.58719000  0.36627000  0.38317000  1.0
  H  H7  1  0.77559000  0.86318000  0.37239000  1.0
  H  H8  1  0.41282000  0.63374000  0.61682000  1.0
  H  H9  1  0.22439000  0.13680000  0.62760000  1.0
  H  H10  1  0.08988000  0.57884000  0.22010000  1.0
  H  H11  1  0.15259000  0.06928000  0.22655000  1.0
  H  H12  1  0.91015000  0.42116000  0.77989000  1.0
  H  H13  1  0.84738000  0.93071000  0.77346000  1.0
  H  H14  1  0.65939000  0.35934000  0.59407000  1.0
  H  H15  1  0.90617000  0.86125000  0.58209000  1.0
  H  H16  1  0.34063000  0.64067000  0.40593000  1.0
  H  H17  1  0.09387000  0.13878000  0.41794000  1.0
  C  C18  1  0.89161000  0.46037000  0.49697000  1.0
  C  C19  1  0.59861000  0.96063000  0.49381000  1.0
  C  C20  1  0.10841000  0.53964000  0.50302000  1.0
  C  C21  1  0.40140000  0.03936000  0.50619000  1.0
  C  C22  1  0.75216000  0.42643000  0.38960000  1.0
  C  C23  1  0.62773000  0.92338000  0.38387000  1.0
  C  C24  1  0.24785000  0.57357000  0.61040000  1.0
  C  C25  1  0.37228000  0.07661000  0.61614000  1.0
  C  C26  1  0.82248000  0.46899000  0.29157000  1.0
  C  C27  1  0.46937000  0.96192000  0.28951000  1.0
  C  C28  1  0.17753000  0.53099000  0.70843000  1.0
  C  C29  1  0.53061000  0.03808000  0.71049000  1.0
  C  C30  1  0.67079000  0.43338000  0.17989000  1.0
  C  C31  1  0.50393000  0.91824000  0.17491000  1.0
  C  C32  1  0.32921000  0.56662000  0.82010000  1.0
  C  C33  1  0.49604000  0.08176000  0.82509000  1.0
  C  C34  1  0.03718000  0.54636000  0.29784000  1.0
  C  C35  1  0.27465000  0.03986000  0.30182000  1.0
  C  C36  1  0.96286000  0.45363000  0.70216000  1.0
  C  C37  1  0.72534000  0.96013000  0.69819000  1.0
  C  C38  1  0.82386000  0.41934000  0.59891000  1.0
  C  C39  1  0.75773000  0.92228000  0.59216000  1.0
  C  C40  1  0.17618000  0.58065000  0.40109000  1.0
  C  C41  1  0.24229000  0.07772000  0.40785000  1.0
  O  O42  1  0.74016000  0.46134000  0.08845000  1.0
  O  O43  1  0.36023000  0.95671000  0.08716000  1.0
  O  O44  1  0.25983000  0.53865000  0.91154000  1.0
  O  O45  1  0.63973000  0.04329000  0.91283000  1.0
  O  O46  1  0.47634000  0.37282000  0.17767000  1.0
  O  O47  1  0.67661000  0.84058000  0.16824000  1.0
  O  O48  1  0.52365000  0.62722000  0.82233000  1.0
  O  O49  1  0.32337000  0.15942000  0.83175000  1.0
  O  O50  1  0.01115000  0.78127000  0.96538000  1.0
  O  O51  1  0.98884000  0.21873000  0.03462000  1.0
