# generated using pymatgen
data_ZnH15C25NO4
_symmetry_space_group_name_H-M   'P 1'
_cell_length_a   16.16400000
_cell_length_b   18.26810000
_cell_length_c   19.67680000
_cell_angle_alpha   89.96550000
_cell_angle_beta   89.73430000
_cell_angle_gamma   89.91720000
_symmetry_Int_Tables_number   1
_chemical_formula_structural   ZnH15C25NO4
_chemical_formula_sum   'Zn2 H30 C50 N2 O8'
_cell_volume   5810.20550059
_cell_formula_units_Z   2
loop_
 _symmetry_equiv_pos_site_id
 _symmetry_equiv_pos_as_xyz
  1  'x, y, z'
loop_
 _atom_site_type_symbol
 _atom_site_label
 _atom_site_symmetry_multiplicity
 _atom_site_fract_x
 _atom_site_fract_y
 _atom_site_fract_z
 _atom_site_occupancy
  Zn  Zn0  1  0.49983000  0.57640000  0.49996000  1.0
  Zn  Zn1  1  0.50017000  0.42360000  0.50005000  1.0
  H  H2  1  0.05082000  0.43175000  0.59873000  1.0
  H  H3  1  0.94919000  0.56825000  0.40124000  1.0
  H  H4  1  0.58511000  0.69236000  0.42143000  1.0
  H  H5  1  0.41487000  0.30764000  0.57854000  1.0
  H  H6  1  0.58838000  0.82942000  0.41709000  1.0
  H  H7  1  0.41161000  0.17058000  0.58289000  1.0
  H  H8  1  0.41171000  0.82963000  0.58298000  1.0
  H  H9  1  0.58827000  0.17037000  0.41699000  1.0
  H  H10  1  0.41472000  0.69257000  0.57860000  1.0
  H  H11  1  0.58526000  0.30743000  0.42137000  1.0
  H  H12  1  0.36933000  0.93262000  0.52241000  1.0
  H  H13  1  0.63066000  0.06738000  0.47758000  1.0
  H  H14  1  0.36924000  0.06757000  0.52238000  1.0
  H  H15  1  0.63074000  0.93243000  0.47761000  1.0
  H  H16  1  0.49895000  0.38265000  0.28305000  1.0
  H  H17  1  0.50094000  0.61736000  0.71698000  1.0
  H  H18  1  0.49862000  0.38207000  0.15596000  1.0
  H  H19  1  0.50121000  0.61795000  0.84405000  1.0
  H  H20  1  0.50171000  0.61717000  0.28293000  1.0
  H  H21  1  0.49815000  0.38284000  0.71709000  1.0
  H  H22  1  0.59630000  0.58104000  0.93647000  1.0
  H  H23  1  0.40348000  0.41901000  0.06356000  1.0
  H  H24  1  0.94685000  0.55709000  0.60422000  1.0
  H  H25  1  0.05315000  0.44291000  0.39575000  1.0
  H  H26  1  0.95003000  0.37331000  0.49385000  1.0
  H  H27  1  0.04997000  0.62668000  0.50613000  1.0
  H  H28  1  0.50168000  0.61779000  0.15585000  1.0
  H  H29  1  0.49813000  0.38222000  0.84417000  1.0
  H  H30  1  0.59675000  0.58091000  0.06239000  1.0
  H  H31  1  0.40302000  0.41916000  0.93764000  1.0
  C  C32  1  0.49883000  0.50010000  0.63340000  1.0
  C  C33  1  0.50112000  0.49990000  0.36662000  1.0
  C  C34  1  0.49865000  0.43378000  0.18372000  1.0
  C  C35  1  0.50120000  0.56624000  0.81629000  1.0
  C  C36  1  0.50039000  0.49994000  0.14712000  1.0
  C  C37  1  0.49943000  0.50009000  0.85290000  1.0
  C  C38  1  0.50219000  0.56607000  0.18366000  1.0
  C  C39  1  0.49764000  0.43395000  0.81638000  1.0
  C  C40  1  0.50192000  0.56607000  0.25437000  1.0
  C  C41  1  0.49794000  0.43394000  0.74565000  1.0
  C  C42  1  0.50088000  0.49991000  0.29046000  1.0
  C  C43  1  0.49901000  0.50010000  0.70956000  1.0
  C  C44  1  0.55317000  0.54625000  0.03506000  1.0
  C  C45  1  0.44661000  0.45380000  0.96496000  1.0
  C  C46  1  0.55294000  0.54631000  0.96431000  1.0
  C  C47  1  0.44685000  0.45373000  0.03572000  1.0
  C  C48  1  0.49964000  0.50008000  0.92795000  1.0
  C  C49  1  0.50015000  0.49997000  0.07208000  1.0
  C  C50  1  0.54791000  0.72563000  0.45603000  1.0
  C  C51  1  0.45208000  0.27436000  0.54394000  1.0
  C  C52  1  0.54969000  0.80164000  0.45451000  1.0
  C  C53  1  0.45029000  0.19836000  0.54546000  1.0
  C  C54  1  0.33747000  0.49962000  0.50107000  1.0
  C  C55  1  0.66252000  0.50036000  0.49894000  1.0
  C  C56  1  0.50004000  0.84171000  0.50002000  1.0
  C  C57  1  0.49995000  0.15829000  0.49996000  1.0
  C  C58  1  0.45033000  0.80176000  0.54552000  1.0
  C  C59  1  0.54965000  0.19824000  0.45445000  1.0
  C  C60  1  0.45194000  0.72575000  0.54397000  1.0
  C  C61  1  0.54804000  0.27425000  0.45601000  1.0
  C  C62  1  0.42712000  0.96200000  0.51359000  1.0
  C  C63  1  0.57287000  0.03800000  0.48640000  1.0
  C  C64  1  0.42708000  0.03812000  0.51358000  1.0
  C  C65  1  0.57291000  0.96188000  0.48641000  1.0
  C  C66  1  0.49995000  0.07751000  0.49997000  1.0
  C  C67  1  0.50004000  0.92249000  0.50001000  1.0
  C  C68  1  0.97146000  0.53186000  0.55795000  1.0
  C  C69  1  0.02853000  0.46813000  0.44203000  1.0
  C  C70  1  0.02718000  0.46192000  0.55488000  1.0
  C  C71  1  0.97282000  0.53807000  0.44510000  1.0
  C  C72  1  0.24801000  0.49973000  0.50130000  1.0
  C  C73  1  0.75197000  0.50025000  0.49869000  1.0
  C  C74  1  0.02689000  0.57050000  0.50342000  1.0
  C  C75  1  0.97311000  0.42949000  0.49656000  1.0
  C  C76  1  0.08505000  0.50071000  0.50042000  1.0
  C  C77  1  0.91495000  0.49928000  0.49956000  1.0
  C  C78  1  0.17260000  0.50019000  0.50085000  1.0
  C  C79  1  0.82741000  0.49980000  0.49913000  1.0
  C  C80  1  0.49933000  0.43376000  0.25444000  1.0
  C  C81  1  0.50055000  0.56625000  0.74557000  1.0
  N  N82  1  0.49984000  0.68844000  0.49996000  1.0
  N  N83  1  0.50014000  0.31156000  0.50001000  1.0
  O  O84  1  0.49881000  0.56220000  0.60381000  1.0
  O  O85  1  0.50117000  0.43781000  0.39621000  1.0
  O  O86  1  0.49885000  0.43803000  0.60385000  1.0
  O  O87  1  0.50112000  0.56198000  0.39617000  1.0
  O  O88  1  0.37261000  0.56203000  0.50090000  1.0
  O  O89  1  0.62739000  0.43795000  0.49911000  1.0
  O  O90  1  0.37277000  0.43721000  0.50093000  1.0
  O  O91  1  0.62723000  0.56278000  0.49908000  1.0
