# generated using pymatgen
data_Cd3H46C52(N4O7)2
_symmetry_space_group_name_H-M   'P 1'
_cell_length_a   9.79153000
_cell_length_b   9.79528000
_cell_length_c   14.81490000
_cell_angle_alpha   76.20910000
_cell_angle_beta   76.20370000
_cell_angle_gamma   83.06650000
_symmetry_Int_Tables_number   1
_chemical_formula_structural   Cd3H46C52(N4O7)2
_chemical_formula_sum   'Cd3 H46 C52 N8 O14'
_cell_volume   1337.05844084
_cell_formula_units_Z   1
loop_
 _symmetry_equiv_pos_site_id
 _symmetry_equiv_pos_as_xyz
  1  'x, y, z'
loop_
 _atom_site_type_symbol
 _atom_site_label
 _atom_site_symmetry_multiplicity
 _atom_site_fract_x
 _atom_site_fract_y
 _atom_site_fract_z
 _atom_site_occupancy
  Cd  Cd0  1  0.53876000  0.46119000  0.00007000  1.0
  Cd  Cd1  1  0.37756000  0.37225000  0.27865000  1.0
  Cd  Cd2  1  0.62775000  0.62243000  0.72134000  1.0
  H  H3  1  0.52473000  0.93936000  0.02862000  1.0
  H  H4  1  0.06063000  0.47526000  0.97136000  1.0
  H  H5  1  0.46536000  0.08950000  0.28640000  1.0
  H  H6  1  0.91045000  0.53459000  0.71360000  1.0
  H  H7  1  0.37561000  0.66572000  0.30119000  1.0
  H  H8  1  0.33434000  0.62441000  0.69879000  1.0
  H  H9  1  0.26697000  0.88012000  0.43587000  1.0
  H  H10  1  0.11985000  0.73293000  0.56414000  1.0
  H  H11  1  0.40031000  0.74104000  0.44530000  1.0
  H  H12  1  0.25901000  0.59967000  0.55467000  1.0
  H  H13  1  0.64187000  0.83946000  0.39143000  1.0
  H  H14  1  0.16056000  0.35820000  0.60857000  1.0
  H  H15  1  0.67469000  0.09231000  0.37653000  1.0
  H  H16  1  0.90761000  0.32534000  0.62350000  1.0
  H  H17  1  0.78308000  0.98265000  0.45076000  1.0
  H  H18  1  0.01734000  0.21701000  0.54925000  1.0
  H  H19  1  0.62428000  0.07189000  0.50224000  1.0
  H  H20  1  0.92804000  0.37572000  0.49778000  1.0
  H  H21  1  0.53847000  0.44073000  0.43587000  1.0
  H  H22  1  0.55924000  0.46150000  0.56414000  1.0
  H  H23  1  0.80066000  0.55816000  0.38469000  1.0
  H  H24  1  0.44191000  0.19934000  0.61531000  1.0
  H  H25  1  0.71969000  0.43026000  0.14924000  1.0
  H  H26  1  0.56978000  0.28038000  0.85076000  1.0
  H  H27  1  0.94631000  0.51646000  0.12500000  1.0
  H  H28  1  0.48369000  0.05374000  0.87497000  1.0
  H  H29  1  0.01811000  0.49812000  0.22690000  1.0
  H  H30  1  0.50202000  0.98200000  0.77305000  1.0
  H  H31  1  0.17443000  0.68168000  0.14098000  1.0
  H  H32  1  0.31841000  0.82566000  0.85900000  1.0
  H  H33  1  0.20954000  0.93720000  0.09953000  1.0
  H  H34  1  0.06281000  0.79056000  0.90047000  1.0
  H  H35  1  0.76010000  0.02828000  0.15551000  1.0
  H  H36  1  0.97164000  0.23982000  0.84452000  1.0
  H  H37  1  0.72388000  0.77340000  0.19380000  1.0
  H  H38  1  0.22661000  0.27604000  0.80622000  1.0
  H  H39  1  0.08368000  0.18932000  0.03770000  1.0
  H  H40  1  0.81056000  0.91633000  0.96231000  1.0
  H  H41  1  0.90927000  0.21923000  0.10182000  1.0
  H  H42  1  0.78063000  0.09067000  0.89819000  1.0
  H  H43  1  0.94255000  0.05810000  0.30521000  1.0
  H  H44  1  0.94183000  0.05746000  0.69479000  1.0
  H  H45  1  0.11584000  0.16365000  0.39459000  1.0
  H  H46  1  0.83636000  0.88414000  0.60540000  1.0
  H  H47  1  0.22960000  0.32298000  0.09740000  1.0
  H  H48  1  0.67700000  0.77037000  0.90260000  1.0
  C  C49  1  0.46383000  0.67081000  0.11052000  1.0
  C  C50  1  0.32924000  0.53623000  0.88947000  1.0
  C  C51  1  0.52559000  0.17591000  0.09162000  1.0
  C  C52  1  0.82401000  0.47436000  0.90837000  1.0
  C  C53  1  0.45434000  0.78900000  0.15989000  1.0
  C  C54  1  0.21103000  0.54565000  0.84010000  1.0
  C  C55  1  0.49348000  0.92170000  0.10585000  1.0
  C  C56  1  0.07829000  0.50649000  0.89413000  1.0
  C  C57  1  0.49229000  0.03233000  0.15060000  1.0
  C  C58  1  0.96763000  0.50767000  0.84939000  1.0
  C  C59  1  0.45898000  0.00678000  0.25017000  1.0
  C  C60  1  0.99319000  0.54098000  0.74982000  1.0
  C  C61  1  0.41870000  0.87521000  0.30495000  1.0
  C  C62  1  0.12480000  0.58126000  0.69504000  1.0
  C  C63  1  0.41242000  0.76725000  0.25929000  1.0
  C  C64  1  0.23280000  0.58756000  0.74069000  1.0
  C  C65  1  0.38041000  0.85313000  0.41243000  1.0
  C  C66  1  0.14687000  0.61955000  0.58756000  1.0
  C  C67  1  0.59265000  0.89072000  0.45138000  1.0
  C  C68  1  0.10927000  0.40738000  0.54863000  1.0
  C  C69  1  0.60157000  0.78152000  0.54443000  1.0
  C  C70  1  0.21849000  0.39844000  0.45557000  1.0
  C  C71  1  0.67415000  0.01731000  0.44474000  1.0
  C  C72  1  0.98264000  0.32588000  0.55528000  1.0
  C  C73  1  0.61590000  0.45606000  0.36933000  1.0
  C  C74  1  0.54394000  0.38409000  0.63068000  1.0
  C  C75  1  0.74463000  0.51322000  0.34491000  1.0
  C  C76  1  0.48685000  0.25537000  0.65509000  1.0
  C  C77  1  0.70355000  0.44686000  0.22107000  1.0
  C  C78  1  0.55317000  0.29649000  0.77893000  1.0
  C  C79  1  0.93376000  0.55270000  0.19157000  1.0
  C  C80  1  0.44743000  0.06630000  0.80841000  1.0
  C  C81  1  0.94706000  0.71011000  0.16957000  1.0
  C  C82  1  0.28995000  0.05295000  0.83044000  1.0
  C  C83  1  0.08337000  0.75795000  0.14258000  1.0
  C  C84  1  0.24211000  0.91669000  0.85742000  1.0
  C  C85  1  0.10299000  0.90141000  0.11947000  1.0
  C  C86  1  0.09859000  0.89708000  0.88053000  1.0
  C  C87  1  0.98681000  0.00010000  0.12404000  1.0
  C  C88  1  0.99985000  0.01319000  0.87598000  1.0
  C  C89  1  0.85117000  0.95232000  0.15103000  1.0
  C  C90  1  0.04763000  0.14879000  0.84900000  1.0
  C  C91  1  0.83081000  0.80819000  0.17304000  1.0
  C  C92  1  0.19182000  0.16915000  0.82697000  1.0
  C  C93  1  0.00871000  0.15485000  0.10544000  1.0
  C  C94  1  0.84504000  0.99127000  0.89457000  1.0
  C  C95  1  0.02585000  0.13000000  0.27721000  1.0
  C  C96  1  0.86996000  0.97414000  0.72279000  1.0
  C  C97  1  0.11171000  0.18202000  0.32020000  1.0
  C  C98  1  0.81799000  0.88826000  0.67980000  1.0
  C  C99  1  0.17718000  0.26581000  0.16710000  1.0
  C  C100  1  0.73417000  0.82279000  0.83289000  1.0
  N  N101  1  0.59167000  0.41499000  0.29193000  1.0
  N  N102  1  0.58500000  0.40835000  0.70807000  1.0
  N  N103  1  0.79848000  0.50629000  0.25063000  1.0
  N  N104  1  0.49379000  0.20154000  0.74936000  1.0
  N  N105  1  0.20526000  0.26655000  0.25085000  1.0
  N  N106  1  0.73347000  0.79470000  0.74914000  1.0
  N  N107  1  0.06853000  0.18423000  0.18058000  1.0
  N  N108  1  0.81572000  0.93145000  0.81942000  1.0
  O  O109  1  0.39037000  0.56463000  0.14925000  1.0
  O  O110  1  0.43540000  0.60973000  0.85077000  1.0
  O  O111  1  0.54798000  0.68064000  0.02916000  1.0
  O  O112  1  0.31939000  0.45208000  0.97083000  1.0
  O  O113  1  0.55358000  0.19581000  0.00177000  1.0
  O  O114  1  0.80410000  0.44637000  0.99823000  1.0
  O  O115  1  0.52156000  0.27663000  0.13503000  1.0
  O  O116  1  0.72325000  0.47841000  0.86497000  1.0
  O  O117  1  0.45138000  0.94210000  0.44646000  1.0
  O  O118  1  0.05787000  0.54859000  0.55354000  1.0
  O  O119  1  0.71722000  0.70685000  0.54651000  1.0
  O  O120  1  0.29316000  0.28283000  0.45348000  1.0
  O  O121  1  0.49755000  0.77522000  0.61559000  1.0
  O  O122  1  0.22481000  0.50243000  0.38441000  1.0
