# generated using pymatgen
data_AgH11C12(NO)2
_symmetry_space_group_name_H-M   'P 1'
_cell_length_a   11.49780000
_cell_length_b   13.57670000
_cell_length_c   17.79580000
_cell_angle_alpha   89.99920000
_cell_angle_beta   89.99970000
_cell_angle_gamma   97.54130000
_symmetry_Int_Tables_number   1
_chemical_formula_structural   AgH11C12(NO)2
_chemical_formula_sum   'Ag8 H88 C96 N16 O16'
_cell_volume   2753.93525369
_cell_formula_units_Z   8
loop_
 _symmetry_equiv_pos_site_id
 _symmetry_equiv_pos_as_xyz
  1  'x, y, z'
loop_
 _atom_site_type_symbol
 _atom_site_label
 _atom_site_symmetry_multiplicity
 _atom_site_fract_x
 _atom_site_fract_y
 _atom_site_fract_z
 _atom_site_occupancy
  Ag  Ag0  1  0.77634000  0.64844000  0.51535000  1.0
  Ag  Ag1  1  0.22366000  0.85155000  0.01534000  1.0
  Ag  Ag2  1  0.22367000  0.35156000  0.48465000  1.0
  Ag  Ag3  1  0.77633000  0.14845000  0.98466000  1.0
  Ag  Ag4  1  0.90036000  0.85065000  0.50216000  1.0
  Ag  Ag5  1  0.09965000  0.64934000  0.00216000  1.0
  Ag  Ag6  1  0.09964000  0.14935000  0.49783000  1.0
  Ag  Ag7  1  0.90036000  0.35066000  0.99784000  1.0
  H  H8  1  0.97315000  0.64122000  0.39920000  1.0
  H  H9  1  0.02685000  0.85879000  0.89919000  1.0
  H  H10  1  0.02685000  0.35878000  0.60080000  1.0
  H  H11  1  0.97315000  0.14121000  0.10082000  1.0
  H  H12  1  0.18754000  0.64085000  0.39363000  1.0
  H  H13  1  0.81245000  0.85918000  0.89362000  1.0
  H  H14  1  0.81246000  0.35915000  0.60637000  1.0
  H  H15  1  0.18754000  0.14083000  0.10638000  1.0
  H  H16  1  0.17932000  0.59087000  0.63415000  1.0
  H  H17  1  0.82068000  0.90912000  0.13414000  1.0
  H  H18  1  0.82068000  0.40914000  0.36585000  1.0
  H  H19  1  0.17932000  0.09088000  0.86586000  1.0
  H  H20  1  0.96585000  0.59626000  0.62885000  1.0
  H  H21  1  0.03415000  0.90374000  0.12884000  1.0
  H  H22  1  0.03416000  0.40375000  0.37115000  1.0
  H  H23  1  0.96585000  0.09627000  0.87117000  1.0
  H  H24  1  0.57529000  0.63686000  0.39871000  1.0
  H  H25  1  0.42471000  0.86313000  0.89872000  1.0
  H  H26  1  0.42472000  0.36314000  0.60129000  1.0
  H  H27  1  0.57529000  0.13686000  0.10128000  1.0
  H  H28  1  0.35842000  0.63250000  0.39284000  1.0
  H  H29  1  0.64158000  0.86750000  0.89284000  1.0
  H  H30  1  0.64159000  0.36750000  0.60716000  1.0
  H  H31  1  0.35841000  0.13250000  0.10717000  1.0
  H  H32  1  0.35464000  0.60415000  0.63525000  1.0
  H  H33  1  0.64536000  0.89586000  0.13525000  1.0
  H  H34  1  0.64536000  0.39585000  0.36474000  1.0
  H  H35  1  0.35463000  0.10414000  0.86475000  1.0
  H  H36  1  0.57168000  0.61177000  0.62964000  1.0
  H  H37  1  0.42832000  0.88823000  0.12964000  1.0
  H  H38  1  0.42832000  0.38823000  0.37036000  1.0
  H  H39  1  0.57167000  0.11177000  0.87036000  1.0
  H  H40  1  0.10216000  0.87276000  0.61861000  1.0
  H  H41  1  0.89785000  0.62727000  0.11860000  1.0
  H  H42  1  0.89784000  0.12724000  0.38139000  1.0
  H  H43  1  0.10215000  0.37274000  0.88140000  1.0
  H  H44  1  0.31664000  0.86683000  0.62320000  1.0
  H  H45  1  0.68337000  0.63319000  0.12319000  1.0
  H  H46  1  0.68336000  0.13316000  0.37681000  1.0
  H  H47  1  0.31663000  0.36681000  0.87681000  1.0
  H  H48  1  0.31758000  0.88549000  0.38011000  1.0
  H  H49  1  0.68243000  0.61449000  0.88010000  1.0
  H  H50  1  0.68242000  0.11450000  0.61990000  1.0
  H  H51  1  0.31757000  0.38550000  0.11990000  1.0
  H  H52  1  0.10372000  0.89188000  0.38712000  1.0
  H  H53  1  0.89628000  0.60811000  0.88711000  1.0
  H  H54  1  0.89628000  0.10812000  0.61289000  1.0
  H  H55  1  0.10372000  0.39188000  0.11290000  1.0
  H  H56  1  0.70899000  0.89434000  0.38756000  1.0
  H  H57  1  0.29101000  0.60566000  0.88757000  1.0
  H  H58  1  0.29101000  0.10566000  0.61243000  1.0
  H  H59  1  0.70899000  0.39435000  0.11243000  1.0
  H  H60  1  0.49361000  0.89241000  0.38093000  1.0
  H  H61  1  0.50639000  0.60759000  0.88092000  1.0
  H  H62  1  0.50638000  0.10759000  0.61908000  1.0
  H  H63  1  0.49362000  0.39241000  0.11907000  1.0
  H  H64  1  0.48683000  0.85804000  0.62296000  1.0
  H  H65  1  0.51318000  0.64196000  0.12296000  1.0
  H  H66  1  0.51318000  0.14196000  0.37704000  1.0
  H  H67  1  0.48681000  0.35804000  0.87704000  1.0
  H  H68  1  0.70194000  0.86229000  0.61827000  1.0
  H  H69  1  0.29807000  0.63771000  0.11826000  1.0
  H  H70  1  0.29807000  0.13772000  0.38174000  1.0
  H  H71  1  0.70192000  0.36229000  0.88173000  1.0
  H  H72  1  0.90417000  0.83175000  0.77736000  1.0
  H  H73  1  0.09583000  0.66825000  0.27736000  1.0
  H  H74  1  0.09583000  0.16825000  0.22264000  1.0
  H  H75  1  0.90417000  0.33175000  0.72264000  1.0
  H  H76  1  0.92086000  0.70406000  0.78064000  1.0
  H  H77  1  0.07914000  0.79594000  0.28064000  1.0
  H  H78  1  0.07914000  0.29594000  0.21936000  1.0
  H  H79  1  0.92086000  0.20405000  0.71937000  1.0
  H  H80  1  0.77829000  0.73918000  0.79129000  1.0
  H  H81  1  0.22171000  0.76082000  0.29128000  1.0
  H  H82  1  0.22171000  0.26082000  0.20871000  1.0
  H  H83  1  0.77829000  0.23918000  0.70872000  1.0
  H  H84  1  0.73716000  0.69406000  0.23514000  1.0
  H  H85  1  0.26285000  0.80594000  0.73514000  1.0
  H  H86  1  0.26285000  0.30595000  0.76486000  1.0
  H  H87  1  0.73715000  0.19406000  0.26486000  1.0
  H  H88  1  0.87689000  0.76803000  0.22188000  1.0
  H  H89  1  0.12312000  0.73197000  0.72187000  1.0
  H  H90  1  0.12312000  0.23198000  0.77812000  1.0
  H  H91  1  0.87688000  0.26803000  0.27812000  1.0
  H  H92  1  0.75261000  0.82604000  0.24619000  1.0
  H  H93  1  0.24739000  0.67396000  0.74618000  1.0
  H  H94  1  0.24739000  0.17397000  0.75381000  1.0
  H  H95  1  0.75261000  0.32604000  0.25382000  1.0
  C  C96  1  0.02313000  0.63027000  0.44981000  1.0
  C  C97  1  0.97687000  0.86974000  0.94980000  1.0
  C  C98  1  0.97688000  0.36973000  0.55019000  1.0
  C  C99  1  0.02313000  0.13026000  0.05020000  1.0
  C  C100  1  0.14369000  0.63019000  0.44768000  1.0
  C  C101  1  0.85630000  0.86982000  0.94767000  1.0
  C  C102  1  0.85631000  0.36981000  0.55232000  1.0
  C  C103  1  0.14369000  0.13018000  0.05234000  1.0
  C  C104  1  0.20580000  0.61658000  0.51399000  1.0
  C  C105  1  0.79420000  0.88343000  0.01399000  1.0
  C  C106  1  0.79420000  0.38343000  0.48600000  1.0
  C  C107  1  0.20580000  0.11657000  0.98601000  1.0
  C  C108  1  0.13923000  0.60342000  0.58028000  1.0
  C  C109  1  0.86078000  0.89658000  0.08027000  1.0
  C  C110  1  0.86078000  0.39658000  0.41972000  1.0
  C  C111  1  0.13922000  0.10343000  0.91973000  1.0
  C  C112  1  0.01899000  0.60539000  0.57797000  1.0
  C  C113  1  0.98102000  0.89460000  0.07797000  1.0
  C  C114  1  0.98102000  0.39461000  0.42202000  1.0
  C  C115  1  0.01898000  0.10540000  0.92204000  1.0
  C  C116  1  0.52139000  0.62926000  0.44944000  1.0
  C  C117  1  0.47861000  0.87074000  0.94944000  1.0
  C  C118  1  0.47862000  0.37074000  0.55056000  1.0
  C  C119  1  0.52138000  0.12926000  0.05056000  1.0
  C  C120  1  0.40034000  0.62733000  0.44730000  1.0
  C  C121  1  0.59965000  0.87267000  0.94730000  1.0
  C  C122  1  0.59966000  0.37268000  0.55269000  1.0
  C  C123  1  0.40035000  0.12732000  0.05270000  1.0
  C  C124  1  0.33454000  0.61780000  0.51403000  1.0
  C  C125  1  0.66546000  0.88220000  0.01403000  1.0
  C  C126  1  0.66547000  0.38220000  0.48597000  1.0
  C  C127  1  0.33454000  0.11780000  0.98597000  1.0
  C  C128  1  0.39834000  0.61162000  0.58091000  1.0
  C  C129  1  0.60166000  0.88838000  0.08091000  1.0
  C  C130  1  0.60167000  0.38838000  0.41909000  1.0
  C  C131  1  0.39834000  0.11161000  0.91909000  1.0
  C  C132  1  0.51947000  0.61464000  0.57868000  1.0
  C  C133  1  0.48053000  0.88535000  0.07868000  1.0
  C  C134  1  0.48054000  0.38536000  0.42132000  1.0
  C  C135  1  0.51946000  0.11464000  0.92132000  1.0
  C  C136  1  0.15482000  0.87661000  0.56745000  1.0
  C  C137  1  0.84518000  0.62341000  0.06744000  1.0
  C  C138  1  0.84518000  0.12339000  0.43256000  1.0
  C  C139  1  0.15482000  0.37659000  0.93257000  1.0
  C  C140  1  0.27478000  0.87243000  0.56884000  1.0
  C  C141  1  0.72522000  0.62758000  0.06883000  1.0
  C  C142  1  0.72522000  0.12756000  0.43116000  1.0
  C  C143  1  0.27477000  0.37242000  0.93117000  1.0
  C  C144  1  0.33951000  0.87603000  0.50169000  1.0
  C  C145  1  0.66050000  0.62398000  0.00168000  1.0
  C  C146  1  0.66049000  0.12396000  0.49831000  1.0
  C  C147  1  0.33950000  0.37602000  0.99832000  1.0
  C  C148  1  0.27555000  0.88287000  0.43502000  1.0
  C  C149  1  0.72446000  0.61712000  0.93502000  1.0
  C  C150  1  0.72445000  0.11712000  0.56498000  1.0
  C  C151  1  0.27555000  0.38288000  0.06499000  1.0
  C  C152  1  0.15553000  0.88702000  0.43796000  1.0
  C  C153  1  0.84447000  0.61298000  0.93795000  1.0
  C  C154  1  0.84447000  0.11298000  0.56204000  1.0
  C  C155  1  0.15553000  0.38702000  0.06205000  1.0
  C  C156  1  0.65545000  0.88646000  0.43828000  1.0
  C  C157  1  0.34455000  0.61353000  0.93828000  1.0
  C  C158  1  0.34455000  0.11353000  0.56171000  1.0
  C  C159  1  0.65545000  0.38647000  0.06171000  1.0
  C  C160  1  0.53457000  0.88486000  0.43541000  1.0
  C  C161  1  0.46543000  0.61514000  0.93541000  1.0
  C  C162  1  0.46543000  0.11513000  0.56459000  1.0
  C  C163  1  0.53458000  0.38487000  0.06459000  1.0
  C  C164  1  0.46785000  0.87511000  0.50182000  1.0
  C  C165  1  0.53215000  0.62488000  0.00182000  1.0
  C  C166  1  0.53215000  0.12488000  0.49818000  1.0
  C  C167  1  0.46785000  0.37511000  0.99818000  1.0
  C  C168  1  0.53080000  0.86681000  0.56876000  1.0
  C  C169  1  0.46920000  0.63319000  0.06876000  1.0
  C  C170  1  0.46920000  0.13318000  0.43124000  1.0
  C  C171  1  0.53079000  0.36681000  0.93124000  1.0
  C  C172  1  0.65182000  0.86933000  0.56704000  1.0
  C  C173  1  0.34818000  0.63067000  0.06703000  1.0
  C  C174  1  0.34818000  0.13067000  0.43296000  1.0
  C  C175  1  0.65182000  0.36933000  0.93296000  1.0
  C  C176  1  0.84517000  0.74886000  0.67714000  1.0
  C  C177  1  0.15483000  0.75114000  0.17714000  1.0
  C  C178  1  0.15483000  0.25114000  0.32286000  1.0
  C  C179  1  0.84517000  0.24886000  0.82286000  1.0
  C  C180  1  0.86235000  0.75723000  0.76198000  1.0
  C  C181  1  0.13765000  0.74277000  0.26198000  1.0
  C  C182  1  0.13765000  0.24277000  0.23802000  1.0
  C  C183  1  0.86236000  0.25723000  0.73802000  1.0
  C  C184  1  0.82241000  0.75029000  0.33862000  1.0
  C  C185  1  0.17759000  0.74971000  0.83861000  1.0
  C  C186  1  0.17760000  0.24971000  0.66138000  1.0
  C  C187  1  0.82241000  0.25029000  0.16139000  1.0
  C  C188  1  0.79562000  0.75911000  0.25493000  1.0
  C  C189  1  0.20438000  0.74088000  0.75493000  1.0
  C  C190  1  0.20438000  0.24090000  0.74507000  1.0
  C  C191  1  0.79562000  0.25911000  0.24507000  1.0
  N  N192  1  0.96060000  0.61825000  0.51387000  1.0
  N  N193  1  0.03939000  0.88175000  0.01386000  1.0
  N  N194  1  0.03940000  0.38175000  0.48613000  1.0
  N  N195  1  0.96060000  0.11826000  0.98614000  1.0
  N  N196  1  0.58105000  0.62283000  0.51402000  1.0
  N  N197  1  0.41895000  0.87716000  0.01402000  1.0
  N  N198  1  0.41895000  0.37716000  0.48598000  1.0
  N  N199  1  0.58104000  0.12283000  0.98598000  1.0
  N  N200  1  0.09512000  0.88421000  0.50294000  1.0
  N  N201  1  0.90488000  0.61580000  0.00293000  1.0
  N  N202  1  0.90488000  0.11579000  0.49707000  1.0
  N  N203  1  0.09512000  0.38420000  0.99707000  1.0
  N  N204  1  0.71447000  0.87902000  0.50294000  1.0
  N  N205  1  0.28553000  0.62098000  0.00294000  1.0
  N  N206  1  0.28553000  0.12098000  0.49706000  1.0
  N  N207  1  0.71447000  0.37902000  0.99705000  1.0
  O  O208  1  0.76487000  0.68276000  0.65332000  1.0
  O  O209  1  0.23511000  0.81725000  0.15331000  1.0
  O  O210  1  0.23512000  0.31724000  0.34668000  1.0
  O  O211  1  0.76489000  0.18275000  0.84669000  1.0
  O  O212  1  0.91428000  0.80790000  0.63688000  1.0
  O  O213  1  0.08572000  0.69210000  0.13688000  1.0
  O  O214  1  0.08572000  0.19210000  0.36312000  1.0
  O  O215  1  0.91427000  0.30791000  0.86312000  1.0
  O  O216  1  0.76502000  0.67876000  0.37432000  1.0
  O  O217  1  0.23497000  0.82123000  0.87431000  1.0
  O  O218  1  0.23498000  0.32124000  0.62568000  1.0
  O  O219  1  0.76502000  0.17877000  0.12568000  1.0
  O  O220  1  0.89927000  0.81694000  0.36564000  1.0
  O  O221  1  0.10073000  0.68305000  0.86563000  1.0
  O  O222  1  0.10072000  0.18307000  0.63436000  1.0
  O  O223  1  0.89927000  0.31695000  0.13436000  1.0
