# generated using pymatgen
data_ZnH15C12N3O5
_symmetry_space_group_name_H-M   'P 1'
_cell_length_a   9.21471000
_cell_length_b   11.09530000
_cell_length_c   14.05400000
_cell_angle_alpha   90.00000000
_cell_angle_beta   92.07710000
_cell_angle_gamma   90.00000000
_symmetry_Int_Tables_number   1
_chemical_formula_structural   ZnH15C12N3O5
_chemical_formula_sum   'Zn4 H60 C48 N12 O20'
_cell_volume   1435.93647617
_cell_formula_units_Z   4
loop_
 _symmetry_equiv_pos_site_id
 _symmetry_equiv_pos_as_xyz
  1  'x, y, z'
loop_
 _atom_site_type_symbol
 _atom_site_label
 _atom_site_symmetry_multiplicity
 _atom_site_fract_x
 _atom_site_fract_y
 _atom_site_fract_z
 _atom_site_occupancy
  Zn  Zn0  1  0.78337000  0.78332000  0.15600000  1.0
  Zn  Zn1  1  0.71663000  0.28332000  0.84400000  1.0
  Zn  Zn2  1  0.21663000  0.21668000  0.84400000  1.0
  Zn  Zn3  1  0.28337000  0.71668000  0.15600000  1.0
  H  H4  1  0.54280000  0.15399000  0.14830000  1.0
  H  H5  1  0.95720000  0.65399000  0.85170000  1.0
  H  H6  1  0.45720000  0.84601000  0.85170000  1.0
  H  H7  1  0.04280000  0.34601000  0.14830000  1.0
  H  H8  1  0.55550000  0.32100000  0.26801000  1.0
  H  H9  1  0.94450000  0.82100000  0.73199000  1.0
  H  H10  1  0.44450000  0.67900000  0.73199000  1.0
  H  H11  1  0.05550000  0.17900000  0.26801000  1.0
  H  H12  1  0.85715000  0.11325000  0.44163000  1.0
  H  H13  1  0.64285000  0.61325000  0.55837000  1.0
  H  H14  1  0.14285000  0.88675000  0.55838000  1.0
  H  H15  1  0.35715000  0.38675000  0.44162000  1.0
  H  H16  1  0.92167000  0.92494000  0.40831000  1.0
  H  H17  1  0.57833000  0.42494000  0.59169000  1.0
  H  H18  1  0.07833000  0.07506000  0.59169000  1.0
  H  H19  1  0.42167000  0.57506000  0.40831000  1.0
  H  H20  1  0.96909000  0.72839000  0.40724000  1.0
  H  H21  1  0.53091000  0.22839000  0.59276000  1.0
  H  H22  1  0.03091000  0.27161000  0.59276000  1.0
  H  H23  1  0.46909000  0.77161000  0.40724000  1.0
  H  H24  1  0.06272000  0.72031000  0.29922000  1.0
  H  H25  1  0.43728000  0.22031000  0.70078000  1.0
  H  H26  1  0.93728000  0.27969000  0.70078000  1.0
  H  H27  1  0.56272000  0.77969000  0.29922000  1.0
  H  H28  1  0.93750000  0.52654000  0.32953000  1.0
  H  H29  1  0.56250000  0.02654000  0.67047000  1.0
  H  H30  1  0.06250000  0.47346000  0.67047000  1.0
  H  H31  1  0.43750000  0.97346000  0.32953000  1.0
  H  H32  1  0.76818000  0.60221000  0.33359000  1.0
  H  H33  1  0.73182000  0.10221000  0.66641000  1.0
  H  H34  1  0.23182000  0.39779000  0.66641000  1.0
  H  H35  1  0.26818000  0.89779000  0.33359000  1.0
  H  H36  1  0.80059000  0.41265000  0.20174000  1.0
  H  H37  1  0.69941000  0.91265000  0.79826000  1.0
  H  H38  1  0.19941000  0.58735000  0.79826000  1.0
  H  H39  1  0.30059000  0.08736000  0.20173000  1.0
  H  H40  1  0.76682000  0.48481000  0.08979000  1.0
  H  H41  1  0.73318000  0.98481000  0.91021000  1.0
  H  H42  1  0.23318000  0.51519000  0.91021000  1.0
  H  H43  1  0.26682000  0.01519000  0.08979000  1.0
  H  H44  1  0.65085000  0.51366000  0.18574000  1.0
  H  H45  1  0.84915000  0.01366000  0.81427000  1.0
  H  H46  1  0.34915000  0.48634000  0.81427000  1.0
  H  H47  1  0.15085000  0.98634000  0.18574000  1.0
  H  H48  1  0.68973000  0.72293000  0.94327000  1.0
  H  H49  1  0.81027000  0.22293000  0.05673000  1.0
  H  H50  1  0.31027000  0.27707000  0.05673000  1.0
  H  H51  1  0.18973000  0.77707000  0.94327000  1.0
  H  H52  1  0.53089000  0.65156000  0.88950000  1.0
  H  H53  1  0.96911000  0.15156000  0.11050000  1.0
  H  H54  1  0.46911000  0.34844000  0.11050000  1.0
  H  H55  1  0.03090000  0.84844000  0.88950000  1.0
  H  H56  1  0.65405000  0.56865000  0.96374000  1.0
  H  H57  1  0.84595000  0.06865000  0.03626000  1.0
  H  H58  1  0.34595000  0.43135000  0.03626000  1.0
  H  H59  1  0.15405000  0.93135000  0.96374000  1.0
  H  H60  1  0.95525000  0.59126000  0.16877000  1.0
  H  H61  1  0.54475000  0.09126000  0.83123000  1.0
  H  H62  1  0.04475000  0.40874000  0.83123000  1.0
  H  H63  1  0.45525000  0.90874000  0.16877000  1.0
  C  C64  1  0.69108000  0.03644000  0.22601000  1.0
  C  C65  1  0.80892000  0.53644000  0.77399000  1.0
  C  C66  1  0.30892000  0.96356000  0.77399000  1.0
  C  C67  1  0.19108000  0.46356000  0.22601000  1.0
  C  C68  1  0.61073000  0.14648000  0.21304000  1.0
  C  C69  1  0.88927000  0.64648000  0.78696000  1.0
  C  C70  1  0.38927000  0.85352000  0.78696000  1.0
  C  C71  1  0.11073000  0.35352000  0.21304000  1.0
  C  C72  1  0.61825000  0.23861000  0.27822000  1.0
  C  C73  1  0.88175000  0.73861000  0.72178000  1.0
  C  C74  1  0.38175000  0.76139000  0.72178000  1.0
  C  C75  1  0.11825000  0.26139000  0.27822000  1.0
  C  C76  1  0.70969000  0.22694000  0.36057000  1.0
  C  C77  1  0.79031000  0.72694000  0.63943000  1.0
  C  C78  1  0.29031000  0.77306000  0.63943000  1.0
  C  C79  1  0.20969000  0.27306000  0.36057000  1.0
  C  C80  1  0.78942000  0.12191000  0.37687000  1.0
  C  C81  1  0.71058000  0.62191000  0.62313000  1.0
  C  C82  1  0.21058000  0.87809000  0.62313000  1.0
  C  C83  1  0.28942000  0.37809000  0.37687000  1.0
  C  C84  1  0.78241000  0.02660000  0.31185000  1.0
  C  C85  1  0.71759000  0.52660000  0.68815000  1.0
  C  C86  1  0.21759000  0.97340000  0.68815000  1.0
  C  C87  1  0.28241000  0.47340000  0.31185000  1.0
  C  C88  1  0.86408000  0.92004000  0.33851000  1.0
  C  C89  1  0.63592000  0.42005000  0.66149000  1.0
  C  C90  1  0.13592000  0.07995000  0.66149000  1.0
  C  C91  1  0.36408000  0.57995000  0.33851000  1.0
  C  C92  1  0.95414000  0.72102000  0.32953000  1.0
  C  C93  1  0.54586000  0.22102000  0.67047000  1.0
  C  C94  1  0.04586000  0.27898000  0.67047000  1.0
  C  C95  1  0.45414000  0.77898000  0.32953000  1.0
  C  C96  1  0.87555000  0.60491000  0.30183000  1.0
  C  C97  1  0.62445000  0.10491000  0.69818000  1.0
  C  C98  1  0.12445000  0.39509000  0.69817000  1.0
  C  C99  1  0.37555000  0.89509000  0.30183000  1.0
  C  C100  1  0.76365000  0.49683000  0.16707000  1.0
  C  C101  1  0.73635000  0.99683000  0.83293000  1.0
  C  C102  1  0.23635000  0.50317000  0.83293000  1.0
  C  C103  1  0.26365000  0.00317000  0.16707000  1.0
  C  C104  1  0.60254000  0.65727000  0.95310000  1.0
  C  C105  1  0.89746000  0.15727000  0.04690000  1.0
  C  C106  1  0.39746000  0.34273000  0.04690000  1.0
  C  C107  1  0.10254000  0.84273000  0.95310000  1.0
  C  C108  1  0.51751000  0.68801000  0.03917000  1.0
  C  C109  1  0.98249000  0.18801000  0.96083000  1.0
  C  C110  1  0.48249000  0.31199000  0.96083000  1.0
  C  C111  1  0.01751000  0.81199000  0.03917000  1.0
  N  N112  1  0.72090000  0.32356000  0.42797000  1.0
  N  N113  1  0.77910000  0.82356000  0.57203000  1.0
  N  N114  1  0.27910000  0.67644000  0.57203000  1.0
  N  N115  1  0.22090000  0.17644000  0.42797000  1.0
  N  N116  1  0.87227000  0.82231000  0.28916000  1.0
  N  N117  1  0.62773000  0.32231000  0.71084000  1.0
  N  N118  1  0.12773000  0.17769000  0.71084000  1.0
  N  N119  1  0.37227000  0.67769000  0.28916000  1.0
  N  N120  1  0.85437000  0.59983000  0.19728000  1.0
  N  N121  1  0.64563000  0.09983000  0.80272000  1.0
  N  N122  1  0.14563000  0.40017000  0.80272000  1.0
  N  N123  1  0.35437000  0.90017000  0.19729000  1.0
  O  O124  1  0.80637000  0.31300000  0.49888000  1.0
  O  O125  1  0.69363000  0.81300000  0.50112000  1.0
  O  O126  1  0.19363000  0.68700000  0.50112000  1.0
  O  O127  1  0.30637000  0.18700000  0.49888000  1.0
  O  O128  1  0.64429000  0.41594000  0.41361000  1.0
  O  O129  1  0.85571000  0.91594000  0.58639000  1.0
  O  O130  1  0.35571000  0.58406000  0.58639000  1.0
  O  O131  1  0.14429000  0.08406000  0.41361000  1.0
  O  O132  1  0.67613000  0.95241000  0.16316000  1.0
  O  O133  1  0.82387000  0.45241000  0.83684000  1.0
  O  O134  1  0.32387000  0.04759000  0.83684000  1.0
  O  O135  1  0.17613000  0.54759000  0.16316000  1.0
  O  O136  1  0.58107000  0.72242000  0.11638000  1.0
  O  O137  1  0.91893000  0.22241000  0.88362000  1.0
  O  O138  1  0.41892000  0.27759000  0.88362000  1.0
  O  O139  1  0.08107000  0.77759000  0.11638000  1.0
  O  O140  1  0.37914000  0.67597000  0.03324000  1.0
  O  O141  1  0.12086000  0.17597000  0.96676000  1.0
  O  O142  1  0.62086000  0.32403000  0.96676000  1.0
  O  O143  1  0.87914000  0.82403000  0.03324000  1.0
