# generated using pymatgen
data_HgH8C12S(IN2)2
_symmetry_space_group_name_H-M   'P 1'
_cell_length_a   5.87055000
_cell_length_b   13.69140000
_cell_length_c   20.54440000
_cell_angle_alpha   75.40800000
_cell_angle_beta   89.99990000
_cell_angle_gamma   89.99990000
_symmetry_Int_Tables_number   1
_chemical_formula_structural   HgH8C12S(IN2)2
_chemical_formula_sum   'Hg4 H32 C48 S4 I8 N16'
_cell_volume   1598.01466183
_cell_formula_units_Z   4
loop_
 _symmetry_equiv_pos_site_id
 _symmetry_equiv_pos_as_xyz
  1  'x, y, z'
loop_
 _atom_site_type_symbol
 _atom_site_label
 _atom_site_symmetry_multiplicity
 _atom_site_fract_x
 _atom_site_fract_y
 _atom_site_fract_z
 _atom_site_occupancy
  Hg  Hg0  1  0.28413000  0.04126000  0.68041000  1.0
  Hg  Hg1  1  0.78412000  0.45873000  0.81958000  1.0
  Hg  Hg2  1  0.71586000  0.95873000  0.31959000  1.0
  Hg  Hg3  1  0.21588000  0.54127000  0.18042000  1.0
  H  H4  1  0.44482000  0.06414000  0.82854000  1.0
  H  H5  1  0.94482000  0.43586000  0.67146000  1.0
  H  H6  1  0.55516000  0.93585000  0.17146000  1.0
  H  H7  1  0.05519000  0.56414000  0.32854000  1.0
  H  H8  1  0.74645000  0.01417000  0.91667000  1.0
  H  H9  1  0.24644000  0.48584000  0.58333000  1.0
  H  H10  1  0.25354000  0.98583000  0.08333000  1.0
  H  H11  1  0.75355000  0.51416000  0.41666000  1.0
  H  H12  1  0.04394000  0.83171000  0.79374000  1.0
  H  H13  1  0.54392000  0.66829000  0.70626000  1.0
  H  H14  1  0.95606000  0.16828000  0.20627000  1.0
  H  H15  1  0.45608000  0.33171000  0.29373000  1.0
  H  H16  1  0.72280000  0.88456000  0.71377000  1.0
  H  H17  1  0.22278000  0.61544000  0.78623000  1.0
  H  H18  1  0.27721000  0.11543000  0.28623000  1.0
  H  H19  1  0.77722000  0.38456000  0.21378000  1.0
  H  H20  1  0.75528000  0.88154000  0.04799000  1.0
  H  H21  1  0.25527000  0.61845000  0.45202000  1.0
  H  H22  1  0.24472000  0.11846000  0.95202000  1.0
  H  H23  1  0.74473000  0.38155000  0.54798000  1.0
  H  H24  1  0.05609000  0.77385000  0.11716000  1.0
  H  H25  1  0.55609000  0.72614000  0.38285000  1.0
  H  H26  1  0.94389000  0.22616000  0.88285000  1.0
  H  H27  1  0.44392000  0.27386000  0.61715000  1.0
  H  H28  1  0.77788000  0.51193000  0.08453000  1.0
  H  H29  1  0.27786000  0.98807000  0.41546000  1.0
  H  H30  1  0.22213000  0.48807000  0.91546000  1.0
  H  H31  1  0.72212000  0.01194000  0.58453000  1.0
  H  H32  1  0.45621000  0.60617000  0.01822000  1.0
  H  H33  1  0.95617000  0.89383000  0.48178000  1.0
  H  H34  1  0.54382000  0.39384000  0.98178000  1.0
  H  H35  1  0.04381000  0.10617000  0.51822000  1.0
  C  C36  1  0.57951000  0.01141000  0.82373000  1.0
  C  C37  1  0.07952000  0.48859000  0.67627000  1.0
  C  C38  1  0.42048000  0.98858000  0.17626000  1.0
  C  C39  1  0.92049000  0.51141000  0.32373000  1.0
  C  C40  1  0.74885000  0.98433000  0.87221000  1.0
  C  C41  1  0.24887000  0.51566000  0.62779000  1.0
  C  C42  1  0.25114000  0.01567000  0.12779000  1.0
  C  C43  1  0.75115000  0.48433000  0.37220000  1.0
  C  C44  1  0.91996000  0.91757000  0.86269000  1.0
  C  C45  1  0.41997000  0.58243000  0.63730000  1.0
  C  C46  1  0.08004000  0.08243000  0.13730000  1.0
  C  C47  1  0.58005000  0.41756000  0.36269000  1.0
  C  C48  1  0.91234000  0.88142000  0.80465000  1.0
  C  C49  1  0.41234000  0.61857000  0.69535000  1.0
  C  C50  1  0.08767000  0.11858000  0.19535000  1.0
  C  C51  1  0.58766000  0.38142000  0.30465000  1.0
  C  C52  1  0.73463000  0.91175000  0.75930000  1.0
  C  C53  1  0.23462000  0.58825000  0.74070000  1.0
  C  C54  1  0.26538000  0.08824000  0.24070000  1.0
  C  C55  1  0.76538000  0.41175000  0.25929000  1.0
  C  C56  1  0.10094000  0.88773000  0.91242000  1.0
  C  C57  1  0.60097000  0.61228000  0.58758000  1.0
  C  C58  1  0.89905000  0.11228000  0.08758000  1.0
  C  C59  1  0.39906000  0.38772000  0.41242000  1.0
  C  C60  1  0.40013000  0.81243000  0.98708000  1.0
  C  C61  1  0.90010000  0.68756000  0.51292000  1.0
  C  C62  1  0.59988000  0.18758000  0.01292000  1.0
  C  C63  1  0.09989000  0.31243000  0.48708000  1.0
  C  C64  1  0.58126000  0.75232000  0.02662000  1.0
  C  C65  1  0.08125000  0.74768000  0.47337000  1.0
  C  C66  1  0.41874000  0.24769000  0.97338000  1.0
  C  C67  1  0.91875000  0.25232000  0.52663000  1.0
  C  C68  1  0.75259000  0.79984000  0.05521000  1.0
  C  C69  1  0.25258000  0.70015000  0.44480000  1.0
  C  C70  1  0.24741000  0.20017000  0.94479000  1.0
  C  C71  1  0.74742000  0.29984000  0.55521000  1.0
  C  C72  1  0.92156000  0.74040000  0.09304000  1.0
  C  C73  1  0.42155000  0.75960000  0.40696000  1.0
  C  C74  1  0.07843000  0.25961000  0.90697000  1.0
  C  C75  1  0.57846000  0.24041000  0.59304000  1.0
  C  C76  1  0.76597000  0.59390000  0.07538000  1.0
  C  C77  1  0.26595000  0.90610000  0.42462000  1.0
  C  C78  1  0.23401000  0.40610000  0.92462000  1.0
  C  C79  1  0.73403000  0.09390000  0.57538000  1.0
  C  C80  1  0.58841000  0.64703000  0.03763000  1.0
  C  C81  1  0.08840000  0.85297000  0.46237000  1.0
  C  C82  1  0.41159000  0.35298000  0.96236000  1.0
  C  C83  1  0.91159000  0.14703000  0.53763000  1.0
  S  S84  1  0.25007000  0.77529000  0.92474000  1.0
  S  S85  1  0.75006000  0.72472000  0.57526000  1.0
  S  S86  1  0.74994000  0.22472000  0.07527000  1.0
  S  S87  1  0.24995000  0.27528000  0.42474000  1.0
  I  I88  1  0.05179000  0.17903000  0.72521000  1.0
  I  I89  1  0.55176000  0.32096000  0.77480000  1.0
  I  I90  1  0.94820000  0.82097000  0.27479000  1.0
  I  I91  1  0.44822000  0.67903000  0.22522000  1.0
  I  I92  1  0.24849000  0.87798000  0.62799000  1.0
  I  I93  1  0.74849000  0.62202000  0.87201000  1.0
  I  I94  1  0.75152000  0.12201000  0.37201000  1.0
  I  I95  1  0.25160000  0.37799000  0.12799000  1.0
  N  N96  1  0.33484000  0.90122000  0.99518000  1.0
  N  N97  1  0.83482000  0.59878000  0.50481000  1.0
  N  N98  1  0.66516000  0.09880000  0.00481000  1.0
  N  N99  1  0.16517000  0.40121000  0.49518000  1.0
  N  N100  1  0.16702000  0.94388000  0.95285000  1.0
  N  N101  1  0.66701000  0.55612000  0.54715000  1.0
  N  N102  1  0.83299000  0.05613000  0.04714000  1.0
  N  N103  1  0.33300000  0.44388000  0.45285000  1.0
  N  N104  1  0.57128000  0.97521000  0.76870000  1.0
  N  N105  1  0.07127000  0.52478000  0.73130000  1.0
  N  N106  1  0.42873000  0.02478000  0.23129000  1.0
  N  N107  1  0.92873000  0.47521000  0.26870000  1.0
  N  N108  1  0.92930000  0.63963000  0.10248000  1.0
  N  N109  1  0.42930000  0.86037000  0.39752000  1.0
  N  N110  1  0.07069000  0.36038000  0.89752000  1.0
  N  N111  1  0.57070000  0.13964000  0.60248000  1.0
