# generated using pymatgen
data_FeCuH29C27(N3O2)2
_symmetry_space_group_name_H-M   'P 1'
_cell_length_a   10.32160000
_cell_length_b   15.49260000
_cell_length_c   18.16810000
_cell_angle_alpha   90.00010000
_cell_angle_beta   90.00040000
_cell_angle_gamma   95.19600000
_symmetry_Int_Tables_number   1
_chemical_formula_structural   FeCuH29C27(N3O2)2
_chemical_formula_sum   'Fe4 Cu4 H116 C108 N24 O16'
_cell_volume   2893.29376606
_cell_formula_units_Z   4
loop_
 _symmetry_equiv_pos_site_id
 _symmetry_equiv_pos_as_xyz
  1  'x, y, z'
loop_
 _atom_site_type_symbol
 _atom_site_label
 _atom_site_symmetry_multiplicity
 _atom_site_fract_x
 _atom_site_fract_y
 _atom_site_fract_z
 _atom_site_occupancy
  Fe  Fe0  1  0.73144000  0.26766000  0.64837000  1.0
  Fe  Fe1  1  0.26855000  0.23234000  0.14837000  1.0
  Fe  Fe2  1  0.26855000  0.73233000  0.35163000  1.0
  Fe  Fe3  1  0.73145000  0.76766000  0.85163000  1.0
  Cu  Cu4  1  0.22825000  0.21145000  0.74245000  1.0
  Cu  Cu5  1  0.77175000  0.28856000  0.24246000  1.0
  Cu  Cu6  1  0.77175000  0.78855000  0.25755000  1.0
  Cu  Cu7  1  0.22825000  0.71144000  0.75754000  1.0
  H  H8  1  0.23469000  0.08016000  0.60842000  1.0
  H  H9  1  0.76530000  0.41984000  0.10842000  1.0
  H  H10  1  0.76532000  0.91983000  0.39158000  1.0
  H  H11  1  0.23469000  0.58016000  0.89158000  1.0
  H  H12  1  0.97843000  0.08739000  0.78810000  1.0
  H  H13  1  0.02158000  0.41262000  0.28809000  1.0
  H  H14  1  0.02158000  0.91261000  0.21191000  1.0
  H  H15  1  0.97842000  0.58738000  0.71191000  1.0
  H  H16  1  0.90256000  0.94168000  0.70219000  1.0
  H  H17  1  0.09744000  0.55833000  0.20218000  1.0
  H  H18  1  0.09744000  0.05832000  0.29781000  1.0
  H  H19  1  0.90257000  0.44167000  0.79781000  1.0
  H  H20  1  0.02993000  0.86510000  0.60116000  1.0
  H  H21  1  0.97005000  0.63490000  0.10116000  1.0
  H  H22  1  0.97007000  0.13490000  0.39884000  1.0
  H  H23  1  0.02995000  0.36510000  0.89885000  1.0
  H  H24  1  0.16419000  0.92544000  0.55881000  1.0
  H  H25  1  0.83580000  0.57456000  0.05880000  1.0
  H  H26  1  0.83581000  0.07456000  0.44119000  1.0
  H  H27  1  0.16420000  0.42544000  0.94120000  1.0
  H  H28  1  0.87676000  0.95681000  0.53741000  1.0
  H  H29  1  0.12323000  0.54319000  0.03741000  1.0
  H  H30  1  0.12323000  0.04318000  0.46259000  1.0
  H  H31  1  0.87677000  0.45682000  0.96258000  1.0
  H  H32  1  0.97395000  0.90508000  0.47417000  1.0
  H  H33  1  0.02604000  0.59492000  0.97416000  1.0
  H  H34  1  0.02604000  0.09492000  0.52584000  1.0
  H  H35  1  0.97395000  0.40509000  0.02584000  1.0
  H  H36  1  0.43226000  0.08823000  0.82230000  1.0
  H  H37  1  0.56774000  0.41177000  0.32230000  1.0
  H  H38  1  0.56774000  0.91177000  0.17771000  1.0
  H  H39  1  0.43226000  0.58823000  0.67770000  1.0
  H  H40  1  0.07266000  0.13926000  0.91278000  1.0
  H  H41  1  0.92734000  0.36074000  0.41279000  1.0
  H  H42  1  0.92733000  0.86073000  0.08721000  1.0
  H  H43  1  0.07266000  0.63926000  0.58722000  1.0
  H  H44  1  0.14881000  0.98534000  0.97446000  1.0
  H  H45  1  0.85118000  0.51466000  0.47446000  1.0
  H  H46  1  0.85118000  0.01465000  0.02554000  1.0
  H  H47  1  0.14882000  0.48534000  0.52554000  1.0
  H  H48  1  0.33805000  0.88306000  0.91484000  1.0
  H  H49  1  0.66195000  0.61694000  0.41485000  1.0
  H  H50  1  0.66196000  0.11694000  0.08516000  1.0
  H  H51  1  0.33805000  0.38306000  0.58515000  1.0
  H  H52  1  0.46974000  0.94840000  0.87660000  1.0
  H  H53  1  0.53026000  0.55161000  0.37660000  1.0
  H  H54  1  0.53026000  0.05160000  0.12340000  1.0
  H  H55  1  0.46975000  0.44839000  0.62340000  1.0
  H  H56  1  0.38317000  0.94974000  0.03839000  1.0
  H  H57  1  0.61683000  0.55027000  0.53840000  1.0
  H  H58  1  0.61683000  0.05027000  0.96160000  1.0
  H  H59  1  0.38317000  0.44973000  0.46160000  1.0
  H  H60  1  0.51880000  0.90239000  0.00279000  1.0
  H  H61  1  0.48120000  0.59761000  0.50280000  1.0
  H  H62  1  0.48120000  0.09761000  0.99721000  1.0
  H  H63  1  0.51881000  0.40239000  0.49720000  1.0
  H  H64  1  0.43217000  0.26737000  0.86938000  1.0
  H  H65  1  0.56783000  0.23263000  0.36939000  1.0
  H  H66  1  0.56783000  0.73263000  0.13061000  1.0
  H  H67  1  0.43216000  0.76737000  0.63061000  1.0
  H  H68  1  0.24314000  0.41489000  0.71495000  1.0
  H  H69  1  0.75687000  0.08512000  0.21495000  1.0
  H  H70  1  0.75685000  0.58511000  0.28505000  1.0
  H  H71  1  0.24314000  0.91488000  0.78505000  1.0
  H  H72  1  0.41001000  0.52728000  0.79952000  1.0
  H  H73  1  0.58999000  0.97272000  0.29951000  1.0
  H  H74  1  0.58999000  0.47272000  0.20048000  1.0
  H  H75  1  0.41001000  0.02728000  0.70048000  1.0
  H  H76  1  0.61503000  0.47959000  0.88932000  1.0
  H  H77  1  0.38497000  0.02042000  0.38932000  1.0
  H  H78  1  0.38496000  0.52042000  0.11068000  1.0
  H  H79  1  0.61503000  0.97958000  0.61068000  1.0
  H  H80  1  0.57346000  0.37975000  0.93600000  1.0
  H  H81  1  0.42654000  0.12025000  0.43600000  1.0
  H  H82  1  0.42653000  0.62025000  0.06400000  1.0
  H  H83  1  0.57347000  0.87975000  0.56400000  1.0
  H  H84  1  0.41649000  0.53896000  0.94121000  1.0
  H  H85  1  0.58351000  0.96104000  0.44120000  1.0
  H  H86  1  0.58351000  0.46104000  0.05879000  1.0
  H  H87  1  0.41649000  0.03896000  0.55879000  1.0
  H  H88  1  0.37570000  0.43928000  0.98813000  1.0
  H  H89  1  0.62430000  0.06072000  0.48813000  1.0
  H  H90  1  0.62429000  0.56073000  0.01187000  1.0
  H  H91  1  0.37570000  0.93927000  0.51187000  1.0
  H  H92  1  0.70243000  0.27792000  0.80136000  1.0
  H  H93  1  0.29757000  0.22208000  0.30136000  1.0
  H  H94  1  0.29756000  0.72208000  0.19864000  1.0
  H  H95  1  0.70243000  0.77792000  0.69864000  1.0
  H  H96  1  0.55793000  0.37376000  0.71283000  1.0
  H  H97  1  0.44207000  0.12624000  0.21283000  1.0
  H  H98  1  0.44207000  0.62625000  0.28717000  1.0
  H  H99  1  0.55793000  0.87376000  0.78717000  1.0
  H  H100  1  0.71454000  0.43921000  0.60209000  1.0
  H  H101  1  0.28546000  0.06079000  0.10209000  1.0
  H  H102  1  0.28548000  0.56079000  0.39791000  1.0
  H  H103  1  0.71454000  0.93921000  0.89791000  1.0
  H  H104  1  0.95381000  0.38230000  0.62254000  1.0
  H  H105  1  0.04619000  0.11770000  0.12254000  1.0
  H  H106  1  0.04619000  0.61769000  0.37746000  1.0
  H  H107  1  0.95382000  0.88230000  0.87746000  1.0
  H  H108  1  0.59303000  0.26820000  0.51553000  1.0
  H  H109  1  0.40697000  0.23180000  0.01553000  1.0
  H  H110  1  0.40697000  0.73180000  0.48447000  1.0
  H  H111  1  0.59303000  0.76820000  0.98447000  1.0
  H  H112  1  0.84336000  0.22729000  0.51329000  1.0
  H  H113  1  0.15663000  0.27271000  0.01329000  1.0
  H  H114  1  0.15664000  0.77270000  0.48671000  1.0
  H  H115  1  0.84337000  0.72729000  0.98671000  1.0
  H  H116  1  0.87929000  0.12665000  0.63302000  1.0
  H  H117  1  0.12071000  0.37336000  0.13302000  1.0
  H  H118  1  0.12070000  0.87335000  0.36699000  1.0
  H  H119  1  0.87930000  0.62664000  0.86698000  1.0
  H  H120  1  0.65206000  0.10618000  0.70821000  1.0
  H  H121  1  0.34794000  0.39383000  0.20821000  1.0
  H  H122  1  0.34793000  0.89383000  0.29179000  1.0
  H  H123  1  0.65206000  0.60617000  0.79179000  1.0
  C  C124  1  0.15662000  0.06180000  0.64664000  1.0
  C  C125  1  0.84337000  0.43820000  0.14664000  1.0
  C  C126  1  0.84338000  0.93819000  0.35336000  1.0
  C  C127  1  0.15663000  0.56180000  0.85336000  1.0
  C  C128  1  0.02087000  0.06289000  0.73868000  1.0
  C  C129  1  0.97914000  0.43711000  0.23867000  1.0
  C  C130  1  0.97914000  0.93710000  0.26132000  1.0
  C  C131  1  0.02086000  0.56289000  0.76133000  1.0
  C  C132  1  0.98225000  0.99159000  0.69650000  1.0
  C  C133  1  0.01775000  0.50841000  0.19650000  1.0
  C  C134  1  0.01775000  0.00840000  0.30350000  1.0
  C  C135  1  0.98226000  0.49159000  0.80350000  1.0
  C  C136  1  0.06433000  0.92901000  0.57873000  1.0
  C  C137  1  0.93565000  0.57099000  0.07872000  1.0
  C  C138  1  0.93567000  0.07098000  0.42127000  1.0
  C  C139  1  0.06434000  0.42901000  0.92128000  1.0
  C  C140  1  0.97699000  0.95589000  0.51656000  1.0
  C  C141  1  0.02300000  0.54411000  0.01656000  1.0
  C  C142  1  0.02301000  0.04410000  0.48344000  1.0
  C  C143  1  0.97699000  0.45590000  0.98344000  1.0
  C  C144  1  0.34528000  0.08316000  0.85614000  1.0
  C  C145  1  0.65471000  0.41685000  0.35615000  1.0
  C  C146  1  0.65471000  0.91684000  0.14386000  1.0
  C  C147  1  0.34529000  0.58315000  0.64386000  1.0
  C  C148  1  0.16001000  0.10636000  0.90446000  1.0
  C  C149  1  0.83999000  0.39364000  0.40447000  1.0
  C  C150  1  0.83998000  0.89363000  0.09554000  1.0
  C  C151  1  0.16002000  0.60636000  0.59554000  1.0
  C  C152  1  0.19552000  0.03032000  0.93482000  1.0
  C  C153  1  0.80448000  0.46969000  0.43482000  1.0
  C  C154  1  0.80447000  0.96968000  0.06518000  1.0
  C  C155  1  0.19553000  0.53031000  0.56518000  1.0
  C  C156  1  0.39503000  0.94625000  0.91974000  1.0
  C  C157  1  0.60497000  0.55376000  0.41975000  1.0
  C  C158  1  0.60497000  0.05375000  0.08025000  1.0
  C  C159  1  0.39503000  0.44624000  0.58025000  1.0
  C  C160  1  0.45875000  0.95689000  0.99536000  1.0
  C  C161  1  0.54125000  0.54311000  0.49536000  1.0
  C  C162  1  0.54125000  0.04311000  0.00464000  1.0
  C  C163  1  0.45875000  0.45689000  0.50464000  1.0
  C  C164  1  0.40446000  0.32192000  0.83767000  1.0
  C  C165  1  0.59554000  0.17808000  0.33768000  1.0
  C  C166  1  0.59554000  0.67809000  0.16233000  1.0
  C  C167  1  0.40446000  0.82192000  0.66232000  1.0
  C  C168  1  0.30986000  0.40134000  0.75854000  1.0
  C  C169  1  0.69014000  0.09867000  0.25854000  1.0
  C  C170  1  0.69013000  0.59866000  0.24146000  1.0
  C  C171  1  0.30987000  0.90133000  0.74146000  1.0
  C  C172  1  0.39133000  0.45704000  0.80018000  1.0
  C  C173  1  0.60867000  0.04297000  0.30018000  1.0
  C  C174  1  0.60866000  0.54297000  0.19982000  1.0
  C  C175  1  0.39134000  0.95703000  0.69982000  1.0
  C  C176  1  0.53360000  0.43639000  0.91113000  1.0
  C  C177  1  0.46640000  0.06361000  0.41113000  1.0
  C  C178  1  0.46640000  0.56362000  0.08887000  1.0
  C  C179  1  0.53360000  0.93638000  0.58887000  1.0
  C  C180  1  0.45725000  0.48372000  0.96795000  1.0
  C  C181  1  0.54275000  0.01628000  0.46795000  1.0
  C  C182  1  0.54275000  0.51628000  0.03204000  1.0
  C  C183  1  0.45725000  0.98372000  0.53204000  1.0
  C  C184  1  0.97591000  0.27439000  0.75614000  1.0
  C  C185  1  0.02409000  0.22561000  0.25614000  1.0
  C  C186  1  0.02407000  0.72560000  0.24387000  1.0
  C  C187  1  0.97592000  0.77439000  0.74386000  1.0
  C  C188  1  0.86515000  0.31680000  0.72298000  1.0
  C  C189  1  0.13485000  0.18320000  0.22298000  1.0
  C  C190  1  0.13484000  0.68320000  0.27703000  1.0
  C  C191  1  0.86516000  0.81680000  0.77702000  1.0
  C  C192  1  0.73573000  0.31460000  0.75295000  1.0
  C  C193  1  0.26427000  0.18540000  0.25295000  1.0
  C  C194  1  0.26426000  0.68540000  0.24705000  1.0
  C  C195  1  0.73573000  0.81460000  0.74705000  1.0
  C  C196  1  0.66074000  0.36571000  0.70649000  1.0
  C  C197  1  0.33926000  0.13429000  0.20649000  1.0
  C  C198  1  0.33926000  0.63429000  0.29350000  1.0
  C  C199  1  0.66074000  0.86571000  0.79350000  1.0
  C  C200  1  0.74332000  0.39989000  0.64776000  1.0
  C  C201  1  0.25669000  0.10012000  0.14776000  1.0
  C  C202  1  0.25669000  0.60011000  0.35224000  1.0
  C  C203  1  0.74332000  0.89988000  0.85224000  1.0
  C  C204  1  0.86903000  0.36940000  0.65751000  1.0
  C  C205  1  0.13098000  0.13060000  0.15751000  1.0
  C  C206  1  0.13098000  0.63059000  0.34249000  1.0
  C  C207  1  0.86903000  0.86940000  0.84249000  1.0
  C  C208  1  0.43835000  0.19912000  0.64231000  1.0
  C  C209  1  0.56164000  0.30087000  0.14231000  1.0
  C  C210  1  0.56164000  0.80088000  0.35770000  1.0
  C  C211  1  0.43836000  0.69912000  0.85770000  1.0
  C  C212  1  0.57427000  0.18728000  0.61826000  1.0
  C  C213  1  0.42573000  0.31272000  0.11826000  1.0
  C  C214  1  0.42573000  0.81272000  0.38174000  1.0
  C  C215  1  0.57428000  0.68728000  0.88174000  1.0
  C  C216  1  0.63791000  0.22679000  0.55438000  1.0
  C  C217  1  0.36209000  0.27321000  0.05438000  1.0
  C  C218  1  0.36209000  0.77321000  0.44562000  1.0
  C  C219  1  0.63792000  0.72679000  0.94562000  1.0
  C  C220  1  0.76968000  0.20461000  0.55326000  1.0
  C  C221  1  0.23032000  0.29539000  0.05326000  1.0
  C  C222  1  0.23032000  0.79539000  0.44674000  1.0
  C  C223  1  0.76969000  0.70461000  0.94674000  1.0
  C  C224  1  0.78853000  0.15105000  0.61616000  1.0
  C  C225  1  0.21147000  0.34895000  0.11616000  1.0
  C  C226  1  0.21146000  0.84894000  0.38384000  1.0
  C  C227  1  0.78853000  0.65105000  0.88383000  1.0
  C  C228  1  0.66870000  0.14056000  0.65650000  1.0
  C  C229  1  0.33131000  0.35944000  0.15650000  1.0
  C  C230  1  0.33130000  0.85944000  0.34350000  1.0
  C  C231  1  0.66870000  0.64056000  0.84350000  1.0
  N  N232  1  0.12983000  0.10575000  0.70674000  1.0
  N  N233  1  0.87018000  0.39426000  0.20675000  1.0
  N  N234  1  0.87018000  0.89425000  0.29325000  1.0
  N  N235  1  0.12983000  0.60574000  0.79326000  1.0
  N  N236  1  0.06972000  0.99133000  0.63906000  1.0
  N  N237  1  0.93028000  0.50867000  0.13906000  1.0
  N  N238  1  0.93028000  0.00867000  0.36094000  1.0
  N  N239  1  0.06973000  0.49133000  0.86094000  1.0
  N  N240  1  0.25414000  0.13852000  0.85522000  1.0
  N  N241  1  0.74586000  0.36149000  0.35522000  1.0
  N  N242  1  0.74586000  0.86148000  0.14478000  1.0
  N  N243  1  0.25414000  0.63851000  0.64478000  1.0
  N  N244  1  0.31364000  0.01616000  0.90314000  1.0
  N  N245  1  0.68635000  0.48385000  0.40315000  1.0
  N  N246  1  0.68635000  0.98384000  0.09685000  1.0
  N  N247  1  0.31365000  0.51616000  0.59685000  1.0
  N  N248  1  0.31975000  0.31772000  0.78233000  1.0
  N  N249  1  0.68025000  0.18229000  0.28234000  1.0
  N  N250  1  0.68024000  0.68229000  0.21767000  1.0
  N  N251  1  0.31975000  0.81771000  0.71766000  1.0
  N  N252  1  0.45022000  0.40547000  0.85007000  1.0
  N  N253  1  0.54978000  0.09453000  0.35008000  1.0
  N  N254  1  0.54978000  0.59453000  0.14992000  1.0
  N  N255  1  0.45022000  0.90547000  0.64992000  1.0
  O  O256  1  0.07830000  0.27839000  0.71479000  1.0
  O  O257  1  0.92170000  0.22161000  0.21480000  1.0
  O  O258  1  0.92169000  0.72160000  0.28522000  1.0
  O  O259  1  0.07830000  0.77839000  0.78521000  1.0
  O  O260  1  0.96371000  0.24118000  0.81902000  1.0
  O  O261  1  0.03630000  0.25882000  0.31902000  1.0
  O  O262  1  0.03627000  0.75881000  0.18099000  1.0
  O  O263  1  0.96371000  0.74119000  0.68098000  1.0
  O  O264  1  0.40657000  0.16848000  0.70702000  1.0
  O  O265  1  0.59343000  0.33152000  0.20702000  1.0
  O  O266  1  0.59343000  0.83153000  0.29298000  1.0
  O  O267  1  0.40657000  0.66848000  0.79298000  1.0
  O  O268  1  0.36483000  0.23573000  0.59969000  1.0
  O  O269  1  0.63517000  0.26426000  0.09969000  1.0
  O  O270  1  0.63517000  0.76427000  0.40031000  1.0
  O  O271  1  0.36483000  0.73573000  0.90031000  1.0
