# generated using pymatgen
data_CdH20C10S2(NO)2
_symmetry_space_group_name_H-M   'P 1'
_cell_length_a   7.49685000
_cell_length_b   9.00298000
_cell_length_c   11.79873294
_cell_angle_alpha   112.34772068
_cell_angle_beta   100.13580594
_cell_angle_gamma   90.04560000
_symmetry_Int_Tables_number   1
_chemical_formula_structural   CdH20C10S2(NO)2
_chemical_formula_sum   'Cd2 H40 C20 S4 N4 O4'
_cell_volume   723.03037910
_cell_formula_units_Z   2
loop_
 _symmetry_equiv_pos_site_id
 _symmetry_equiv_pos_as_xyz
  1  'x, y, z'
loop_
 _atom_site_type_symbol
 _atom_site_label
 _atom_site_symmetry_multiplicity
 _atom_site_fract_x
 _atom_site_fract_y
 _atom_site_fract_z
 _atom_site_occupancy
  Cd  Cd0  1  0.24985000  0.93895000  0.99972000  1.0
  Cd  Cd1  1  0.75016000  0.06105000  0.00028000  1.0
  H  H2  1  0.70622000  0.42890000  0.58757000  1.0
  H  H3  1  0.79272000  0.84089000  0.41270000  1.0
  H  H4  1  0.29377000  0.57110000  0.41242000  1.0
  H  H5  1  0.20726000  0.15912000  0.58732000  1.0
  H  H6  1  0.93775000  0.49420000  0.61397000  1.0
  H  H7  1  0.56135000  0.87972000  0.38589000  1.0
  H  H8  1  0.06225000  0.50580000  0.38602000  1.0
  H  H9  1  0.43863000  0.12028000  0.61409000  1.0
  H  H10  1  0.75839000  0.54406000  0.43188000  1.0
  H  H11  1  0.74017000  0.11098000  0.56812000  1.0
  H  H12  1  0.24160000  0.45594000  0.56811000  1.0
  H  H13  1  0.25980000  0.88903000  0.43189000  1.0
  H  H14  1  0.85341000  0.72798000  0.55704000  1.0
  H  H15  1  0.64629000  0.17043000  0.44291000  1.0
  H  H16  1  0.14659000  0.27202000  0.44296000  1.0
  H  H17  1  0.35368000  0.82957000  0.55710000  1.0
  H  H18  1  0.61872000  0.67010000  0.53163000  1.0
  H  H19  1  0.88084000  0.13780000  0.46890000  1.0
  H  H20  1  0.38128000  0.32991000  0.46837000  1.0
  H  H21  1  0.11913000  0.86221000  0.53111000  1.0
  H  H22  1  0.50854000  0.62984000  0.69983000  1.0
  H  H23  1  0.99132000  0.92948000  0.30064000  1.0
  H  H24  1  0.49145000  0.37015000  0.30016000  1.0
  H  H25  1  0.00870000  0.07053000  0.69938000  1.0
  H  H26  1  0.60336000  0.74965000  0.85676000  1.0
  H  H27  1  0.89707000  0.89234000  0.14350000  1.0
  H  H28  1  0.39664000  0.25034000  0.14323000  1.0
  H  H29  1  0.10296000  0.10767000  0.85652000  1.0
  H  H30  1  0.44110000  0.49801000  0.83948000  1.0
  H  H31  1  0.05835000  0.65814000  0.16141000  1.0
  H  H32  1  0.55890000  0.50198000  0.16052000  1.0
  H  H33  1  0.94166000  0.34187000  0.83860000  1.0
  H  H34  1  0.67596000  0.50848000  0.90394000  1.0
  H  H35  1  0.82351000  0.60430000  0.09695000  1.0
  H  H36  1  0.32404000  0.49152000  0.09606000  1.0
  H  H37  1  0.17650000  0.39573000  0.90307000  1.0
  H  H38  1  0.59149000  0.37912000  0.74648000  1.0
  H  H39  1  0.90778000  0.63245000  0.25454000  1.0
  H  H40  1  0.40851000  0.62088000  0.25352000  1.0
  H  H41  1  0.09223000  0.36755000  0.74546000  1.0
  C  C42  1  0.93264000  0.73305000  0.82626000  1.0
  C  C43  1  0.56747000  0.90637000  0.17352000  1.0
  C  C44  1  0.06736000  0.26695000  0.17375000  1.0
  C  C45  1  0.43256000  0.09363000  0.82647000  1.0
  C  C46  1  0.80037000  0.53578000  0.61597000  1.0
  C  C47  1  0.69886000  0.91936000  0.38408000  1.0
  C  C48  1  0.19962000  0.46422000  0.38402000  1.0
  C  C49  1  0.30112000  0.08064000  0.61592000  1.0
  C  C50  1  0.75435000  0.62440000  0.52845000  1.0
  C  C51  1  0.74488000  0.09526000  0.47164000  1.0
  C  C52  1  0.24564000  0.37560000  0.47154000  1.0
  C  C53  1  0.25510000  0.90474000  0.52837000  1.0
  C  C54  1  0.61217000  0.63550000  0.78025000  1.0
  C  C55  1  0.88776000  0.85488000  0.22018000  1.0
  C  C56  1  0.38782000  0.36450000  0.21975000  1.0
  C  C57  1  0.11226000  0.14514000  0.77984000  1.0
  C  C58  1  0.57863000  0.49667000  0.81932000  1.0
  C  C59  1  0.92084000  0.67705000  0.18154000  1.0
  C  C60  1  0.42137000  0.50332000  0.18067000  1.0
  C  C61  1  0.07918000  0.32296000  0.81848000  1.0
  S  S62  1  0.14325000  0.73136000  0.78128000  1.0
  S  S63  1  0.35653000  0.94916000  0.21800000  1.0
  S  S64  1  0.85675000  0.26863000  0.21872000  1.0
  S  S65  1  0.64350000  0.05083000  0.78198000  1.0
  N  N66  1  0.79013000  0.63677000  0.74492000  1.0
  N  N67  1  0.70968000  0.89165000  0.25521000  1.0
  N  N68  1  0.20986000  0.36322000  0.25507000  1.0
  N  N69  1  0.29034000  0.10836000  0.74480000  1.0
  O  O70  1  0.91669000  0.82554000  0.93691000  1.0
  O  O71  1  0.58398000  0.88812000  0.06287000  1.0
  O  O72  1  0.08331000  0.17444000  0.06308000  1.0
  O  O73  1  0.41607000  0.11187000  0.93713000  1.0
