# generated using pymatgen
data_ZnH7C18I3(NO3)2
_symmetry_space_group_name_H-M   'P 1'
_cell_length_a   9.94712000
_cell_length_b   11.22220000
_cell_length_c   23.68670000
_cell_angle_alpha   88.41650000
_cell_angle_beta   89.10150000
_cell_angle_gamma   89.98030000
_symmetry_Int_Tables_number   1
_chemical_formula_structural   ZnH7C18I3(NO3)2
_chemical_formula_sum   'Zn2 H14 C36 I6 N4 O12'
_cell_volume   2642.77770455
_cell_formula_units_Z   2
loop_
 _symmetry_equiv_pos_site_id
 _symmetry_equiv_pos_as_xyz
  1  'x, y, z'
loop_
 _atom_site_type_symbol
 _atom_site_label
 _atom_site_symmetry_multiplicity
 _atom_site_fract_x
 _atom_site_fract_y
 _atom_site_fract_z
 _atom_site_occupancy
  Zn  Zn0  1  0.36410000  0.49344000  0.50008000  1.0
  Zn  Zn1  1  0.64297000  0.51300000  0.49676000  1.0
  H  H2  1  0.27998000  0.49415000  0.31961000  1.0
  H  H3  1  0.66849000  0.89209000  0.46011000  1.0
  H  H4  1  0.50442000  0.79371000  0.94618000  1.0
  H  H5  1  0.90155000  0.58951000  0.48606000  1.0
  H  H6  1  0.72227000  0.51313000  0.78411000  1.0
  H  H7  1  0.50489000  0.78614000  0.05326000  1.0
  H  H8  1  0.70995000  0.46427000  0.32153000  1.0
  H  H9  1  0.37060000  0.90185000  0.49801000  1.0
  H  H10  1  0.86600000  0.33005000  0.49447000  1.0
  H  H11  1  0.49989000  0.19415000  0.94454000  1.0
  H  H12  1  0.49776000  0.18652000  0.05159000  1.0
  H  H13  1  0.72910000  0.52049000  0.67791000  1.0
  H  H14  1  0.29842000  0.49981000  0.67619000  1.0
  H  H15  1  0.28608000  0.49065000  0.21355000  1.0
  C  C16  1  0.47888000  0.73266000  0.48931000  1.0
  C  C17  1  0.50397000  0.70483000  0.02913000  1.0
  C  C18  1  0.50390000  0.70902000  0.96983000  1.0
  C  C19  1  0.50353000  0.60438000  0.93980000  1.0
  C  C20  1  0.50246000  0.49226000  0.96879000  1.0
  C  C21  1  0.50215000  0.38428000  0.93920000  1.0
  C  C22  1  0.50032000  0.27546000  0.96865000  1.0
  C  C23  1  0.49918000  0.27125000  0.02797000  1.0
  C  C24  1  0.50452000  0.61093000  0.87719000  1.0
  C  C25  1  0.50456000  0.38658000  0.87658000  1.0
  C  C26  1  0.62996000  0.51133000  0.75993000  1.0
  C  C27  1  0.51521000  0.51120000  0.60787000  1.0
  C  C28  1  0.63385000  0.51512000  0.70117000  1.0
  C  C29  1  0.51385000  0.51063000  0.67123000  1.0
  C  C30  1  0.39040000  0.50382000  0.70035000  1.0
  C  C31  1  0.38694000  0.50196000  0.75915000  1.0
  C  C32  1  0.50710000  0.50484000  0.78913000  1.0
  C  C33  1  0.37828000  0.48442000  0.23773000  1.0
  C  C34  1  0.37482000  0.48625000  0.29640000  1.0
  C  C35  1  0.49492000  0.47954000  0.32636000  1.0
  C  C36  1  0.61796000  0.46961000  0.29731000  1.0
  C  C37  1  0.62094000  0.46839000  0.23852000  1.0
  C  C38  1  0.52508000  0.27078000  0.50850000  1.0
  C  C39  1  0.50077000  0.47638000  0.20857000  1.0
  C  C40  1  0.57020000  0.06373000  0.47301000  1.0
  C  C41  1  0.53257000  0.13702000  0.51414000  1.0
  C  C42  1  0.57439000  0.93432000  0.47326000  1.0
  C  C43  1  0.46851000  0.86444000  0.48722000  1.0
  C  C44  1  0.06668000  0.41638000  0.48660000  1.0
  C  C45  1  0.91781000  0.41631000  0.49115000  1.0
  C  C46  1  0.49407000  0.48526000  0.38954000  1.0
  C  C47  1  0.49879000  0.36934000  0.12064000  1.0
  C  C48  1  0.50374000  0.59373000  0.12112000  1.0
  C  C49  1  0.50305000  0.59598000  0.05856000  1.0
  C  C50  1  0.50184000  0.48796000  0.02901000  1.0
  C  C51  1  0.50011000  0.37584000  0.05803000  1.0
  I  I52  1  0.80702000  0.45668000  0.19569000  1.0
  I  I53  1  0.63380000  0.14153000  0.39366000  1.0
  I  I54  1  0.47833000  0.07679000  0.59660000  1.0
  I  I55  1  0.12645000  0.29879000  0.42310000  1.0
  I  I56  1  0.08857000  0.58879000  0.57799000  1.0
  I  I57  1  0.20004000  0.49442000  0.80186000  1.0
  N  N58  1  0.50082000  0.47963000  0.14784000  1.0
  N  N59  1  0.50646000  0.50070000  0.84989000  1.0
  N  N60  1  0.15312000  0.47689000  0.51298000  1.0
  N  N61  1  0.84748000  0.51159000  0.48909000  1.0
  O  O62  1  0.36998000  0.67591000  0.50076000  1.0
  O  O63  1  0.50639000  0.68409000  0.14912000  1.0
  O  O64  1  0.50425000  0.70525000  0.84970000  1.0
  O  O65  1  0.50544000  0.29622000  0.84855000  1.0
  O  O66  1  0.59403000  0.68594000  0.48033000  1.0
  O  O67  1  0.40477000  0.48579000  0.58447000  1.0
  O  O68  1  0.62569000  0.53595000  0.58238000  1.0
  O  O69  1  0.40896000  0.31282000  0.49926000  1.0
  O  O70  1  0.63336000  0.32826000  0.51430000  1.0
  O  O71  1  0.38040000  0.50060000  0.41400000  1.0
  O  O72  1  0.60664000  0.47489000  0.41384000  1.0
  O  O73  1  0.49581000  0.27518000  0.14826000  1.0
