# generated using pymatgen
data_ZnH20C26(NO2)2
_symmetry_space_group_name_H-M   'P 1'
_cell_length_a   10.70950000
_cell_length_b   10.72920000
_cell_length_c   12.17500000
_cell_angle_alpha   96.68290000
_cell_angle_beta   106.48600000
_cell_angle_gamma   105.00800000
_symmetry_Int_Tables_number   1
_chemical_formula_structural   ZnH20C26(NO2)2
_chemical_formula_sum   'Zn2 H40 C52 N4 O8'
_cell_volume   1268.17493234
_cell_formula_units_Z   2
loop_
 _symmetry_equiv_pos_site_id
 _symmetry_equiv_pos_as_xyz
  1  'x, y, z'
loop_
 _atom_site_type_symbol
 _atom_site_label
 _atom_site_symmetry_multiplicity
 _atom_site_fract_x
 _atom_site_fract_y
 _atom_site_fract_z
 _atom_site_occupancy
  Zn  Zn0  1  0.89052000  0.88704000  0.56871000  1.0
  Zn  Zn1  1  0.10948000  0.11296000  0.43129000  1.0
  H  H2  1  0.99834000  0.00260000  0.82836000  1.0
  H  H3  1  0.00167000  0.99741000  0.17164000  1.0
  H  H4  1  0.18047000  0.00390000  0.01076000  1.0
  H  H5  1  0.81953000  0.99611000  0.98924000  1.0
  H  H6  1  0.31364000  0.75145000  0.79450000  1.0
  H  H7  1  0.68636000  0.24855000  0.20551000  1.0
  H  H8  1  0.12464000  0.75971000  0.62339000  1.0
  H  H9  1  0.87536000  0.24028000  0.37662000  1.0
  H  H10  1  0.43853000  0.81409000  0.99384000  1.0
  H  H11  1  0.56147000  0.18591000  0.00616000  1.0
  H  H12  1  0.78412000  0.79321000  0.30056000  1.0
  H  H13  1  0.21588000  0.20679000  0.69944000  1.0
  H  H14  1  0.59698000  0.79524000  0.12762000  1.0
  H  H15  1  0.40302000  0.20476000  0.87238000  1.0
  H  H16  1  0.47818000  0.04551000  0.35740000  1.0
  H  H17  1  0.52182000  0.95450000  0.64260000  1.0
  H  H18  1  0.67220000  0.03131000  0.52231000  1.0
  H  H19  1  0.32780000  0.96868000  0.47769000  1.0
  H  H20  1  0.34470000  0.98865000  0.15491000  1.0
  H  H21  1  0.65531000  0.01136000  0.84509000  1.0
  H  H22  1  0.79631000  0.15805000  0.72193000  1.0
  H  H23  1  0.20368000  0.84196000  0.27807000  1.0
  H  H24  1  0.67695000  0.31489000  0.77816000  1.0
  H  H25  1  0.32305000  0.68512000  0.22183000  1.0
  H  H26  1  0.72509000  0.53648000  0.72803000  1.0
  H  H27  1  0.27491000  0.46353000  0.27196000  1.0
  H  H28  1  0.89214000  0.60387000  0.62473000  1.0
  H  H29  1  0.10786000  0.39614000  0.37527000  1.0
  H  H30  1  0.01231000  0.44659000  0.56948000  1.0
  H  H31  1  0.98769000  0.55340000  0.43051000  1.0
  H  H32  1  0.49319000  0.61333000  0.53507000  1.0
  H  H33  1  0.50682000  0.38666000  0.46494000  1.0
  H  H34  1  0.30647000  0.44255000  0.56695000  1.0
  H  H35  1  0.69353000  0.55745000  0.43305000  1.0
  H  H36  1  0.30042000  0.43596000  0.76932000  1.0
  H  H37  1  0.69958000  0.56404000  0.23068000  1.0
  H  H38  1  0.48237000  0.59650000  0.93901000  1.0
  H  H39  1  0.51762000  0.40350000  0.06099000  1.0
  H  H40  1  0.66693000  0.77022000  0.90501000  1.0
  H  H41  1  0.33307000  0.22977000  0.09499000  1.0
  C  C42  1  0.07185000  0.94948000  0.82598000  1.0
  C  C43  1  0.92816000  0.05053000  0.17401000  1.0
  C  C44  1  0.17333000  0.94926000  0.92661000  1.0
  C  C45  1  0.82667000  0.05075000  0.07339000  1.0
  C  C46  1  0.26480000  0.87766000  0.91846000  1.0
  C  C47  1  0.73520000  0.12235000  0.08154000  1.0
  C  C48  1  0.24639000  0.80878000  0.80664000  1.0
  C  C49  1  0.75362000  0.19122000  0.19337000  1.0
  C  C50  1  0.14148000  0.81315000  0.71067000  1.0
  C  C51  1  0.85852000  0.18685000  0.28933000  1.0
  C  C52  1  0.37605000  0.87174000  0.01743000  1.0
  C  C53  1  0.62396000  0.12826000  0.98257000  1.0
  C  C54  1  0.71340000  0.84728000  0.30933000  1.0
  C  C55  1  0.28660000  0.15272000  0.69067000  1.0
  C  C56  1  0.60815000  0.84938000  0.21300000  1.0
  C  C57  1  0.39185000  0.15063000  0.78700000  1.0
  C  C58  1  0.51906000  0.92141000  0.22665000  1.0
  C  C59  1  0.48094000  0.07860000  0.77335000  1.0
  C  C60  1  0.54332000  0.98759000  0.34120000  1.0
  C  C61  1  0.45668000  0.01241000  0.65880000  1.0
  C  C62  1  0.65108000  0.97990000  0.43318000  1.0
  C  C63  1  0.34892000  0.02010000  0.56682000  1.0
  C  C64  1  0.40628000  0.93012000  0.13034000  1.0
  C  C65  1  0.59373000  0.06988000  0.86966000  1.0
  C  C66  1  0.97203000  0.19533000  0.59908000  1.0
  C  C67  1  0.02796000  0.80467000  0.40092000  1.0
  C  C68  1  0.90930000  0.29291000  0.64054000  1.0
  C  C69  1  0.09070000  0.70708000  0.35946000  1.0
  C  C70  1  0.81605000  0.25589000  0.70084000  1.0
  C  C71  1  0.18394000  0.74411000  0.29916000  1.0
  C  C72  1  0.75045000  0.34379000  0.73246000  1.0
  C  C73  1  0.24954000  0.65622000  0.26754000  1.0
  C  C74  1  0.77782000  0.46867000  0.70473000  1.0
  C  C75  1  0.22218000  0.53134000  0.29527000  1.0
  C  C76  1  0.87214000  0.50659000  0.64637000  1.0
  C  C77  1  0.12786000  0.49341000  0.35363000  1.0
  C  C78  1  0.93806000  0.41912000  0.61469000  1.0
  C  C79  1  0.06194000  0.58088000  0.38531000  1.0
  C  C80  1  0.70671000  0.80295000  0.69968000  1.0
  C  C81  1  0.29329000  0.19705000  0.30033000  1.0
  C  C82  1  0.59087000  0.70234000  0.71806000  1.0
  C  C83  1  0.40913000  0.29765000  0.28195000  1.0
  C  C84  1  0.48895000  0.60994000  0.62309000  1.0
  C  C85  1  0.51105000  0.39005000  0.37691000  1.0
  C  C86  1  0.38448000  0.51458000  0.64126000  1.0
  C  C87  1  0.61552000  0.48541000  0.35874000  1.0
  C  C88  1  0.38211000  0.51013000  0.75501000  1.0
  C  C89  1  0.61789000  0.48986000  0.24499000  1.0
  C  C90  1  0.48390000  0.60137000  0.85028000  1.0
  C  C91  1  0.51610000  0.39863000  0.14972000  1.0
  C  C92  1  0.58692000  0.69812000  0.83180000  1.0
  C  C93  1  0.41308000  0.30187000  0.16821000  1.0
  N  N94  1  0.05509000  0.88236000  0.71904000  1.0
  N  N95  1  0.94491000  0.11764000  0.28096000  1.0
  N  N96  1  0.73602000  0.91117000  0.41840000  1.0
  N  N97  1  0.26398000  0.08883000  0.58160000  1.0
  O  O98  1  0.94738000  0.08495000  0.62982000  1.0
  O  O99  1  0.05261000  0.91505000  0.37018000  1.0
  O  O100  1  0.04638000  0.22973000  0.53512000  1.0
  O  O101  1  0.95361000  0.77026000  0.46488000  1.0
  O  O102  1  0.73845000  0.76709000  0.60874000  1.0
  O  O103  1  0.26155000  0.23291000  0.39126000  1.0
  O  O104  1  0.76380000  0.91135000  0.77114000  1.0
  O  O105  1  0.23621000  0.08865000  0.22887000  1.0
