# generated using pymatgen
data_ZnH20C27NO8
_symmetry_space_group_name_H-M   'P 1'
_cell_length_a   13.96150000
_cell_length_b   15.00400000
_cell_length_c   15.14560000
_cell_angle_alpha   90.62600000
_cell_angle_beta   90.76970000
_cell_angle_gamma   91.38680000
_symmetry_Int_Tables_number   1
_chemical_formula_structural   ZnH20C27NO8
_chemical_formula_sum   'Zn2 H40 C54 N2 O16'
_cell_volume   3171.25886429
_cell_formula_units_Z   2
loop_
 _symmetry_equiv_pos_site_id
 _symmetry_equiv_pos_as_xyz
  1  'x, y, z'
loop_
 _atom_site_type_symbol
 _atom_site_label
 _atom_site_symmetry_multiplicity
 _atom_site_fract_x
 _atom_site_fract_y
 _atom_site_fract_z
 _atom_site_occupancy
  Zn  Zn0  1  0.39909000  0.50392000  0.49965000  1.0
  Zn  Zn1  1  0.60380000  0.50317000  0.50472000  1.0
  H  H2  1  0.60929000  0.76662000  0.41937000  1.0
  H  H3  1  0.37072000  0.23579000  0.52725000  1.0
  H  H4  1  0.28720000  0.09710000  0.58058000  1.0
  H  H5  1  0.66216000  0.89813000  0.33038000  1.0
  H  H6  1  0.33938000  0.45730000  0.94338000  1.0
  H  H7  1  0.62973000  0.45692000  0.06609000  1.0
  H  H8  1  0.34860000  0.56927000  0.05832000  1.0
  H  H9  1  0.63596000  0.54305000  0.94073000  1.0
  H  H10  1  0.34065000  0.44043000  0.77944000  1.0
  H  H11  1  0.63371000  0.47387000  0.23008000  1.0
  H  H12  1  0.35284000  0.58354000  0.22252000  1.0
  H  H13  1  0.63665000  0.52324000  0.77705000  1.0
  H  H14  1  0.75008000  0.36626000  0.49568000  1.0
  H  H15  1  0.24870000  0.51831000  0.36214000  1.0
  H  H16  1  0.75683000  0.64202000  0.50691000  1.0
  H  H17  1  0.25120000  0.49264000  0.63367000  1.0
  H  H18  1  0.36519000  0.84935000  0.69431000  1.0
  H  H19  1  0.70854000  0.19091000  0.35210000  1.0
  H  H20  1  0.25110000  0.85413000  0.59833000  1.0
  H  H21  1  0.63542000  0.11772000  0.23611000  1.0
  H  H22  1  0.84509000  0.26537000  0.42632000  1.0
  H  H23  1  0.85402000  0.25451000  0.54359000  1.0
  H  H24  1  0.01932000  0.19157000  0.52719000  1.0
  H  H25  1  0.93192000  0.12647000  0.46695000  1.0
  H  H26  1  0.00909000  0.20192000  0.41027000  1.0
  H  H27  1  0.01687000  0.39049000  0.32168000  1.0
  H  H28  1  0.12160000  0.42635000  0.26404000  1.0
  H  H29  1  0.02057000  0.52324000  0.16728000  1.0
  H  H30  1  0.97809000  0.41023000  0.16114000  1.0
  H  H31  1  0.91636000  0.48952000  0.22614000  1.0
  H  H32  1  0.99121000  0.66935000  0.62755000  1.0
  H  H33  1  0.88979000  0.73470000  0.60042000  1.0
  H  H34  1  0.99516000  0.83631000  0.51001000  1.0
  H  H35  1  0.04017000  0.83216000  0.62043000  1.0
  H  H36  1  0.09554000  0.76974000  0.53507000  1.0
  H  H37  1  0.15603000  0.54796000  0.74111000  1.0
  H  H38  1  0.14388000  0.42908000  0.73769000  1.0
  H  H39  1  0.97767000  0.43986000  0.80083000  1.0
  H  H40  1  0.06560000  0.49132000  0.87233000  1.0
  H  H41  1  0.99123000  0.55826000  0.80502000  1.0
  C  C42  1  0.49106000  0.47466000  0.66980000  1.0
  C  C43  1  0.49473000  0.53421000  0.33446000  1.0
  C  C44  1  0.34724000  0.05869000  0.55660000  1.0
  C  C45  1  0.61578000  0.94017000  0.36967000  1.0
  C  C46  1  0.40445000  0.47305000  0.90696000  1.0
  C  C47  1  0.56972000  0.48661000  0.10003000  1.0
  C  C48  1  0.41083000  0.54729000  0.09580000  1.0
  C  C49  1  0.57155000  0.51881000  0.90570000  1.0
  C  C50  1  0.40508000  0.46289000  0.81548000  1.0
  C  C51  1  0.57248000  0.49578000  0.19141000  1.0
  C  C52  1  0.41323000  0.55616000  0.18732000  1.0
  C  C53  1  0.57229000  0.50843000  0.81454000  1.0
  C  C54  1  0.48903000  0.48058000  0.76835000  1.0
  C  C55  1  0.49397000  0.53031000  0.23586000  1.0
  C  C56  1  0.48774000  0.50130000  0.95368000  1.0
  C  C57  1  0.48898000  0.51195000  0.05062000  1.0
  C  C58  1  0.89578000  0.42405000  0.49430000  1.0
  C  C59  1  0.10537000  0.51287000  0.41848000  1.0
  C  C60  1  0.89879000  0.58475000  0.49986000  1.0
  C  C61  1  0.10607000  0.49995000  0.57705000  1.0
  C  C62  1  0.79584000  0.42599000  0.49761000  1.0
  C  C63  1  0.20544000  0.51174000  0.42124000  1.0
  C  C64  1  0.79881000  0.58179000  0.50365000  1.0
  C  C65  1  0.20605000  0.49850000  0.57497000  1.0
  C  C66  1  0.94859000  0.50519000  0.49672000  1.0
  C  C67  1  0.05441000  0.50599000  0.49691000  1.0
  C  C68  1  0.50403000  0.33476000  0.45838000  1.0
  C  C69  1  0.51105000  0.67407000  0.53436000  1.0
  C  C70  1  0.56133000  0.80974000  0.45557000  1.0
  C  C71  1  0.42195000  0.19398000  0.49359000  1.0
  C  C72  1  0.50694000  0.77364000  0.52299000  1.0
  C  C73  1  0.49453000  0.23500000  0.44544000  1.0
  C  C74  1  0.44412000  0.82807000  0.57123000  1.0
  C  C75  1  0.56009000  0.18309000  0.39811000  1.0
  C  C76  1  0.42617000  0.91581000  0.54211000  1.0
  C  C77  1  0.55375000  0.08835000  0.40144000  1.0
  C  C78  1  0.48885000  0.95489000  0.47840000  1.0
  C  C79  1  0.48675000  0.04773000  0.46048000  1.0
  C  C80  1  0.55722000  0.90090000  0.43529000  1.0
  C  C81  1  0.41853000  0.10134000  0.50449000  1.0
  C  C82  1  0.34839000  0.96888000  0.57401000  1.0
  C  C83  1  0.61332000  0.02975000  0.35055000  1.0
  C  C84  1  0.41299000  0.80138000  0.66050000  1.0
  C  C85  1  0.63950000  0.22753000  0.34980000  1.0
  C  C86  1  0.26025000  0.92722000  0.61140000  1.0
  C  C87  1  0.66511000  0.05858000  0.27010000  1.0
  C  C88  1  0.89563000  0.26400000  0.48288000  1.0
  C  C89  1  0.96859000  0.19201000  0.47119000  1.0
  C  C90  1  0.04911000  0.44567000  0.28376000  1.0
  C  C91  1  0.98740000  0.46877000  0.20488000  1.0
  C  C92  1  0.96061000  0.71380000  0.57755000  1.0
  C  C93  1  0.02666000  0.79274000  0.55981000  1.0
  C  C94  1  0.10400000  0.49163000  0.73549000  1.0
  C  C95  1  0.02998000  0.49546000  0.80743000  1.0
  N  N96  1  0.75008000  0.50377000  0.50275000  1.0
  N  N97  1  0.25289000  0.50420000  0.49808000  1.0
  O  O98  1  0.41155000  0.46174000  0.62811000  1.0
  O  O99  1  0.57461000  0.52243000  0.37389000  1.0
  O  O100  1  0.41500000  0.54694000  0.37221000  1.0
  O  O101  1  0.57253000  0.48469000  0.63412000  1.0
  O  O102  1  0.42689000  0.37705000  0.45043000  1.0
  O  O103  1  0.59307000  0.64010000  0.52779000  1.0
  O  O104  1  0.43088000  0.63329000  0.53993000  1.0
  O  O105  1  0.58550000  0.36530000  0.48315000  1.0
  O  O106  1  0.44223000  0.73697000  0.70067000  1.0
  O  O107  1  0.63477000  0.29843000  0.31113000  1.0
  O  O108  1  0.19728000  0.96853000  0.64853000  1.0
  O  O109  1  0.73219000  0.01885000  0.23799000  1.0
  O  O110  1  0.94736000  0.34855000  0.48860000  1.0
  O  O111  1  0.05630000  0.52420000  0.34059000  1.0
  O  O112  1  0.94898000  0.66410000  0.49507000  1.0
  O  O113  1  0.05344000  0.49616000  0.65179000  1.0
