# generated using pymatgen
data_NiH13C18N3O7
_symmetry_space_group_name_H-M   'P 1'
_cell_length_a   8.55271000
_cell_length_b   10.88670000
_cell_length_c   11.36800000
_cell_angle_alpha   107.30100000
_cell_angle_beta   107.82800000
_cell_angle_gamma   108.03800000
_symmetry_Int_Tables_number   1
_chemical_formula_structural   NiH13C18N3O7
_chemical_formula_sum   'Ni2 H26 C36 N6 O14'
_cell_volume   863.52770410
_cell_formula_units_Z   2
loop_
 _symmetry_equiv_pos_site_id
 _symmetry_equiv_pos_as_xyz
  1  'x, y, z'
loop_
 _atom_site_type_symbol
 _atom_site_label
 _atom_site_symmetry_multiplicity
 _atom_site_fract_x
 _atom_site_fract_y
 _atom_site_fract_z
 _atom_site_occupancy
  Ni  Ni0  1  0.67243000  0.96394000  0.35263000  1.0
  Ni  Ni1  1  0.32611000  0.04337000  0.65154000  1.0
  H  H2  1  0.68881000  0.51880000  0.79126000  1.0
  H  H3  1  0.32987000  0.48011000  0.20090000  1.0
  H  H4  1  0.90576000  0.55519000  0.68376000  1.0
  H  H5  1  0.10206000  0.44841000  0.29974000  1.0
  H  H6  1  0.89108000  0.69276000  0.54545000  1.0
  H  H7  1  0.10468000  0.31354000  0.44128000  1.0
  H  H8  1  0.62036000  0.05028000  0.12104000  1.0
  H  H9  1  0.38510000  0.94790000  0.87775000  1.0
  H  H10  1  0.75002000  0.05864000  0.95502000  1.0
  H  H11  1  0.25104000  0.93364000  0.04124000  1.0
  H  H12  1  0.13246000  0.92599000  0.16788000  1.0
  H  H13  1  0.87381000  0.07323000  0.83374000  1.0
  H  H14  1  0.97433000  0.90850000  0.31355000  1.0
  H  H15  1  0.03539000  0.09608000  0.69102000  1.0
  H  H16  1  0.51970000  0.70188000  0.07549000  1.0
  H  H17  1  0.46806000  0.29771000  0.92010000  1.0
  H  H18  1  0.22292000  0.49783000  0.91735000  1.0
  H  H19  1  0.76652000  0.50032000  0.07658000  1.0
  H  H20  1  0.01137000  0.66170000  0.19954000  1.0
  H  H21  1  0.97662000  0.32548000  0.79826000  1.0
  H  H22  1  0.31705000  0.86484000  0.34138000  1.0
  H  H23  1  0.66925000  0.12481000  0.65719000  1.0
  H  H24  1  0.01226000  0.17122000  0.53263000  1.0
  H  H25  1  0.99123000  0.84685000  0.48269000  1.0
  H  H26  1  0.84316000  0.21737000  0.51753000  1.0
  H  H27  1  0.16084000  0.79220000  0.49922000  1.0
  C  C28  1  0.67772000  0.74009000  0.57875000  1.0
  C  C29  1  0.31585000  0.25926000  0.41373000  1.0
  C  C30  1  0.55383000  0.71975000  0.63792000  1.0
  C  C31  1  0.44007000  0.27164000  0.35492000  1.0
  C  C32  1  0.56391000  0.63848000  0.71333000  1.0
  C  C33  1  0.43995000  0.35418000  0.28038000  1.0
  C  C34  1  0.68987000  0.58088000  0.73204000  1.0
  C  C35  1  0.31991000  0.41663000  0.25854000  1.0
  C  C36  1  0.80961000  0.60179000  0.67287000  1.0
  C  C37  1  0.19461000  0.39871000  0.31317000  1.0
  C  C38  1  0.80077000  0.67935000  0.59515000  1.0
  C  C39  1  0.19622000  0.32275000  0.39234000  1.0
  C  C40  1  0.68239000  0.82766000  0.49916000  1.0
  C  C41  1  0.30829000  0.18553000  0.50590000  1.0
  C  C42  1  0.41786000  0.78315000  0.61878000  1.0
  C  C43  1  0.58013000  0.21311000  0.38572000  1.0
  C  C44  1  0.73069000  0.01946000  0.12415000  1.0
  C  C45  1  0.27547000  0.97915000  0.87612000  1.0
  C  C46  1  0.80822000  0.02710000  0.03390000  1.0
  C  C47  1  0.19542000  0.96859000  0.96456000  1.0
  C  C48  1  0.95644000  0.99298000  0.04504000  1.0
  C  C49  1  0.04777000  0.00326000  0.95435000  1.0
  C  C50  1  0.01567000  0.95036000  0.14884000  1.0
  C  C51  1  0.99019000  0.04835000  0.85219000  1.0
  C  C52  1  0.92852000  0.94181000  0.23304000  1.0
  C  C53  1  0.07924000  0.06006000  0.76970000  1.0
  C  C54  1  0.40281000  0.69017000  0.09851000  1.0
  C  C55  1  0.58526000  0.30682000  0.89821000  1.0
  C  C56  1  0.23365000  0.57352000  0.01032000  1.0
  C  C57  1  0.75532000  0.42222000  0.98503000  1.0
  C  C58  1  0.08519000  0.55792000  0.04286000  1.0
  C  C59  1  0.90390000  0.43461000  0.95335000  1.0
  C  C60  1  0.11762000  0.66519000  0.16526000  1.0
  C  C61  1  0.87059000  0.32494000  0.83226000  1.0
  C  C62  1  0.28944000  0.77986000  0.24690000  1.0
  C  C63  1  0.69783000  0.21154000  0.75078000  1.0
  N  N64  1  0.44001000  0.60945000  0.77707000  1.0
  N  N65  1  0.57522000  0.38551000  0.22649000  1.0
  N  N66  1  0.78817000  0.97667000  0.22243000  1.0
  N  N67  1  0.22022000  0.02570000  0.78048000  1.0
  N  N68  1  0.43126000  0.79234000  0.21473000  1.0
  N  N69  1  0.55605000  0.20269000  0.78290000  1.0
  O  O70  1  0.77514000  0.82587000  0.42851000  1.0
  O  O71  1  0.22669000  0.21024000  0.58005000  1.0
  O  O72  1  0.59632000  0.90362000  0.50055000  1.0
  O  O73  1  0.38336000  0.10062000  0.50905000  1.0
  O  O74  1  0.47420000  0.90920000  0.70731000  1.0
  O  O75  1  0.53118000  0.08300000  0.30792000  1.0
  O  O76  1  0.26346000  0.70546000  0.51517000  1.0
  O  O77  1  0.73117000  0.30020000  0.48829000  1.0
  O  O78  1  0.32999000  0.66261000  0.76835000  1.0
  O  O79  1  0.65748000  0.30985000  0.21426000  1.0
  O  O80  1  0.45227000  0.53264000  0.83867000  1.0
  O  O81  1  0.60101000  0.48850000  0.19571000  1.0
  O  O82  1  0.88472000  0.14005000  0.52358000  1.0
  O  O83  1  0.11952000  0.87233000  0.49460000  1.0
