# generated using pymatgen
data_Sm4SiMo12H42C28N4O71
_symmetry_space_group_name_H-M   'P 1'
_cell_length_a   16.30220000
_cell_length_b   17.02420000
_cell_length_c   17.35470000
_cell_angle_alpha   77.85550000
_cell_angle_beta   63.40370000
_cell_angle_gamma   62.60930000
_symmetry_Int_Tables_number   1
_chemical_formula_structural   Sm4SiMo12H42C28N4O71
_chemical_formula_sum   'Sm8 Si2 Mo24 H84 C56 N8 O142'
_cell_volume   3823.92196049
_cell_formula_units_Z   2
loop_
 _symmetry_equiv_pos_site_id
 _symmetry_equiv_pos_as_xyz
  1  'x, y, z'
loop_
 _atom_site_type_symbol
 _atom_site_label
 _atom_site_symmetry_multiplicity
 _atom_site_fract_x
 _atom_site_fract_y
 _atom_site_fract_z
 _atom_site_occupancy
  Sm  Sm0  1  0.04076000  0.19190000  0.96110000  1.0
  Sm  Sm1  1  0.95925000  0.80810000  0.03890000  1.0
  Sm  Sm2  1  0.98325000  0.97129000  0.32521000  1.0
  Sm  Sm3  1  0.01675000  0.02870000  0.67479000  1.0
  Sm  Sm4  1  0.31745000  0.68039000  0.44619000  1.0
  Sm  Sm5  1  0.68256000  0.31961000  0.55381000  1.0
  Sm  Sm6  1  0.77746000  0.51931000  0.19568000  1.0
  Sm  Sm7  1  0.22254000  0.48069000  0.80433000  1.0
  Si  Si8  1  0.37523000  0.24808000  0.24719000  1.0
  Si  Si9  1  0.62477000  0.75192000  0.75281000  1.0
  Mo  Mo10  1  0.31776000  0.16798000  0.11508000  1.0
  Mo  Mo11  1  0.68224000  0.83202000  0.88492000  1.0
  Mo  Mo12  1  0.21714000  0.46460000  0.32950000  1.0
  Mo  Mo13  1  0.78285000  0.53540000  0.67049000  1.0
  Mo  Mo14  1  0.11431000  0.31914000  0.37919000  1.0
  Mo  Mo15  1  0.88569000  0.68087000  0.62081000  1.0
  Mo  Mo16  1  0.28203000  0.08248000  0.31524000  1.0
  Mo  Mo17  1  0.71796000  0.91752000  0.68477000  1.0
  Mo  Mo18  1  0.55523000  0.10186000  0.32951000  1.0
  Mo  Mo19  1  0.44477000  0.89814000  0.67049000  1.0
  Mo  Mo20  1  0.18248000  0.40471000  0.17804000  1.0
  Mo  Mo21  1  0.81753000  0.59528000  0.82195000  1.0
  Mo  Mo22  1  0.45516000  0.31323000  0.02710000  1.0
  Mo  Mo23  1  0.54484000  0.68677000  0.97290000  1.0
  Mo  Mo24  1  0.51665000  0.03016000  0.16350000  1.0
  Mo  Mo25  1  0.48334000  0.96983000  0.83651000  1.0
  Mo  Mo26  1  0.31080000  0.18537000  0.46745000  1.0
  Mo  Mo27  1  0.68921000  0.81463000  0.53255000  1.0
  Mo  Mo28  1  0.43532000  0.31577000  0.38783000  1.0
  Mo  Mo29  1  0.56469000  0.68423000  0.61216000  1.0
  Mo  Mo30  1  0.48165000  0.40365000  0.16457000  1.0
  Mo  Mo31  1  0.51835000  0.59635000  0.83544000  1.0
  Mo  Mo32  1  0.63176000  0.19132000  0.10570000  1.0
  Mo  Mo33  1  0.36824000  0.80868000  0.89430000  1.0
  H  H34  1  0.87943000  0.97312000  0.53324000  1.0
  H  H35  1  0.12057000  0.02688000  0.46676000  1.0
  H  H36  1  0.99374000  0.93044000  0.51268000  1.0
  H  H37  1  0.00626000  0.06956000  0.48732000  1.0
  H  H38  1  0.91494000  0.13097000  0.13601000  1.0
  H  H39  1  0.08506000  0.86903000  0.86399000  1.0
  H  H40  1  0.84247000  0.15696000  0.08623000  1.0
  H  H41  1  0.15753000  0.84304000  0.91376000  1.0
  H  H42  1  0.39469000  0.57731000  0.27391000  1.0
  H  H43  1  0.60531000  0.42269000  0.72609000  1.0
  H  H44  1  0.28203000  0.59200000  0.33675000  1.0
  H  H45  1  0.71797000  0.40800000  0.66324000  1.0
  H  H46  1  0.86523000  0.85089000  0.39633000  1.0
  H  H47  1  0.13477000  0.14911000  0.60367000  1.0
  H  H48  1  0.92931000  0.83368000  0.44838000  1.0
  H  H49  1  0.07069000  0.16632000  0.55162000  1.0
  H  H50  1  0.98084000  0.39772000  0.06685000  1.0
  H  H51  1  0.01916000  0.60228000  0.93315000  1.0
  H  H52  1  0.01401000  0.45619000  0.09789000  1.0
  H  H53  1  0.98599000  0.54381000  0.90211000  1.0
  H  H54  1  0.12274000  0.78332000  0.43262000  1.0
  H  H55  1  0.87726000  0.21668000  0.56738000  1.0
  H  H56  1  0.10023000  0.69990000  0.48806000  1.0
  H  H57  1  0.89977000  0.30010000  0.51194000  1.0
  H  H58  1  0.56879000  0.54107000  0.28339000  1.0
  H  H59  1  0.43121000  0.45893000  0.71660000  1.0
  H  H60  1  0.60123000  0.48972000  0.20028000  1.0
  H  H61  1  0.39877000  0.51028000  0.79971000  1.0
  H  H62  1  0.36270000  0.57798000  0.59377000  1.0
  H  H63  1  0.63730000  0.42202000  0.40623000  1.0
  H  H64  1  0.45202000  0.61339000  0.55194000  1.0
  H  H65  1  0.54798000  0.38661000  0.44806000  1.0
  H  H66  1  0.88779000  0.32470000  0.15935000  1.0
  H  H67  1  0.11221000  0.67530000  0.84065000  1.0
  H  H68  1  0.80606000  0.32780000  0.25462000  1.0
  H  H69  1  0.19394000  0.67220000  0.74538000  1.0
  H  H70  1  0.89805000  0.94171000  0.22048000  1.0
  H  H71  1  0.10195000  0.05829000  0.77952000  1.0
  H  H72  1  0.79440000  0.99929000  0.29890000  1.0
  H  H73  1  0.20560000  0.00071000  0.70110000  1.0
  H  H74  1  0.91026000  0.14665000  0.40140000  1.0
  H  H75  1  0.08974000  0.85336000  0.59861000  1.0
  H  H76  1  0.02256000  0.13415000  0.33630000  1.0
  H  H77  1  0.97744000  0.86585000  0.66370000  1.0
  H  H78  1  0.19216000  0.22041000  0.00035000  1.0
  H  H79  1  0.80784000  0.77959000  0.99965000  1.0
  H  H80  1  0.15216000  0.29977000  0.93680000  1.0
  H  H81  1  0.84784000  0.70023000  0.06320000  1.0
  H  H82  1  0.14535000  0.97179000  0.96664000  1.0
  H  H83  1  0.85465000  0.02821000  0.03336000  1.0
  H  H84  1  0.05501000  0.01164000  0.93885000  1.0
  H  H85  1  0.94499000  0.98837000  0.06115000  1.0
  H  H86  1  0.66919000  0.69394000  0.12981000  1.0
  H  H87  1  0.33081000  0.30606000  0.87019000  1.0
  H  H88  1  0.64808000  0.63291000  0.09224000  1.0
  H  H89  1  0.35192000  0.36709000  0.90776000  1.0
  H  H90  1  0.23981000  0.08549000  0.79830000  1.0
  H  H91  1  0.76019000  0.91451000  0.20170000  1.0
  H  H92  1  0.27841000  0.10950000  0.85466000  1.0
  H  H93  1  0.72159000  0.89050000  0.14534000  1.0
  H  H94  1  0.96510000  0.66369000  0.29173000  1.0
  H  H95  1  0.03490000  0.33631000  0.70827000  1.0
  H  H96  1  0.75789000  0.27891000  0.82335000  1.0
  H  H97  1  0.24211000  0.72109000  0.17665000  1.0
  H  H98  1  0.34763000  0.96819000  0.51452000  1.0
  H  H99  1  0.65237000  0.03180000  0.48548000  1.0
  H  H100  1  0.62854000  0.42053000  0.90627000  1.0
  H  H101  1  0.37146000  0.57947000  0.09373000  1.0
  H  H102  1  0.66851000  0.47312000  0.00447000  1.0
  H  H103  1  0.33150000  0.52688000  0.99553000  1.0
  H  H104  1  0.62596000  0.79053000  0.32466000  1.0
  H  H105  1  0.37404000  0.20947000  0.67534000  1.0
  H  H106  1  0.52783000  0.93099000  0.41190000  1.0
  H  H107  1  0.47216000  0.06901000  0.58810000  1.0
  H  H108  1  0.84631000  0.49462000  0.48887000  1.0
  H  H109  1  0.15369000  0.50538000  0.51113000  1.0
  H  H110  1  0.43137000  0.90664000  0.04478000  1.0
  H  H111  1  0.56863000  0.09336000  0.95522000  1.0
  H  H112  1  0.40487000  0.82729000  0.18894000  1.0
  H  H113  1  0.59513000  0.17271000  0.81106000  1.0
  H  H114  1  0.27810000  0.02130000  0.02092000  1.0
  H  H115  1  0.72190000  0.97870000  0.97908000  1.0
  H  H116  1  0.94189000  0.59024000  0.43829000  1.0
  H  H117  1  0.05811000  0.40975000  0.56171000  1.0
  C  C118  1  0.21941000  0.84927000  0.31957000  1.0
  C  C119  1  0.78059000  0.15072000  0.68043000  1.0
  C  C120  1  0.35594000  0.92175000  0.09525000  1.0
  C  C121  1  0.64406000  0.07825000  0.90475000  1.0
  C  C122  1  0.34196000  0.87801000  0.17450000  1.0
  C  C123  1  0.65804000  0.12199000  0.82550000  1.0
  C  C124  1  0.27147000  0.98542000  0.08149000  1.0
  C  C125  1  0.72853000  0.01458000  0.91851000  1.0
  C  C126  1  0.24353000  0.89863000  0.23627000  1.0
  C  C127  1  0.75647000  0.10137000  0.76372000  1.0
  C  C128  1  0.17604000  0.00448000  0.14827000  1.0
  C  C129  1  0.82396000  0.99552000  0.85173000  1.0
  C  C130  1  0.24459000  0.86555000  0.54469000  1.0
  C  C131  1  0.75541000  0.13445000  0.45531000  1.0
  C  C132  1  0.84019000  0.38437000  0.03772000  1.0
  C  C133  1  0.15981000  0.61563000  0.96227000  1.0
  C  C134  1  0.88841000  0.60399000  0.26671000  1.0
  C  C135  1  0.11159000  0.39601000  0.73330000  1.0
  C  C136  1  0.82366000  0.51534000  0.37269000  1.0
  C  C137  1  0.17635000  0.48466000  0.62731000  1.0
  C  C138  1  0.75903000  0.46578000  0.40049000  1.0
  C  C139  1  0.24098000  0.53422000  0.59950000  1.0
  C  C140  1  0.89330000  0.64792000  0.18114000  1.0
  C  C141  1  0.10669000  0.35208000  0.81886000  1.0
  C  C142  1  0.81107000  0.36002000  0.97852000  1.0
  C  C143  1  0.18893000  0.63998000  0.02148000  1.0
  C  C144  1  0.85865000  0.25655000  0.88173000  1.0
  C  C145  1  0.14135000  0.74345000  0.11827000  1.0
  C  C146  1  0.91266000  0.58017000  0.39762000  1.0
  C  C147  1  0.08734000  0.41983000  0.60238000  1.0
  C  C148  1  0.94000000  0.17202000  0.83588000  1.0
  C  C149  1  0.06000000  0.82798000  0.16412000  1.0
  C  C150  1  0.77020000  0.30432000  0.86790000  1.0
  C  C151  1  0.22981000  0.69567000  0.13210000  1.0
  C  C152  1  0.92616000  0.62037000  0.31679000  1.0
  C  C153  1  0.07384000  0.37963000  0.68321000  1.0
  C  C154  1  0.39286000  0.90861000  0.47572000  1.0
  C  C155  1  0.60714000  0.09139000  0.52429000  1.0
  C  C156  1  0.49909000  0.75631000  0.38167000  1.0
  C  C157  1  0.50091000  0.24369000  0.61833000  1.0
  C  C158  1  0.69984000  0.38282000  0.91299000  1.0
  C  C159  1  0.30016000  0.61718000  0.08701000  1.0
  C  C160  1  0.72088000  0.41208000  0.96834000  1.0
  C  C161  1  0.27912000  0.58792000  0.03166000  1.0
  C  C162  1  0.54749000  0.81016000  0.37018000  1.0
  C  C163  1  0.45251000  0.18985000  0.62982000  1.0
  C  C164  1  0.49300000  0.88754000  0.41814000  1.0
  C  C165  1  0.50700000  0.11246000  0.58187000  1.0
  C  C166  1  0.85992000  0.52717000  0.42641000  1.0
  C  C167  1  0.14008000  0.47283000  0.57359000  1.0
  C  C168  1  0.54945000  0.67269000  0.33211000  1.0
  C  C169  1  0.45055000  0.32732000  0.66790000  1.0
  C  C170  1  0.35111000  0.85016000  0.48429000  1.0
  C  C171  1  0.64889000  0.14984000  0.51572000  1.0
  C  C172  1  0.08093000  0.07305000  0.13995000  1.0
  C  C173  1  0.91907000  0.92695000  0.86005000  1.0
  N  N174  1  0.16234000  0.96110000  0.22365000  1.0
  N  N175  1  0.83766000  0.03890000  0.77635000  1.0
  N  N176  1  0.40343000  0.77590000  0.43800000  1.0
  N  N177  1  0.59657000  0.22409000  0.56201000  1.0
  N  N178  1  0.87752000  0.28326000  0.93695000  1.0
  N  N179  1  0.12248000  0.71674000  0.06305000  1.0
  N  N180  1  0.83980000  0.55127000  0.29365000  1.0
  N  N181  1  0.16020000  0.44873000  0.70635000  1.0
  O  O182  1  0.64033000  0.64921000  0.27977000  1.0
  O  O183  1  0.35966000  0.35079000  0.72023000  1.0
  O  O184  1  0.29040000  0.79484000  0.34090000  1.0
  O  O185  1  0.70960000  0.20516000  0.65910000  1.0
  O  O186  1  0.12571000  0.86509000  0.36308000  1.0
  O  O187  1  0.87428000  0.13491000  0.63692000  1.0
  O  O188  1  0.09049000  0.12448000  0.07576000  1.0
  O  O189  1  0.90951000  0.87552000  0.92424000  1.0
  O  O190  1  0.92363000  0.32870000  0.04378000  1.0
  O  O191  1  0.07637000  0.67130000  0.95622000  1.0
  O  O192  1  0.49494000  0.63107000  0.34650000  1.0
  O  O193  1  0.50507000  0.36893000  0.65350000  1.0
  O  O194  1  0.93753000  0.69868000  0.15140000  1.0
  O  O195  1  0.06246000  0.30133000  0.84860000  1.0
  O  O196  1  0.84854000  0.63159000  0.14567000  1.0
  O  O197  1  0.15146000  0.36841000  0.85433000  1.0
  O  O198  1  0.92715000  0.14094000  0.78467000  1.0
  O  O199  1  0.07285000  0.85906000  0.21533000  1.0
  O  O200  1  0.18990000  0.93503000  0.58905000  1.0
  O  O201  1  0.81009000  0.06497000  0.41095000  1.0
  O  O202  1  0.78212000  0.45582000  0.07865000  1.0
  O  O203  1  0.21788000  0.54418000  0.92134000  1.0
  O  O204  1  0.99684000  0.07449000  0.19813000  1.0
  O  O205  1  0.00316000  0.92551000  0.80187000  1.0
  O  O206  1  0.72128000  0.46781000  0.34899000  1.0
  O  O207  1  0.27873000  0.53219000  0.65101000  1.0
  O  O208  1  0.74438000  0.42672000  0.47275000  1.0
  O  O209  1  0.25563000  0.57328000  0.52725000  1.0
  O  O210  1  0.70075000  0.63650000  0.10321000  1.0
  O  O211  1  0.29925000  0.36350000  0.89679000  1.0
  O  O212  1  0.01912000  0.13702000  0.85271000  1.0
  O  O213  1  0.98089000  0.86298000  0.14728000  1.0
  O  O214  1  0.95618000  0.45234000  0.09653000  1.0
  O  O215  1  0.04382000  0.54766000  0.90346000  1.0
  O  O216  1  0.14407000  0.73117000  0.46977000  1.0
  O  O217  1  0.85593000  0.26883000  0.53023000  1.0
  O  O218  1  0.62575000  0.49356000  0.24119000  1.0
  O  O219  1  0.37425000  0.50644000  0.75881000  1.0
  O  O220  1  0.39364000  0.61404000  0.54714000  1.0
  O  O221  1  0.60636000  0.38596000  0.45286000  1.0
  O  O222  1  0.85401000  0.35248000  0.21660000  1.0
  O  O223  1  0.14599000  0.64753000  0.78340000  1.0
  O  O224  1  0.86635000  0.98690000  0.26566000  1.0
  O  O225  1  0.13365000  0.01310000  0.73434000  1.0
  O  O226  1  0.94664000  0.95241000  0.48455000  1.0
  O  O227  1  0.05336000  0.04759000  0.51545000  1.0
  O  O228  1  0.98295000  0.10217000  0.37512000  1.0
  O  O229  1  0.01705000  0.89784000  0.62488000  1.0
  O  O230  1  0.13631000  0.25520000  0.98181000  1.0
  O  O231  1  0.86369000  0.74480000  0.01819000  1.0
  O  O232  1  0.89783000  0.16472000  0.08732000  1.0
  O  O233  1  0.10217000  0.83528000  0.91268000  1.0
  O  O234  1  0.34074000  0.60109000  0.32974000  1.0
  O  O235  1  0.65925000  0.39891000  0.67026000  1.0
  O  O236  1  0.92991000  0.84743000  0.39078000  1.0
  O  O237  1  0.07009000  0.15257000  0.60922000  1.0
  O  O238  1  0.21695000  0.11973000  0.84798000  1.0
  O  O239  1  0.78305000  0.88027000  0.15202000  1.0
  O  O240  1  0.08329000  0.02548000  0.97056000  1.0
  O  O241  1  0.91671000  0.97452000  0.02944000  1.0
  O  O242  1  0.21532000  0.80651000  0.54625000  1.0
  O  O243  1  0.78468000  0.19349000  0.45375000  1.0
  O  O244  1  0.45407000  0.09438000  0.43447000  1.0
  O  O245  1  0.54593000  0.90562000  0.56553000  1.0
  O  O246  1  0.41291000  0.22467000  0.04669000  1.0
  O  O247  1  0.58709000  0.77533000  0.95331000  1.0
  O  O248  1  0.40899000  0.99689000  0.25471000  1.0
  O  O249  1  0.59101000  0.00312000  0.74529000  1.0
  O  O250  1  0.44928000  0.05820000  0.09295000  1.0
  O  O251  1  0.55072000  0.94180000  0.90705000  1.0
  O  O252  1  0.30917000  0.10439000  0.39812000  1.0
  O  O253  1  0.69083000  0.89560000  0.60188000  1.0
  O  O254  1  0.53700000  0.04292000  0.26519000  1.0
  O  O255  1  0.46300000  0.95708000  0.73481000  1.0
  O  O256  1  0.11351000  0.43215000  0.40110000  1.0
  O  O257  1  0.88648000  0.56785000  0.59890000  1.0
  O  O258  1  0.08123000  0.37753000  0.28763000  1.0
  O  O259  1  0.91877000  0.62247000  0.71237000  1.0
  O  O260  1  0.22331000  0.28007000  0.15252000  1.0
  O  O261  1  0.77668000  0.71993000  0.84748000  1.0
  O  O262  1  0.45723000  0.27802000  0.16539000  1.0
  O  O263  1  0.54276000  0.72198000  0.83461000  1.0
  O  O264  1  0.21636000  0.01868000  0.36891000  1.0
  O  O265  1  0.78364000  0.98132000  0.63109000  1.0
  O  O266  1  0.47486000  0.40749000  0.05927000  1.0
  O  O267  1  0.52514000  0.59251000  0.94073000  1.0
  O  O268  1  0.40791000  0.22151000  0.32885000  1.0
  O  O269  1  0.59209000  0.77849000  0.67115000  1.0
  O  O270  1  0.51676000  0.48708000  0.15647000  1.0
  O  O271  1  0.48324000  0.51293000  0.84353000  1.0
  O  O272  1  0.25691000  0.10700000  0.20789000  1.0
  O  O273  1  0.74308000  0.89300000  0.79211000  1.0
  O  O274  1  0.34943000  0.26333000  0.48655000  1.0
  O  O275  1  0.65057000  0.73667000  0.51344000  1.0
  O  O276  1  0.34499000  0.45681000  0.22741000  1.0
  O  O277  1  0.65501000  0.54320000  0.77258000  1.0
  O  O278  1  0.37355000  0.16237000  0.22028000  1.0
  O  O279  1  0.62645000  0.83763000  0.77973000  1.0
  O  O280  1  0.45002000  0.37377000  0.44657000  1.0
  O  O281  1  0.54998000  0.62623000  0.55342000  1.0
  O  O282  1  0.48976000  0.35294000  0.27654000  1.0
  O  O283  1  0.51024000  0.64705000  0.72346000  1.0
  O  O284  1  0.26242000  0.32964000  0.27422000  1.0
  O  O285  1  0.73758000  0.67036000  0.72577000  1.0
  O  O286  1  0.61767000  0.15497000  0.21628000  1.0
  O  O287  1  0.38233000  0.84503000  0.78372000  1.0
  O  O288  1  0.54380000  0.20565000  0.37627000  1.0
  O  O289  1  0.45621000  0.79435000  0.62373000  1.0
  O  O290  1  0.58684000  0.10000000  0.10766000  1.0
  O  O291  1  0.41315000  0.90001000  0.89234000  1.0
  O  O292  1  0.30918000  0.38836000  0.09556000  1.0
  O  O293  1  0.69082000  0.61165000  0.90444000  1.0
  O  O294  1  0.66447000  0.02325000  0.33812000  1.0
  O  O295  1  0.33552000  0.97675000  0.66188000  1.0
  O  O296  1  0.30319000  0.39978000  0.38444000  1.0
  O  O297  1  0.69681000  0.60022000  0.61555000  1.0
  O  O298  1  0.46040000  0.34844000  0.92555000  1.0
  O  O299  1  0.53960000  0.65156000  0.07445000  1.0
  O  O300  1  0.61806000  0.30313000  0.11691000  1.0
  O  O301  1  0.38194000  0.69687000  0.88309000  1.0
  O  O302  1  0.17603000  0.57070000  0.35930000  1.0
  O  O303  1  0.82397000  0.42930000  0.64070000  1.0
  O  O304  1  0.29081000  0.15525000  0.03536000  1.0
  O  O305  1  0.70918000  0.84475000  0.96464000  1.0
  O  O306  1  0.10525000  0.46123000  0.12467000  1.0
  O  O307  1  0.89475000  0.53876000  0.87532000  1.0
  O  O308  1  0.16774000  0.20479000  0.34437000  1.0
  O  O309  1  0.83226000  0.79520000  0.65562000  1.0
  O  O310  1  0.76065000  0.13645000  0.04770000  1.0
  O  O311  1  0.23935000  0.86355000  0.95230000  1.0
  O  O312  1  0.19973000  0.26735000  0.44775000  1.0
  O  O313  1  0.80027000  0.73266000  0.55225000  1.0
  O  O314  1  0.58898000  0.23961000  0.00770000  1.0
  O  O315  1  0.41101000  0.76039000  0.99230000  1.0
  O  O316  1  0.16442000  0.49329000  0.23852000  1.0
  O  O317  1  0.83558000  0.50671000  0.76148000  1.0
  O  O318  1  0.25636000  0.14824000  0.56912000  1.0
  O  O319  1  0.74365000  0.85176000  0.43088000  1.0
  O  O320  1  0.60960000  0.92527000  0.13371000  1.0
  O  O321  1  0.39040000  0.07473000  0.86629000  1.0
  O  O322  1  0.99993000  0.33147000  0.46089000  1.0
  O  O323  1  0.00007000  0.66853000  0.53912000  1.0
