# generated using pymatgen
data_HgH12C17(N3Cl)2
_symmetry_space_group_name_H-M   'P 1'
_cell_length_a   8.50627000
_cell_length_b   9.36381000
_cell_length_c   11.58990000
_cell_angle_alpha   79.05040000
_cell_angle_beta   75.76730000
_cell_angle_gamma   87.64080000
_symmetry_Int_Tables_number   1
_chemical_formula_structural   HgH12C17(N3Cl)2
_chemical_formula_sum   'Hg2 H24 C34 N12 Cl4'
_cell_volume   878.50713969
_cell_formula_units_Z   2
loop_
 _symmetry_equiv_pos_site_id
 _symmetry_equiv_pos_as_xyz
  1  'x, y, z'
loop_
 _atom_site_type_symbol
 _atom_site_label
 _atom_site_symmetry_multiplicity
 _atom_site_fract_x
 _atom_site_fract_y
 _atom_site_fract_z
 _atom_site_occupancy
  Hg  Hg0  1  0.29167000  0.68324000  0.33667000  1.0
  Hg  Hg1  1  0.70833000  0.31676000  0.66333000  1.0
  H  H2  1  0.93260000  0.61622000  0.58200000  1.0
  H  H3  1  0.06740000  0.38379000  0.41800000  1.0
  H  H4  1  0.67503000  0.72647000  0.67977000  1.0
  H  H5  1  0.32497000  0.27353000  0.32023000  1.0
  H  H6  1  0.60460000  0.98049000  0.58457000  1.0
  H  H7  1  0.39541000  0.01952000  0.41543000  1.0
  H  H8  1  0.78819000  0.10452000  0.39553000  1.0
  H  H9  1  0.21181000  0.89548000  0.60447000  1.0
  H  H10  1  0.96576000  0.22031000  0.94406000  1.0
  H  H11  1  0.03424000  0.77968000  0.05594000  1.0
  H  H12  1  0.05050000  0.34174000  0.73083000  1.0
  H  H13  1  0.94950000  0.65826000  0.26917000  1.0
  H  H14  1  0.34765000  0.35517000  0.62465000  1.0
  H  H15  1  0.65235000  0.64483000  0.37535000  1.0
  H  H16  1  0.47591000  0.16373000  0.94076000  1.0
  H  H17  1  0.52409000  0.83627000  0.05924000  1.0
  H  H18  1  0.53178000  0.09258000  0.15281000  1.0
  H  H19  1  0.46822000  0.90742000  0.84719000  1.0
  H  H20  1  0.51276000  0.36682000  0.11983000  1.0
  H  H21  1  0.48723000  0.63317000  0.88017000  1.0
  H  H22  1  0.75339000  0.50911000  0.12143000  1.0
  H  H23  1  0.24660000  0.49088000  0.87857000  1.0
  H  H24  1  0.00478000  0.37614000  0.15874000  1.0
  H  H25  1  0.99522000  0.62386000  0.84126000  1.0
  C  C26  1  0.89471000  0.72244000  0.54063000  1.0
  C  C27  1  0.10529000  0.27756000  0.45937000  1.0
  C  C28  1  0.75153000  0.78595000  0.59632000  1.0
  C  C29  1  0.24847000  0.21406000  0.40369000  1.0
  C  C30  1  0.71247000  0.92457000  0.54271000  1.0
  C  C31  1  0.28753000  0.07544000  0.45729000  1.0
  C  C32  1  0.81476000  0.99391000  0.43487000  1.0
  C  C33  1  0.18524000  0.00610000  0.56513000  1.0
  C  C34  1  0.95181000  0.91941000  0.38257000  1.0
  C  C35  1  0.04819000  0.08059000  0.61743000  1.0
  C  C36  1  0.06545000  0.97686000  0.26708000  1.0
  C  C37  1  0.93455000  0.02314000  0.73292000  1.0
  C  C38  1  0.18270000  0.09302000  0.08408000  1.0
  C  C39  1  0.81730000  0.90698000  0.91592000  1.0
  C  C40  1  0.21462000  0.18011000  0.96193000  1.0
  C  C41  1  0.78539000  0.81989000  0.03807000  1.0
  C  C42  1  0.09455000  0.23213000  0.90040000  1.0
  C  C43  1  0.90545000  0.76787000  0.09960000  1.0
  C  C44  1  0.14151000  0.29821000  0.77919000  1.0
  C  C45  1  0.85849000  0.70179000  0.22081000  1.0
  C  C46  1  0.30544000  0.30721000  0.72044000  1.0
  C  C47  1  0.69456000  0.69279000  0.27956000  1.0
  C  C48  1  0.37773000  0.20071000  0.89727000  1.0
  C  C49  1  0.62227000  0.79929000  0.10273000  1.0
  C  C50  1  0.89563000  0.16738000  0.16758000  1.0
  C  C51  1  0.10437000  0.83262000  0.83242000  1.0
  C  C52  1  0.63389000  0.16000000  0.15262000  1.0
  C  C53  1  0.36612000  0.84000000  0.84738000  1.0
  C  C54  1  0.62346000  0.31140000  0.13436000  1.0
  C  C55  1  0.37654000  0.68859000  0.86563000  1.0
  C  C56  1  0.75754000  0.39106000  0.13578000  1.0
  C  C57  1  0.24246000  0.60893000  0.86422000  1.0
  C  C58  1  0.89786000  0.31830000  0.15497000  1.0
  C  C59  1  0.10214000  0.68170000  0.84503000  1.0
  N  N60  1  0.99145000  0.78616000  0.43575000  1.0
  N  N61  1  0.00855000  0.21384000  0.56425000  1.0
  N  N62  1  0.21413000  0.92469000  0.23343000  1.0
  N  N63  1  0.78587000  0.07531000  0.76657000  1.0
  N  N64  1  0.28716000  0.99528000  0.12024000  1.0
  N  N65  1  0.71284000  0.00472000  0.87976000  1.0
  N  N66  1  0.04152000  0.08600000  0.17519000  1.0
  N  N67  1  0.95849000  0.91400000  0.82481000  1.0
  N  N68  1  0.42077000  0.26013000  0.77954000  1.0
  N  N69  1  0.57923000  0.73987000  0.22046000  1.0
  N  N70  1  0.76942000  0.08809000  0.16752000  1.0
  N  N71  1  0.23058000  0.91191000  0.83248000  1.0
  Cl  Cl72  1  0.24286000  0.54549000  0.18773000  1.0
  Cl  Cl73  1  0.75714000  0.45451000  0.81227000  1.0
  Cl  Cl74  1  0.34357000  0.65835000  0.53568000  1.0
  Cl  Cl75  1  0.65643000  0.34165000  0.46432000  1.0
