# generated using pymatgen
data_AgH8C15SN2O4F3
_symmetry_space_group_name_H-M   'P 1'
_cell_length_a   11.02810000
_cell_length_b   12.33010000
_cell_length_c   12.34430000
_cell_angle_alpha   89.99990000
_cell_angle_beta   89.99970000
_cell_angle_gamma   93.42780000
_symmetry_Int_Tables_number   1
_chemical_formula_structural   AgH8C15SN2O4F3
_chemical_formula_sum   'Ag4 H32 C60 S4 N8 O16 F12'
_cell_volume   1675.54495738
_cell_formula_units_Z   4
loop_
 _symmetry_equiv_pos_site_id
 _symmetry_equiv_pos_as_xyz
  1  'x, y, z'
loop_
 _atom_site_type_symbol
 _atom_site_label
 _atom_site_symmetry_multiplicity
 _atom_site_fract_x
 _atom_site_fract_y
 _atom_site_fract_z
 _atom_site_occupancy
  Ag  Ag0  1  0.87623000  0.87130000  0.13967000  1.0
  Ag  Ag1  1  0.62376000  0.62870000  0.63967000  1.0
  Ag  Ag2  1  0.12376000  0.12870000  0.86034000  1.0
  Ag  Ag3  1  0.37624000  0.37130000  0.36033000  1.0
  H  H4  1  0.09283000  0.52612000  0.21083000  1.0
  H  H5  1  0.40716000  0.97388000  0.71083000  1.0
  H  H6  1  0.90717000  0.47388000  0.78917000  1.0
  H  H7  1  0.59283000  0.02613000  0.28917000  1.0
  H  H8  1  0.14490000  0.33270000  0.20298000  1.0
  H  H9  1  0.35510000  0.16730000  0.70297000  1.0
  H  H10  1  0.85510000  0.66730000  0.79703000  1.0
  H  H11  1  0.64490000  0.83270000  0.29702000  1.0
  H  H12  1  0.00525000  0.19643000  0.10913000  1.0
  H  H13  1  0.49475000  0.30357000  0.60913000  1.0
  H  H14  1  0.99475000  0.80357000  0.89087000  1.0
  H  H15  1  0.50525000  0.69644000  0.39087000  1.0
  H  H16  1  0.81638000  0.25172000  0.02397000  1.0
  H  H17  1  0.68363000  0.24828000  0.52398000  1.0
  H  H18  1  0.18362000  0.74827000  0.97603000  1.0
  H  H19  1  0.31638000  0.75172000  0.47602000  1.0
  H  H20  1  0.39913000  0.35035000  0.84224000  1.0
  H  H21  1  0.10088000  0.14965000  0.34224000  1.0
  H  H22  1  0.60087000  0.64965000  0.15775000  1.0
  H  H23  1  0.89913000  0.85035000  0.65776000  1.0
  H  H24  1  0.32098000  0.24170000  0.00247000  1.0
  H  H25  1  0.17902000  0.25830000  0.50247000  1.0
  H  H26  1  0.67901000  0.75830000  0.99753000  1.0
  H  H27  1  0.82098000  0.74170000  0.49753000  1.0
  H  H28  1  0.44685000  0.23379000  0.16761000  1.0
  H  H29  1  0.05315000  0.26621000  0.66761000  1.0
  H  H30  1  0.55315000  0.76621000  0.83239000  1.0
  H  H31  1  0.94685000  0.73379000  0.33239000  1.0
  H  H32  1  0.64837000  0.33587000  0.17867000  1.0
  H  H33  1  0.85163000  0.16413000  0.67867000  1.0
  H  H34  1  0.35163000  0.66413000  0.82133000  1.0
  H  H35  1  0.14837000  0.83587000  0.32133000  1.0
  C  C36  1  0.67437000  0.05612000  0.92293000  1.0
  C  C37  1  0.82563000  0.44388000  0.42293000  1.0
  C  C38  1  0.32563000  0.94388000  0.07707000  1.0
  C  C39  1  0.17437000  0.55612000  0.57707000  1.0
  C  C40  1  0.89478000  0.60751000  0.12752000  1.0
  C  C41  1  0.60521000  0.89249000  0.62752000  1.0
  C  C42  1  0.10522000  0.39248000  0.87248000  1.0
  C  C43  1  0.39479000  0.10752000  0.37248000  1.0
  C  C44  1  0.92421000  0.49764000  0.12294000  1.0
  C  C45  1  0.57579000  0.00236000  0.62294000  1.0
  C  C46  1  0.07579000  0.50235000  0.87706000  1.0
  C  C47  1  0.42421000  0.99765000  0.37706000  1.0
  C  C48  1  0.03246000  0.46549000  0.17084000  1.0
  C  C49  1  0.46753000  0.03451000  0.67084000  1.0
  C  C50  1  0.96754000  0.53451000  0.82916000  1.0
  C  C51  1  0.53247000  0.96549000  0.32916000  1.0
  C  C52  1  0.06067000  0.35733000  0.16691000  1.0
  C  C53  1  0.43932000  0.14268000  0.66691000  1.0
  C  C54  1  0.93932000  0.64267000  0.83309000  1.0
  C  C55  1  0.56068000  0.85733000  0.33309000  1.0
  C  C56  1  0.98183000  0.28072000  0.11522000  1.0
  C  C57  1  0.51817000  0.21928000  0.61522000  1.0
  C  C58  1  0.01817000  0.71928000  0.88478000  1.0
  C  C59  1  0.48183000  0.78072000  0.38478000  1.0
  C  C60  1  0.87510000  0.31149000  0.06666000  1.0
  C  C61  1  0.62490000  0.18851000  0.56666000  1.0
  C  C62  1  0.12490000  0.68851000  0.93334000  1.0
  C  C63  1  0.37510000  0.81149000  0.43334000  1.0
  C  C64  1  0.84611000  0.41973000  0.07035000  1.0
  C  C65  1  0.65389000  0.08027000  0.57035000  1.0
  C  C66  1  0.15389000  0.58027000  0.92965000  1.0
  C  C67  1  0.34611000  0.91974000  0.42965000  1.0
  C  C68  1  0.61467000  0.45538000  0.82800000  1.0
  C  C69  1  0.88534000  0.04462000  0.32799000  1.0
  C  C70  1  0.38534000  0.54462000  0.17200000  1.0
  C  C71  1  0.11466000  0.95538000  0.67200000  1.0
  C  C72  1  0.56951000  0.39784000  0.91973000  1.0
  C  C73  1  0.93049000  0.10216000  0.41973000  1.0
  C  C74  1  0.43049000  0.60216000  0.08027000  1.0
  C  C75  1  0.06951000  0.89784000  0.58027000  1.0
  C  C76  1  0.45342000  0.34332000  0.91534000  1.0
  C  C77  1  0.04658000  0.15668000  0.41534000  1.0
  C  C78  1  0.54658000  0.65668000  0.08466000  1.0
  C  C79  1  0.95342000  0.84332000  0.58466000  1.0
  C  C80  1  0.41017000  0.28446000  0.00450000  1.0
  C  C81  1  0.08983000  0.21553000  0.50450000  1.0
  C  C82  1  0.58983000  0.71554000  0.99550000  1.0
  C  C83  1  0.91017000  0.78446000  0.49550000  1.0
  C  C84  1  0.48150000  0.28008000  0.09792000  1.0
  C  C85  1  0.01850000  0.21991000  0.59792000  1.0
  C  C86  1  0.51850000  0.71991000  0.90208000  1.0
  C  C87  1  0.98150000  0.78009000  0.40208000  1.0
  C  C88  1  0.59513000  0.33550000  0.10450000  1.0
  C  C89  1  0.90487000  0.16449000  0.60450000  1.0
  C  C90  1  0.40487000  0.66449000  0.89550000  1.0
  C  C91  1  0.09513000  0.83551000  0.39550000  1.0
  C  C92  1  0.63920000  0.39467000  0.01535000  1.0
  C  C93  1  0.86080000  0.10533000  0.51535000  1.0
  C  C94  1  0.36080000  0.60533000  0.98465000  1.0
  C  C95  1  0.13920000  0.89467000  0.48465000  1.0
  S  S96  1  0.82250000  0.00004000  0.88711000  1.0
  S  S97  1  0.67750000  0.49996000  0.38711000  1.0
  S  S98  1  0.17750000  0.99996000  0.11289000  1.0
  S  S99  1  0.32250000  0.50004000  0.61289000  1.0
  N  N100  1  0.87425000  0.69898000  0.13288000  1.0
  N  N101  1  0.62575000  0.80102000  0.63287000  1.0
  N  N102  1  0.12575000  0.30102000  0.86712000  1.0
  N  N103  1  0.37425000  0.19898000  0.36712000  1.0
  N  N104  1  0.64880000  0.50097000  0.74979000  1.0
  N  N105  1  0.85120000  0.99904000  0.24979000  1.0
  N  N106  1  0.35120000  0.49904000  0.25021000  1.0
  N  N107  1  0.14880000  0.00096000  0.75021000  1.0
  O  O108  1  0.82083000  0.89859000  0.94943000  1.0
  O  O109  1  0.67917000  0.60141000  0.44943000  1.0
  O  O110  1  0.17917000  0.10141000  0.05057000  1.0
  O  O111  1  0.32083000  0.39859000  0.55057000  1.0
  O  O112  1  0.81677000  0.98423000  0.77058000  1.0
  O  O113  1  0.68323000  0.51577000  0.27058000  1.0
  O  O114  1  0.18323000  0.01577000  0.22942000  1.0
  O  O115  1  0.31677000  0.48423000  0.72942000  1.0
  O  O116  1  0.90968000  0.08586000  0.92516000  1.0
  O  O117  1  0.59032000  0.41414000  0.42516000  1.0
  O  O118  1  0.09032000  0.91414000  0.07484000  1.0
  O  O119  1  0.40968000  0.58586000  0.57484000  1.0
  O  O120  1  0.74704000  0.45746000  0.01720000  1.0
  O  O121  1  0.75296000  0.04254000  0.51719000  1.0
  O  O122  1  0.25296000  0.54254000  0.98280000  1.0
  O  O123  1  0.24704000  0.95746000  0.48280000  1.0
  F  F124  1  0.57997000  0.98539000  0.89719000  1.0
  F  F125  1  0.92003000  0.51461000  0.39719000  1.0
  F  F126  1  0.42003000  0.01461000  0.10281000  1.0
  F  F127  1  0.07997000  0.48539000  0.60281000  1.0
  F  F128  1  0.66915000  0.07688000  0.03095000  1.0
  F  F129  1  0.83085000  0.42312000  0.53095000  1.0
  F  F130  1  0.33085000  0.92312000  0.96905000  1.0
  F  F131  1  0.16915000  0.57688000  0.46906000  1.0
  F  F132  1  0.65998000  0.15085000  0.86914000  1.0
  F  F133  1  0.84002000  0.34915000  0.36914000  1.0
  F  F134  1  0.34002000  0.84915000  0.13086000  1.0
  F  F135  1  0.15998000  0.65085000  0.63086000  1.0
