# generated using pymatgen
data_CdH16C16(N5O2)2
_symmetry_space_group_name_H-M   'P 1'
_cell_length_a   4.97439000
_cell_length_b   9.13201000
_cell_length_c   20.93420000
_cell_angle_alpha   89.99990000
_cell_angle_beta   85.66140000
_cell_angle_gamma   89.99990000
_symmetry_Int_Tables_number   1
_chemical_formula_structural   CdH16C16(N5O2)2
_chemical_formula_sum   'Cd2 H32 C32 N20 O8'
_cell_volume   948.23564263
_cell_formula_units_Z   2
loop_
 _symmetry_equiv_pos_site_id
 _symmetry_equiv_pos_as_xyz
  1  'x, y, z'
loop_
 _atom_site_type_symbol
 _atom_site_label
 _atom_site_symmetry_multiplicity
 _atom_site_fract_x
 _atom_site_fract_y
 _atom_site_fract_z
 _atom_site_occupancy
  Cd  Cd0  1  0.50000000  0.00000000  0.50000000  1.0
  Cd  Cd1  1  0.50000000  0.50000000  1.00000000  1.0
  H  H2  1  0.80113000  0.43343000  0.42874000  1.0
  H  H3  1  0.19886000  0.93343000  0.07126000  1.0
  H  H4  1  0.19886000  0.56657000  0.57126000  1.0
  H  H5  1  0.80112000  0.06657000  0.92874000  1.0
  H  H6  1  0.91013000  0.68568000  0.50010000  1.0
  H  H7  1  0.08987000  0.18568000  0.99990000  1.0
  H  H8  1  0.08987000  0.31432000  0.49990000  1.0
  H  H9  1  0.91012000  0.81432000  0.00010000  1.0
  H  H10  1  0.28408000  0.77821000  0.38177000  1.0
  H  H11  1  0.71593000  0.27821000  0.11823000  1.0
  H  H12  1  0.71593000  0.22179000  0.61822000  1.0
  H  H13  1  0.28408000  0.72179000  0.88177000  1.0
  H  H14  1  0.22298000  0.54597000  0.32694000  1.0
  H  H15  1  0.77701000  0.04597000  0.17306000  1.0
  H  H16  1  0.77701000  0.45403000  0.67306000  1.0
  H  H17  1  0.22299000  0.95403000  0.82694000  1.0
  H  H18  1  0.34418000  0.38268000  0.36171000  1.0
  H  H19  1  0.65582000  0.88267000  0.13829000  1.0
  H  H20  1  0.65582000  0.61732000  0.63829000  1.0
  H  H21  1  0.34418000  0.11732000  0.86171000  1.0
  H  H22  1  0.25102000  0.45795000  0.14581000  1.0
  H  H23  1  0.74898000  0.95794000  0.35419000  1.0
  H  H24  1  0.74898000  0.54205000  0.85419000  1.0
  H  H25  1  0.25102000  0.04206000  0.64581000  1.0
  H  H26  1  0.20134000  0.64212000  0.17056000  1.0
  H  H27  1  0.79866000  0.14212000  0.32944000  1.0
  H  H28  1  0.79866000  0.35788000  0.82944000  1.0
  H  H29  1  0.20134000  0.85788000  0.67056000  1.0
  H  H30  1  0.71164000  0.68824000  0.24123000  1.0
  H  H31  1  0.28837000  0.18823000  0.25877000  1.0
  H  H32  1  0.28836000  0.31177000  0.75877000  1.0
  H  H33  1  0.71164000  0.81177000  0.74123000  1.0
  C  C34  1  0.71544000  0.54263000  0.42990000  1.0
  C  C35  1  0.28456000  0.04262000  0.07010000  1.0
  C  C36  1  0.28456000  0.45738000  0.57010000  1.0
  C  C37  1  0.71543000  0.95738000  0.92990000  1.0
  C  C38  1  0.76344000  0.66535000  0.46538000  1.0
  C  C39  1  0.23656000  0.16534000  0.03463000  1.0
  C  C40  1  0.23656000  0.33465000  0.53463000  1.0
  C  C41  1  0.76343000  0.83465000  0.96537000  1.0
  C  C42  1  0.43920000  0.72097000  0.40549000  1.0
  C  C43  1  0.56081000  0.22096000  0.09451000  1.0
  C  C44  1  0.56081000  0.27904000  0.59451000  1.0
  C  C45  1  0.43920000  0.77903000  0.90549000  1.0
  C  C46  1  0.40372000  0.49017000  0.34174000  1.0
  C  C47  1  0.59627000  0.99016000  0.15826000  1.0
  C  C48  1  0.59627000  0.50984000  0.65826000  1.0
  C  C49  1  0.40373000  0.00983000  0.84174000  1.0
  C  C50  1  0.96029000  0.57397000  0.09358000  1.0
  C  C51  1  0.03971000  0.07398000  0.40642000  1.0
  C  C52  1  0.03971000  0.42602000  0.90642000  1.0
  C  C53  1  0.96030000  0.92602000  0.59358000  1.0
  C  C54  1  0.09799000  0.54302000  0.15536000  1.0
  C  C55  1  0.90201000  0.04302000  0.34464000  1.0
  C  C56  1  0.90201000  0.45698000  0.84464000  1.0
  C  C57  1  0.09799000  0.95698000  0.65536000  1.0
  C  C58  1  0.60969000  0.46908000  0.28672000  1.0
  C  C59  1  0.39030000  0.96907000  0.21328000  1.0
  C  C60  1  0.39030000  0.53093000  0.71328000  1.0
  C  C61  1  0.60969000  0.03093000  0.78672000  1.0
  C  C62  1  0.73521000  0.57109000  0.24554000  1.0
  C  C63  1  0.26479000  0.07108000  0.25446000  1.0
  C  C64  1  0.26478000  0.42892000  0.75446000  1.0
  C  C65  1  0.73521000  0.92892000  0.74554000  1.0
  N  N66  1  0.50863000  0.57985000  0.39231000  1.0
  N  N67  1  0.49137000  0.07985000  0.10769000  1.0
  N  N68  1  0.49137000  0.42015000  0.60769000  1.0
  N  N69  1  0.50863000  0.92015000  0.89231000  1.0
  N  N70  1  0.58990000  0.77568000  0.44966000  1.0
  N  N71  1  0.41011000  0.27567000  0.05033000  1.0
  N  N72  1  0.41011000  0.22433000  0.55033000  1.0
  N  N73  1  0.58989000  0.72432000  0.94966000  1.0
  N  N74  1  0.91488000  0.49268000  0.20794000  1.0
  N  N75  1  0.08512000  0.99267000  0.29206000  1.0
  N  N76  1  0.08512000  0.50733000  0.79206000  1.0
  N  N77  1  0.91488000  0.00733000  0.70794000  1.0
  N  N78  1  0.71730000  0.33489000  0.27162000  1.0
  N  N79  1  0.28270000  0.83488000  0.22838000  1.0
  N  N80  1  0.28269000  0.66511000  0.72838000  1.0
  N  N81  1  0.71730000  0.16511000  0.77162000  1.0
  N  N82  1  0.90173000  0.34877000  0.22338000  1.0
  N  N83  1  0.09826000  0.84876000  0.27662000  1.0
  N  N84  1  0.09826000  0.65124000  0.77662000  1.0
  N  N85  1  0.90173000  0.15124000  0.72338000  1.0
  O  O86  1  0.11179000  0.62216000  0.04694000  1.0
  O  O87  1  0.88821000  0.12216000  0.45306000  1.0
  O  O88  1  0.88821000  0.37784000  0.95306000  1.0
  O  O89  1  0.11180000  0.87784000  0.54694000  1.0
  O  O90  1  0.70876000  0.55134000  0.09418000  1.0
  O  O91  1  0.29125000  0.05135000  0.40582000  1.0
  O  O92  1  0.29125000  0.44865000  0.90582000  1.0
  O  O93  1  0.70876000  0.94865000  0.59418000  1.0
