# generated using pymatgen
data_ZnH8(C3O4)2
_symmetry_space_group_name_H-M   'P 1'
_cell_length_a   5.98551000
_cell_length_b   10.37920000
_cell_length_c   13.25170000
_cell_angle_alpha   89.99980000
_cell_angle_beta   90.00010000
_cell_angle_gamma   89.99990000
_symmetry_Int_Tables_number   1
_chemical_formula_structural   ZnH8(C3O4)2
_chemical_formula_sum   'Zn4 H32 C24 O32'
_cell_volume   823.25928361
_cell_formula_units_Z   4
loop_
 _symmetry_equiv_pos_site_id
 _symmetry_equiv_pos_as_xyz
  1  'x, y, z'
loop_
 _atom_site_type_symbol
 _atom_site_label
 _atom_site_symmetry_multiplicity
 _atom_site_fract_x
 _atom_site_fract_y
 _atom_site_fract_z
 _atom_site_occupancy
  Zn  Zn0  1  0.41277000  0.16743000  0.94994000  1.0
  Zn  Zn1  1  0.08723000  0.83257000  0.44995000  1.0
  Zn  Zn2  1  0.91277000  0.33257000  0.05005000  1.0
  Zn  Zn3  1  0.58724000  0.66743000  0.55005000  1.0
  H  H4  1  0.88750000  0.10150000  0.69983000  1.0
  H  H5  1  0.61250000  0.89850000  0.19984000  1.0
  H  H6  1  0.38751000  0.39850000  0.30016000  1.0
  H  H7  1  0.11249000  0.60151000  0.80016000  1.0
  H  H8  1  0.62393000  0.02812000  0.68960000  1.0
  H  H9  1  0.87607000  0.97188000  0.18961000  1.0
  H  H10  1  0.12395000  0.47188000  0.31040000  1.0
  H  H11  1  0.37605000  0.52812000  0.81040000  1.0
  H  H12  1  0.80002000  0.84504000  0.75608000  1.0
  H  H13  1  0.69997000  0.15496000  0.25607000  1.0
  H  H14  1  0.30002000  0.65495000  0.24392000  1.0
  H  H15  1  0.19998000  0.34504000  0.74392000  1.0
  H  H16  1  0.05035000  0.91424000  0.80146000  1.0
  H  H17  1  0.44965000  0.08576000  0.30146000  1.0
  H  H18  1  0.55035000  0.58576000  0.19854000  1.0
  H  H19  1  0.94965000  0.41423000  0.69854000  1.0
  H  H20  1  0.34011000  0.97716000  0.08228000  1.0
  H  H21  1  0.15989000  0.02284000  0.58228000  1.0
  H  H22  1  0.84010000  0.52284000  0.91772000  1.0
  H  H23  1  0.65990000  0.47716000  0.41772000  1.0
  H  H24  1  0.47214000  0.92287000  0.86223000  1.0
  H  H25  1  0.02786000  0.07713000  0.36223000  1.0
  H  H26  1  0.97215000  0.57713000  0.13777000  1.0
  H  H27  1  0.52785000  0.42287000  0.63777000  1.0
  H  H28  1  0.21919000  0.10694000  0.12092000  1.0
  H  H29  1  0.28081000  0.89306000  0.62092000  1.0
  H  H30  1  0.71919000  0.39307000  0.87908000  1.0
  H  H31  1  0.78081000  0.60694000  0.37908000  1.0
  H  H32  1  0.88657000  0.79623000  0.05645000  1.0
  H  H33  1  0.61343000  0.20378000  0.55645000  1.0
  H  H34  1  0.38657000  0.70378000  0.94355000  1.0
  H  H35  1  0.11344000  0.29622000  0.44355000  1.0
  C  C36  1  0.75915000  0.02326000  0.84017000  1.0
  C  C37  1  0.74085000  0.97675000  0.34018000  1.0
  C  C38  1  0.25915000  0.47675000  0.15982000  1.0
  C  C39  1  0.24085000  0.52325000  0.65982000  1.0
  C  C40  1  0.90385000  0.11024000  0.90907000  1.0
  C  C41  1  0.59616000  0.88976000  0.40907000  1.0
  C  C42  1  0.40385000  0.38976000  0.09093000  1.0
  C  C43  1  0.09614000  0.61024000  0.59093000  1.0
  C  C44  1  0.72586000  0.09099000  0.73824000  1.0
  C  C45  1  0.77414000  0.90901000  0.23824000  1.0
  C  C46  1  0.22587000  0.40901000  0.26176000  1.0
  C  C47  1  0.27413000  0.59099000  0.76176000  1.0
  C  C48  1  0.61986000  0.22353000  0.74062000  1.0
  C  C49  1  0.88013000  0.77647000  0.24063000  1.0
  C  C50  1  0.11987000  0.27647000  0.25938000  1.0
  C  C51  1  0.38014000  0.72353000  0.75937000  1.0
  C  C52  1  0.87564000  0.89396000  0.82088000  1.0
  C  C53  1  0.62436000  0.10605000  0.32088000  1.0
  C  C54  1  0.37564000  0.60605000  0.17911000  1.0
  C  C55  1  0.12436000  0.39395000  0.67912000  1.0
  C  C56  1  0.87459000  0.80260000  0.90926000  1.0
  C  C57  1  0.62540000  0.19741000  0.40925000  1.0
  C  C58  1  0.37459000  0.69740000  0.09074000  1.0
  C  C59  1  0.12541000  0.30259000  0.59075000  1.0
  O  O60  1  0.54790000  0.00434000  0.88808000  1.0
  O  O61  1  0.95210000  0.99566000  0.38808000  1.0
  O  O62  1  0.04790000  0.49566000  0.11192000  1.0
  O  O63  1  0.45210000  0.50434000  0.61192000  1.0
  O  O64  1  0.80418000  0.16657000  0.98256000  1.0
  O  O65  1  0.69583000  0.83343000  0.48256000  1.0
  O  O66  1  0.30418000  0.33343000  0.01743000  1.0
  O  O67  1  0.19581000  0.66657000  0.51744000  1.0
  O  O68  1  0.10507000  0.12314000  0.88380000  1.0
  O  O69  1  0.39494000  0.87685000  0.38381000  1.0
  O  O70  1  0.60506000  0.37685000  0.11620000  1.0
  O  O71  1  0.89494000  0.62315000  0.61620000  1.0
  O  O72  1  0.53799000  0.27233000  0.82104000  1.0
  O  O73  1  0.96201000  0.72767000  0.32104000  1.0
  O  O74  1  0.03799000  0.22768000  0.17896000  1.0
  O  O75  1  0.46201000  0.77232000  0.67895000  1.0
  O  O76  1  0.62406000  0.28564000  0.65736000  1.0
  O  O77  1  0.87593000  0.71435000  0.15736000  1.0
  O  O78  1  0.12408000  0.21435000  0.34264000  1.0
  O  O79  1  0.37595000  0.78564000  0.84264000  1.0
  O  O80  1  0.89885000  0.85986000  0.99773000  1.0
  O  O81  1  0.60116000  0.14014000  0.49773000  1.0
  O  O82  1  0.39882000  0.64014000  0.00227000  1.0
  O  O83  1  0.10117000  0.35986000  0.50227000  1.0
  O  O84  1  0.85411000  0.68501000  0.89793000  1.0
  O  O85  1  0.64587000  0.31498000  0.39793000  1.0
  O  O86  1  0.35413000  0.81500000  0.10207000  1.0
  O  O87  1  0.14588000  0.18501000  0.60207000  1.0
  O  O88  1  0.35096000  0.07237000  0.08541000  1.0
  O  O89  1  0.14905000  0.92763000  0.58541000  1.0
  O  O90  1  0.85095000  0.42763000  0.91459000  1.0
  O  O91  1  0.64905000  0.57237000  0.41459000  1.0
