# generated using pymatgen
data_AgH8C6IN2
_symmetry_space_group_name_H-M   'P 1'
_cell_length_a   4.48091000
_cell_length_b   7.10829000
_cell_length_c   26.30530000
_cell_angle_alpha   90.00040000
_cell_angle_beta   90.00000000
_cell_angle_gamma   89.99960000
_symmetry_Int_Tables_number   1
_chemical_formula_structural   AgH8C6IN2
_chemical_formula_sum   'Ag4 H32 C24 I4 N8'
_cell_volume   837.86609714
_cell_formula_units_Z   4
loop_
 _symmetry_equiv_pos_site_id
 _symmetry_equiv_pos_as_xyz
  1  'x, y, z'
loop_
 _atom_site_type_symbol
 _atom_site_label
 _atom_site_symmetry_multiplicity
 _atom_site_fract_x
 _atom_site_fract_y
 _atom_site_fract_z
 _atom_site_occupancy
  Ag  Ag0  1  0.69776000  0.21821000  0.23256000  1.0
  Ag  Ag1  1  0.80228000  0.78178000  0.73254000  1.0
  Ag  Ag2  1  0.30227000  0.71820000  0.26745000  1.0
  Ag  Ag3  1  0.19775000  0.28182000  0.76745000  1.0
  H  H4  1  0.27864000  0.51525000  0.16988000  1.0
  H  H5  1  0.22141000  0.48475000  0.66986000  1.0
  H  H6  1  0.72146000  0.01519000  0.33013000  1.0
  H  H7  1  0.77851000  0.98481000  0.83013000  1.0
  H  H8  1  0.87244000  0.10638000  0.12019000  1.0
  H  H9  1  0.62761000  0.89361000  0.62018000  1.0
  H  H10  1  0.12764000  0.60633000  0.37981000  1.0
  H  H11  1  0.37232000  0.39368000  0.87981000  1.0
  H  H12  1  0.74155000  0.18283000  0.02853000  1.0
  H  H13  1  0.75846000  0.81716000  0.52852000  1.0
  H  H14  1  0.25858000  0.68276000  0.47148000  1.0
  H  H15  1  0.24139000  0.31725000  0.97148000  1.0
  H  H16  1  0.92907000  0.65500000  0.10485000  1.0
  H  H17  1  0.57093000  0.34498000  0.60484000  1.0
  H  H18  1  0.07104000  0.15494000  0.39515000  1.0
  H  H19  1  0.42892000  0.84509000  0.89515000  1.0
  H  H20  1  0.97866000  0.60045000  0.03941000  1.0
  H  H21  1  0.52137000  0.39953000  0.53940000  1.0
  H  H22  1  0.02145000  0.10038000  0.46060000  1.0
  H  H23  1  0.47851000  0.89963000  0.96060000  1.0
  H  H24  1  0.10691000  0.93390000  0.05033000  1.0
  H  H25  1  0.39314000  0.06609000  0.55032000  1.0
  H  H26  1  0.89318000  0.43383000  0.44968000  1.0
  H  H27  1  0.60677000  0.56618000  0.94967000  1.0
  H  H28  1  0.44770000  0.81260000  0.04108000  1.0
  H  H29  1  0.05232000  0.18736000  0.54107000  1.0
  H  H30  1  0.55239000  0.31254000  0.45892000  1.0
  H  H31  1  0.94756000  0.68748000  0.95892000  1.0
  H  H32  1  0.34225000  0.88228000  0.10341000  1.0
  H  H33  1  0.15779000  0.11769000  0.60339000  1.0
  H  H34  1  0.65785000  0.38221000  0.39660000  1.0
  H  H35  1  0.84211000  0.61781000  0.89660000  1.0
  C  C36  1  0.31030000  0.48553000  0.08749000  1.0
  C  C37  1  0.18971000  0.51446000  0.58748000  1.0
  C  C38  1  0.68982000  0.98547000  0.41251000  1.0
  C  C39  1  0.81014000  0.01454000  0.91251000  1.0
  C  C40  1  0.38367000  0.44181000  0.13805000  1.0
  C  C41  1  0.11638000  0.55816000  0.63803000  1.0
  C  C42  1  0.61643000  0.94176000  0.36196000  1.0
  C  C43  1  0.88356000  0.05825000  0.86196000  1.0
  C  C44  1  0.71197000  0.21610000  0.11051000  1.0
  C  C45  1  0.78805000  0.78391000  0.61049000  1.0
  C  C46  1  0.28814000  0.71604000  0.38950000  1.0
  C  C47  1  0.21183000  0.28396000  0.88950000  1.0
  C  C48  1  0.63812000  0.25794000  0.06035000  1.0
  C  C49  1  0.86191000  0.74204000  0.56034000  1.0
  C  C50  1  0.36198000  0.75786000  0.43965000  1.0
  C  C51  1  0.13797000  0.24215000  0.93965000  1.0
  C  C52  1  0.09587000  0.64029000  0.07444000  1.0
  C  C53  1  0.40414000  0.35969000  0.57443000  1.0
  C  C54  1  0.90423000  0.14021000  0.42556000  1.0
  C  C55  1  0.59573000  0.85981000  0.92556000  1.0
  C  C56  1  0.25720000  0.82861000  0.06701000  1.0
  C  C57  1  0.24283000  0.17137000  0.56700000  1.0
  C  C58  1  0.74291000  0.32854000  0.43300000  1.0
  C  C59  1  0.75705000  0.67147000  0.93299000  1.0
  I  I60  1  0.80486000  0.82866000  0.21043000  1.0
  I  I61  1  0.69517000  0.17136000  0.71042000  1.0
  I  I62  1  0.19516000  0.32864000  0.28959000  1.0
  I  I63  1  0.30488000  0.67139000  0.78957000  1.0
  N  N64  1  0.43903000  0.39215000  0.04876000  1.0
  N  N65  1  0.06099000  0.60782000  0.54875000  1.0
  N  N66  1  0.56108000  0.89209000  0.45125000  1.0
  N  N67  1  0.93888000  0.10792000  0.95125000  1.0
  N  N68  1  0.58402000  0.30828000  0.14939000  1.0
  N  N69  1  0.91602000  0.69172000  0.64939000  1.0
  N  N70  1  0.41606000  0.80822000  0.35061000  1.0
  N  N71  1  0.08392000  0.19179000  0.85061000  1.0
