# generated using pymatgen
data_ZnH11C13N3O4
_symmetry_space_group_name_H-M   'P 1'
_cell_length_a   13.39170000
_cell_length_b   13.59780000
_cell_length_c   20.36630000
_cell_angle_alpha   90.00010000
_cell_angle_beta   90.00000000
_cell_angle_gamma   89.99990000
_symmetry_Int_Tables_number   1
_chemical_formula_structural   ZnH11C13N3O4
_chemical_formula_sum   'Zn8 H88 C104 N24 O32'
_cell_volume   3708.65553741
_cell_formula_units_Z   8
loop_
 _symmetry_equiv_pos_site_id
 _symmetry_equiv_pos_as_xyz
  1  'x, y, z'
loop_
 _atom_site_type_symbol
 _atom_site_label
 _atom_site_symmetry_multiplicity
 _atom_site_fract_x
 _atom_site_fract_y
 _atom_site_fract_z
 _atom_site_occupancy
  Zn  Zn0  1  0.83593000  0.42897000  0.69219000  1.0
  Zn  Zn1  1  0.66407000  0.07103000  0.19219000  1.0
  Zn  Zn2  1  0.66407000  0.92897000  0.30780000  1.0
  Zn  Zn3  1  0.83593000  0.57103000  0.80781000  1.0
  Zn  Zn4  1  0.16407000  0.57103000  0.30781000  1.0
  Zn  Zn5  1  0.33593000  0.92897000  0.80780000  1.0
  Zn  Zn6  1  0.33593000  0.07103000  0.69219000  1.0
  Zn  Zn7  1  0.16407000  0.42897000  0.19219000  1.0
  H  H8  1  0.57879000  0.75195000  0.74059000  1.0
  H  H9  1  0.92121000  0.74805000  0.24059000  1.0
  H  H10  1  0.92121000  0.25195000  0.25941000  1.0
  H  H11  1  0.57879000  0.24805000  0.75941000  1.0
  H  H12  1  0.42121000  0.24805000  0.25941000  1.0
  H  H13  1  0.07879000  0.25194000  0.75941000  1.0
  H  H14  1  0.07879000  0.74806000  0.74059000  1.0
  H  H15  1  0.42121000  0.75195000  0.24059000  1.0
  H  H16  1  0.50747000  0.89074000  0.55706000  1.0
  H  H17  1  0.99254000  0.60926000  0.05706000  1.0
  H  H18  1  0.99254000  0.39074000  0.44294000  1.0
  H  H19  1  0.50747000  0.10926000  0.94294000  1.0
  H  H20  1  0.49253000  0.10926000  0.44294000  1.0
  H  H21  1  0.00746000  0.39074000  0.94294000  1.0
  H  H22  1  0.00746000  0.60926000  0.55706000  1.0
  H  H23  1  0.49253000  0.89074000  0.05706000  1.0
  H  H24  1  0.70907000  0.64267000  0.56169000  1.0
  H  H25  1  0.79093000  0.85733000  0.06170000  1.0
  H  H26  1  0.79093000  0.14267000  0.43831000  1.0
  H  H27  1  0.70907000  0.35733000  0.93831000  1.0
  H  H28  1  0.29093000  0.35733000  0.43831000  1.0
  H  H29  1  0.20907000  0.14267000  0.93830000  1.0
  H  H30  1  0.20907000  0.85733000  0.56170000  1.0
  H  H31  1  0.29093000  0.64268000  0.06169000  1.0
  H  H32  1  0.74371000  0.98262000  0.44205000  1.0
  H  H33  1  0.75629000  0.51738000  0.94205000  1.0
  H  H34  1  0.75629000  0.48262000  0.55795000  1.0
  H  H35  1  0.74371000  0.01739000  0.05795000  1.0
  H  H36  1  0.25629000  0.01738000  0.55795000  1.0
  H  H37  1  0.24371000  0.48262000  0.05795000  1.0
  H  H38  1  0.24371000  0.51738000  0.44205000  1.0
  H  H39  1  0.25629000  0.98262000  0.94205000  1.0
  H  H40  1  0.74740000  0.92375000  0.52137000  1.0
  H  H41  1  0.75260000  0.57625000  0.02137000  1.0
  H  H42  1  0.75260000  0.42375000  0.47863000  1.0
  H  H43  1  0.74740000  0.07625000  0.97863000  1.0
  H  H44  1  0.25260000  0.07625000  0.47863000  1.0
  H  H45  1  0.24740000  0.42375000  0.97863000  1.0
  H  H46  1  0.24740000  0.57625000  0.52137000  1.0
  H  H47  1  0.25260000  0.92375000  0.02137000  1.0
  H  H48  1  0.64046000  0.99128000  0.49685000  1.0
  H  H49  1  0.85954000  0.50872000  0.99685000  1.0
  H  H50  1  0.85954000  0.49128000  0.50315000  1.0
  H  H51  1  0.64046000  0.00872000  0.00315000  1.0
  H  H52  1  0.35954000  0.00872000  0.50315000  1.0
  H  H53  1  0.14046000  0.49128000  0.00315000  1.0
  H  H54  1  0.14046000  0.50872000  0.49685000  1.0
  H  H55  1  0.35954000  0.99128000  0.99685000  1.0
  H  H56  1  0.49535000  0.62058000  0.49567000  1.0
  H  H57  1  0.00464000  0.87942000  0.99567000  1.0
  H  H58  1  0.00465000  0.12058000  0.50432000  1.0
  H  H59  1  0.49536000  0.37942000  0.00432000  1.0
  H  H60  1  0.50464000  0.37942000  0.50432000  1.0
  H  H61  1  0.99536000  0.12058000  0.00432000  1.0
  H  H62  1  0.99535000  0.87942000  0.49568000  1.0
  H  H63  1  0.50464000  0.62058000  0.99568000  1.0
  H  H64  1  0.59772000  0.55649000  0.46325000  1.0
  H  H65  1  0.90227000  0.94352000  0.96325000  1.0
  H  H66  1  0.90228000  0.05648000  0.53675000  1.0
  H  H67  1  0.59772000  0.44351000  0.03675000  1.0
  H  H68  1  0.40227000  0.44351000  0.53675000  1.0
  H  H69  1  0.09773000  0.05648000  0.03675000  1.0
  H  H70  1  0.09773000  0.94352000  0.46325000  1.0
  H  H71  1  0.40228000  0.55649000  0.96325000  1.0
  H  H72  1  0.44241000  0.50137000  0.40725000  1.0
  H  H73  1  0.05759000  0.99863000  0.90725000  1.0
  H  H74  1  0.05759000  0.00137000  0.59275000  1.0
  H  H75  1  0.44241000  0.49863000  0.09275000  1.0
  H  H76  1  0.55759000  0.49863000  0.59275000  1.0
  H  H77  1  0.94241000  0.00137000  0.09275000  1.0
  H  H78  1  0.94241000  0.99863000  0.40725000  1.0
  H  H79  1  0.55759000  0.50137000  0.90725000  1.0
  H  H80  1  0.51881000  0.56381000  0.34923000  1.0
  H  H81  1  0.98119000  0.93619000  0.84923000  1.0
  H  H82  1  0.98119000  0.06381000  0.65077000  1.0
  H  H83  1  0.51881000  0.43619000  0.15077000  1.0
  H  H84  1  0.48119000  0.43619000  0.65077000  1.0
  H  H85  1  0.01881000  0.06381000  0.15077000  1.0
  H  H86  1  0.01881000  0.93619000  0.34923000  1.0
  H  H87  1  0.48119000  0.56381000  0.84923000  1.0
  H  H88  1  0.41358000  0.62364000  0.38319000  1.0
  H  H89  1  0.08642000  0.87636000  0.88319000  1.0
  H  H90  1  0.08642000  0.12364000  0.61681000  1.0
  H  H91  1  0.41358000  0.37636000  0.11681000  1.0
  H  H92  1  0.58642000  0.37636000  0.61681000  1.0
  H  H93  1  0.91358000  0.12364000  0.11681000  1.0
  H  H94  1  0.91358000  0.87636000  0.38319000  1.0
  H  H95  1  0.58642000  0.62364000  0.88319000  1.0
  C  C96  1  0.70779000  0.61380000  0.69314000  1.0
  C  C97  1  0.79221000  0.88620000  0.19315000  1.0
  C  C98  1  0.79220000  0.11379000  0.30686000  1.0
  C  C99  1  0.70779000  0.38620000  0.80686000  1.0
  C  C100  1  0.29221000  0.38621000  0.30686000  1.0
  C  C101  1  0.20779000  0.11379000  0.80686000  1.0
  C  C102  1  0.20779000  0.88620000  0.69314000  1.0
  C  C103  1  0.29221000  0.61380000  0.19314000  1.0
  C  C104  1  0.64928000  0.68902000  0.65504000  1.0
  C  C105  1  0.85072000  0.81098000  0.15504000  1.0
  C  C106  1  0.85072000  0.18902000  0.34496000  1.0
  C  C107  1  0.64928000  0.31098000  0.84496000  1.0
  C  C108  1  0.35072000  0.31098000  0.34496000  1.0
  C  C109  1  0.14928000  0.18902000  0.84496000  1.0
  C  C110  1  0.14928000  0.81098000  0.65504000  1.0
  C  C111  1  0.35072000  0.68902000  0.15504000  1.0
  C  C112  1  0.58731000  0.75591000  0.68751000  1.0
  C  C113  1  0.91270000  0.74409000  0.18751000  1.0
  C  C114  1  0.91269000  0.25591000  0.31249000  1.0
  C  C115  1  0.58731000  0.24409000  0.81249000  1.0
  C  C116  1  0.41269000  0.24409000  0.31249000  1.0
  C  C117  1  0.08730000  0.25591000  0.81249000  1.0
  C  C118  1  0.08730000  0.74409000  0.68751000  1.0
  C  C119  1  0.41269000  0.75591000  0.18751000  1.0
  C  C120  1  0.53628000  0.82818000  0.65209000  1.0
  C  C121  1  0.96372000  0.67182000  0.15209000  1.0
  C  C122  1  0.96372000  0.32818000  0.34791000  1.0
  C  C123  1  0.53628000  0.17182000  0.84791000  1.0
  C  C124  1  0.46372000  0.17182000  0.34791000  1.0
  C  C125  1  0.03628000  0.32818000  0.84791000  1.0
  C  C126  1  0.03628000  0.67182000  0.65209000  1.0
  C  C127  1  0.46372000  0.82818000  0.15209000  1.0
  C  C128  1  0.54752000  0.83397000  0.58403000  1.0
  C  C129  1  0.95248000  0.66604000  0.08403000  1.0
  C  C130  1  0.95248000  0.33396000  0.41597000  1.0
  C  C131  1  0.54752000  0.16603000  0.91597000  1.0
  C  C132  1  0.45248000  0.16603000  0.41597000  1.0
  C  C133  1  0.04752000  0.33396000  0.91597000  1.0
  C  C134  1  0.04752000  0.66604000  0.58403000  1.0
  C  C135  1  0.45248000  0.83397000  0.08403000  1.0
  C  C136  1  0.60917000  0.76691000  0.55186000  1.0
  C  C137  1  0.89083000  0.73309000  0.05186000  1.0
  C  C138  1  0.89083000  0.26691000  0.44814000  1.0
  C  C139  1  0.60917000  0.23309000  0.94814000  1.0
  C  C140  1  0.39083000  0.23309000  0.44814000  1.0
  C  C141  1  0.10917000  0.26691000  0.94814000  1.0
  C  C142  1  0.10917000  0.73309000  0.55186000  1.0
  C  C143  1  0.39083000  0.76691000  0.05186000  1.0
  C  C144  1  0.65995000  0.69423000  0.58675000  1.0
  C  C145  1  0.84005000  0.80577000  0.08675000  1.0
  C  C146  1  0.84005000  0.19423000  0.41325000  1.0
  C  C147  1  0.65995000  0.30577000  0.91325000  1.0
  C  C148  1  0.34005000  0.30577000  0.41325000  1.0
  C  C149  1  0.15995000  0.19423000  0.91325000  1.0
  C  C150  1  0.15995000  0.80577000  0.58675000  1.0
  C  C151  1  0.34005000  0.69423000  0.08675000  1.0
  C  C152  1  0.46769000  0.89925000  0.68616000  1.0
  C  C153  1  0.03231000  0.60075000  0.18616000  1.0
  C  C154  1  0.03231000  0.39926000  0.31384000  1.0
  C  C155  1  0.46770000  0.10074000  0.81384000  1.0
  C  C156  1  0.53230000  0.10074000  0.31384000  1.0
  C  C157  1  0.96769000  0.39926000  0.81384000  1.0
  C  C158  1  0.96769000  0.60075000  0.68616000  1.0
  C  C159  1  0.53231000  0.89925000  0.18616000  1.0
  C  C160  1  0.65840000  0.85261000  0.44854000  1.0
  C  C161  1  0.84160000  0.64739000  0.94854000  1.0
  C  C162  1  0.84160000  0.35261000  0.55146000  1.0
  C  C163  1  0.65840000  0.14739000  0.05146000  1.0
  C  C164  1  0.34160000  0.14739000  0.55146000  1.0
  C  C165  1  0.15840000  0.35261000  0.05146000  1.0
  C  C166  1  0.15840000  0.64739000  0.44854000  1.0
  C  C167  1  0.34160000  0.85261000  0.94854000  1.0
  C  C168  1  0.58905000  0.70678000  0.43512000  1.0
  C  C169  1  0.91095000  0.79322000  0.93512000  1.0
  C  C170  1  0.91095000  0.20678000  0.56488000  1.0
  C  C171  1  0.58905000  0.29322000  0.06488000  1.0
  C  C172  1  0.41095000  0.29322000  0.56488000  1.0
  C  C173  1  0.08905000  0.20678000  0.06488000  1.0
  C  C174  1  0.08905000  0.79322000  0.43512000  1.0
  C  C175  1  0.41095000  0.70678000  0.93512000  1.0
  C  C176  1  0.70024000  0.94265000  0.47905000  1.0
  C  C177  1  0.79976000  0.55735000  0.97905000  1.0
  C  C178  1  0.79976000  0.44265000  0.52095000  1.0
  C  C179  1  0.70024000  0.05735000  0.02096000  1.0
  C  C180  1  0.29976000  0.05735000  0.52095000  1.0
  C  C181  1  0.20024000  0.44265000  0.02095000  1.0
  C  C182  1  0.20024000  0.55735000  0.47905000  1.0
  C  C183  1  0.29976000  0.94265000  0.97905000  1.0
  C  C184  1  0.53981000  0.61106000  0.45058000  1.0
  C  C185  1  0.96019000  0.88894000  0.95058000  1.0
  C  C186  1  0.96019000  0.11106000  0.54942000  1.0
  C  C187  1  0.53981000  0.38894000  0.04942000  1.0
  C  C188  1  0.46019000  0.38894000  0.54942000  1.0
  C  C189  1  0.03981000  0.11106000  0.04942000  1.0
  C  C190  1  0.03981000  0.88894000  0.45058000  1.0
  C  C191  1  0.46019000  0.61106000  0.95058000  1.0
  C  C192  1  0.47498000  0.57281000  0.39432000  1.0
  C  C193  1  0.02502000  0.92719000  0.89432000  1.0
  C  C194  1  0.02502000  0.07281000  0.60568000  1.0
  C  C195  1  0.47498000  0.42719000  0.10568000  1.0
  C  C196  1  0.52502000  0.42719000  0.60568000  1.0
  C  C197  1  0.97498000  0.07281000  0.10568000  1.0
  C  C198  1  0.97498000  0.92719000  0.39432000  1.0
  C  C199  1  0.52502000  0.57281000  0.89433000  1.0
  N  N200  1  0.65137000  0.83308000  0.38490000  1.0
  N  N201  1  0.84863000  0.66692000  0.88491000  1.0
  N  N202  1  0.84863000  0.33308000  0.61509000  1.0
  N  N203  1  0.65137000  0.16692000  0.11510000  1.0
  N  N204  1  0.34863000  0.16692000  0.61510000  1.0
  N  N205  1  0.15137000  0.33308000  0.11509000  1.0
  N  N206  1  0.15137000  0.66692000  0.38491000  1.0
  N  N207  1  0.34863000  0.83308000  0.88490000  1.0
  N  N208  1  0.60772000  0.74212000  0.37619000  1.0
  N  N209  1  0.89227000  0.75789000  0.87620000  1.0
  N  N210  1  0.89228000  0.24211000  0.62380000  1.0
  N  N211  1  0.60772000  0.25789000  0.12380000  1.0
  N  N212  1  0.39228000  0.25788000  0.62381000  1.0
  N  N213  1  0.10772000  0.24211000  0.12380000  1.0
  N  N214  1  0.10772000  0.75789000  0.37620000  1.0
  N  N215  1  0.39228000  0.74211000  0.87620000  1.0
  N  N216  1  0.62011000  0.77391000  0.48219000  1.0
  N  N217  1  0.87989000  0.72609000  0.98219000  1.0
  N  N218  1  0.87989000  0.27391000  0.51781000  1.0
  N  N219  1  0.62011000  0.22609000  0.01781000  1.0
  N  N220  1  0.37989000  0.22609000  0.51781000  1.0
  N  N221  1  0.12011000  0.27391000  0.01781000  1.0
  N  N222  1  0.12011000  0.72609000  0.48219000  1.0
  N  N223  1  0.37989000  0.77391000  0.98219000  1.0
  O  O224  1  0.73907000  0.53980000  0.66078000  1.0
  O  O225  1  0.76093000  0.96020000  0.16078000  1.0
  O  O226  1  0.76093000  0.03980000  0.33922000  1.0
  O  O227  1  0.73907000  0.46020000  0.83922000  1.0
  O  O228  1  0.26093000  0.46020000  0.33922000  1.0
  O  O229  1  0.23907000  0.03980000  0.83922000  1.0
  O  O230  1  0.23907000  0.96021000  0.66078000  1.0
  O  O231  1  0.26093000  0.53979000  0.16078000  1.0
  O  O232  1  0.72236000  0.63191000  0.75349000  1.0
  O  O233  1  0.77764000  0.86809000  0.25348000  1.0
  O  O234  1  0.77764000  0.13191000  0.24651000  1.0
  O  O235  1  0.72236000  0.36809000  0.74651000  1.0
  O  O236  1  0.27764000  0.36809000  0.24651000  1.0
  O  O237  1  0.22236000  0.13191000  0.74651000  1.0
  O  O238  1  0.22236000  0.86809000  0.75348000  1.0
  O  O239  1  0.27764000  0.63191000  0.25348000  1.0
  O  O240  1  0.44513000  0.97692000  0.65472000  1.0
  O  O241  1  0.05487000  0.52308000  0.15472000  1.0
  O  O242  1  0.05487000  0.47691000  0.34528000  1.0
  O  O243  1  0.44513000  0.02309000  0.84528000  1.0
  O  O244  1  0.55487000  0.02309000  0.34528000  1.0
  O  O245  1  0.94513000  0.47691000  0.84528000  1.0
  O  O246  1  0.94513000  0.52309000  0.65472000  1.0
  O  O247  1  0.55487000  0.97692000  0.15472000  1.0
  O  O248  1  0.43769000  0.87380000  0.74274000  1.0
  O  O249  1  0.06231000  0.62619000  0.24275000  1.0
  O  O250  1  0.06231000  0.37380000  0.25725000  1.0
  O  O251  1  0.43768000  0.12620000  0.75725000  1.0
  O  O252  1  0.56231000  0.12620000  0.25725000  1.0
  O  O253  1  0.93769000  0.37380000  0.75725000  1.0
  O  O254  1  0.93769000  0.62619000  0.74275000  1.0
  O  O255  1  0.56231000  0.87381000  0.24274000  1.0
