# generated using pymatgen
data_ZnH8C12(IN2)2
_symmetry_space_group_name_H-M   'P 1'
_cell_length_a   14.98050000
_cell_length_b   19.16860000
_cell_length_c   31.12240000
_cell_angle_alpha   102.30300000
_cell_angle_beta   89.98670000
_cell_angle_gamma   113.00800000
_symmetry_Int_Tables_number   1
_chemical_formula_structural   ZnH8C12(IN2)2
_chemical_formula_sum   'Zn12 H96 C144 I24 N48'
_cell_volume   8002.76444140
_cell_formula_units_Z   12
loop_
 _symmetry_equiv_pos_site_id
 _symmetry_equiv_pos_as_xyz
  1  'x, y, z'
loop_
 _atom_site_type_symbol
 _atom_site_label
 _atom_site_symmetry_multiplicity
 _atom_site_fract_x
 _atom_site_fract_y
 _atom_site_fract_z
 _atom_site_occupancy
  Zn  Zn0  1  0.79944000  0.84029000  0.90667000  1.0
  Zn  Zn1  1  0.47189000  0.64861000  0.72160000  1.0
  Zn  Zn2  1  0.52336000  0.24882000  0.55690000  1.0
  Zn  Zn3  1  0.04094000  0.84013000  0.40661000  1.0
  Zn  Zn4  1  0.17659000  0.64856000  0.22158000  1.0
  Zn  Zn5  1  0.72566000  0.24885000  0.05686000  1.0
  Zn  Zn6  1  0.95907000  0.15987000  0.59339000  1.0
  Zn  Zn7  1  0.82341000  0.35144000  0.77842000  1.0
  Zn  Zn8  1  0.27434000  0.75115000  0.94315000  1.0
  Zn  Zn9  1  0.20056000  0.15971000  0.09333000  1.0
  Zn  Zn10  1  0.52811000  0.35139000  0.27840000  1.0
  Zn  Zn11  1  0.47664000  0.75118000  0.44310000  1.0
  H  H12  1  0.83831000  0.77492000  0.97975000  1.0
  H  H13  1  0.98201000  0.79047000  0.02889000  1.0
  H  H14  1  0.15436000  0.99012000  0.97898000  1.0
  H  H15  1  0.00338000  0.96717000  0.93189000  1.0
  H  H16  1  0.97753000  0.82561000  0.87255000  1.0
  H  H17  1  0.02531000  0.74019000  0.81342000  1.0
  H  H18  1  0.71940000  0.59926000  0.77595000  1.0
  H  H19  1  0.68327000  0.68747000  0.83917000  1.0
  H  H20  1  0.87564000  0.39824000  0.62667000  1.0
  H  H21  1  0.73844000  0.29857000  0.57368000  1.0
  H  H22  1  0.53362000  0.35845000  0.64423000  1.0
  H  H23  1  0.66413000  0.46482000  0.69911000  1.0
  H  H24  1  0.17088000  0.70102000  0.76823000  1.0
  H  H25  1  0.34753000  0.72208000  0.76714000  1.0
  H  H26  1  0.28230000  0.51943000  0.67051000  1.0
  H  H27  1  0.10278000  0.49032000  0.66745000  1.0
  H  H28  1  0.07654000  0.63546000  0.13431000  1.0
  H  H29  1  0.09227000  0.71991000  0.08018000  1.0
  H  H30  1  0.34895000  0.89299000  0.16057000  1.0
  H  H31  1  0.31931000  0.80433000  0.21319000  1.0
  H  H32  1  0.37074000  0.06395000  0.00180000  1.0
  H  H33  1  0.50020000  0.99964000  0.10220000  1.0
  H  H34  1  0.53397000  0.17312000  0.00176000  1.0
  H  H35  1  0.65842000  0.11238000  0.09870000  1.0
  H  H36  1  0.93682000  0.77495000  0.47966000  1.0
  H  H37  1  0.80845000  0.79037000  0.52875000  1.0
  H  H38  1  0.83611000  0.99024000  0.47897000  1.0
  H  H39  1  0.96415000  0.96730000  0.43186000  1.0
  H  H40  1  0.84823000  0.82564000  0.37252000  1.0
  H  H41  1  0.71496000  0.74027000  0.31342000  1.0
  H  H42  1  0.87979000  0.59923000  0.27587000  1.0
  H  H43  1  0.00423000  0.68741000  0.33902000  1.0
  H  H44  1  0.52266000  0.39818000  0.12669000  1.0
  H  H45  1  0.56037000  0.29868000  0.07359000  1.0
  H  H46  1  0.82482000  0.35833000  0.14420000  1.0
  H  H47  1  0.80077000  0.46476000  0.19908000  1.0
  H  H48  1  0.53003000  0.70090000  0.26827000  1.0
  H  H49  1  0.37444000  0.72200000  0.26716000  1.0
  H  H50  1  0.23691000  0.51926000  0.17065000  1.0
  H  H51  1  0.38733000  0.49015000  0.16753000  1.0
  H  H52  1  0.55851000  0.63543000  0.63432000  1.0
  H  H53  1  0.62736000  0.71984000  0.58018000  1.0
  H  H54  1  0.54403000  0.89309000  0.66058000  1.0
  H  H55  1  0.48496000  0.80453000  0.71322000  1.0
  H  H56  1  0.69314000  0.06385000  0.50169000  1.0
  H  H57  1  0.49922000  0.99928000  0.60203000  1.0
  H  H58  1  0.63909000  0.17308000  0.50175000  1.0
  H  H59  1  0.45369000  0.11202000  0.59862000  1.0
  H  H60  1  0.06318000  0.22505000  0.52034000  1.0
  H  H61  1  0.19156000  0.20963000  0.47125000  1.0
  H  H62  1  0.16389000  0.00976000  0.52103000  1.0
  H  H63  1  0.03585000  0.03270000  0.56814000  1.0
  H  H64  1  0.15178000  0.17436000  0.62748000  1.0
  H  H65  1  0.28504000  0.25973000  0.68659000  1.0
  H  H66  1  0.12021000  0.40077000  0.72413000  1.0
  H  H67  1  0.99577000  0.31260000  0.66098000  1.0
  H  H68  1  0.47735000  0.60183000  0.87332000  1.0
  H  H69  1  0.43963000  0.70132000  0.92641000  1.0
  H  H70  1  0.17518000  0.64167000  0.85580000  1.0
  H  H71  1  0.19923000  0.53524000  0.80092000  1.0
  H  H72  1  0.46997000  0.29910000  0.73173000  1.0
  H  H73  1  0.62556000  0.27801000  0.73284000  1.0
  H  H74  1  0.76309000  0.48074000  0.82935000  1.0
  H  H75  1  0.61267000  0.50985000  0.83247000  1.0
  H  H76  1  0.44150000  0.36457000  0.36568000  1.0
  H  H77  1  0.37264000  0.28016000  0.41982000  1.0
  H  H78  1  0.45597000  0.10691000  0.33942000  1.0
  H  H79  1  0.51504000  0.19547000  0.28678000  1.0
  H  H80  1  0.30686000  0.93615000  0.49830000  1.0
  H  H81  1  0.50078000  0.00072000  0.39797000  1.0
  H  H82  1  0.36091000  0.82692000  0.49825000  1.0
  H  H83  1  0.54631000  0.88798000  0.40139000  1.0
  H  H84  1  0.16170000  0.22508000  0.02025000  1.0
  H  H85  1  0.01799000  0.20953000  0.97111000  1.0
  H  H86  1  0.84564000  0.00988000  0.02102000  1.0
  H  H87  1  0.99662000  0.03283000  0.06811000  1.0
  H  H88  1  0.02247000  0.17439000  0.12745000  1.0
  H  H89  1  0.97469000  0.25981000  0.18658000  1.0
  H  H90  1  0.28060000  0.40073000  0.22405000  1.0
  H  H91  1  0.31673000  0.31253000  0.16083000  1.0
  H  H92  1  0.12436000  0.60176000  0.37333000  1.0
  H  H93  1  0.26156000  0.70143000  0.42632000  1.0
  H  H94  1  0.46638000  0.64155000  0.35577000  1.0
  H  H95  1  0.33586000  0.53518000  0.30089000  1.0
  H  H96  1  0.82912000  0.29898000  0.23177000  1.0
  H  H97  1  0.65247000  0.27792000  0.23286000  1.0
  H  H98  1  0.71770000  0.48057000  0.32949000  1.0
  H  H99  1  0.89722000  0.50967000  0.33256000  1.0
  H  H100  1  0.92346000  0.36454000  0.86569000  1.0
  H  H101  1  0.90773000  0.28010000  0.91982000  1.0
  H  H102  1  0.65105000  0.10701000  0.83943000  1.0
  H  H103  1  0.68069000  0.19567000  0.78681000  1.0
  H  H104  1  0.62927000  0.93605000  0.99820000  1.0
  H  H105  1  0.49980000  0.00036000  0.89780000  1.0
  H  H106  1  0.46603000  0.82688000  0.99824000  1.0
  H  H107  1  0.34158000  0.88762000  0.90130000  1.0
  C  C108  1  0.91005000  0.82153000  0.98064000  1.0
  C  C109  1  0.98908000  0.83053000  0.00780000  1.0
  C  C110  1  0.07931000  0.89075000  0.00678000  1.0
  C  C111  1  0.08541000  0.94201000  0.97983000  1.0
  C  C112  1  0.00282000  0.92946000  0.95383000  1.0
  C  C113  1  0.92234000  0.77440000  0.85085000  1.0
  C  C114  1  0.94888000  0.72745000  0.81760000  1.0
  C  C115  1  0.87576000  0.66276000  0.79011000  1.0
  C  C116  1  0.77830000  0.64794000  0.79737000  1.0
  C  C117  1  0.75795000  0.69688000  0.83213000  1.0
  C  C118  1  0.90238000  0.61137000  0.75470000  1.0
  C  C119  1  0.01827000  0.57904000  0.71969000  1.0
  C  C120  1  0.85874000  0.50476000  0.69786000  1.0
  C  C121  1  0.78053000  0.44049000  0.66689000  1.0
  C  C122  1  0.80129000  0.39225000  0.63149000  1.0
  C  C123  1  0.72469000  0.33615000  0.60206000  1.0
  C  C124  1  0.61058000  0.36991000  0.64169000  1.0
  C  C125  1  0.68300000  0.42820000  0.67209000  1.0
  C  C126  1  0.12314000  0.59398000  0.71772000  1.0
  C  C127  1  0.19322000  0.66027000  0.74573000  1.0
  C  C128  1  0.29063000  0.67229000  0.74506000  1.0
  C  C129  1  0.25413000  0.55856000  0.69110000  1.0
  C  C130  1  0.15500000  0.54251000  0.68969000  1.0
  C  C131  1  0.13514000  0.69328000  0.13884000  1.0
  C  C132  1  0.14392000  0.73989000  0.10922000  1.0
  C  C133  1  0.22198000  0.81273000  0.11661000  1.0
  C  C134  1  0.28782000  0.83645000  0.15397000  1.0
  C  C135  1  0.27250000  0.78722000  0.18264000  1.0
  C  C136  1  0.23345000  0.86352000  0.08545000  1.0
  C  C137  1  0.16649000  0.89878000  0.03310000  1.0
  C  C138  1  0.32768000  0.96163000  0.05494000  1.0
  C  C139  1  0.42341000  0.02393000  0.05231000  1.0
  C  C140  1  0.43312000  0.07247000  0.02330000  1.0
  C  C141  1  0.50545000  0.03720000  0.07972000  1.0
  C  C142  1  0.52268000  0.13314000  0.02348000  1.0
  C  C143  1  0.59224000  0.09914000  0.07807000  1.0
  C  C144  1  0.91170000  0.82158000  0.48059000  1.0
  C  C145  1  0.84158000  0.83052000  0.50771000  1.0
  C  C146  1  0.81161000  0.89076000  0.50671000  1.0
  C  C147  1  0.85690000  0.94210000  0.47981000  1.0
  C  C148  1  0.92695000  0.92956000  0.45380000  1.0
  C  C149  1  0.85217000  0.77443000  0.35080000  1.0
  C  C150  1  0.77863000  0.72752000  0.31757000  1.0
  C  C151  1  0.78700000  0.66277000  0.29009000  1.0
  C  C152  1  0.86963000  0.64794000  0.29730000  1.0
  C  C153  1  0.93895000  0.69684000  0.33204000  1.0
  C  C154  1  0.70887000  0.61132000  0.25473000  1.0
  C  C155  1  0.56068000  0.57893000  0.21968000  1.0
  C  C156  1  0.64598000  0.50468000  0.19787000  1.0
  C  C157  1  0.66004000  0.44049000  0.16687000  1.0
  C  C158  1  0.59107000  0.39226000  0.13146000  1.0
  C  C159  1  0.61163000  0.33622000  0.10199000  1.0
  C  C160  1  0.75940000  0.36989000  0.14165000  1.0
  C  C161  1  0.74528000  0.42819000  0.17206000  1.0
  C  C162  1  0.47070000  0.59383000  0.21775000  1.0
  C  C163  1  0.46691000  0.66012000  0.24579000  1.0
  C  C164  1  0.38156000  0.67219000  0.24511000  1.0
  C  C165  1  0.30422000  0.55841000  0.19121000  1.0
  C  C166  1  0.38730000  0.54234000  0.18978000  1.0
  C  C167  1  0.55783000  0.69328000  0.63886000  1.0
  C  C168  1  0.59572000  0.73986000  0.60922000  1.0
  C  C169  1  0.59063000  0.81274000  0.61659000  1.0
  C  C170  1  0.54855000  0.83652000  0.65396000  1.0
  C  C171  1  0.51463000  0.78736000  0.68267000  1.0
  C  C172  1  0.63003000  0.86347000  0.58537000  1.0
  C  C173  1  0.73231000  0.89871000  0.53300000  1.0
  C  C174  1  0.63383000  0.96147000  0.55478000  1.0
  C  C175  1  0.60034000  0.02372000  0.55216000  1.0
  C  C176  1  0.63919000  0.07230000  0.52318000  1.0
  C  C177  1  0.53150000  0.03689000  0.57957000  1.0
  C  C178  1  0.61034000  0.13300000  0.52342000  1.0
  C  C179  1  0.50665000  0.09884000  0.57797000  1.0
  C  C180  1  0.08831000  0.17842000  0.51941000  1.0
  C  C181  1  0.15843000  0.16948000  0.49229000  1.0
  C  C182  1  0.18840000  0.10924000  0.49330000  1.0
  C  C183  1  0.14310000  0.05790000  0.52019000  1.0
  C  C184  1  0.07305000  0.07044000  0.54620000  1.0
  C  C185  1  0.14783000  0.22557000  0.64920000  1.0
  C  C186  1  0.22137000  0.27248000  0.68244000  1.0
  C  C187  1  0.21300000  0.33723000  0.70991000  1.0
  C  C188  1  0.13037000  0.35207000  0.70270000  1.0
  C  C189  1  0.06105000  0.30316000  0.66796000  1.0
  C  C190  1  0.29113000  0.38869000  0.74527000  1.0
  C  C191  1  0.43932000  0.42107000  0.78032000  1.0
  C  C192  1  0.35402000  0.49532000  0.80213000  1.0
  C  C193  1  0.33996000  0.55951000  0.83313000  1.0
  C  C194  1  0.40893000  0.60774000  0.86854000  1.0
  C  C195  1  0.38837000  0.66378000  0.89801000  1.0
  C  C196  1  0.24060000  0.63011000  0.85835000  1.0
  C  C197  1  0.25472000  0.57181000  0.82794000  1.0
  C  C198  1  0.52930000  0.40617000  0.78225000  1.0
  C  C199  1  0.53308000  0.33988000  0.75421000  1.0
  C  C200  1  0.61844000  0.32781000  0.75489000  1.0
  C  C201  1  0.69578000  0.44159000  0.80879000  1.0
  C  C202  1  0.61270000  0.45766000  0.81022000  1.0
  C  C203  1  0.44217000  0.30672000  0.36114000  1.0
  C  C204  1  0.40429000  0.26014000  0.39078000  1.0
  C  C205  1  0.40937000  0.18726000  0.38341000  1.0
  C  C206  1  0.45145000  0.16347000  0.34604000  1.0
  C  C207  1  0.48537000  0.21264000  0.31733000  1.0
  C  C208  1  0.36997000  0.13652000  0.41463000  1.0
  C  C209  1  0.26769000  0.10128000  0.46700000  1.0
  C  C210  1  0.36617000  0.03852000  0.44521000  1.0
  C  C211  1  0.39966000  0.97628000  0.44784000  1.0
  C  C212  1  0.36080000  0.92769000  0.47682000  1.0
  C  C213  1  0.46850000  0.96311000  0.42043000  1.0
  C  C214  1  0.38966000  0.86700000  0.47658000  1.0
  C  C215  1  0.49335000  0.90116000  0.42203000  1.0
  C  C216  1  0.08995000  0.17847000  0.01935000  1.0
  C  C217  1  0.01092000  0.16947000  0.99220000  1.0
  C  C218  1  0.92069000  0.10925000  0.99322000  1.0
  C  C219  1  0.91459000  0.05800000  0.02017000  1.0
  C  C220  1  0.99717000  0.07055000  0.04617000  1.0
  C  C221  1  0.07765000  0.22560000  0.14915000  1.0
  C  C222  1  0.05112000  0.27255000  0.18240000  1.0
  C  C223  1  0.12424000  0.33724000  0.20989000  1.0
  C  C224  1  0.22170000  0.35206000  0.20263000  1.0
  C  C225  1  0.24205000  0.30312000  0.16787000  1.0
  C  C226  1  0.09762000  0.38863000  0.24530000  1.0
  C  C227  1  0.98173000  0.42096000  0.28031000  1.0
  C  C228  1  0.14126000  0.49524000  0.30214000  1.0
  C  C229  1  0.21947000  0.55951000  0.33311000  1.0
  C  C230  1  0.19871000  0.60775000  0.36851000  1.0
  C  C231  1  0.27531000  0.66385000  0.39794000  1.0
  C  C232  1  0.38942000  0.63009000  0.35831000  1.0
  C  C233  1  0.31700000  0.57180000  0.32791000  1.0
  C  C234  1  0.87686000  0.40602000  0.28228000  1.0
  C  C235  1  0.80678000  0.33973000  0.25427000  1.0
  C  C236  1  0.70937000  0.32771000  0.25494000  1.0
  C  C237  1  0.74586000  0.44144000  0.30890000  1.0
  C  C238  1  0.84500000  0.45749000  0.31031000  1.0
  C  C239  1  0.86486000  0.30672000  0.86116000  1.0
  C  C240  1  0.85608000  0.26011000  0.89078000  1.0
  C  C241  1  0.77802000  0.18728000  0.88339000  1.0
  C  C242  1  0.71218000  0.16355000  0.84603000  1.0
  C  C243  1  0.72750000  0.21278000  0.81736000  1.0
  C  C244  1  0.76655000  0.13648000  0.91455000  1.0
  C  C245  1  0.83351000  0.10122000  0.96690000  1.0
  C  C246  1  0.67232000  0.03837000  0.94506000  1.0
  C  C247  1  0.57660000  0.97607000  0.94769000  1.0
  C  C248  1  0.56689000  0.92753000  0.97670000  1.0
  C  C249  1  0.49455000  0.96280000  0.92028000  1.0
  C  C250  1  0.47732000  0.86686000  0.97652000  1.0
  C  C251  1  0.40776000  0.90086000  0.92193000  1.0
  I  I252  1  0.83146000  0.95350000  0.87031000  1.0
  I  I253  1  0.65039000  0.76413000  0.94285000  1.0
  I  I254  1  0.54464000  0.74328000  0.79619000  1.0
  I  I255  1  0.49460000  0.52251000  0.69055000  1.0
  I  I256  1  0.36234000  0.22736000  0.59116000  1.0
  I  I257  1  0.57503000  0.29878000  0.48752000  1.0
  I  I258  1  0.12229000  0.95334000  0.37028000  1.0
  I  I259  1  0.11356000  0.76399000  0.44289000  1.0
  I  I260  1  0.19859000  0.74332000  0.29617000  1.0
  I  I261  1  0.02783000  0.52241000  0.19053000  1.0
  I  I262  1  0.86490000  0.22736000  0.09138000  1.0
  I  I263  1  0.72382000  0.29844000  0.98736000  1.0
  I  I264  1  0.87771000  0.04666000  0.62972000  1.0
  I  I265  1  0.88644000  0.23601000  0.55711000  1.0
  I  I266  1  0.80141000  0.25669000  0.70383000  1.0
  I  I267  1  0.97217000  0.47759000  0.80946000  1.0
  I  I268  1  0.13510000  0.77264000  0.90862000  1.0
  I  I269  1  0.27618000  0.70157000  0.01264000  1.0
  I  I270  1  0.16854000  0.04650000  0.12969000  1.0
  I  I271  1  0.34961000  0.23587000  0.05715000  1.0
  I  I272  1  0.45536000  0.25672000  0.20381000  1.0
  I  I273  1  0.50540000  0.47749000  0.30945000  1.0
  I  I274  1  0.63766000  0.77265000  0.40884000  1.0
  I  I275  1  0.42497000  0.70123000  0.51248000  1.0
  N  N276  1  0.91701000  0.86939000  0.95358000  1.0
  N  N277  1  0.82888000  0.75920000  0.85841000  1.0
  N  N278  1  0.99746000  0.63039000  0.74996000  1.0
  N  N279  1  0.95202000  0.51617000  0.69198000  1.0
  N  N280  1  0.83040000  0.54876000  0.72988000  1.0
  N  N281  1  0.32099000  0.62241000  0.71828000  1.0
  N  N282  1  0.63118000  0.32516000  0.60692000  1.0
  N  N283  1  0.19808000  0.71661000  0.17507000  1.0
  N  N284  1  0.15337000  0.85098000  0.06049000  1.0
  N  N285  1  0.25269000  0.95297000  0.02777000  1.0
  N  N286  1  0.32191000  0.91940000  0.08495000  1.0
  N  N287  1  0.60040000  0.14690000  0.05075000  1.0
  N  N288  1  0.95266000  0.86947000  0.45354000  1.0
  N  N289  1  0.93040000  0.75917000  0.35834000  1.0
  N  N290  1  0.63283000  0.63032000  0.24995000  1.0
  N  N291  1  0.56411000  0.51608000  0.19197000  1.0
  N  N292  1  0.71824000  0.54867000  0.22993000  1.0
  N  N293  1  0.30128000  0.62232000  0.21835000  1.0
  N  N294  1  0.69413000  0.32522000  0.10685000  1.0
  N  N295  1  0.51834000  0.71671000  0.67511000  1.0
  N  N296  1  0.69762000  0.85095000  0.56042000  1.0
  N  N297  1  0.70023000  0.95285000  0.52764000  1.0
  N  N298  1  0.59740000  0.91929000  0.58483000  1.0
  N  N299  1  0.54636000  0.14671000  0.55071000  1.0
  N  N300  1  0.04734000  0.13052000  0.54646000  1.0
  N  N301  1  0.06960000  0.24083000  0.64166000  1.0
  N  N302  1  0.36717000  0.36968000  0.75005000  1.0
  N  N303  1  0.43589000  0.48392000  0.80803000  1.0
  N  N304  1  0.28176000  0.45133000  0.77008000  1.0
  N  N305  1  0.69871000  0.37768000  0.78165000  1.0
  N  N306  1  0.30587000  0.67478000  0.89315000  1.0
  N  N307  1  0.48166000  0.28329000  0.32489000  1.0
  N  N308  1  0.30238000  0.14905000  0.43958000  1.0
  N  N309  1  0.29977000  0.04715000  0.47236000  1.0
  N  N310  1  0.40260000  0.08071000  0.41517000  1.0
  N  N311  1  0.45364000  0.85328000  0.44929000  1.0
  N  N312  1  0.08299000  0.13061000  0.04642000  1.0
  N  N313  1  0.17112000  0.24080000  0.14159000  1.0
  N  N314  1  0.00254000  0.36961000  0.25004000  1.0
  N  N315  1  0.04798000  0.48383000  0.30802000  1.0
  N  N316  1  0.16960000  0.45124000  0.27012000  1.0
  N  N317  1  0.67901000  0.37759000  0.28172000  1.0
  N  N318  1  0.36882000  0.67484000  0.39308000  1.0
  N  N319  1  0.80192000  0.28340000  0.82493000  1.0
  N  N320  1  0.84663000  0.14902000  0.93951000  1.0
  N  N321  1  0.74731000  0.04704000  0.97223000  1.0
  N  N322  1  0.67809000  0.08061000  0.91505000  1.0
  N  N323  1  0.39960000  0.85310000  0.94925000  1.0
