# generated using pymatgen
data_ZnH4C20N5O4
_symmetry_space_group_name_H-M   'P 1'
_cell_length_a   14.15210000
_cell_length_b   14.32680000
_cell_length_c   15.32880000
_cell_angle_alpha   88.70320000
_cell_angle_beta   90.00450000
_cell_angle_gamma   89.99720000
_symmetry_Int_Tables_number   1
_chemical_formula_structural   ZnH4C20N5O4
_chemical_formula_sum   'Zn2 H8 C40 N10 O8'
_cell_volume   3107.18416468
_cell_formula_units_Z   2
loop_
 _symmetry_equiv_pos_site_id
 _symmetry_equiv_pos_as_xyz
  1  'x, y, z'
loop_
 _atom_site_type_symbol
 _atom_site_label
 _atom_site_symmetry_multiplicity
 _atom_site_fract_x
 _atom_site_fract_y
 _atom_site_fract_z
 _atom_site_occupancy
  Zn  Zn0  1  0.40191000  0.50001000  0.50000000  1.0
  Zn  Zn1  1  0.59831000  0.49998000  0.49997000  1.0
  H  H2  1  0.93142000  0.36339000  0.56354000  1.0
  H  H3  1  0.06904000  0.58428000  0.38086000  1.0
  H  H4  1  0.93136000  0.63663000  0.43643000  1.0
  H  H5  1  0.06904000  0.41580000  0.61915000  1.0
  H  H6  1  0.44988000  0.64258000  0.93279000  1.0
  H  H7  1  0.53585000  0.64671000  0.05452000  1.0
  H  H8  1  0.45023000  0.35741000  0.06709000  1.0
  H  H9  1  0.53637000  0.35353000  0.94557000  1.0
  C  C10  1  0.49861000  0.49333000  0.66867000  1.0
  C  C11  1  0.49848000  0.50662000  0.33130000  1.0
  C  C12  1  0.50099000  0.32196000  0.49521000  1.0
  C  C13  1  0.50105000  0.67803000  0.50478000  1.0
  C  C14  1  0.89683000  0.42512000  0.53584000  1.0
  C  C15  1  0.10378000  0.54725000  0.43473000  1.0
  C  C16  1  0.89679000  0.57489000  0.46412000  1.0
  C  C17  1  0.10379000  0.45283000  0.56529000  1.0
  C  C18  1  0.79781000  0.42772000  0.53516000  1.0
  C  C19  1  0.20276000  0.54580000  0.43690000  1.0
  C  C20  1  0.79778000  0.57223000  0.46476000  1.0
  C  C21  1  0.20277000  0.45429000  0.56313000  1.0
  C  C22  1  0.50381000  0.22211000  0.49517000  1.0
  C  C23  1  0.50388000  0.77788000  0.50486000  1.0
  C  C24  1  0.50572000  0.13650000  0.49696000  1.0
  C  C25  1  0.50577000  0.86349000  0.50309000  1.0
  C  C26  1  0.50678000  0.04308000  0.49901000  1.0
  C  C27  1  0.50679000  0.95691000  0.50104000  1.0
  C  C28  1  0.94810000  0.50001000  0.49999000  1.0
  C  C29  1  0.05253000  0.50004000  0.50000000  1.0
  C  C30  1  0.47065000  0.57821000  0.90148000  1.0
  C  C31  1  0.51706000  0.58351000  0.09145000  1.0
  C  C32  1  0.47077000  0.42182000  0.09845000  1.0
  C  C33  1  0.51743000  0.41665000  0.90858000  1.0
  C  C34  1  0.47085000  0.57615000  0.81007000  1.0
  C  C35  1  0.51807000  0.58619000  0.18287000  1.0
  C  C36  1  0.47093000  0.42383000  0.18986000  1.0
  C  C37  1  0.51847000  0.41391000  0.81717000  1.0
  C  C38  1  0.49621000  0.49420000  0.76662000  1.0
  C  C39  1  0.49604000  0.50579000  0.23337000  1.0
  C  C40  1  0.49434000  0.49875000  0.95179000  1.0
  C  C41  1  0.49426000  0.50137000  0.04819000  1.0
  C  C42  1  0.75105000  0.34869000  0.57455000  1.0
  C  C43  1  0.25047000  0.59534000  0.36742000  1.0
  C  C44  1  0.75098000  0.65121000  0.42529000  1.0
  C  C45  1  0.25050000  0.40476000  0.63262000  1.0
  C  C46  1  0.44504000  0.65930000  0.76236000  1.0
  C  C47  1  0.53844000  0.67306000  0.22303000  1.0
  C  C48  1  0.44538000  0.34058000  0.23754000  1.0
  C  C49  1  0.53904000  0.32703000  0.77710000  1.0
  N  N50  1  0.74807000  0.49996000  0.49995000  1.0
  N  N51  1  0.25236000  0.50004000  0.50002000  1.0
  N  N52  1  0.72712000  0.27953000  0.60967000  1.0
  N  N53  1  0.27783000  0.63759000  0.30658000  1.0
  N  N54  1  0.72703000  0.72031000  0.39008000  1.0
  N  N55  1  0.27787000  0.36251000  0.69347000  1.0
  N  N56  1  0.42367000  0.72905000  0.72673000  1.0
  N  N57  1  0.55242000  0.74645000  0.25202000  1.0
  N  N58  1  0.42422000  0.27079000  0.27321000  1.0
  N  N59  1  0.55314000  0.25360000  0.74822000  1.0
  O  O60  1  0.42241000  0.51782000  0.63093000  1.0
  O  O61  1  0.57571000  0.53005000  0.36644000  1.0
  O  O62  1  0.42231000  0.48216000  0.36907000  1.0
  O  O63  1  0.57579000  0.46988000  0.63352000  1.0
  O  O64  1  0.42355000  0.35985000  0.51803000  1.0
  O  O65  1  0.57685000  0.63508000  0.52752000  1.0
  O  O66  1  0.42361000  0.64015000  0.48198000  1.0
  O  O67  1  0.57677000  0.36489000  0.47243000  1.0
