# generated using pymatgen
data_CuH10C8(NO2)2
_symmetry_space_group_name_H-M   'P 1'
_cell_length_a   4.08468000
_cell_length_b   5.93820000
_cell_length_c   9.71926000
_cell_angle_alpha   91.36580000
_cell_angle_beta   99.67490000
_cell_angle_gamma   98.99450000
_symmetry_Int_Tables_number   1
_chemical_formula_structural   CuH10C8(NO2)2
_chemical_formula_sum   'Cu1 H10 C8 N2 O4'
_cell_volume   229.23210036
_cell_formula_units_Z   1
loop_
 _symmetry_equiv_pos_site_id
 _symmetry_equiv_pos_as_xyz
  1  'x, y, z'
loop_
 _atom_site_type_symbol
 _atom_site_label
 _atom_site_symmetry_multiplicity
 _atom_site_fract_x
 _atom_site_fract_y
 _atom_site_fract_z
 _atom_site_occupancy
  Cu  Cu0  1  0.50001000  0.50001000  0.00000000  1.0
  H  H1  1  0.27203000  0.15613000  0.12144000  1.0
  H  H2  1  0.72798000  0.84388000  0.87854000  1.0
  H  H3  1  0.95416000  0.22361000  0.00555000  1.0
  H  H4  1  0.04586000  0.77640000  0.99443000  1.0
  H  H5  1  0.07723000  0.37436000  0.15680000  1.0
  H  H6  1  0.92278000  0.62565000  0.84318000  1.0
  H  H7  1  0.10255000  0.62084000  0.42108000  1.0
  H  H8  1  0.89740000  0.37914000  0.57893000  1.0
  H  H9  1  0.61522000  0.20818000  0.34443000  1.0
  H  H10  1  0.38473000  0.79182000  0.65557000  1.0
  C  C11  1  0.66231000  0.79495000  0.22910000  1.0
  C  C12  1  0.33768000  0.20506000  0.77089000  1.0
  C  C13  1  0.84021000  0.90240000  0.36805000  1.0
  C  C14  1  0.15976000  0.09756000  0.63194000  1.0
  C  C15  1  0.05680000  0.78631000  0.45686000  1.0
  C  C16  1  0.94320000  0.21369000  0.54317000  1.0
  C  C17  1  0.78537000  0.11767000  0.41223000  1.0
  C  C18  1  0.21462000  0.88232000  0.58780000  1.0
  N  N19  1  0.16021000  0.28991000  0.07961000  1.0
  N  N20  1  0.83980000  0.71011000  0.92037000  1.0
  O  O21  1  0.73118000  0.59715000  0.19599000  1.0
  O  O22  1  0.26886000  0.40287000  0.80401000  1.0
  O  O23  1  0.45729000  0.89418000  0.15097000  1.0
  O  O24  1  0.54275000  0.10578000  0.84905000  1.0
