# generated using pymatgen
data_CuH16C16(SN5)2
_symmetry_space_group_name_H-M   'P 1'
_cell_length_a   8.85371554
_cell_length_b   8.85367000
_cell_length_c   13.91330000
_cell_angle_alpha   90.00000000
_cell_angle_beta   90.00010045
_cell_angle_gamma   119.70149258
_symmetry_Int_Tables_number   1
_chemical_formula_structural   CuH16C16(SN5)2
_chemical_formula_sum   'Cu2 H32 C32 S4 N20'
_cell_volume   947.34501286
_cell_formula_units_Z   2
loop_
 _symmetry_equiv_pos_site_id
 _symmetry_equiv_pos_as_xyz
  1  'x, y, z'
loop_
 _atom_site_type_symbol
 _atom_site_label
 _atom_site_symmetry_multiplicity
 _atom_site_fract_x
 _atom_site_fract_y
 _atom_site_fract_z
 _atom_site_occupancy
  Cu  Cu0  1  0.00000000  0.00000000  0.00000000  1.0
  Cu  Cu1  1  0.50000000  0.50000000  0.50000000  1.0
  H  H2  1  0.59809000  0.12129000  0.85779000  1.0
  H  H3  1  0.90190000  0.37870000  0.35779000  1.0
  H  H4  1  0.37869000  0.90190000  0.64221000  1.0
  H  H5  1  0.12130000  0.59809000  0.14221000  1.0
  H  H6  1  0.40190000  0.87870000  0.14221000  1.0
  H  H7  1  0.09810000  0.62131000  0.64221000  1.0
  H  H8  1  0.62130000  0.09809000  0.35779000  1.0
  H  H9  1  0.87870000  0.40190000  0.85779000  1.0
  H  H10  1  0.31424000  0.91605000  0.97334000  1.0
  H  H11  1  0.18576000  0.58395000  0.47334000  1.0
  H  H12  1  0.58395000  0.18576000  0.52666000  1.0
  H  H13  1  0.91605000  0.31423000  0.02666000  1.0
  H  H14  1  0.68576000  0.08395000  0.02666000  1.0
  H  H15  1  0.81423000  0.41605000  0.52666000  1.0
  H  H16  1  0.41605000  0.81424000  0.47334000  1.0
  H  H17  1  0.08395000  0.68577000  0.97334000  1.0
  H  H18  1  0.25747000  0.33083000  0.86391000  1.0
  H  H19  1  0.24252000  0.16916000  0.36392000  1.0
  H  H20  1  0.16917000  0.24253000  0.63608000  1.0
  H  H21  1  0.33083000  0.25747000  0.13608000  1.0
  H  H22  1  0.74253000  0.66917000  0.13608000  1.0
  H  H23  1  0.75747000  0.83083000  0.63608000  1.0
  H  H24  1  0.83083000  0.75747000  0.36392000  1.0
  H  H25  1  0.66917000  0.74253000  0.86391000  1.0
  H  H26  1  0.63772000  0.36228000  0.73026000  1.0
  H  H27  1  0.86228000  0.13771000  0.23026000  1.0
  H  H28  1  0.13772000  0.86228000  0.76974000  1.0
  H  H29  1  0.36228000  0.63772000  0.26974000  1.0
  H  H30  1  0.52239000  0.47761000  0.75302000  1.0
  H  H31  1  0.97761000  0.02239000  0.25302000  1.0
  H  H32  1  0.02239000  0.97761000  0.74698000  1.0
  H  H33  1  0.47761000  0.52239000  0.24698000  1.0
  C  C34  1  0.48610000  0.13348000  0.87736000  1.0
  C  C35  1  0.01391000  0.36653000  0.37736000  1.0
  C  C36  1  0.36652000  0.01390000  0.62264000  1.0
  C  C37  1  0.13347000  0.48609000  0.12264000  1.0
  C  C38  1  0.51391000  0.86653000  0.12264000  1.0
  C  C39  1  0.98609000  0.63347000  0.62264000  1.0
  C  C40  1  0.63348000  0.98610000  0.37736000  1.0
  C  C41  1  0.86652000  0.51390000  0.87736000  1.0
  C  C42  1  0.34325000  0.03107000  0.93262000  1.0
  C  C43  1  0.15675000  0.46893000  0.43262000  1.0
  C  C44  1  0.46892000  0.15675000  0.56738000  1.0
  C  C45  1  0.03108000  0.34325000  0.06738000  1.0
  C  C46  1  0.65675000  0.96892000  0.06738000  1.0
  C  C47  1  0.84325000  0.53108000  0.56738000  1.0
  C  C48  1  0.53108000  0.84326000  0.43262000  1.0
  C  C49  1  0.96892000  0.65675000  0.93262000  1.0
  C  C50  1  0.30739000  0.24286000  0.87841000  1.0
  C  C51  1  0.19261000  0.25714000  0.37842000  1.0
  C  C52  1  0.25713000  0.19261000  0.62159000  1.0
  C  C53  1  0.24287000  0.30739000  0.12158000  1.0
  C  C54  1  0.69261000  0.75713000  0.12159000  1.0
  C  C55  1  0.80739000  0.74287000  0.62158000  1.0
  C  C56  1  0.74287000  0.80739000  0.37842000  1.0
  C  C57  1  0.75713000  0.69261000  0.87841000  1.0
  C  C58  1  0.58720000  0.41279000  0.78623000  1.0
  C  C59  1  0.91280000  0.08721000  0.28624000  1.0
  C  C60  1  0.08720000  0.91279000  0.71377000  1.0
  C  C61  1  0.41280000  0.58721000  0.21377000  1.0
  C  C62  1  0.86684000  0.13317000  0.79215000  1.0
  C  C63  1  0.63316000  0.36685000  0.29215000  1.0
  C  C64  1  0.36684000  0.63315000  0.70786000  1.0
  C  C65  1  0.13317000  0.86684000  0.20787000  1.0
  S  S66  1  0.83820000  0.16180000  0.67946000  1.0
  S  S67  1  0.66180000  0.33821000  0.17946000  1.0
  S  S68  1  0.33820000  0.66179000  0.82054000  1.0
  S  S69  1  0.16181000  0.83820000  0.32055000  1.0
  N  N70  1  0.23262000  0.09913000  0.93170000  1.0
  N  N71  1  0.26738000  0.40086000  0.43170000  1.0
  N  N72  1  0.40086000  0.26738000  0.56830000  1.0
  N  N73  1  0.09913000  0.23261000  0.06830000  1.0
  N  N74  1  0.76739000  0.90087000  0.06830000  1.0
  N  N75  1  0.73261000  0.59913000  0.56830000  1.0
  N  N76  1  0.59913000  0.73262000  0.43170000  1.0
  N  N77  1  0.90087000  0.76739000  0.93169000  1.0
  N  N78  1  0.46216000  0.26747000  0.84397000  1.0
  N  N79  1  0.03784000  0.23252000  0.34397000  1.0
  N  N80  1  0.23252000  0.03783000  0.65603000  1.0
  N  N81  1  0.26748000  0.46216000  0.15603000  1.0
  N  N82  1  0.53784000  0.73253000  0.15603000  1.0
  N  N83  1  0.96216000  0.76748000  0.65603000  1.0
  N  N84  1  0.76748000  0.96217000  0.34397000  1.0
  N  N85  1  0.73253000  0.53784000  0.84397000  1.0
  N  N86  1  0.88626000  0.11374000  0.87510000  1.0
  N  N87  1  0.61374000  0.38627000  0.37511000  1.0
  N  N88  1  0.38626000  0.61374000  0.62489000  1.0
  N  N89  1  0.11375000  0.88626000  0.12491000  1.0
