# generated using pymatgen
data_MgH9C5O8
_symmetry_space_group_name_H-M   'P 1'
_cell_length_a   5.01899000
_cell_length_b   11.19610000
_cell_length_c   14.39450000
_cell_angle_alpha   89.99990000
_cell_angle_beta   89.99980000
_cell_angle_gamma   80.08060000
_symmetry_Int_Tables_number   1
_chemical_formula_structural   MgH9C5O8
_chemical_formula_sum   'Mg4 H36 C20 O32'
_cell_volume   796.77999930
_cell_formula_units_Z   4
loop_
 _symmetry_equiv_pos_site_id
 _symmetry_equiv_pos_as_xyz
  1  'x, y, z'
loop_
 _atom_site_type_symbol
 _atom_site_label
 _atom_site_symmetry_multiplicity
 _atom_site_fract_x
 _atom_site_fract_y
 _atom_site_fract_z
 _atom_site_occupancy
  Mg  Mg0  1  0.08782000  0.85049000  0.14268000  1.0
  Mg  Mg1  1  0.41217000  0.64951000  0.64268000  1.0
  Mg  Mg2  1  0.91218000  0.14951000  0.85732000  1.0
  Mg  Mg3  1  0.58782000  0.35049000  0.35732000  1.0
  H  H4  1  0.18435000  0.62228000  0.89026000  1.0
  H  H5  1  0.31565000  0.87773000  0.39025000  1.0
  H  H6  1  0.81567000  0.37772000  0.10975000  1.0
  H  H7  1  0.68434000  0.12228000  0.60975000  1.0
  H  H8  1  0.75266000  0.03713000  0.03965000  1.0
  H  H9  1  0.74734000  0.46287000  0.53965000  1.0
  H  H10  1  0.24734000  0.96286000  0.96035000  1.0
  H  H11  1  0.25266000  0.53714000  0.46035000  1.0
  H  H12  1  0.62947000  0.91797000  0.05639000  1.0
  H  H13  1  0.87053000  0.58203000  0.55639000  1.0
  H  H14  1  0.37054000  0.08202000  0.94361000  1.0
  H  H15  1  0.12947000  0.41798000  0.44361000  1.0
  H  H16  1  0.72111000  0.93195000  0.28253000  1.0
  H  H17  1  0.77889000  0.56804000  0.78253000  1.0
  H  H18  1  0.27888000  0.06805000  0.71747000  1.0
  H  H19  1  0.22111000  0.43195000  0.21747000  1.0
  H  H20  1  0.86963000  0.80157000  0.31418000  1.0
  H  H21  1  0.63036000  0.69843000  0.81418000  1.0
  H  H22  1  0.13037000  0.19843000  0.68582000  1.0
  H  H23  1  0.36964000  0.30157000  0.18582000  1.0
  H  H24  1  0.39704000  0.66812000  0.24868000  1.0
  H  H25  1  0.10296000  0.83188000  0.74868000  1.0
  H  H26  1  0.60296000  0.33188000  0.75132000  1.0
  H  H27  1  0.89703000  0.16812000  0.25132000  1.0
  H  H28  1  0.55275000  0.78096000  0.23595000  1.0
  H  H29  1  0.94725000  0.71904000  0.73595000  1.0
  H  H30  1  0.44725000  0.21904000  0.76405000  1.0
  H  H31  1  0.05275000  0.28096000  0.26405000  1.0
  H  H32  1  0.31343000  0.02083000  0.23941000  1.0
  H  H33  1  0.18656000  0.47917000  0.73941000  1.0
  H  H34  1  0.68657000  0.97917000  0.76059000  1.0
  H  H35  1  0.81343000  0.52083000  0.26059000  1.0
  H  H36  1  0.26790000  0.07280000  0.13909000  1.0
  H  H37  1  0.23209000  0.42721000  0.63910000  1.0
  H  H38  1  0.73210000  0.92720000  0.86091000  1.0
  H  H39  1  0.76790000  0.57280000  0.36091000  1.0
  C  C40  1  0.49554000  0.75828000  0.97391000  1.0
  C  C41  1  0.00446000  0.74172000  0.47391000  1.0
  C  C42  1  0.50446000  0.24172000  0.02609000  1.0
  C  C43  1  0.99554000  0.25828000  0.52609000  1.0
  C  C44  1  0.50336000  0.62482000  0.99011000  1.0
  C  C45  1  0.99664000  0.87518000  0.49011000  1.0
  C  C46  1  0.49665000  0.37517000  0.00989000  1.0
  C  C47  1  0.00336000  0.12483000  0.50989000  1.0
  C  C48  1  0.32494000  0.56869000  0.93821000  1.0
  C  C49  1  0.17506000  0.93131000  0.43820000  1.0
  C  C50  1  0.67508000  0.43131000  0.06179000  1.0
  C  C51  1  0.82493000  0.06870000  0.56179000  1.0
  C  C52  1  0.68201000  0.55516000  0.05280000  1.0
  C  C53  1  0.81799000  0.94484000  0.55279000  1.0
  C  C54  1  0.31800000  0.44484000  0.94720000  1.0
  C  C55  1  0.18201000  0.05516000  0.44720000  1.0
  C  C56  1  0.88342000  0.61070000  0.10831000  1.0
  C  C57  1  0.61658000  0.88931000  0.60830000  1.0
  C  C58  1  0.11659000  0.38930000  0.89170000  1.0
  C  C59  1  0.38341000  0.11070000  0.39169000  1.0
  O  O60  1  0.36794000  0.83614000  0.03111000  1.0
  O  O61  1  0.13206000  0.66386000  0.53111000  1.0
  O  O62  1  0.63207000  0.16385000  0.96889000  1.0
  O  O63  1  0.86793000  0.33614000  0.46889000  1.0
  O  O64  1  0.91953000  0.71509000  0.08384000  1.0
  O  O65  1  0.58047000  0.78491000  0.58384000  1.0
  O  O66  1  0.08048000  0.28490000  0.91616000  1.0
  O  O67  1  0.41953000  0.21509000  0.41616000  1.0
  O  O68  1  0.60016000  0.78988000  0.90001000  1.0
  O  O69  1  0.89983000  0.71012000  0.40000000  1.0
  O  O70  1  0.39984000  0.21011000  0.10000000  1.0
  O  O71  1  0.10015000  0.28988000  0.60000000  1.0
  O  O72  1  0.00438000  0.55222000  0.17683000  1.0
  O  O73  1  0.49562000  0.94778000  0.67682000  1.0
  O  O74  1  0.99562000  0.44778000  0.82318000  1.0
  O  O75  1  0.50438000  0.05222000  0.32317000  1.0
  O  O76  1  0.78768000  0.95672000  0.06973000  1.0
  O  O77  1  0.71232000  0.54328000  0.56973000  1.0
  O  O78  1  0.21232000  0.04328000  0.93026000  1.0
  O  O79  1  0.28768000  0.45672000  0.43027000  1.0
  O  O80  1  0.81794000  0.85365000  0.25727000  1.0
  O  O81  1  0.68206000  0.64635000  0.75727000  1.0
  O  O82  1  0.18205000  0.14635000  0.74273000  1.0
  O  O83  1  0.31794000  0.35365000  0.24273000  1.0
  O  O84  1  0.37670000  0.75205000  0.22763000  1.0
  O  O85  1  0.12330000  0.74795000  0.72763000  1.0
  O  O86  1  0.62330000  0.24795000  0.77237000  1.0
  O  O87  1  0.87670000  0.25205000  0.27237000  1.0
  O  O88  1  0.20093000  0.01581000  0.18226000  1.0
  O  O89  1  0.29906000  0.48419000  0.68226000  1.0
  O  O90  1  0.79907000  0.98419000  0.81774000  1.0
  O  O91  1  0.70094000  0.51581000  0.31774000  1.0
