# generated using pymatgen
data_MoH11C9(NO)3
_symmetry_space_group_name_H-M   'P 1'
_cell_length_a   10.34390000
_cell_length_b   10.34390000
_cell_length_c   10.48300000
_cell_angle_alpha   90.00000000
_cell_angle_beta   90.00000000
_cell_angle_gamma   106.74500000
_symmetry_Int_Tables_number   1
_chemical_formula_structural   MoH11C9(NO)3
_chemical_formula_sum   'Mo4 H44 C36 N12 O12'
_cell_volume   1074.08033605
_cell_formula_units_Z   4
loop_
 _symmetry_equiv_pos_site_id
 _symmetry_equiv_pos_as_xyz
  1  'x, y, z'
loop_
 _atom_site_type_symbol
 _atom_site_label
 _atom_site_symmetry_multiplicity
 _atom_site_fract_x
 _atom_site_fract_y
 _atom_site_fract_z
 _atom_site_occupancy
  Mo  Mo0  1  0.60157000  0.10157000  0.35951000  1.0
  Mo  Mo1  1  0.89843000  0.39843000  0.35951000  1.0
  Mo  Mo2  1  0.39843000  0.89843000  0.64049000  1.0
  Mo  Mo3  1  0.10157000  0.60157000  0.64049000  1.0
  H  H4  1  0.70967000  0.94671000  0.63903000  1.0
  H  H5  1  0.79034000  0.55328000  0.63903000  1.0
  H  H6  1  0.55328000  0.79034000  0.36097000  1.0
  H  H7  1  0.94672000  0.70966000  0.36097000  1.0
  H  H8  1  0.29033000  0.05328000  0.36097000  1.0
  H  H9  1  0.20966000  0.44672000  0.36097000  1.0
  H  H10  1  0.44672000  0.20967000  0.63903000  1.0
  H  H11  1  0.05328000  0.29034000  0.63903000  1.0
  H  H12  1  0.76327000  0.09224000  0.89555000  1.0
  H  H13  1  0.73673000  0.40776000  0.89555000  1.0
  H  H14  1  0.40776000  0.73673000  0.10445000  1.0
  H  H15  1  0.09224000  0.76327000  0.10445000  1.0
  H  H16  1  0.23673000  0.90776000  0.10445000  1.0
  H  H17  1  0.26327000  0.59224000  0.10445000  1.0
  H  H18  1  0.59224000  0.26327000  0.89555000  1.0
  H  H19  1  0.90776000  0.23673000  0.89555000  1.0
  H  H20  1  0.86771000  0.13229000  0.11264000  1.0
  H  H21  1  0.63229000  0.36771000  0.11264000  1.0
  H  H22  1  0.36771000  0.63229000  0.88736000  1.0
  H  H23  1  0.13229000  0.86771000  0.88736000  1.0
  H  H24  1  0.93436000  0.85886000  0.74025000  1.0
  H  H25  1  0.56564000  0.64114000  0.74025000  1.0
  H  H26  1  0.64114000  0.56564000  0.25975000  1.0
  H  H27  1  0.85886000  0.93436000  0.25975000  1.0
  H  H28  1  0.06564000  0.14114000  0.25975000  1.0
  H  H29  1  0.43436000  0.35886000  0.25975000  1.0
  H  H30  1  0.35886000  0.43436000  0.74025000  1.0
  H  H31  1  0.14114000  0.06564000  0.74025000  1.0
  H  H32  1  0.77960000  0.87138000  0.80632000  1.0
  H  H33  1  0.72040000  0.62862000  0.80632000  1.0
  H  H34  1  0.62862000  0.72040000  0.19368000  1.0
  H  H35  1  0.87138000  0.77960000  0.19368000  1.0
  H  H36  1  0.22040000  0.12862000  0.19368000  1.0
  H  H37  1  0.27960000  0.37138000  0.19368000  1.0
  H  H38  1  0.37138000  0.27960000  0.80632000  1.0
  H  H39  1  0.12862000  0.22040000  0.80632000  1.0
  H  H40  1  0.75605000  0.89639000  0.04534000  1.0
  H  H41  1  0.74395000  0.60361000  0.04534000  1.0
  H  H42  1  0.60361000  0.74395000  0.95466000  1.0
  H  H43  1  0.89639000  0.75605000  0.95466000  1.0
  H  H44  1  0.24395000  0.10361000  0.95466000  1.0
  H  H45  1  0.25605000  0.39639000  0.95466000  1.0
  H  H46  1  0.39639000  0.25605000  0.04534000  1.0
  H  H47  1  0.10361000  0.24395000  0.04534000  1.0
  C  C48  1  0.78665000  0.03704000  0.60854000  1.0
  C  C49  1  0.71335000  0.46296000  0.60854000  1.0
  C  C50  1  0.46296000  0.71335000  0.39146000  1.0
  C  C51  1  0.03704000  0.78665000  0.39146000  1.0
  C  C52  1  0.21335000  0.96296000  0.39146000  1.0
  C  C53  1  0.28665000  0.53704000  0.39146000  1.0
  C  C54  1  0.53704000  0.28665000  0.60854000  1.0
  C  C55  1  0.96296000  0.21335000  0.60854000  1.0
  C  C56  1  0.93939000  0.06062000  0.80266000  1.0
  C  C57  1  0.56062000  0.43939000  0.80266000  1.0
  C  C58  1  0.43939000  0.56062000  0.19734000  1.0
  C  C59  1  0.06061000  0.93939000  0.19734000  1.0
  C  C60  1  0.87384000  0.12616000  0.90664000  1.0
  C  C61  1  0.62616000  0.37384000  0.90664000  1.0
  C  C62  1  0.37384000  0.62616000  0.09336000  1.0
  C  C63  1  0.12616000  0.87384000  0.09336000  1.0
  C  C64  1  0.91439000  0.08561000  0.03795000  1.0
  C  C65  1  0.58561000  0.41439000  0.03795000  1.0
  C  C66  1  0.41439000  0.58561000  0.96205000  1.0
  C  C67  1  0.08561000  0.91439000  0.96205000  1.0
  C  C68  1  0.89016000  0.90677000  0.81567000  1.0
  C  C69  1  0.60984000  0.59323000  0.81567000  1.0
  C  C70  1  0.59323000  0.60984000  0.18433000  1.0
  C  C71  1  0.90677000  0.89016000  0.18433000  1.0
  C  C72  1  0.10984000  0.09323000  0.18433000  1.0
  C  C73  1  0.39016000  0.40677000  0.18433000  1.0
  C  C74  1  0.40677000  0.39016000  0.81567000  1.0
  C  C75  1  0.09323000  0.10984000  0.81567000  1.0
  C  C76  1  0.86682000  0.93095000  0.05323000  1.0
  C  C77  1  0.63318000  0.56904000  0.05323000  1.0
  C  C78  1  0.56904000  0.63318000  0.94677000  1.0
  C  C79  1  0.93096000  0.86682000  0.94677000  1.0
  C  C80  1  0.13318000  0.06904000  0.94677000  1.0
  C  C81  1  0.36682000  0.43096000  0.94677000  1.0
  C  C82  1  0.43096000  0.36682000  0.05323000  1.0
  C  C83  1  0.06904000  0.13317000  0.05323000  1.0
  N  N84  1  0.78058000  0.10855000  0.50557000  1.0
  N  N85  1  0.71942000  0.39144000  0.50557000  1.0
  N  N86  1  0.39144000  0.71942000  0.49443000  1.0
  N  N87  1  0.10856000  0.78058000  0.49443000  1.0
  N  N88  1  0.21942000  0.89144000  0.49443000  1.0
  N  N89  1  0.28058000  0.60856000  0.49443000  1.0
  N  N90  1  0.60856000  0.28058000  0.50557000  1.0
  N  N91  1  0.89144000  0.21942000  0.50557000  1.0
  N  N92  1  0.90024000  0.09975000  0.67567000  1.0
  N  N93  1  0.59975000  0.40025000  0.67567000  1.0
  N  N94  1  0.40024000  0.59975000  0.32433000  1.0
  N  N95  1  0.09975000  0.90025000  0.32433000  1.0
  O  O96  1  0.50000000  0.00000000  0.50000000  1.0
  O  O97  1  0.00000000  0.50000000  0.50000000  1.0
  O  O98  1  0.75000000  0.25000000  0.30283000  1.0
  O  O99  1  0.25000000  0.75000000  0.69717000  1.0
  O  O100  1  0.47104000  0.13694000  0.27669000  1.0
  O  O101  1  0.02896000  0.36306000  0.27669000  1.0
  O  O102  1  0.36307000  0.02896000  0.72331000  1.0
  O  O103  1  0.13694000  0.47104000  0.72331000  1.0
  O  O104  1  0.52896000  0.86306000  0.72331000  1.0
  O  O105  1  0.97104000  0.63693000  0.72331000  1.0
  O  O106  1  0.63694000  0.97104000  0.27669000  1.0
  O  O107  1  0.86307000  0.52896000  0.27669000  1.0
