# generated using pymatgen
data_HgH7C8SNCl2
_symmetry_space_group_name_H-M   'P 1'
_cell_length_a   7.26833000
_cell_length_b   9.76830000
_cell_length_c   14.69670000
_cell_angle_alpha   89.99980000
_cell_angle_beta   84.76180000
_cell_angle_gamma   89.99940000
_symmetry_Int_Tables_number   1
_chemical_formula_structural   HgH7C8SNCl2
_chemical_formula_sum   'Hg4 H28 C32 S4 N4 Cl8'
_cell_volume   1039.09662811
_cell_formula_units_Z   4
loop_
 _symmetry_equiv_pos_site_id
 _symmetry_equiv_pos_as_xyz
  1  'x, y, z'
loop_
 _atom_site_type_symbol
 _atom_site_label
 _atom_site_symmetry_multiplicity
 _atom_site_fract_x
 _atom_site_fract_y
 _atom_site_fract_z
 _atom_site_occupancy
  Hg  Hg0  1  0.25002000  0.93533000  0.98501000  1.0
  Hg  Hg1  1  0.75002000  0.56466000  0.48500000  1.0
  Hg  Hg2  1  0.74997000  0.06467000  0.01499000  1.0
  Hg  Hg3  1  0.24998000  0.43533000  0.51499000  1.0
  H  H4  1  0.36524000  0.65851000  0.73951000  1.0
  H  H5  1  0.86523000  0.84149000  0.23951000  1.0
  H  H6  1  0.63477000  0.34149000  0.26049000  1.0
  H  H7  1  0.13476000  0.15851000  0.76049000  1.0
  H  H8  1  0.41831000  0.80802000  0.80243000  1.0
  H  H9  1  0.91830000  0.69197000  0.30242000  1.0
  H  H10  1  0.58170000  0.19198000  0.19758000  1.0
  H  H11  1  0.08169000  0.30803000  0.69757000  1.0
  H  H12  1  0.18638000  0.77248000  0.78236000  1.0
  H  H13  1  0.68637000  0.72753000  0.28238000  1.0
  H  H14  1  0.81363000  0.22753000  0.21763000  1.0
  H  H15  1  0.31362000  0.27248000  0.71763000  1.0
  H  H16  1  0.24086000  0.26073000  0.04368000  1.0
  H  H17  1  0.74085000  0.23927000  0.54369000  1.0
  H  H18  1  0.75915000  0.73928000  0.95632000  1.0
  H  H19  1  0.25914000  0.76073000  0.45632000  1.0
  H  H20  1  0.17175000  0.31362000  0.20883000  1.0
  H  H21  1  0.67175000  0.18637000  0.70884000  1.0
  H  H22  1  0.82825000  0.68638000  0.79116000  1.0
  H  H23  1  0.32826000  0.81362000  0.29117000  1.0
  H  H24  1  0.14802000  0.55197000  0.26311000  1.0
  H  H25  1  0.64803000  0.94802000  0.76312000  1.0
  H  H26  1  0.85196000  0.44803000  0.73689000  1.0
  H  H27  1  0.35197000  0.05197000  0.23688000  1.0
  H  H28  1  0.18024000  0.74792000  0.15212000  1.0
  H  H29  1  0.68025000  0.75207000  0.65212000  1.0
  H  H30  1  0.81975000  0.25209000  0.84788000  1.0
  H  H31  1  0.31975000  0.24792000  0.34788000  1.0
  C  C32  1  0.29131000  0.64847000  0.88415000  1.0
  C  C33  1  0.79132000  0.85153000  0.38415000  1.0
  C  C34  1  0.70869000  0.35154000  0.11585000  1.0
  C  C35  1  0.20868000  0.14847000  0.61585000  1.0
  C  C36  1  0.31784000  0.72511000  0.79691000  1.0
  C  C37  1  0.81784000  0.77489000  0.29691000  1.0
  C  C38  1  0.68216000  0.27490000  0.20309000  1.0
  C  C39  1  0.18216000  0.22511000  0.70309000  1.0
  C  C40  1  0.23314000  0.61276000  0.03614000  1.0
  C  C41  1  0.73314000  0.88724000  0.53614000  1.0
  C  C42  1  0.76686000  0.38725000  0.96386000  1.0
  C  C43  1  0.26686000  0.11276000  0.46386000  1.0
  C  C44  1  0.25113000  0.47536000  0.00585000  1.0
  C  C45  1  0.75113000  0.02463000  0.50585000  1.0
  C  C46  1  0.74888000  0.52465000  0.99415000  1.0
  C  C47  1  0.24887000  0.97536000  0.49415000  1.0
  C  C48  1  0.22933000  0.36612000  0.06734000  1.0
  C  C49  1  0.72933000  0.13387000  0.56735000  1.0
  C  C50  1  0.77067000  0.63388000  0.93266000  1.0
  C  C51  1  0.27067000  0.86612000  0.43266000  1.0
  C  C52  1  0.19142000  0.39687000  0.15958000  1.0
  C  C53  1  0.69141000  0.10312000  0.65958000  1.0
  C  C54  1  0.80858000  0.60314000  0.84042000  1.0
  C  C55  1  0.30859000  0.89687000  0.34042000  1.0
  C  C56  1  0.17560000  0.53306000  0.19017000  1.0
  C  C57  1  0.67561000  0.96693000  0.69017000  1.0
  C  C58  1  0.82440000  0.46694000  0.80983000  1.0
  C  C59  1  0.32440000  0.03306000  0.30982000  1.0
  C  C60  1  0.19502000  0.64198000  0.12924000  1.0
  C  C61  1  0.69503000  0.85801000  0.62924000  1.0
  C  C62  1  0.80497000  0.35802000  0.87076000  1.0
  C  C63  1  0.30497000  0.14199000  0.37076000  1.0
  S  S64  1  0.29971000  0.47229000  0.88805000  1.0
  S  S65  1  0.79971000  0.02771000  0.38805000  1.0
  S  S66  1  0.70030000  0.52771000  0.11195000  1.0
  S  S67  1  0.20028000  0.97229000  0.61195000  1.0
  N  N68  1  0.25688000  0.70662000  0.96508000  1.0
  N  N69  1  0.75690000  0.79338000  0.46508000  1.0
  N  N70  1  0.74311000  0.29339000  0.03492000  1.0
  N  N71  1  0.24311000  0.20662000  0.53492000  1.0
  Cl  Cl72  1  0.44013000  0.11407000  0.90223000  1.0
  Cl  Cl73  1  0.94013000  0.38593000  0.40223000  1.0
  Cl  Cl74  1  0.55987000  0.88593000  0.09777000  1.0
  Cl  Cl75  1  0.05987000  0.61407000  0.59777000  1.0
  Cl  Cl76  1  0.04887000  0.02529000  0.12289000  1.0
  Cl  Cl77  1  0.54888000  0.47471000  0.62288000  1.0
  Cl  Cl78  1  0.95113000  0.97472000  0.87712000  1.0
  Cl  Cl79  1  0.45113000  0.52529000  0.37711000  1.0
