# generated using pymatgen
data_Al6H25C75O29F3
_symmetry_space_group_name_H-M   'P 1'
_cell_length_a   12.44490000
_cell_length_b   12.50610000
_cell_length_c   28.76500000
_cell_angle_alpha   89.35340000
_cell_angle_beta   88.96910000
_cell_angle_gamma   61.69660000
_symmetry_Int_Tables_number   1
_chemical_formula_structural   Al6H25C75O29F3
_chemical_formula_sum   'Al6 H25 C75 O29 F3'
_cell_volume   3941.02846294
_cell_formula_units_Z   1
loop_
 _symmetry_equiv_pos_site_id
 _symmetry_equiv_pos_as_xyz
  1  'x, y, z'
loop_
 _atom_site_type_symbol
 _atom_site_label
 _atom_site_symmetry_multiplicity
 _atom_site_fract_x
 _atom_site_fract_y
 _atom_site_fract_z
 _atom_site_occupancy
  Al  Al0  1  0.59103000  0.59589000  0.50193000  1.0
  Al  Al1  1  0.58074000  0.34340000  0.50074000  1.0
  Al  Al2  1  0.34307000  0.57470000  0.50098000  1.0
  Al  Al3  1  0.06836000  0.07791000  0.00310000  1.0
  Al  Al4  1  0.32233000  0.08750000  0.99962000  1.0
  Al  Al5  1  0.08993000  0.32422000  0.99941000  1.0
  H  H6  1  0.54009000  0.20975000  0.78026000  1.0
  H  H7  1  0.28840000  0.67653000  0.28415000  1.0
  H  H8  1  0.43661000  0.12063000  0.71440000  1.0
  H  H9  1  0.28146000  0.71222000  0.19861000  1.0
  H  H10  1  0.37248000  0.00084000  0.21945000  1.0
  H  H11  1  0.37693000  0.96658000  0.30506000  1.0
  H  H12  1  0.04343000  0.19905000  0.21483000  1.0
  H  H13  1  0.66794000  0.47565000  0.20475000  1.0
  H  H14  1  0.64667000  0.47542000  0.29063000  1.0
  H  H15  1  0.45006000  0.43144000  0.72925000  1.0
  H  H16  1  0.23286000  0.52778000  0.78285000  1.0
  H  H17  1  0.36651000  0.97175000  0.69527000  1.0
  H  H18  1  0.12806000  0.43867000  0.71717000  1.0
  H  H19  1  0.21664000  0.21808000  0.76813000  1.0
  H  H20  1  0.36257000  0.00341000  0.78110000  1.0
  H  H21  1  0.13546000  0.12022000  0.28385000  1.0
  H  H22  1  0.96073000  0.37694000  0.69599000  1.0
  H  H23  1  0.99565000  0.37240000  0.78127000  1.0
  H  H24  1  0.69840000  0.29327000  0.80755000  1.0
  H  H25  1  0.66374000  0.29768000  0.72229000  1.0
  H  H26  1  0.23846000  0.25051000  0.30542000  1.0
  H  H27  1  0.21782000  0.23339000  0.22031000  1.0
  H  H28  1  0.43895000  0.41060000  0.19386000  1.0
  H  H29  1  0.70722000  0.68686000  0.47496000  1.0
  H  H30  1  0.95516000  0.98559000  0.97700000  1.0
  C  C31  1  0.71274000  0.38435000  0.56828000  1.0
  C  C32  1  0.35134000  0.34443000  0.65228000  1.0
  C  C33  1  0.34324000  0.77093000  0.61238000  1.0
  C  C34  1  0.38733000  0.38194000  0.56411000  1.0
  C  C35  1  0.30102000  0.75042000  0.73274000  1.0
  C  C36  1  0.29942000  0.76747000  0.78042000  1.0
  C  C37  1  0.34548000  0.93251000  0.76705000  1.0
  C  C38  1  0.34744000  0.91521000  0.71953000  1.0
  C  C39  1  0.32567000  0.82306000  0.70124000  1.0
  C  C40  1  0.32128000  0.85897000  0.79867000  1.0
  C  C41  1  0.31485000  0.87914000  0.84699000  1.0
  C  C42  1  0.36210000  0.35585000  0.61051000  1.0
  C  C43  1  0.33261000  0.79846000  0.65328000  1.0
  C  C44  1  0.30541000  0.90217000  0.88832000  1.0
  C  C45  1  0.76200000  0.35487000  0.61435000  1.0
  C  C46  1  0.37499000  0.71698000  0.56687000  1.0
  C  C47  1  0.90407000  0.35837000  0.72064000  1.0
  C  C48  1  0.92333000  0.35589000  0.76805000  1.0
  C  C49  1  0.75550000  0.31133000  0.78292000  1.0
  C  C50  1  0.73624000  0.31383000  0.73552000  1.0
  C  C51  1  0.80996000  0.33759000  0.70363000  1.0
  C  C52  1  0.84967000  0.33200000  0.79994000  1.0
  C  C53  1  0.26899000  0.26529000  0.75904000  1.0
  C  C54  1  0.87310000  0.32551000  0.84806000  1.0
  C  C55  1  0.78644000  0.34445000  0.65550000  1.0
  C  C56  1  0.89747000  0.31644000  0.88922000  1.0
  C  C57  1  0.37287000  0.36295000  0.38776000  1.0
  C  C58  1  0.72535000  0.38388000  0.43642000  1.0
  C  C59  1  0.28191000  0.28493000  0.28062000  1.0
  C  C60  1  0.27076000  0.27530000  0.23311000  1.0
  C  C61  1  0.39415000  0.37528000  0.21760000  1.0
  C  C62  1  0.40322000  0.38423000  0.26512000  1.0
  C  C63  1  0.34891000  0.34009000  0.29814000  1.0
  C  C64  1  0.32709000  0.31532000  0.79643000  1.0
  C  C65  1  0.32673000  0.32008000  0.20082000  1.0
  C  C66  1  0.31457000  0.30980000  0.15232000  1.0
  C  C67  1  0.36143000  0.35182000  0.34638000  1.0
  C  C68  1  0.30231000  0.30013000  0.11087000  1.0
  C  C69  1  0.34945000  0.76998000  0.38964000  1.0
  C  C70  1  0.39543000  0.38726000  0.43448000  1.0
  C  C71  1  0.30587000  0.74777000  0.26970000  1.0
  C  C72  1  0.30275000  0.76713000  0.22209000  1.0
  C  C73  1  0.35356000  0.93042000  0.23385000  1.0
  C  C74  1  0.35619000  0.91135000  0.28152000  1.0
  C  C75  1  0.21949000  0.38761000  0.73155000  1.0
  C  C76  1  0.33260000  0.81956000  0.30014000  1.0
  C  C77  1  0.32640000  0.85888000  0.20343000  1.0
  C  C78  1  0.31972000  0.88141000  0.15503000  1.0
  C  C79  1  0.33950000  0.79583000  0.34844000  1.0
  C  C80  1  0.31039000  0.90373000  0.11351000  1.0
  C  C81  1  0.78115000  0.35584000  0.39109000  1.0
  C  C82  1  0.37957000  0.71792000  0.43542000  1.0
  C  C83  1  0.94650000  0.26243000  0.27983000  1.0
  C  C84  1  0.95667000  0.26101000  0.23147000  1.0
  C  C85  1  0.74565000  0.41581000  0.22583000  1.0
  C  C86  1  0.34097000  0.33323000  0.70098000  1.0
  C  C87  1  0.73386000  0.41621000  0.27388000  1.0
  C  C88  1  0.83342000  0.34021000  0.30191000  1.0
  C  C89  1  0.85761000  0.33797000  0.20373000  1.0
  C  C90  1  0.87396000  0.33418000  0.15490000  1.0
  C  C91  1  0.81430000  0.34351000  0.35048000  1.0
  C  C92  1  0.89676000  0.32378000  0.11336000  1.0
  C  C93  1  0.27658000  0.95191000  0.93454000  1.0
  C  C94  1  0.39072000  0.21096000  0.73006000  1.0
  C  C95  1  0.28495000  0.27199000  0.93422000  1.0
  C  C96  1  0.94749000  0.29014000  0.93514000  1.0
  C  C97  1  0.27743000  0.43748000  0.76735000  1.0
  C  C98  1  0.28349000  0.95156000  0.06705000  1.0
  C  C99  1  0.27683000  0.27813000  0.06425000  1.0
  C  C100  1  0.94739000  0.29071000  0.06715000  1.0
  C  C101  1  0.44867000  0.26087000  0.76587000  1.0
  C  C102  1  0.30816000  0.29508000  0.88716000  1.0
  C  C103  1  0.05671000  0.18334000  0.30622000  1.0
  C  C104  1  0.39895000  0.38319000  0.73843000  1.0
  C  C105  1  0.31768000  0.30474000  0.84518000  1.0
  O  O106  1  0.47705000  0.69749000  0.55034000  1.0
  O  O107  1  0.18792000  0.35177000  0.95444000  1.0
  O  O108  1  0.97849000  0.36688000  0.95180000  1.0
  O  O109  1  0.68821000  0.48791000  0.55270000  1.0
  O  O110  1  0.97476000  0.18470000  0.05434000  1.0
  O  O111  1  0.18216000  0.97245000  0.05058000  1.0
  O  O112  1  0.36444000  0.97392000  0.04694000  1.0
  O  O113  1  0.35442000  0.18007000  0.04467000  1.0
  O  O114  1  0.17498000  0.35574000  0.04720000  1.0
  O  O115  1  0.96570000  0.36954000  0.04393000  1.0
  O  O116  1  0.16132000  0.16411000  0.00047000  1.0
  O  O117  1  0.49615000  0.31122000  0.45263000  1.0
  O  O118  1  0.69357000  0.30365000  0.54794000  1.0
  O  O119  1  0.48904000  0.30652000  0.54530000  1.0
  O  O120  1  0.30932000  0.48197000  0.54566000  1.0
  O  O121  1  0.29827000  0.68892000  0.54840000  1.0
  O  O122  1  0.48312000  0.69400000  0.45054000  1.0
  O  O123  1  0.69854000  0.48711000  0.45261000  1.0
  O  O124  1  0.70253000  0.30321000  0.45582000  1.0
  O  O125  1  0.06657000  0.18443000  0.34845000  1.0
  O  O126  1  0.31578000  0.48613000  0.45302000  1.0
  O  O127  1  0.29969000  0.69527000  0.45625000  1.0
  O  O128  1  0.50390000  0.50359000  0.50113000  1.0
  O  O129  1  0.96186000  0.19319000  0.95444000  1.0
  O  O130  1  0.17126000  0.98000000  0.95018000  1.0
  O  O131  1  0.35917000  0.96817000  0.95477000  1.0
  O  O132  1  0.36039000  0.16965000  0.95204000  1.0
  O  O133  1  0.66905000  0.68076000  0.50370000  1.0
  O  O134  1  0.98463000  0.99871000  0.00611000  1.0
  F  F135  1  0.46740000  0.43905000  0.28076000  1.0
  F  F136  1  0.27963000  0.66126000  0.71664000  1.0
  F  F137  1  0.27637000  0.69460000  0.80932000  1.0
