# generated using pymatgen
data_AgH10C7N3O2
_symmetry_space_group_name_H-M   'P 1'
_cell_length_a   8.23213000
_cell_length_b   10.47860000
_cell_length_c   11.22520000
_cell_angle_alpha   110.94700000
_cell_angle_beta   100.19100000
_cell_angle_gamma   102.59800000
_symmetry_Int_Tables_number   1
_chemical_formula_structural   AgH10C7N3O2
_chemical_formula_sum   'Ag4 H40 C28 N12 O8'
_cell_volume   847.31580364
_cell_formula_units_Z   4
loop_
 _symmetry_equiv_pos_site_id
 _symmetry_equiv_pos_as_xyz
  1  'x, y, z'
loop_
 _atom_site_type_symbol
 _atom_site_label
 _atom_site_symmetry_multiplicity
 _atom_site_fract_x
 _atom_site_fract_y
 _atom_site_fract_z
 _atom_site_occupancy
  Ag  Ag0  1  0.43295000  0.14709000  0.36061000  1.0
  Ag  Ag1  1  0.56705000  0.85291000  0.63939000  1.0
  Ag  Ag2  1  0.11808000  0.14475000  0.18065000  1.0
  Ag  Ag3  1  0.88193000  0.85525000  0.81935000  1.0
  H  H4  1  0.63995000  0.25938000  0.75533000  1.0
  H  H5  1  0.36006000  0.74063000  0.24467000  1.0
  H  H6  1  0.63039000  0.12097000  0.60732000  1.0
  H  H7  1  0.36961000  0.87904000  0.39268000  1.0
  H  H8  1  0.46842000  0.35984000  0.60070000  1.0
  H  H9  1  0.53157000  0.64016000  0.39930000  1.0
  H  H10  1  0.30893000  0.03779000  0.53750000  1.0
  H  H11  1  0.69107000  0.96220000  0.46249000  1.0
  H  H12  1  0.19165000  0.16142000  0.50880000  1.0
  H  H13  1  0.80835000  0.83858000  0.49120000  1.0
  H  H14  1  0.82592000  0.48821000  0.83546000  1.0
  H  H15  1  0.17408000  0.51179000  0.16454000  1.0
  H  H16  1  0.99220000  0.51838000  0.76098000  1.0
  H  H17  1  0.00780000  0.48162000  0.23902000  1.0
  H  H18  1  0.09158000  0.45051000  0.95270000  1.0
  H  H19  1  0.90842000  0.54949000  0.04730000  1.0
  H  H20  1  0.94286000  0.15649000  0.71402000  1.0
  H  H21  1  0.05715000  0.84351000  0.28598000  1.0
  H  H22  1  0.10265000  0.20900000  0.87620000  1.0
  H  H23  1  0.89734000  0.79100000  0.12380000  1.0
  H  H24  1  0.39750000  0.83726000  0.89818000  1.0
  H  H25  1  0.60250000  0.16274000  0.10182000  1.0
  H  H26  1  0.18716000  0.72946000  0.86861000  1.0
  H  H27  1  0.81285000  0.27055000  0.13139000  1.0
  H  H28  1  0.30272000  0.62627000  0.02493000  1.0
  H  H29  1  0.69728000  0.37373000  0.97507000  1.0
  H  H30  1  0.51501000  0.73670000  0.05670000  1.0
  H  H31  1  0.48499000  0.26330000  0.94330000  1.0
  H  H32  1  0.45903000  0.48853000  0.88722000  1.0
  H  H33  1  0.54097000  0.51147000  0.11278000  1.0
  H  H34  1  0.28947000  0.50924000  0.78040000  1.0
  H  H35  1  0.71053000  0.49076000  0.21960000  1.0
  H  H36  1  0.62190000  0.97677000  0.20613000  1.0
  H  H37  1  0.37810000  0.02323000  0.79387000  1.0
  H  H38  1  0.79626000  0.00675000  0.13986000  1.0
  H  H39  1  0.20374000  0.99325000  0.86014000  1.0
  H  H40  1  0.30643000  0.50550000  0.55292000  1.0
  H  H41  1  0.69357000  0.49450000  0.44708000  1.0
  H  H42  1  0.29523000  0.38944000  0.39117000  1.0
  H  H43  1  0.70477000  0.61056000  0.60883000  1.0
  C  C44  1  0.83553000  0.14386000  0.33108000  1.0
  C  C45  1  0.16447000  0.85614000  0.66892000  1.0
  C  C46  1  0.07905000  0.33981000  0.45353000  1.0
  C  C47  1  0.92095000  0.66019000  0.54647000  1.0
  C  C48  1  0.85678000  0.29492000  0.54280000  1.0
  C  C49  1  0.14322000  0.70508000  0.45720000  1.0
  C  C50  1  0.63371000  0.23387000  0.65045000  1.0
  C  C51  1  0.36629000  0.76614000  0.34955000  1.0
  C  C52  1  0.46819000  0.25077000  0.58546000  1.0
  C  C53  1  0.53181000  0.74923000  0.41454000  1.0
  C  C54  1  0.31481000  0.14182000  0.53450000  1.0
  C  C55  1  0.68519000  0.85818000  0.46550000  1.0
  C  C56  1  0.90578000  0.43478000  0.77800000  1.0
  C  C57  1  0.09421000  0.56522000  0.22200000  1.0
  C  C58  1  0.01131000  0.37370000  0.85375000  1.0
  C  C59  1  0.98869000  0.62630000  0.14625000  1.0
  C  C60  1  0.01866000  0.23945000  0.81193000  1.0
  C  C61  1  0.98134000  0.76055000  0.18808000  1.0
  C  C62  1  0.28907000  0.90755000  0.05740000  1.0
  C  C63  1  0.71093000  0.09245000  0.94260000  1.0
  C  C64  1  0.31267000  0.78581000  0.94474000  1.0
  C  C65  1  0.68733000  0.21419000  0.05525000  1.0
  C  C66  1  0.38890000  0.68014000  0.98132000  1.0
  C  C67  1  0.61110000  0.31986000  0.01868000  1.0
  C  C68  1  0.41265000  0.56718000  0.85883000  1.0
  C  C69  1  0.58735000  0.43282000  0.14117000  1.0
  C  C70  1  0.54791000  0.63975000  0.80735000  1.0
  C  C71  1  0.45209000  0.36025000  0.19265000  1.0
  N  N72  1  0.99600000  0.21992000  0.33815000  1.0
  N  N73  1  0.00400000  0.78008000  0.66185000  1.0
  N  N74  1  0.01592000  0.37708000  0.55899000  1.0
  N  N75  1  0.98408000  0.62292000  0.44101000  1.0
  N  N76  1  0.75622000  0.18116000  0.42856000  1.0
  N  N77  1  0.24378000  0.81884000  0.57144000  1.0
  N  N78  1  0.75206000  0.02209000  0.22192000  1.0
  N  N79  1  0.24794000  0.97792000  0.77808000  1.0
  N  N80  1  0.23446000  0.42187000  0.46352000  1.0
  N  N81  1  0.76554000  0.57813000  0.53648000  1.0
  N  N82  1  0.79239000  0.32759000  0.64968000  1.0
  N  N83  1  0.20761000  0.67241000  0.35032000  1.0
  O  O84  1  0.38963000  0.95039000  0.17382000  1.0
  O  O85  1  0.61037000  0.04961000  0.82618000  1.0
  O  O86  1  0.17395000  0.96330000  0.02755000  1.0
  O  O87  1  0.82605000  0.03670000  0.97245000  1.0
  O  O88  1  0.70062000  0.69888000  0.88372000  1.0
  O  O89  1  0.29938000  0.30112000  0.11628000  1.0
  O  O90  1  0.49872000  0.63944000  0.69153000  1.0
  O  O91  1  0.50129000  0.36056000  0.30847000  1.0
