# generated using pymatgen
data_CdH20C20(N7O)2
_symmetry_space_group_name_H-M   'P 1'
_cell_length_a   5.53527000
_cell_length_b   14.83890000
_cell_length_c   15.59900000
_cell_angle_alpha   116.77200000
_cell_angle_beta   90.00000000
_cell_angle_gamma   90.00000000
_symmetry_Int_Tables_number   1
_chemical_formula_structural   CdH20C20(N7O)2
_chemical_formula_sum   'Cd2 H40 C40 N28 O4'
_cell_volume   1143.91670344
_cell_formula_units_Z   2
loop_
 _symmetry_equiv_pos_site_id
 _symmetry_equiv_pos_as_xyz
  1  'x, y, z'
loop_
 _atom_site_type_symbol
 _atom_site_label
 _atom_site_symmetry_multiplicity
 _atom_site_fract_x
 _atom_site_fract_y
 _atom_site_fract_z
 _atom_site_occupancy
  Cd  Cd0  1  0.00001000  0.00000000  0.00000000  1.0
  Cd  Cd1  1  0.50000000  0.50000000  0.50000000  1.0
  H  H2  1  0.61421000  0.08046000  0.86340000  1.0
  H  H3  1  0.11421000  0.41954000  0.63660000  1.0
  H  H4  1  0.38582000  0.91954000  0.13660000  1.0
  H  H5  1  0.88580000  0.58046000  0.36340000  1.0
  H  H6  1  0.81570000  0.78200000  0.79192000  1.0
  H  H7  1  0.31570000  0.71800000  0.70808000  1.0
  H  H8  1  0.18431000  0.21800000  0.20807000  1.0
  H  H9  1  0.68429000  0.28200000  0.29193000  1.0
  H  H10  1  0.17067000  0.99386000  0.74310000  1.0
  H  H11  1  0.67068000  0.50614000  0.75690000  1.0
  H  H12  1  0.82934000  0.00614000  0.25691000  1.0
  H  H13  1  0.32931000  0.49386000  0.24310000  1.0
  H  H14  1  0.27447000  0.89244000  0.63453000  1.0
  H  H15  1  0.77448000  0.60755000  0.86547000  1.0
  H  H16  1  0.72553000  0.10756000  0.36547000  1.0
  H  H17  1  0.22550000  0.39245000  0.13453000  1.0
  H  H18  1  0.11282000  0.13664000  0.72047000  1.0
  H  H19  1  0.61284000  0.36335000  0.77953000  1.0
  H  H20  1  0.88717000  0.86335000  0.27953000  1.0
  H  H21  1  0.38716000  0.63665000  0.22046000  1.0
  H  H22  1  0.24756000  0.25876000  0.66254000  1.0
  H  H23  1  0.74759000  0.24124000  0.83746000  1.0
  H  H24  1  0.75242000  0.74124000  0.33746000  1.0
  H  H25  1  0.25242000  0.75876000  0.16254000  1.0
  H  H26  1  0.88833000  0.08140000  0.54419000  1.0
  H  H27  1  0.38835000  0.41860000  0.95582000  1.0
  H  H28  1  0.11166000  0.91860000  0.45582000  1.0
  H  H29  1  0.61164000  0.58140000  0.04418000  1.0
  H  H30  1  0.74923000  0.95677000  0.59879000  1.0
  H  H31  1  0.24923000  0.54323000  0.90121000  1.0
  H  H32  1  0.25077000  0.04323000  0.40122000  1.0
  H  H33  1  0.75077000  0.45677000  0.09878000  1.0
  H  H34  1  0.60056000  0.15349000  0.06005000  1.0
  H  H35  1  0.10053000  0.34651000  0.43995000  1.0
  H  H36  1  0.39947000  0.84651000  0.93995000  1.0
  H  H37  1  0.89946000  0.65349000  0.56005000  1.0
  H  H38  1  0.83589000  0.20368000  0.11871000  1.0
  H  H39  1  0.33586000  0.29633000  0.38130000  1.0
  H  H40  1  0.16412000  0.79633000  0.88130000  1.0
  H  H41  1  0.66413000  0.70367000  0.61870000  1.0
  C  C42  1  0.62749000  0.99898000  0.82927000  1.0
  C  C43  1  0.12748000  0.50103000  0.67073000  1.0
  C  C44  1  0.37255000  0.00102000  0.17073000  1.0
  C  C45  1  0.87251000  0.49898000  0.32928000  1.0
  C  C46  1  0.73065000  0.84742000  0.79090000  1.0
  C  C47  1  0.23064000  0.65259000  0.70910000  1.0
  C  C48  1  0.26937000  0.15258000  0.20909000  1.0
  C  C49  1  0.76935000  0.34742000  0.29091000  1.0
  C  C50  1  0.32867000  0.96340000  0.69600000  1.0
  C  C51  1  0.82868000  0.53660000  0.80400000  1.0
  C  C52  1  0.67134000  0.03660000  0.30400000  1.0
  C  C53  1  0.17133000  0.46340000  0.19600000  1.0
  C  C54  1  0.42103000  0.03884000  0.66385000  1.0
  C  C55  1  0.92104000  0.46116000  0.83614000  1.0
  C  C56  1  0.57896000  0.96116000  0.33614000  1.0
  C  C57  1  0.07893000  0.53884000  0.16386000  1.0
  C  C58  1  0.28268000  0.12424000  0.68147000  1.0
  C  C59  1  0.78270000  0.37575000  0.81852000  1.0
  C  C60  1  0.71730000  0.87575000  0.31852000  1.0
  C  C61  1  0.21731000  0.62425000  0.18148000  1.0
  C  C62  1  0.35888000  0.19321000  0.64930000  1.0
  C  C63  1  0.85892000  0.30679000  0.85070000  1.0
  C  C64  1  0.64111000  0.80678000  0.35069000  1.0
  C  C65  1  0.14109000  0.69321000  0.14930000  1.0
  C  C66  1  0.57825000  0.17835000  0.59966000  1.0
  C  C67  1  0.07826000  0.32165000  0.90034000  1.0
  C  C68  1  0.42173000  0.82164000  0.40033000  1.0
  C  C69  1  0.92173000  0.67836000  0.09966000  1.0
  C  C70  1  0.71817000  0.09284000  0.58270000  1.0
  C  C71  1  0.21818000  0.40716000  0.91731000  1.0
  C  C72  1  0.28183000  0.90716000  0.41731000  1.0
  C  C73  1  0.78183000  0.59284000  0.08270000  1.0
  C  C74  1  0.64016000  0.02363000  0.61402000  1.0
  C  C75  1  0.14017000  0.47638000  0.88598000  1.0
  C  C76  1  0.35983000  0.97637000  0.38598000  1.0
  C  C77  1  0.85980000  0.52362000  0.11402000  1.0
  C  C78  1  0.66011000  0.25030000  0.56569000  1.0
  C  C79  1  0.16012000  0.24969000  0.93431000  1.0
  C  C80  1  0.33988000  0.74969000  0.43431000  1.0
  C  C81  1  0.83989000  0.75031000  0.06569000  1.0
  N  N82  1  0.76709000  0.94443000  0.85829000  1.0
  N  N83  1  0.26709000  0.55558000  0.64171000  1.0
  N  N84  1  0.23292000  0.05557000  0.14170000  1.0
  N  N85  1  0.73292000  0.44443000  0.35830000  1.0
  N  N86  1  0.51179000  0.93695000  0.74843000  1.0
  N  N87  1  0.01179000  0.56305000  0.75157000  1.0
  N  N88  1  0.48823000  0.06305000  0.25157000  1.0
  N  N89  1  0.98821000  0.43695000  0.24843000  1.0
  N  N90  1  0.57791000  0.83949000  0.72219000  1.0
  N  N91  1  0.07790000  0.66051000  0.77781000  1.0
  N  N92  1  0.42210000  0.16051000  0.27780000  1.0
  N  N93  1  0.92208000  0.33949000  0.22219000  1.0
  N  N94  1  0.54888000  0.33866000  0.58598000  1.0
  N  N95  1  0.04890000  0.16134000  0.91402000  1.0
  N  N96  1  0.45111000  0.66133000  0.41402000  1.0
  N  N97  1  0.95111000  0.83867000  0.08598000  1.0
  N  N98  1  0.85445000  0.23615000  0.50799000  1.0
  N  N99  1  0.35446000  0.26385000  0.99201000  1.0
  N  N100  1  0.14554000  0.76385000  0.49201000  1.0
  N  N101  1  0.64554000  0.73616000  0.00798000  1.0
  N  N102  1  0.67822000  0.37866000  0.53921000  1.0
  N  N103  1  0.17824000  0.12134000  0.96079000  1.0
  N  N104  1  0.32177000  0.62134000  0.46080000  1.0
  N  N105  1  0.82177000  0.87866000  0.03920000  1.0
  N  N106  1  0.85989000  0.31733000  0.49225000  1.0
  N  N107  1  0.35992000  0.18267000  0.00775000  1.0
  N  N108  1  0.14009000  0.68266000  0.50775000  1.0
  N  N109  1  0.64010000  0.81734000  0.99224000  1.0
  O  O110  1  0.74571000  0.13967000  0.09164000  1.0
  O  O111  1  0.24567000  0.36032000  0.40837000  1.0
  O  O112  1  0.25432000  0.86033000  0.90836000  1.0
  O  O113  1  0.75432000  0.63967000  0.59163000  1.0
