# generated using pymatgen
data_CdH22C26(NO)4
_symmetry_space_group_name_H-M   'P 1'
_cell_length_a   5.03567000
_cell_length_b   8.99172000
_cell_length_c   12.80830000
_cell_angle_alpha   102.57800000
_cell_angle_beta   91.12550000
_cell_angle_gamma   100.78400000
_symmetry_Int_Tables_number   1
_chemical_formula_structural   CdH22C26(NO)4
_chemical_formula_sum   'Cd1 H22 C26 N4 O4'
_cell_volume   554.93228349
_cell_formula_units_Z   1
loop_
 _symmetry_equiv_pos_site_id
 _symmetry_equiv_pos_as_xyz
  1  'x, y, z'
loop_
 _atom_site_type_symbol
 _atom_site_label
 _atom_site_symmetry_multiplicity
 _atom_site_fract_x
 _atom_site_fract_y
 _atom_site_fract_z
 _atom_site_occupancy
  Cd  Cd0  1  0.00000000  0.00000000  0.50000000  1.0
  H  H1  1  0.32648000  0.23776000  0.37847000  1.0
  H  H2  1  0.67352000  0.76225000  0.62153000  1.0
  H  H3  1  0.01758000  0.17554000  0.05188000  1.0
  H  H4  1  0.98243000  0.82445000  0.94812000  1.0
  H  H5  1  0.60923000  0.99502000  0.09536000  1.0
  H  H6  1  0.39077000  0.00497000  0.90464000  1.0
  H  H7  1  0.58495000  0.94821000  0.28232000  1.0
  H  H8  1  0.41505000  0.05180000  0.71769000  1.0
  H  H9  1  0.58802000  0.37878000  0.26833000  1.0
  H  H10  1  0.41197000  0.62122000  0.73167000  1.0
  H  H11  1  0.70658000  0.62664000  0.25085000  1.0
  H  H12  1  0.29341000  0.37335000  0.74915000  1.0
  H  H13  1  0.12756000  0.80889000  0.23780000  1.0
  H  H14  1  0.87244000  0.19111000  0.76220000  1.0
  H  H15  1  0.39780000  0.76283000  0.07574000  1.0
  H  H16  1  0.60220000  0.23716000  0.92426000  1.0
  H  H17  1  0.80499000  0.44556000  0.66303000  1.0
  H  H18  1  0.19505000  0.55448000  0.33697000  1.0
  H  H19  1  0.68095000  0.46083000  0.53546000  1.0
  H  H20  1  0.31904000  0.53919000  0.46453000  1.0
  H  H21  1  0.96339000  0.36667000  0.54844000  1.0
  H  H22  1  0.03664000  0.63335000  0.45154000  1.0
  C  C23  1  0.17230000  0.18628000  0.31306000  1.0
  C  C24  1  0.82770000  0.81372000  0.68694000  1.0
  C  C25  1  0.20368000  0.22153000  0.21215000  1.0
  C  C26  1  0.79632000  0.77847000  0.78785000  1.0
  C  C27  1  0.99872000  0.15012000  0.13114000  1.0
  C  C28  1  0.00128000  0.84988000  0.86886000  1.0
  C  C29  1  0.77426000  0.05087000  0.15548000  1.0
  C  C30  1  0.22572000  0.94912000  0.84453000  1.0
  C  C31  1  0.75865000  0.02338000  0.25869000  1.0
  C  C32  1  0.24136000  0.97662000  0.74131000  1.0
  C  C33  1  0.44744000  0.32882000  0.19666000  1.0
  C  C34  1  0.55256000  0.67118000  0.80335000  1.0
  C  C35  1  0.73321000  0.47097000  0.09911000  1.0
  C  C36  1  0.26678000  0.52902000  0.90088000  1.0
  C  C37  1  0.82181000  0.60352000  0.17997000  1.0
  C  C38  1  0.17818000  0.39648000  0.82003000  1.0
  C  C39  1  0.05962000  0.70946000  0.17127000  1.0
  C  C40  1  0.94038000  0.29054000  0.82873000  1.0
  C  C41  1  0.20862000  0.68479000  0.08197000  1.0
  C  C42  1  0.79138000  0.31520000  0.91803000  1.0
  C  C43  1  0.87874000  0.44573000  0.00364000  1.0
  C  C44  1  0.12125000  0.55426000  0.99636000  1.0
  C  C45  1  0.57356000  0.23263000  0.57236000  1.0
  C  C46  1  0.42645000  0.76739000  0.42764000  1.0
  C  C47  1  0.76688000  0.38561000  0.57792000  1.0
  C  C48  1  0.23308000  0.61437000  0.42206000  1.0
  N  N49  1  0.95635000  0.08951000  0.33618000  1.0
  N  N50  1  0.04364000  0.91048000  0.66382000  1.0
  N  N51  1  0.50076000  0.36153000  0.10549000  1.0
  N  N52  1  0.49924000  0.63846000  0.89451000  1.0
  O  O53  1  0.66691000  0.11723000  0.58879000  1.0
  O  O54  1  0.33310000  0.88280000  0.41122000  1.0
  O  O55  1  0.32097000  0.23001000  0.55631000  1.0
  O  O56  1  0.67906000  0.77000000  0.44369000  1.0
