# generated using pymatgen
data_CoH18C18(NO3)2
_symmetry_space_group_name_H-M   'P 1'
_cell_length_a   6.85834000
_cell_length_b   8.14929000
_cell_length_c   9.29637000
_cell_angle_alpha   98.49770000
_cell_angle_beta   107.06100000
_cell_angle_gamma   100.80300000
_symmetry_Int_Tables_number   1
_chemical_formula_structural   CoH18C18(NO3)2
_chemical_formula_sum   'Co1 H18 C18 N2 O6'
_cell_volume   476.40207443
_cell_formula_units_Z   1
loop_
 _symmetry_equiv_pos_site_id
 _symmetry_equiv_pos_as_xyz
  1  'x, y, z'
loop_
 _atom_site_type_symbol
 _atom_site_label
 _atom_site_symmetry_multiplicity
 _atom_site_fract_x
 _atom_site_fract_y
 _atom_site_fract_z
 _atom_site_occupancy
  Co  Co0  1  0.50000000  0.00000000  0.00000000  1.0
  H  H1  1  0.41294000  0.34963000  0.35805000  1.0
  H  H2  1  0.58706000  0.65038000  0.64196000  1.0
  H  H3  1  0.55758000  0.84116000  0.50726000  1.0
  H  H4  1  0.44244000  0.15885000  0.49274000  1.0
  H  H5  1  0.87738000  0.74718000  0.51522000  1.0
  H  H6  1  0.12263000  0.25282000  0.48478000  1.0
  H  H7  1  0.33738000  0.41597000  0.11300000  1.0
  H  H8  1  0.66262000  0.58402000  0.88701000  1.0
  H  H9  1  0.35452000  0.63164000  0.94893000  1.0
  H  H10  1  0.64547000  0.36835000  0.05107000  1.0
  H  H11  1  0.18037000  0.53352000  0.65759000  1.0
  H  H12  1  0.81961000  0.46647000  0.34241000  1.0
  H  H13  1  0.55535000  0.03468000  0.32703000  1.0
  H  H14  1  0.44465000  0.96532000  0.67296000  1.0
  H  H15  1  0.81271000  0.90159000  0.87410000  1.0
  H  H16  1  0.18728000  0.09841000  0.12589000  1.0
  H  H17  1  0.84531000  0.91737000  0.05087000  1.0
  H  H18  1  0.15470000  0.08263000  0.94912000  1.0
  C  C19  1  0.46347000  0.48240000  0.42198000  1.0
  C  C20  1  0.53653000  0.51762000  0.57804000  1.0
  C  C21  1  0.45177000  0.60810000  0.32656000  1.0
  C  C22  1  0.54823000  0.39191000  0.67344000  1.0
  C  C23  1  0.50838000  0.78649000  0.38438000  1.0
  C  C24  1  0.49163000  0.21352000  0.61562000  1.0
  C  C25  1  0.00495000  0.71546000  0.59958000  1.0
  C  C26  1  0.99505000  0.28454000  0.40042000  1.0
  C  C27  1  0.38832000  0.55279000  0.16532000  1.0
  C  C28  1  0.61168000  0.44721000  0.83470000  1.0
  C  C29  1  0.10846000  0.84595000  0.74468000  1.0
  C  C30  1  0.89154000  0.15404000  0.25531000  1.0
  C  C31  1  0.39646000  0.67110000  0.07316000  1.0
  C  C32  1  0.60353000  0.32889000  0.92683000  1.0
  C  C33  1  0.05421000  0.56353000  0.57018000  1.0
  C  C34  1  0.94578000  0.43646000  0.42982000  1.0
  C  C35  1  0.50891000  0.89676000  0.28488000  1.0
  C  C36  1  0.49109000  0.10324000  0.71512000  1.0
  N  N37  1  0.46023000  0.84208000  0.13068000  1.0
  N  N38  1  0.53976000  0.15792000  0.86933000  1.0
  O  O39  1  0.01223000  0.95753000  0.77804000  1.0
  O  O40  1  0.98778000  0.04247000  0.22195000  1.0
  O  O41  1  0.74131000  0.86233000  0.94526000  1.0
  O  O42  1  0.25870000  0.13767000  0.05473000  1.0
  O  O43  1  0.29355000  0.83757000  0.82549000  1.0
  O  O44  1  0.70645000  0.16242000  0.17451000  1.0
