# generated using pymatgen
data_DyH8C6O7
_symmetry_space_group_name_H-M   'P 1'
_cell_length_a   7.65480000
_cell_length_b   10.68570229
_cell_length_c   12.67510000
_cell_angle_alpha   71.98727758
_cell_angle_beta   72.42900000
_cell_angle_gamma   69.01635405
_symmetry_Int_Tables_number   1
_chemical_formula_structural   DyH8C6O7
_chemical_formula_sum   'Dy4 H32 C24 O28'
_cell_volume   898.99660311
_cell_formula_units_Z   4
loop_
 _symmetry_equiv_pos_site_id
 _symmetry_equiv_pos_as_xyz
  1  'x, y, z'
loop_
 _atom_site_type_symbol
 _atom_site_label
 _atom_site_symmetry_multiplicity
 _atom_site_fract_x
 _atom_site_fract_y
 _atom_site_fract_z
 _atom_site_occupancy
  Dy  Dy0  1  0.55482000  0.68976000  0.77021000  1.0
  Dy  Dy1  1  0.01476000  0.81020000  0.72984000  1.0
  Dy  Dy2  1  0.44518000  0.31024000  0.22979000  1.0
  Dy  Dy3  1  0.98524000  0.18980000  0.27016000  1.0
  H  H4  1  0.98902000  0.86383000  0.04097000  1.0
  H  H5  1  0.89353000  0.63620000  0.45905000  1.0
  H  H6  1  0.01098000  0.13617000  0.95903000  1.0
  H  H7  1  0.10647000  0.36380000  0.54095000  1.0
  H  H8  1  0.13191000  0.74124000  0.13746000  1.0
  H  H9  1  0.01051000  0.75869000  0.36260000  1.0
  H  H10  1  0.86809000  0.25876000  0.86254000  1.0
  H  H11  1  0.98950000  0.24131000  0.63740000  1.0
  H  H12  1  0.80950000  0.70311000  0.14907000  1.0
  H  H13  1  0.66160000  0.79698000  0.35095000  1.0
  H  H14  1  0.19050000  0.29689000  0.85093000  1.0
  H  H15  1  0.33839000  0.20303000  0.64905000  1.0
  H  H16  1  0.90523000  0.66508000  0.01437000  1.0
  H  H17  1  0.58465000  0.83503000  0.48563000  1.0
  H  H18  1  0.09476000  0.33493000  0.98563000  1.0
  H  H19  1  0.41535000  0.16497000  0.51437000  1.0
  H  H20  1  0.34207000  0.63605000  0.47013000  1.0
  H  H21  1  0.44806000  0.86405000  0.02973000  1.0
  H  H22  1  0.65793000  0.36395000  0.52987000  1.0
  H  H23  1  0.55195000  0.13594000  0.97027000  1.0
  H  H24  1  0.30520000  0.49923000  0.58350000  1.0
  H  H25  1  0.38791000  0.00101000  0.91641000  1.0
  H  H26  1  0.69480000  0.50077000  0.41649000  1.0
  H  H27  1  0.61209000  0.99899000  0.08359000  1.0
  H  H28  1  0.30868000  0.50287000  0.85277000  1.0
  H  H29  1  0.66436000  0.99713000  0.64715000  1.0
  H  H30  1  0.69131000  0.49714000  0.14723000  1.0
  H  H31  1  0.33564000  0.00287000  0.35285000  1.0
  H  H32  1  0.49396000  0.42138000  0.91174000  1.0
  H  H33  1  0.82713000  0.07863000  0.58821000  1.0
  H  H34  1  0.50603000  0.57863000  0.08826000  1.0
  H  H35  1  0.17287000  0.92137000  0.41179000  1.0
  C  C36  1  0.24040000  0.73148000  0.96348000  1.0
  C  C37  1  0.93536000  0.76840000  0.53660000  1.0
  C  C38  1  0.75959000  0.26852000  0.03652000  1.0
  C  C39  1  0.06464000  0.23161000  0.46340000  1.0
  C  C40  1  0.07467000  0.75607000  0.06355000  1.0
  C  C41  1  0.89413000  0.74394000  0.43650000  1.0
  C  C42  1  0.92532000  0.24394000  0.93645000  1.0
  C  C43  1  0.10587000  0.25606000  0.56350000  1.0
  C  C44  1  0.94524000  0.66379000  0.09112000  1.0
  C  C45  1  0.70012000  0.83629000  0.40890000  1.0
  C  C46  1  0.05475000  0.33622000  0.90888000  1.0
  C  C47  1  0.29988000  0.16371000  0.59110000  1.0
  C  C48  1  0.03393000  0.51431000  0.14590000  1.0
  C  C49  1  0.69413000  0.98575000  0.35408000  1.0
  C  C50  1  0.96606000  0.48570000  0.85410000  1.0
  C  C51  1  0.30587000  0.01425000  0.64593000  1.0
  C  C52  1  0.47105000  0.60628000  0.60575000  1.0
  C  C53  1  0.68306000  0.89380000  0.89424000  1.0
  C  C54  1  0.52894000  0.39373000  0.39425000  1.0
  C  C55  1  0.31694000  0.10620000  0.10576000  1.0
  C  C56  1  0.41566000  0.54941000  0.53029000  1.0
  C  C57  1  0.49528000  0.95070000  0.96965000  1.0
  C  C58  1  0.58435000  0.45059000  0.46971000  1.0
  C  C59  1  0.50472000  0.04930000  0.03035000  1.0
  O  O60  1  0.21052000  0.76493000  0.86246000  1.0
  O  O61  1  0.83790000  0.73498000  0.63762000  1.0
  O  O62  1  0.78948000  0.23507000  0.13754000  1.0
  O  O63  1  0.16209000  0.26503000  0.36238000  1.0
  O  O64  1  0.41294000  0.68112000  0.97521000  1.0
  O  O65  1  0.06927000  0.81877000  0.52485000  1.0
  O  O66  1  0.58706000  0.31888000  0.02479000  1.0
  O  O67  1  0.93073000  0.18124000  0.47514000  1.0
  O  O68  1  0.93334000  0.43111000  0.17283000  1.0
  O  O69  1  0.53720000  0.06889000  0.32723000  1.0
  O  O70  1  0.06666000  0.56889000  0.82717000  1.0
  O  O71  1  0.46280000  0.93111000  0.67278000  1.0
  O  O72  1  0.20151000  0.48168000  0.16107000  1.0
  O  O73  1  0.84429000  0.01840000  0.33871000  1.0
  O  O74  1  0.79848000  0.51833000  0.83893000  1.0
  O  O75  1  0.15570000  0.98160000  0.66129000  1.0
  O  O76  1  0.34095000  0.69537000  0.65973000  1.0
  O  O77  1  0.69608000  0.80461000  0.84033000  1.0
  O  O78  1  0.65906000  0.30463000  0.34027000  1.0
  O  O79  1  0.30392000  0.19539000  0.15967000  1.0
  O  O80  1  0.64125000  0.56944000  0.61780000  1.0
  O  O81  1  0.82844000  0.93064000  0.88224000  1.0
  O  O82  1  0.35875000  0.43056000  0.38221000  1.0
  O  O83  1  0.17156000  0.06936000  0.11776000  1.0
  O  O84  1  0.44701000  0.48778000  0.84435000  1.0
  O  O85  1  0.77922000  0.01218000  0.65557000  1.0
  O  O86  1  0.55299000  0.51222000  0.15565000  1.0
  O  O87  1  0.22078000  0.98782000  0.34443000  1.0
