# generated using pymatgen
data_CdH24C12S4(NO2)2
_symmetry_space_group_name_H-M   'P 1'
_cell_length_a   8.23374000
_cell_length_b   10.62000000
_cell_length_c   12.48170000
_cell_angle_alpha   111.59900000
_cell_angle_beta   108.81500000
_cell_angle_gamma   91.34040000
_symmetry_Int_Tables_number   1
_chemical_formula_structural   CdH24C12S4(NO2)2
_chemical_formula_sum   'Cd2 H48 C24 S8 N4 O8'
_cell_volume   947.96094015
_cell_formula_units_Z   2
loop_
 _symmetry_equiv_pos_site_id
 _symmetry_equiv_pos_as_xyz
  1  'x, y, z'
loop_
 _atom_site_type_symbol
 _atom_site_label
 _atom_site_symmetry_multiplicity
 _atom_site_fract_x
 _atom_site_fract_y
 _atom_site_fract_z
 _atom_site_occupancy
  Cd  Cd0  1  0.24506000  0.00392000  0.99708000  1.0
  Cd  Cd1  1  0.75494000  0.99609000  0.00292000  1.0
  H  H2  1  0.52247000  0.40713000  0.89731000  1.0
  H  H3  1  0.47754000  0.59286000  0.10270000  1.0
  H  H4  1  0.90186000  0.37424000  0.36211000  1.0
  H  H5  1  0.09815000  0.62576000  0.63790000  1.0
  H  H6  1  0.87761000  0.33224000  0.20446000  1.0
  H  H7  1  0.12239000  0.66776000  0.79555000  1.0
  H  H8  1  0.68325000  0.19158000  0.73689000  1.0
  H  H9  1  0.31674000  0.80842000  0.26310000  1.0
  H  H10  1  0.70673000  0.21950000  0.89085000  1.0
  H  H11  1  0.29327000  0.78050000  0.10914000  1.0
  H  H12  1  0.42129000  0.96966000  0.58710000  1.0
  H  H13  1  0.57871000  0.03033000  0.41290000  1.0
  H  H14  1  0.40365000  0.13786000  0.58647000  1.0
  H  H15  1  0.59634000  0.86213000  0.41352000  1.0
  H  H16  1  0.23247000  0.04433000  0.59969000  1.0
  H  H17  1  0.76753000  0.95566000  0.40031000  1.0
  H  H18  1  0.14780000  0.15808000  0.41612000  1.0
  H  H19  1  0.85221000  0.84192000  0.58388000  1.0
  H  H20  1  0.11822000  0.33130000  0.49206000  1.0
  H  H21  1  0.88179000  0.66870000  0.50795000  1.0
  H  H22  1  0.31458000  0.29746000  0.46309000  1.0
  H  H23  1  0.68542000  0.70254000  0.53692000  1.0
  H  H24  1  0.71212000  0.61084000  0.03042000  1.0
  H  H25  1  0.28788000  0.38916000  0.96957000  1.0
  H  H26  1  0.93439000  0.59769000  0.04701000  1.0
  H  H27  1  0.06561000  0.40231000  0.95299000  1.0
  H  H28  1  0.80952000  0.47520000  0.06852000  1.0
  H  H29  1  0.19048000  0.52481000  0.93147000  1.0
  H  H30  1  0.40292000  0.55678000  0.80931000  1.0
  H  H31  1  0.59708000  0.44322000  0.19071000  1.0
  H  H32  1  0.36910000  0.51154000  0.65007000  1.0
  H  H33  1  0.63087000  0.48848000  0.34994000  1.0
  H  H34  1  0.58121000  0.59099000  0.76602000  1.0
  H  H35  1  0.41877000  0.40902000  0.23400000  1.0
  H  H36  1  0.14083000  0.51405000  0.27811000  1.0
  H  H37  1  0.85917000  0.48595000  0.72190000  1.0
  H  H38  1  0.03362000  0.80037000  0.41112000  1.0
  H  H39  1  0.96639000  0.19963000  0.58888000  1.0
  H  H40  1  0.85887000  0.75269000  0.26691000  1.0
  H  H41  1  0.14113000  0.24730000  0.73310000  1.0
  H  H42  1  0.07026000  0.71621000  0.26865000  1.0
  H  H43  1  0.92974000  0.28378000  0.73135000  1.0
  H  H44  1  0.38826000  0.62997000  0.43117000  1.0
  H  H45  1  0.61174000  0.37003000  0.56883000  1.0
  H  H46  1  0.40807000  0.67115000  0.58851000  1.0
  H  H47  1  0.59194000  0.32885000  0.41150000  1.0
  H  H48  1  0.28540000  0.76348000  0.50690000  1.0
  H  H49  1  0.71460000  0.23653000  0.49311000  1.0
  C  C50  1  0.59390000  0.37328000  0.83262000  1.0
  C  C51  1  0.40609000  0.62672000  0.16738000  1.0
  C  C52  1  0.39674000  0.09520000  0.83388000  1.0
  C  C53  1  0.60326000  0.90480000  0.16612000  1.0
  C  C54  1  0.13707000  0.19676000  0.21089000  1.0
  C  C55  1  0.86294000  0.80324000  0.78912000  1.0
  C  C56  1  0.97081000  0.36943000  0.29913000  1.0
  C  C57  1  0.02920000  0.63056000  0.70087000  1.0
  C  C58  1  0.61993000  0.22445000  0.80553000  1.0
  C  C59  1  0.38007000  0.77555000  0.19446000  1.0
  C  C60  1  0.37343000  0.06640000  0.62457000  1.0
  C  C61  1  0.62656000  0.93360000  0.37543000  1.0
  C  C62  1  0.17339000  0.26502000  0.42701000  1.0
  C  C63  1  0.82662000  0.73497000  0.57300000  1.0
  C  C64  1  0.80510000  0.53904000  0.01559000  1.0
  C  C65  1  0.19490000  0.46097000  0.98440000  1.0
  C  C66  1  0.46229000  0.51935000  0.73837000  1.0
  C  C67  1  0.53769000  0.48066000  0.26165000  1.0
  C  C68  1  0.06207000  0.51393000  0.33515000  1.0
  C  C69  1  0.93794000  0.48607000  0.66486000  1.0
  C  C70  1  0.97679000  0.72223000  0.31600000  1.0
  C  C71  1  0.02320000  0.27777000  0.68400000  1.0
  C  C72  1  0.32104000  0.66193000  0.49768000  1.0
  C  C73  1  0.67897000  0.33807000  0.50233000  1.0
  S  S74  1  0.03198000  0.19501000  0.06503000  1.0
  S  S75  1  0.96802000  0.80499000  0.93497000  1.0
  S  S76  1  0.50553000  0.17168000  0.99225000  1.0
  S  S77  1  0.49447000  0.82832000  0.00775000  1.0
  S  S78  1  0.21242000  0.97651000  0.77295000  1.0
  S  S79  1  0.78758000  0.02349000  0.22706000  1.0
  S  S80  1  0.29528000  0.09769000  0.23301000  1.0
  S  S81  1  0.70472000  0.90231000  0.76699000  1.0
  N  N82  1  0.09407000  0.27382000  0.30751000  1.0
  N  N83  1  0.90594000  0.72618000  0.69250000  1.0
  N  N84  1  0.45805000  0.12962000  0.75859000  1.0
  N  N85  1  0.54195000  0.87038000  0.24141000  1.0
  O  O86  1  0.49969000  0.38331000  0.72102000  1.0
  O  O87  1  0.50029000  0.61670000  0.27899000  1.0
  O  O88  1  0.17190000  0.56246000  0.46116000  1.0
  O  O89  1  0.82811000  0.43754000  0.53885000  1.0
  O  O90  1  0.92643000  0.59125000  0.31379000  1.0
  O  O91  1  0.07357000  0.40874000  0.68621000  1.0
  O  O92  1  0.76010000  0.45649000  0.88679000  1.0
  O  O93  1  0.23990000  0.54351000  0.11321000  1.0
