# generated using pymatgen
data_Zn4H43C68IN16
_symmetry_space_group_name_H-M   'P 1'
_cell_length_a   17.00750000
_cell_length_b   17.01120000
_cell_length_c   18.76210145
_cell_angle_alpha   115.75365917
_cell_angle_beta   106.08378956
_cell_angle_gamma   102.36700000
_symmetry_Int_Tables_number   1
_chemical_formula_structural   Zn4H43C68IN16
_chemical_formula_sum   'Zn4 H43 C68 I1 N16'
_cell_volume   4332.45623569
_cell_formula_units_Z   1
loop_
 _symmetry_equiv_pos_site_id
 _symmetry_equiv_pos_as_xyz
  1  'x, y, z'
loop_
 _atom_site_type_symbol
 _atom_site_label
 _atom_site_symmetry_multiplicity
 _atom_site_fract_x
 _atom_site_fract_y
 _atom_site_fract_z
 _atom_site_occupancy
  Zn  Zn0  1  0.39325000  0.89889000  0.99350000  1.0
  Zn  Zn1  1  0.60998000  0.11351000  0.99938000  1.0
  Zn  Zn2  1  0.49891000  0.12850000  0.11646000  1.0
  Zn  Zn3  1  0.51717000  0.88272000  0.88522000  1.0
  H  H4  1  0.21644000  0.88574000  0.86180000  1.0
  H  H5  1  0.25217000  0.54827000  0.58469000  1.0
  H  H6  1  0.16442000  0.49937000  0.76162000  1.0
  H  H7  1  0.48049000  0.16130000  0.87627000  1.0
  H  H8  1  0.04216000  0.35165000  0.63716000  1.0
  H  H9  1  0.90980000  0.30713000  0.53110000  1.0
  H  H10  1  0.77016000  0.20686000  0.40009000  1.0
  H  H11  1  0.91569000  0.14615000  0.24108000  1.0
  H  H12  1  0.05559000  0.24520000  0.37290000  1.0
  H  H13  1  0.38134000  0.17400000  0.62227000  1.0
  H  H14  1  0.41279000  0.16722000  0.75455000  1.0
  H  H15  1  0.78923000  0.11613000  0.12227000  1.0
  H  H16  1  0.29336000  0.86230000  0.59655000  1.0
  H  H17  1  0.26462000  0.86960000  0.46465000  1.0
  H  H18  1  0.20625000  0.90293000  0.35895000  1.0
  H  H19  1  0.53830000  0.36405000  0.21006000  1.0
  H  H20  1  0.22710000  0.90031000  0.23317000  1.0
  H  H21  1  0.47148000  0.14539000  0.40838000  1.0
  H  H22  1  0.45042000  0.14844000  0.53353000  1.0
  H  H23  1  0.49220000  0.46125000  0.16226000  1.0
  H  H24  1  0.79131000  0.67656000  0.12800000  1.0
  H  H25  1  0.47644000  0.60448000  0.16813000  1.0
  H  H26  1  0.45446000  0.16854000  0.28827000  1.0
  H  H27  1  0.75607000  0.79650000  0.10146000  1.0
  H  H28  1  0.51522000  0.72547000  0.13444000  1.0
  H  H29  1  0.91643000  0.13777000  0.94544000  1.0
  H  H30  1  0.39350000  0.65942000  0.71396000  1.0
  H  H31  1  0.78202000  0.83857000  0.75374000  1.0
  H  H32  1  0.07544000  0.21856000  0.98681000  1.0
  H  H33  1  0.92150000  0.83142000  0.74250000  1.0
  H  H34  1  0.21899000  0.20556000  0.99753000  1.0
  H  H35  1  0.08554000  0.90606000  0.80636000  1.0
  H  H36  1  0.66567000  0.33091000  0.03451000  1.0
  H  H37  1  0.67075000  0.83767000  0.80797000  1.0
  H  H38  1  0.22802000  0.68376000  0.85453000  1.0
  H  H39  1  0.36068000  0.85448000  0.71979000  1.0
  H  H40  1  0.35429000  0.19082000  0.02542000  1.0
  H  H41  1  0.50084000  0.86292000  0.13652000  1.0
  H  H42  1  0.78446000  0.14390000  0.95255000  1.0
  H  H43  1  0.30874000  0.86527000  0.12818000  1.0
  H  H44  1  0.66430000  0.83130000  0.99290000  1.0
  H  H45  1  0.63768000  0.12939000  0.27610000  1.0
  H  H46  1  0.13031000  0.40127000  0.46064000  1.0
  C  C47  1  0.26269000  0.95886000  0.90695000  1.0
  C  C48  1  0.34762000  0.93942000  0.15603000  1.0
  C  C49  1  0.61799000  0.84618000  0.02175000  1.0
  C  C50  1  0.45876000  0.08548000  0.84892000  1.0
  C  C51  1  0.66306000  0.12326000  0.22762000  1.0
  C  C52  1  0.60061000  0.82697000  0.08291000  1.0
  C  C53  1  0.74904000  0.13344000  0.23205000  1.0
  C  C54  1  0.37068000  0.01795000  0.23852000  1.0
  C  C55  1  0.76090000  0.98988000  0.86982000  1.0
  C  C56  1  0.13846000  0.42098000  0.52662000  1.0
  C  C57  1  0.20727000  0.50442000  0.59682000  1.0
  C  C58  1  0.39809000  0.00963000  0.76449000  1.0
  C  C59  1  0.21632000  0.53669000  0.68267000  1.0
  C  C60  1  0.15661000  0.47846000  0.69542000  1.0
  C  C61  1  0.08761000  0.39489000  0.62500000  1.0
  C  C62  1  0.56670000  0.34036000  0.16316000  1.0
  C  C63  1  0.07509000  0.36563000  0.53862000  1.0
  C  C64  1  0.91182000  0.27043000  0.46776000  1.0
  C  C65  1  0.83250000  0.21385000  0.39321000  1.0
  C  C66  1  0.83119000  0.17231000  0.30936000  1.0
  C  C67  1  0.91358000  0.18129000  0.30457000  1.0
  C  C68  1  0.99296000  0.23783000  0.37923000  1.0
  C  C69  1  0.61002000  0.39080000  0.13292000  1.0
  C  C70  1  0.99403000  0.28805000  0.46234000  1.0
  C  C71  1  0.36274000  0.10517000  0.61626000  1.0
  C  C72  1  0.37991000  0.10119000  0.69119000  1.0
  C  C73  1  0.36020000  0.01400000  0.68677000  1.0
  C  C74  1  0.36304000  0.68080000  0.75929000  1.0
  C  C75  1  0.31279000  0.93138000  0.60316000  1.0
  C  C76  1  0.29577000  0.93541000  0.52815000  1.0
  C  C77  1  0.32487000  0.02222000  0.53306000  1.0
  C  C78  1  0.26492000  0.95627000  0.37031000  1.0
  C  C79  1  0.27680000  0.95457000  0.29917000  1.0
  C  C80  1  0.28280000  0.62973000  0.75428000  1.0
  C  C81  1  0.35168000  0.02181000  0.31099000  1.0
  C  C82  1  0.41188000  0.09327000  0.39706000  1.0
  C  C83  1  0.39981000  0.09518000  0.46784000  1.0
  C  C84  1  0.32713000  0.02550000  0.45637000  1.0
  C  C85  1  0.61572000  0.48428000  0.14815000  1.0
  C  C86  1  0.63268000  0.32398000  0.07457000  1.0
  C  C87  1  0.63112000  0.76881000  0.11383000  1.0
  C  C88  1  0.73068000  0.68708000  0.12956000  1.0
  C  C89  1  0.71062000  0.75437000  0.11448000  1.0
  C  C90  1  0.57715000  0.71709000  0.13485000  1.0
  C  C91  1  0.53364000  0.86083000  0.09398000  1.0
  C  C92  1  0.59474000  0.64638000  0.14879000  1.0
  C  C93  1  0.67215000  0.62763000  0.14338000  1.0
  C  C94  1  0.68178000  0.54783000  0.14680000  1.0
  C  C95  1  0.54301000  0.50935000  0.15907000  1.0
  C  C96  1  0.53357000  0.58822000  0.16127000  1.0
  C  C97  1  0.83972000  0.98881000  0.85312000  1.0
  C  C98  1  0.27941000  0.69261000  0.83157000  1.0
  C  C99  1  0.16317000  0.05327000  0.90531000  1.0
  C  C100  1  0.07779000  0.15008000  0.94740000  1.0
  C  C101  1  0.15790000  0.14257000  0.95294000  1.0
  C  C102  1  0.74017000  0.11576000  0.14898000  1.0
  C  C103  1  0.08416000  0.97506000  0.84580000  1.0
  C  C104  1  0.00083000  0.98000000  0.83975000  1.0
  C  C105  1  0.99727000  0.06859000  0.89450000  1.0
  C  C106  1  0.91631000  0.07055000  0.89946000  1.0
  C  C107  1  0.84245000  0.90271000  0.79352000  1.0
  C  C108  1  0.92022000  0.89858000  0.78679000  1.0
  C  C109  1  0.39776000  0.92909000  0.76918000  1.0
  C  C110  1  0.33271000  0.11431000  0.99081000  1.0
  C  C111  1  0.24842000  0.04328000  0.92832000  1.0
  C  C112  1  0.42312000  0.09372000  0.23818000  1.0
  C  C113  1  0.68669000  0.91312000  0.84646000  1.0
  C  C114  1  0.74499000  0.06902000  0.92064000  1.0
  I  I115  1  0.80232000  0.52884000  0.15207000  1.0
  N  N116  1  0.34774000  0.97891000  0.95438000  1.0
  N  N117  1  0.56456000  0.25171000  0.12641000  1.0
  N  N118  1  0.40390000  0.76642000  0.83339000  1.0
  N  N119  1  0.60558000  0.24174000  0.07112000  1.0
  N  N120  1  0.35161000  0.77414000  0.87832000  1.0
  N  N121  1  0.45502000  0.95588000  0.84921000  1.0
  N  N122  1  0.39093000  0.07456000  0.00594000  1.0
  N  N123  1  0.51232000  0.89529000  0.04216000  1.0
  N  N124  1  0.65635000  0.09859000  0.10079000  1.0
  N  N125  1  0.43033000  0.06275000  0.16201000  1.0
  N  N126  1  0.63174000  0.94433000  0.88074000  1.0
  N  N127  1  0.66823000  0.04152000  0.92677000  1.0
  N  N128  1  0.38365000  0.96654000  0.11073000  1.0
  N  N129  1  0.56390000  0.88608000  0.99750000  1.0
  N  N130  1  0.60903000  0.10324000  0.14907000  1.0
  N  N131  1  0.49240000  0.05187000  0.89806000  1.0
