# generated using pymatgen
data_UH5C7NO7
_symmetry_space_group_name_H-M   'P 1'
_cell_length_a   6.26823000
_cell_length_b   7.92700432
_cell_length_c   11.33624023
_cell_angle_alpha   73.20280667
_cell_angle_beta   82.65811655
_cell_angle_gamma   68.70542814
_symmetry_Int_Tables_number   1
_chemical_formula_structural   UH5C7NO7
_chemical_formula_sum   'U2 H10 C14 N2 O14'
_cell_volume   502.26393375
_cell_formula_units_Z   2
loop_
 _symmetry_equiv_pos_site_id
 _symmetry_equiv_pos_as_xyz
  1  'x, y, z'
loop_
 _atom_site_type_symbol
 _atom_site_label
 _atom_site_symmetry_multiplicity
 _atom_site_fract_x
 _atom_site_fract_y
 _atom_site_fract_z
 _atom_site_occupancy
  U  U0  1  0.83674000  0.07098000  0.84658000  1.0
  U  U1  1  0.16326000  0.92904000  0.15341000  1.0
  H  H2  1  0.63851000  0.16972000  0.14228000  1.0
  H  H3  1  0.36148000  0.83029000  0.85772000  1.0
  H  H4  1  0.72213000  0.93621000  0.09218000  1.0
  H  H5  1  0.27787000  0.06379000  0.90782000  1.0
  H  H6  1  0.12891000  0.52472000  0.53602000  1.0
  H  H7  1  0.87109000  0.47527000  0.46398000  1.0
  H  H8  1  0.26885000  0.42260000  0.33801000  1.0
  H  H9  1  0.73116000  0.57741000  0.66198000  1.0
  H  H10  1  0.85493000  0.00382000  0.54073000  1.0
  H  H11  1  0.14507000  0.99617000  0.45928000  1.0
  C  C12  1  0.41258000  0.31306000  0.63736000  1.0
  C  C13  1  0.58743000  0.68693000  0.36264000  1.0
  C  C14  1  0.28515000  0.40728000  0.53123000  1.0
  C  C15  1  0.71484000  0.59272000  0.46876000  1.0
  C  C16  1  0.36398000  0.35192000  0.42311000  1.0
  C  C17  1  0.63604000  0.64807000  0.57690000  1.0
  C  C18  1  0.57475000  0.20623000  0.42483000  1.0
  C  C19  1  0.42526000  0.79375000  0.57518000  1.0
  C  C20  1  0.69277000  0.11907000  0.53524000  1.0
  C  C21  1  0.30724000  0.88093000  0.46477000  1.0
  C  C22  1  0.33663000  0.36404000  0.75840000  1.0
  C  C23  1  0.66337000  0.63596000  0.24160000  1.0
  C  C24  1  0.68010000  0.14672000  0.31178000  1.0
  C  C25  1  0.31989000  0.85329000  0.68822000  1.0
  N  N26  1  0.61385000  0.17055000  0.63945000  1.0
  N  N27  1  0.38616000  0.82945000  0.36054000  1.0
  O  O28  1  0.86880000  0.29858000  0.79624000  1.0
  O  O29  1  0.13119000  0.70143000  0.20376000  1.0
  O  O30  1  0.81284000  0.84261000  0.88514000  1.0
  O  O31  1  0.18713000  0.15742000  0.11484000  1.0
  O  O32  1  0.44204000  0.22530000  0.85209000  1.0
  O  O33  1  0.55795000  0.77469000  0.14792000  1.0
  O  O34  1  0.19617000  0.51760000  0.76223000  1.0
  O  O35  1  0.80383000  0.48240000  0.23777000  1.0
  O  O36  1  0.55472000  0.22742000  0.21465000  1.0
  O  O37  1  0.44529000  0.77258000  0.78535000  1.0
  O  O38  1  0.87683000  0.02432000  0.31463000  1.0
  O  O39  1  0.12318000  0.97565000  0.68538000  1.0
  O  O40  1  0.78813000  0.03842000  0.06387000  1.0
  O  O41  1  0.21187000  0.96158000  0.93613000  1.0
