# generated using pymatgen
data_CdH18PdC18(N3O)2
_symmetry_space_group_name_H-M   'P 1'
_cell_length_a   8.89862000
_cell_length_b   10.43930000
_cell_length_c   10.69170000
_cell_angle_alpha   93.88800000
_cell_angle_beta   89.99990000
_cell_angle_gamma   89.99980000
_symmetry_Int_Tables_number   1
_chemical_formula_structural   CdH18PdC18(N3O)2
_chemical_formula_sum   'Cd2 H36 Pd2 C36 N12 O4'
_cell_volume   990.92349145
_cell_formula_units_Z   2
loop_
 _symmetry_equiv_pos_site_id
 _symmetry_equiv_pos_as_xyz
  1  'x, y, z'
loop_
 _atom_site_type_symbol
 _atom_site_label
 _atom_site_symmetry_multiplicity
 _atom_site_fract_x
 _atom_site_fract_y
 _atom_site_fract_z
 _atom_site_occupancy
  Cd  Cd0  1  0.00000000  0.50000000  0.50000000  1.0
  Cd  Cd1  1  0.50000000  0.00000000  0.00000000  1.0
  H  H2  1  0.06954000  0.44220000  0.75922000  1.0
  H  H3  1  0.56954000  0.05780000  0.74078000  1.0
  H  H4  1  0.93046000  0.55780000  0.24078000  1.0
  H  H5  1  0.43046000  0.94220000  0.25922000  1.0
  H  H6  1  0.84205000  0.48151000  0.87178000  1.0
  H  H7  1  0.34205000  0.01849000  0.62821000  1.0
  H  H8  1  0.15795000  0.51849000  0.12822000  1.0
  H  H9  1  0.65795000  0.98151000  0.37178000  1.0
  H  H10  1  0.83570000  0.33658000  0.77250000  1.0
  H  H11  1  0.33570000  0.16342000  0.72749000  1.0
  H  H12  1  0.16430000  0.66342000  0.22749000  1.0
  H  H13  1  0.66430000  0.83658000  0.27251000  1.0
  H  H14  1  0.61284000  0.50113000  0.76943000  1.0
  H  H15  1  0.11284000  0.99887000  0.73057000  1.0
  H  H16  1  0.38716000  0.49887000  0.23057000  1.0
  H  H17  1  0.88717000  0.00113000  0.26943000  1.0
  H  H18  1  0.73558000  0.59450000  0.68277000  1.0
  H  H19  1  0.23558000  0.90550000  0.81723000  1.0
  H  H20  1  0.26442000  0.40550000  0.31723000  1.0
  H  H21  1  0.76442000  0.09449000  0.18277000  1.0
  H  H22  1  0.45165000  0.35896000  0.66242000  1.0
  H  H23  1  0.95165000  0.14104000  0.83758000  1.0
  H  H24  1  0.54835000  0.64104000  0.33759000  1.0
  H  H25  1  0.04835000  0.85896000  0.16242000  1.0
  H  H26  1  0.38039000  0.22763000  0.46754000  1.0
  H  H27  1  0.88038000  0.27237000  0.03246000  1.0
  H  H28  1  0.61962000  0.77237000  0.53247000  1.0
  H  H29  1  0.11962000  0.72763000  0.96753000  1.0
  H  H30  1  0.55775000  0.22082000  0.28287000  1.0
  H  H31  1  0.05775000  0.27918000  0.21713000  1.0
  H  H32  1  0.44225000  0.77918000  0.71713000  1.0
  H  H33  1  0.94225000  0.72082000  0.78287000  1.0
  H  H34  1  0.79826000  0.34358000  0.30508000  1.0
  H  H35  1  0.29825000  0.15643000  0.19492000  1.0
  H  H36  1  0.20174000  0.65642000  0.69492000  1.0
  H  H37  1  0.70175000  0.84358000  0.80508000  1.0
  Pd  Pd38  1  0.00000000  0.00000000  0.50000000  1.0
  Pd  Pd39  1  0.50000000  0.50000000  0.00000000  1.0
  C  C40  1  0.17543000  0.94073000  0.39803000  1.0
  C  C41  1  0.67543000  0.55926000  0.10196000  1.0
  C  C42  1  0.82457000  0.05927000  0.60197000  1.0
  C  C43  1  0.32456000  0.44073000  0.89803000  1.0
  C  C44  1  0.05923000  0.18016000  0.48326000  1.0
  C  C45  1  0.55924000  0.31984000  0.01673000  1.0
  C  C46  1  0.94076000  0.81984000  0.51674000  1.0
  C  C47  1  0.44077000  0.68016000  0.98327000  1.0
  C  C48  1  0.84320000  0.44204000  0.77354000  1.0
  C  C49  1  0.34319000  0.05796000  0.72646000  1.0
  C  C50  1  0.15681000  0.55796000  0.22646000  1.0
  C  C51  1  0.65681000  0.94204000  0.27354000  1.0
  C  C52  1  0.70903000  0.49562000  0.70473000  1.0
  C  C53  1  0.20903000  0.00438000  0.79527000  1.0
  C  C54  1  0.29097000  0.50438000  0.29527000  1.0
  C  C55  1  0.79098000  0.99562000  0.20473000  1.0
  C  C56  1  0.66327000  0.41814000  0.58745000  1.0
  C  C57  1  0.16327000  0.08186000  0.91255000  1.0
  C  C58  1  0.33673000  0.58186000  0.41255000  1.0
  C  C59  1  0.83673000  0.91814000  0.08745000  1.0
  C  C60  1  0.52630000  0.35215000  0.58147000  1.0
  C  C61  1  0.02630000  0.14785000  0.91853000  1.0
  C  C62  1  0.47370000  0.64785000  0.41853000  1.0
  C  C63  1  0.97370000  0.85215000  0.08148000  1.0
  C  C64  1  0.48673000  0.27946000  0.47261000  1.0
  C  C65  1  0.98673000  0.22054000  0.02738000  1.0
  C  C66  1  0.51327000  0.72054000  0.52739000  1.0
  C  C67  1  0.01328000  0.77946000  0.97261000  1.0
  C  C68  1  0.58438000  0.27538000  0.37043000  1.0
  C  C69  1  0.08438000  0.22462000  0.12957000  1.0
  C  C70  1  0.41562000  0.72461000  0.62957000  1.0
  C  C71  1  0.91562000  0.77539000  0.87043000  1.0
  C  C72  1  0.71846000  0.34326000  0.38244000  1.0
  C  C73  1  0.21845000  0.15674000  0.11756000  1.0
  C  C74  1  0.28154000  0.65674000  0.61756000  1.0
  C  C75  1  0.78154000  0.84326000  0.88244000  1.0
  N  N76  1  0.27819000  0.90734000  0.33565000  1.0
  N  N77  1  0.77820000  0.59266000  0.16436000  1.0
  N  N78  1  0.72181000  0.09266000  0.66435000  1.0
  N  N79  1  0.22181000  0.40734000  0.83565000  1.0
  N  N80  1  0.09098000  0.28780000  0.47256000  1.0
  N  N81  1  0.59097000  0.21220000  0.02744000  1.0
  N  N82  1  0.90902000  0.71220000  0.52744000  1.0
  N  N83  1  0.40902000  0.78781000  0.97256000  1.0
  N  N84  1  0.75777000  0.41276000  0.48809000  1.0
  N  N85  1  0.25777000  0.08725000  0.01191000  1.0
  N  N86  1  0.24223000  0.58724000  0.51191000  1.0
  N  N87  1  0.74223000  0.91276000  0.98809000  1.0
  O  O88  1  0.98046000  0.47970000  0.71555000  1.0
  O  O89  1  0.48046000  0.02030000  0.78444000  1.0
  O  O90  1  0.01954000  0.52030000  0.28445000  1.0
  O  O91  1  0.51954000  0.97970000  0.21555000  1.0
