# generated using pymatgen
data_CoH20C28(NO2)2
_symmetry_space_group_name_H-M   'P 1'
_cell_length_a   8.67020000
_cell_length_b   13.16140000
_cell_length_c   13.99951928
_cell_angle_alpha   61.98597756
_cell_angle_beta   84.51042779
_cell_angle_gamma   78.25560000
_symmetry_Int_Tables_number   1
_chemical_formula_structural   CoH20C28(NO2)2
_chemical_formula_sum   'Co2 H40 C56 N4 O8'
_cell_volume   1380.81155229
_cell_formula_units_Z   2
loop_
 _symmetry_equiv_pos_site_id
 _symmetry_equiv_pos_as_xyz
  1  'x, y, z'
loop_
 _atom_site_type_symbol
 _atom_site_label
 _atom_site_symmetry_multiplicity
 _atom_site_fract_x
 _atom_site_fract_y
 _atom_site_fract_z
 _atom_site_occupancy
  Co  Co0  1  0.79203000  0.51395000  0.18278000  1.0
  Co  Co1  1  0.29201000  0.69676000  0.81690000  1.0
  H  H2  1  0.53803000  0.16583000  0.82404000  1.0
  H  H3  1  0.68450000  0.56564000  0.96342000  1.0
  H  H4  1  0.43232000  0.05000000  0.75718000  1.0
  H  H5  1  0.59568000  0.06305000  0.12483000  1.0
  H  H6  1  0.92491000  0.98522000  0.50529000  1.0
  H  H7  1  0.20599000  0.57740000  0.53372000  1.0
  H  H8  1  0.42515000  0.48995000  0.49490000  1.0
  H  H9  1  0.96121000  0.70044000  0.89092000  1.0
  H  H10  1  0.93332000  0.80728000  0.24306000  1.0
  H  H11  1  0.73677000  0.13918000  0.18218000  1.0
  H  H12  1  0.10244000  0.33746000  0.11708000  1.0
  H  H13  1  0.80796000  0.64403000  0.39709000  1.0
  H  H14  1  0.03845000  0.99021000  0.17609000  1.0
  H  H15  1  0.30222000  0.37821000  0.23418000  1.0
  H  H16  1  0.57334000  0.26982000  0.89454000  1.0
  H  H17  1  0.97988000  0.05780000  0.84731000  1.0
  H  H18  1  0.18596000  0.52921000  0.03623000  1.0
  H  H19  1  0.87477000  0.87380000  0.91623000  1.0
  H  H20  1  0.46111000  0.59140000  0.10903000  1.0
  H  H21  1  0.60110000  0.45440000  0.88292000  1.0
  H  H22  1  0.07433000  0.16444000  0.10560000  1.0
  H  H23  1  0.19751000  0.62159000  0.18667000  1.0
  H  H24  1  0.69757000  0.80834000  0.81358000  1.0
  H  H25  1  0.53255000  0.93781000  0.65907000  1.0
  H  H26  1  0.05441000  0.16361000  0.51429000  1.0
  H  H27  1  0.55774000  0.25945000  0.32246000  1.0
  H  H28  1  0.30761000  0.04028000  0.60245000  1.0
  H  H29  1  0.37454000  0.78970000  0.08403000  1.0
  H  H30  1  0.31559000  0.51492000  0.74909000  1.0
  H  H31  1  0.48026000  0.90468000  0.15285000  1.0
  H  H32  1  0.68014000  0.46080000  0.40543000  1.0
  H  H33  1  0.23683000  0.32116000  0.81770000  1.0
  H  H34  1  0.03272000  0.59628000  0.34141000  1.0
  H  H35  1  0.05801000  0.58220000  0.67754000  1.0
  H  H36  1  0.81545000  0.26462000  0.25049000  1.0
  H  H37  1  0.80254000  0.61230000  0.76604000  1.0
  H  H38  1  0.70565000  0.11042000  0.46605000  1.0
  H  H39  1  0.17991000  0.86648000  0.59451000  1.0
  H  H40  1  0.55477000  0.67913000  0.48536000  1.0
  H  H41  1  0.09494000  0.18827000  0.87516000  1.0
  C  C42  1  0.30500000  0.30437000  0.31469000  1.0
  C  C43  1  0.44727000  0.23729000  0.36398000  1.0
  C  C44  1  0.50001000  0.08448000  0.88186000  1.0
  C  C45  1  0.89773000  0.82871000  0.08384000  1.0
  C  C46  1  0.66299000  0.64821000  0.63084000  1.0
  C  C47  1  0.80148000  0.82538000  0.76216000  1.0
  C  C48  1  0.72139000  0.23345000  0.13073000  1.0
  C  C49  1  0.51467000  0.04465000  0.99396000  1.0
  C  C50  1  0.60517000  0.07340000  0.51389000  1.0
  C  C51  1  0.95234000  0.60922000  0.53199000  1.0
  C  C52  1  0.26708000  0.47133000  0.83023000  1.0
  C  C53  1  0.16600000  0.18262000  0.47290000  1.0
  C  C54  1  0.46891000  0.93714000  0.06586000  1.0
  C  C55  1  0.34362000  0.84196000  0.87247000  1.0
  C  C56  1  0.07454000  0.14743000  0.96254000  1.0
  C  C57  1  0.84422000  0.71455000  0.12766000  1.0
  C  C58  1  0.80837000  0.63682000  0.47796000  1.0
  C  C59  1  0.76684000  0.30201000  0.16941000  1.0
  C  C60  1  0.30803000  0.11410000  0.52174000  1.0
  C  C61  1  0.01468000  0.03887000  0.00620000  1.0
  C  C62  1  0.10160000  0.20173000  0.01929000  1.0
  C  C63  1  0.19559000  0.48040000  0.99024000  1.0
  C  C64  1  0.13195000  0.58204000  0.39166000  1.0
  C  C65  1  0.45201000  0.14068000  0.46786000  1.0
  C  C66  1  0.10555000  0.58778000  0.48606000  1.0
  C  C67  1  0.28677000  0.56124000  0.34779000  1.0
  C  C68  1  0.44882000  0.56904000  0.19466000  1.0
  C  C69  1  0.57476000  0.10962000  0.03751000  1.0
  C  C70  1  0.06972000  0.85863000  0.63972000  1.0
  C  C71  1  0.42707000  0.51479000  0.40886000  1.0
  C  C72  1  0.00042000  0.96656000  0.11832000  1.0
  C  C73  1  0.80526000  0.61936000  0.68534000  1.0
  C  C74  1  0.94254000  0.86357000  0.15642000  1.0
  C  C75  1  0.16273000  0.27855000  0.36912000  1.0
  C  C76  1  0.94880000  0.76379000  0.80534000  1.0
  C  C77  1  0.30154000  0.58723000  0.23801000  1.0
  C  C78  1  0.69462000  0.47083000  0.00947000  1.0
  C  C79  1  0.78659000  0.90920000  0.65240000  1.0
  C  C80  1  0.39715000  0.91224000  0.91636000  1.0
  C  C81  1  0.14885000  0.37252000  0.03497000  1.0
  C  C82  1  0.51024000  0.67027000  0.68215000  1.0
  C  C83  1  0.60125000  0.22078000  0.98075000  1.0
  C  C84  1  0.22159000  0.36411000  0.86906000  1.0
  C  C85  1  0.66634000  0.65647000  0.52686000  1.0
  C  C86  1  0.56992000  0.49814000  0.36027000  1.0
  C  C87  1  0.63168000  0.97367000  0.60859000  1.0
  C  C88  1  0.91063000  0.90007000  0.97243000  1.0
  C  C89  1  0.64793000  0.40747000  0.96489000  1.0
  C  C90  1  0.92685000  0.92393000  0.59128000  1.0
  C  C91  1  0.65733000  0.28559000  0.02589000  1.0
  C  C92  1  0.44184000  0.01966000  0.84379000  1.0
  C  C93  1  0.94756000  0.60169000  0.63598000  1.0
  C  C94  1  0.41040000  0.87215000  0.02778000  1.0
  C  C95  1  0.96883000  0.00324000  0.93431000  1.0
  C  C96  1  0.15775000  0.31161000  0.97398000  1.0
  C  C97  1  0.00988000  0.35193000  0.31795000  1.0
  N  N98  1  0.08188000  0.77976000  0.74572000  1.0
  N  N99  1  0.75238000  0.41994000  0.11106000  1.0
  N  N100  1  0.25292000  0.53099000  0.88853000  1.0
  N  N101  1  0.58198000  0.52551000  0.25419000  1.0
  O  O102  1  0.38010000  0.68378000  0.64012000  1.0
  O  O103  1  0.33007000  0.88239000  0.77118000  1.0
  O  O104  1  0.51646000  0.67341000  0.77290000  1.0
  O  O105  1  0.83064000  0.65368000  0.22893000  1.0
  O  O106  1  0.87989000  0.32334000  0.36013000  1.0
  O  O107  1  0.01602000  0.44585000  0.22727000  1.0
  O  O108  1  0.31661000  0.73758000  0.93738000  1.0
  O  O109  1  0.81716000  0.67514000  0.06266000  1.0
