# generated using pymatgen
data_Dy2CuH16C32(N2O13)2
_symmetry_space_group_name_H-M   'P 1'
_cell_length_a   9.80625000
_cell_length_b   10.27070000
_cell_length_c   11.01870000
_cell_angle_alpha   69.91520000
_cell_angle_beta   86.13470000
_cell_angle_gamma   71.15060000
_symmetry_Int_Tables_number   1
_chemical_formula_structural   Dy2CuH16C32(N2O13)2
_chemical_formula_sum   'Dy2 Cu1 H16 C32 N4 O26'
_cell_volume   985.20013853
_cell_formula_units_Z   1
loop_
 _symmetry_equiv_pos_site_id
 _symmetry_equiv_pos_as_xyz
  1  'x, y, z'
loop_
 _atom_site_type_symbol
 _atom_site_label
 _atom_site_symmetry_multiplicity
 _atom_site_fract_x
 _atom_site_fract_y
 _atom_site_fract_z
 _atom_site_occupancy
  Dy  Dy0  1  0.40304000  0.40786000  0.41667000  1.0
  Dy  Dy1  1  0.59696000  0.59214000  0.58332000  1.0
  Cu  Cu2  1  0.50000000  0.00000000  0.50000000  1.0
  H  H3  1  0.91763000  0.36480000  0.48212000  1.0
  H  H4  1  0.08237000  0.63520000  0.51788000  1.0
  H  H5  1  0.81406000  0.96568000  0.66633000  1.0
  H  H6  1  0.18594000  0.03432000  0.33367000  1.0
  H  H7  1  0.25628000  0.95462000  0.65042000  1.0
  H  H8  1  0.74371000  0.04538000  0.34959000  1.0
  H  H9  1  0.45822000  0.37562000  0.97657000  1.0
  H  H10  1  0.54178000  0.62439000  0.02343000  1.0
  H  H11  1  0.34594000  0.99223000  0.20105000  1.0
  H  H12  1  0.65407000  0.00776000  0.79895000  1.0
  H  H13  1  0.29334000  0.15183000  0.78518000  1.0
  H  H14  1  0.70666000  0.84816000  0.21482000  1.0
  H  H15  1  0.13409000  0.56501000  0.24216000  1.0
  H  H16  1  0.86592000  0.43499000  0.75784000  1.0
  H  H17  1  0.22490000  0.67410000  0.18292000  1.0
  H  H18  1  0.77510000  0.32589000  0.81709000  1.0
  C  C19  1  0.09795000  0.16780000  0.55819000  1.0
  C  C20  1  0.90204000  0.83220000  0.44181000  1.0
  C  C21  1  0.95063000  0.24731000  0.53413000  1.0
  C  C22  1  0.04937000  0.75269000  0.46586000  1.0
  C  C23  1  0.84831000  0.17466000  0.57062000  1.0
  C  C24  1  0.15169000  0.82534000  0.42937000  1.0
  C  C25  1  0.89185000  0.02451000  0.63916000  1.0
  C  C26  1  0.10814000  0.97550000  0.36084000  1.0
  C  C27  1  0.03757000  0.95015000  0.67170000  1.0
  C  C28  1  0.96243000  0.04986000  0.32830000  1.0
  C  C29  1  0.14271000  0.01799000  0.62916000  1.0
  C  C30  1  0.85728000  0.98201000  0.37084000  1.0
  C  C31  1  0.20313000  0.24668000  0.50184000  1.0
  C  C32  1  0.79687000  0.75332000  0.49816000  1.0
  C  C33  1  0.69395000  0.25505000  0.52857000  1.0
  C  C34  1  0.30605000  0.74496000  0.47142000  1.0
  C  C35  1  0.38112000  0.27141000  0.86839000  1.0
  C  C36  1  0.61888000  0.72860000  0.13161000  1.0
  C  C37  1  0.41575000  0.28782000  0.98277000  1.0
  C  C38  1  0.58424000  0.71219000  0.01724000  1.0
  C  C39  1  0.40184000  0.18795000  0.10293000  1.0
  C  C40  1  0.59816000  0.81205000  0.89708000  1.0
  C  C41  1  0.34979000  0.07453000  0.10874000  1.0
  C  C42  1  0.65021000  0.92547000  0.89126000  1.0
  C  C43  1  0.30429000  0.06790000  0.99500000  1.0
  C  C44  1  0.69572000  0.93209000  0.00501000  1.0
  C  C45  1  0.32067000  0.16355000  0.87401000  1.0
  C  C46  1  0.67933000  0.83645000  0.12599000  1.0
  C  C47  1  0.41702000  0.36218000  0.73812000  1.0
  C  C48  1  0.58298000  0.63782000  0.26188000  1.0
  C  C49  1  0.44336000  0.19228000  0.23014000  1.0
  C  C50  1  0.55665000  0.80772000  0.76986000  1.0
  N  N51  1  0.08146000  0.79269000  0.74860000  1.0
  N  N52  1  0.91853000  0.20731000  0.25139000  1.0
  N  N53  1  0.24239000  0.95307000  0.00449000  1.0
  N  N54  1  0.75762000  0.04693000  0.99552000  1.0
  O  O55  1  0.33730000  0.17754000  0.49456000  1.0
  O  O56  1  0.66270000  0.82247000  0.50544000  1.0
  O  O57  1  0.16149000  0.38508000  0.45855000  1.0
  O  O58  1  0.83851000  0.61492000  0.54146000  1.0
  O  O59  1  0.64080000  0.38887000  0.52100000  1.0
  O  O60  1  0.35920000  0.61113000  0.47900000  1.0
  O  O61  1  0.61775000  0.19253000  0.49557000  1.0
  O  O62  1  0.38224000  0.80747000  0.50442000  1.0
  O  O63  1  0.98390000  0.73806000  0.78955000  1.0
  O  O64  1  0.01610000  0.26195000  0.21045000  1.0
  O  O65  1  0.21209000  0.72413000  0.76687000  1.0
  O  O66  1  0.78791000  0.27587000  0.23313000  1.0
  O  O67  1  0.38423000  0.33642000  0.64120000  1.0
  O  O68  1  0.61578000  0.66357000  0.35880000  1.0
  O  O69  1  0.48132000  0.45199000  0.73688000  1.0
  O  O70  1  0.51868000  0.54801000  0.26312000  1.0
  O  O71  1  0.42520000  0.31261000  0.24489000  1.0
  O  O72  1  0.57481000  0.68739000  0.75511000  1.0
  O  O73  1  0.49352000  0.06324000  0.31446000  1.0
  O  O74  1  0.50649000  0.93676000  0.68554000  1.0
  O  O75  1  0.25007000  0.85734000  0.11324000  1.0
  O  O76  1  0.74995000  0.14265000  0.88677000  1.0
  O  O77  1  0.18550000  0.95630000  0.90627000  1.0
  O  O78  1  0.81450000  0.04371000  0.09375000  1.0
  O  O79  1  0.21755000  0.58992000  0.25677000  1.0
  O  O80  1  0.78245000  0.41007000  0.74324000  1.0
