# generated using pymatgen
data_CuH5C8NO7
_symmetry_space_group_name_H-M   'P 1'
_cell_length_a   5.90201000
_cell_length_b   18.88570000
_cell_length_c   18.89000000
_cell_angle_alpha   60.03300000
_cell_angle_beta   89.97900000
_cell_angle_gamma   89.96600000
_symmetry_Int_Tables_number   1
_chemical_formula_structural   CuH5C8NO7
_chemical_formula_sum   'Cu6 H30 C48 N6 O42'
_cell_volume   1824.06310581
_cell_formula_units_Z   6
loop_
 _symmetry_equiv_pos_site_id
 _symmetry_equiv_pos_as_xyz
  1  'x, y, z'
loop_
 _atom_site_type_symbol
 _atom_site_label
 _atom_site_symmetry_multiplicity
 _atom_site_fract_x
 _atom_site_fract_y
 _atom_site_fract_z
 _atom_site_occupancy
  Cu  Cu0  1  0.82136000  0.47815000  0.47861000  1.0
  Cu  Cu1  1  0.82124000  0.47868000  0.04318000  1.0
  Cu  Cu2  1  0.82140000  0.04322000  0.47821000  1.0
  Cu  Cu3  1  0.17874000  0.95672000  0.52132000  1.0
  Cu  Cu4  1  0.17855000  0.52131000  0.52188000  1.0
  Cu  Cu5  1  0.17857000  0.52178000  0.95683000  1.0
  H  H6  1  0.67461000  0.44738000  0.36662000  1.0
  H  H7  1  0.67525000  0.36666000  0.18581000  1.0
  H  H8  1  0.67455000  0.18595000  0.44748000  1.0
  H  H9  1  0.32396000  0.81429000  0.63319000  1.0
  H  H10  1  0.32227000  0.63328000  0.55249000  1.0
  H  H11  1  0.32308000  0.55254000  0.81412000  1.0
  H  H12  1  0.35107000  0.55397000  0.63478000  1.0
  H  H13  1  0.34982000  0.63472000  0.81162000  1.0
  H  H14  1  0.35189000  0.81142000  0.55374000  1.0
  H  H15  1  0.65074000  0.18805000  0.36543000  1.0
  H  H16  1  0.65175000  0.36534000  0.44658000  1.0
  H  H17  1  0.65123000  0.44646000  0.18823000  1.0
  H  H18  1  0.44853000  0.36358000  0.70426000  1.0
  H  H19  1  0.44862000  0.70448000  0.93211000  1.0
  H  H20  1  0.44842000  0.93224000  0.36346000  1.0
  H  H21  1  0.55134000  0.06778000  0.29560000  1.0
  H  H22  1  0.55135000  0.29554000  0.63663000  1.0
  H  H23  1  0.55119000  0.63657000  0.06781000  1.0
  H  H24  1  0.55097000  0.63660000  0.29586000  1.0
  H  H25  1  0.55079000  0.29567000  0.06753000  1.0
  H  H26  1  0.55108000  0.06737000  0.63678000  1.0
  H  H27  1  0.44931000  0.93261000  0.70429000  1.0
  H  H28  1  0.44920000  0.70428000  0.36316000  1.0
  H  H29  1  0.44918000  0.36327000  0.93248000  1.0
  H  H30  1  0.98615000  0.48388000  0.75808000  1.0
  H  H31  1  0.98659000  0.75816000  0.75807000  1.0
  H  H32  1  0.98633000  0.75811000  0.48369000  1.0
  H  H33  1  0.01340000  0.24193000  0.24185000  1.0
  H  H34  1  0.01380000  0.24177000  0.51627000  1.0
  H  H35  1  0.01381000  0.51611000  0.24201000  1.0
  C  C36  1  0.83915000  0.45229000  0.64184000  1.0
  C  C37  1  0.83939000  0.64196000  0.90589000  1.0
  C  C38  1  0.83920000  0.90595000  0.45214000  1.0
  C  C39  1  0.16056000  0.09407000  0.35806000  1.0
  C  C40  1  0.16078000  0.35803000  0.54789000  1.0
  C  C41  1  0.16067000  0.54782000  0.09409000  1.0
  C  C42  1  0.16125000  0.54752000  0.35845000  1.0
  C  C43  1  0.16095000  0.35833000  0.09400000  1.0
  C  C44  1  0.16126000  0.09389000  0.54769000  1.0
  C  C45  1  0.83908000  0.90604000  0.64166000  1.0
  C  C46  1  0.83885000  0.64165000  0.45228000  1.0
  C  C47  1  0.83880000  0.45236000  0.90601000  1.0
  C  C48  1  0.53073000  0.38055000  0.74515000  1.0
  C  C49  1  0.53093000  0.74534000  0.87429000  1.0
  C  C50  1  0.53074000  0.87439000  0.38040000  1.0
  C  C51  1  0.46905000  0.12563000  0.25474000  1.0
  C  C52  1  0.46917000  0.25467000  0.61965000  1.0
  C  C53  1  0.46906000  0.61954000  0.12569000  1.0
  C  C54  1  0.46891000  0.61958000  0.25499000  1.0
  C  C55  1  0.46871000  0.25482000  0.12540000  1.0
  C  C56  1  0.46895000  0.12526000  0.61978000  1.0
  C  C57  1  0.53139000  0.87472000  0.74513000  1.0
  C  C58  1  0.53124000  0.74516000  0.38018000  1.0
  C  C59  1  0.53117000  0.38033000  0.87457000  1.0
  C  C60  1  0.43695000  0.35770000  0.82124000  1.0
  C  C61  1  0.43707000  0.82142000  0.82107000  1.0
  C  C62  1  0.43694000  0.82113000  0.35756000  1.0
  C  C63  1  0.56298000  0.17885000  0.17870000  1.0
  C  C64  1  0.56310000  0.17859000  0.64245000  1.0
  C  C65  1  0.56300000  0.64231000  0.17898000  1.0
  C  C66  1  0.73087000  0.42628000  0.72274000  1.0
  C  C67  1  0.73122000  0.72288000  0.85102000  1.0
  C  C68  1  0.73098000  0.85109000  0.42608000  1.0
  C  C69  1  0.26877000  0.14894000  0.27716000  1.0
  C  C70  1  0.26899000  0.27710000  0.57393000  1.0
  C  C71  1  0.26893000  0.57381000  0.14899000  1.0
  C  C72  1  0.26900000  0.57375000  0.27746000  1.0
  C  C73  1  0.26867000  0.27732000  0.14875000  1.0
  C  C74  1  0.26898000  0.14862000  0.57397000  1.0
  C  C75  1  0.73140000  0.85133000  0.72267000  1.0
  C  C76  1  0.73119000  0.72268000  0.42600000  1.0
  C  C77  1  0.73108000  0.42616000  0.85123000  1.0
  C  C78  1  0.83053000  0.44839000  0.77590000  1.0
  C  C79  1  0.83093000  0.77601000  0.77576000  1.0
  C  C80  1  0.83067000  0.77579000  0.44820000  1.0
  C  C81  1  0.16909000  0.22423000  0.22403000  1.0
  C  C82  1  0.16942000  0.22395000  0.55178000  1.0
  C  C83  1  0.16942000  0.55161000  0.22432000  1.0
  N  N84  1  0.22726000  0.30786000  0.84617000  1.0
  N  N85  1  0.22725000  0.84638000  0.84596000  1.0
  N  N86  1  0.22715000  0.84602000  0.30777000  1.0
  N  N87  1  0.77285000  0.15393000  0.15379000  1.0
  N  N88  1  0.77286000  0.15366000  0.69226000  1.0
  N  N89  1  0.77268000  0.69215000  0.15408000  1.0
  O  O90  1  0.72389000  0.44155000  0.59110000  1.0
  O  O91  1  0.72397000  0.59124000  0.96732000  1.0
  O  O92  1  0.72391000  0.96744000  0.44145000  1.0
  O  O93  1  0.27586000  0.03257000  0.40876000  1.0
  O  O94  1  0.27598000  0.40877000  0.55865000  1.0
  O  O95  1  0.27598000  0.55853000  0.03262000  1.0
  O  O96  1  0.27434000  0.55952000  0.40875000  1.0
  O  O97  1  0.27415000  0.40859000  0.03172000  1.0
  O  O98  1  0.27437000  0.03157000  0.55967000  1.0
  O  O99  1  0.72601000  0.96838000  0.59141000  1.0
  O  O100  1  0.72579000  0.59136000  0.44025000  1.0
  O  O101  1  0.72563000  0.44038000  0.96831000  1.0
  O  O102  1  0.03708000  0.48350000  0.63041000  1.0
  O  O103  1  0.03740000  0.63043000  0.88617000  1.0
  O  O104  1  0.03714000  0.88613000  0.48335000  1.0
  O  O105  1  0.96263000  0.11387000  0.36957000  1.0
  O  O106  1  0.96289000  0.36952000  0.51661000  1.0
  O  O107  1  0.96268000  0.51664000  0.11383000  1.0
  O  O108  1  0.96501000  0.51485000  0.37052000  1.0
  O  O109  1  0.96466000  0.37049000  0.11456000  1.0
  O  O110  1  0.96504000  0.11456000  0.51498000  1.0
  O  O111  1  0.03525000  0.88537000  0.62950000  1.0
  O  O112  1  0.03503000  0.62950000  0.48505000  1.0
  O  O113  1  0.03509000  0.48502000  0.88545000  1.0
  O  O114  1  0.57194000  0.41660000  0.41249000  1.0
  O  O115  1  0.57181000  0.41230000  0.17107000  1.0
  O  O116  1  0.57158000  0.17081000  0.41681000  1.0
  O  O117  1  0.42855000  0.82927000  0.58783000  1.0
  O  O118  1  0.42797000  0.58832000  0.58298000  1.0
  O  O119  1  0.42798000  0.58317000  0.82867000  1.0
  O  O120  1  0.14572000  0.28905000  0.79738000  1.0
  O  O121  1  0.14557000  0.79762000  0.91351000  1.0
  O  O122  1  0.14550000  0.91362000  0.28895000  1.0
  O  O123  1  0.85438000  0.08633000  0.20252000  1.0
  O  O124  1  0.85436000  0.20244000  0.71108000  1.0
  O  O125  1  0.85419000  0.71100000  0.08648000  1.0
  O  O126  1  0.85416000  0.71093000  0.20290000  1.0
  O  O127  1  0.85447000  0.20273000  0.08624000  1.0
  O  O128  1  0.85441000  0.08605000  0.71105000  1.0
  O  O129  1  0.14582000  0.91400000  0.79720000  1.0
  O  O130  1  0.14569000  0.79720000  0.28898000  1.0
  O  O131  1  0.14579000  0.28904000  0.91377000  1.0
