# generated using pymatgen
data_CdH14(C8N3)2
_symmetry_space_group_name_H-M   'P 1'
_cell_length_a   7.94978000
_cell_length_b   9.23166000
_cell_length_c   10.23710000
_cell_angle_alpha   89.94760000
_cell_angle_beta   90.00000000
_cell_angle_gamma   90.00000000
_symmetry_Int_Tables_number   1
_chemical_formula_structural   CdH14(C8N3)2
_chemical_formula_sum   'Cd2 H28 C32 N12'
_cell_volume   751.29703597
_cell_formula_units_Z   2
loop_
 _symmetry_equiv_pos_site_id
 _symmetry_equiv_pos_as_xyz
  1  'x, y, z'
loop_
 _atom_site_type_symbol
 _atom_site_label
 _atom_site_symmetry_multiplicity
 _atom_site_fract_x
 _atom_site_fract_y
 _atom_site_fract_z
 _atom_site_occupancy
  Cd  Cd0  1  0.00000000  0.00000000  0.50000000  1.0
  Cd  Cd1  1  0.50000000  0.00000000  0.00000000  1.0
  H  H2  1  0.73856000  0.28684000  0.43128000  1.0
  H  H3  1  0.23856000  0.71316000  0.06872000  1.0
  H  H4  1  0.26144000  0.71316000  0.56872000  1.0
  H  H5  1  0.76144000  0.28684000  0.93128000  1.0
  H  H6  1  0.51986000  0.28962000  0.21820000  1.0
  H  H7  1  0.01986000  0.71038000  0.28180000  1.0
  H  H8  1  0.48014000  0.71038000  0.78180000  1.0
  H  H9  1  0.98014000  0.28962000  0.71820000  1.0
  H  H10  1  0.87375000  0.95464000  0.17207000  1.0
  H  H11  1  0.37374000  0.04536000  0.32793000  1.0
  H  H12  1  0.12625000  0.04536000  0.82793000  1.0
  H  H13  1  0.62626000  0.95464000  0.67207000  1.0
  H  H14  1  0.64608000  0.88517000  0.35555000  1.0
  H  H15  1  0.14608000  0.11483000  0.14445000  1.0
  H  H16  1  0.35392000  0.11483000  0.64445000  1.0
  H  H17  1  0.85392000  0.88517000  0.85555000  1.0
  H  H18  1  0.43256000  0.69332000  0.35452000  1.0
  H  H19  1  0.93256000  0.30668000  0.14548000  1.0
  H  H20  1  0.56744000  0.30668000  0.64548000  1.0
  H  H21  1  0.06744000  0.69332000  0.85452000  1.0
  H  H22  1  0.73917000  0.46390000  0.63845000  1.0
  H  H23  1  0.23917000  0.53610000  0.86155000  1.0
  H  H24  1  0.26083000  0.53610000  0.36155000  1.0
  H  H25  1  0.76083000  0.46390000  0.13845000  1.0
  H  H26  1  0.93979000  0.66811000  0.62576000  1.0
  H  H27  1  0.43979000  0.33189000  0.87424000  1.0
  H  H28  1  0.06021000  0.33189000  0.37424000  1.0
  H  H29  1  0.56021000  0.66811000  0.12576000  1.0
  C  C30  1  0.73607000  0.21972000  0.34457000  1.0
  C  C31  1  0.23607000  0.78028000  0.15543000  1.0
  C  C32  1  0.26393000  0.78028000  0.65543000  1.0
  C  C33  1  0.76393000  0.21972000  0.84457000  1.0
  C  C34  1  0.62726000  0.22065000  0.23880000  1.0
  C  C35  1  0.12726000  0.77935000  0.26120000  1.0
  C  C36  1  0.37275000  0.77935000  0.76120000  1.0
  C  C37  1  0.87275000  0.22065000  0.73880000  1.0
  C  C38  1  0.80714000  0.04675000  0.21306000  1.0
  C  C39  1  0.30714000  0.95325000  0.28694000  1.0
  C  C40  1  0.19286000  0.95324000  0.78694000  1.0
  C  C41  1  0.69286000  0.04676000  0.71306000  1.0
  C  C42  1  0.66265000  0.78967000  0.41689000  1.0
  C  C43  1  0.16265000  0.21033000  0.08311000  1.0
  C  C44  1  0.33735000  0.21033000  0.58311000  1.0
  C  C45  1  0.83735000  0.78967000  0.91689000  1.0
  C  C46  1  0.54252000  0.68015000  0.41679000  1.0
  C  C47  1  0.04252000  0.31985000  0.08321000  1.0
  C  C48  1  0.45748000  0.31985000  0.58321000  1.0
  C  C49  1  0.95748000  0.68015000  0.91679000  1.0
  C  C50  1  0.56379000  0.55846000  0.49734000  1.0
  C  C51  1  0.06379000  0.44154000  0.00266000  1.0
  C  C52  1  0.43621000  0.44154000  0.50266000  1.0
  C  C53  1  0.93621000  0.55846000  0.99734000  1.0
  C  C54  1  0.71123000  0.55438000  0.57350000  1.0
  C  C55  1  0.21123000  0.44561000  0.92650000  1.0
  C  C56  1  0.28877000  0.44562000  0.42650000  1.0
  C  C57  1  0.78877000  0.55439000  0.07350000  1.0
  C  C58  1  0.82529000  0.66847000  0.56689000  1.0
  C  C59  1  0.32529000  0.33153000  0.93311000  1.0
  C  C60  1  0.17471000  0.33153000  0.43311000  1.0
  C  C61  1  0.67471000  0.66847000  0.06689000  1.0
  N  N62  1  0.85024000  0.10897000  0.32778000  1.0
  N  N63  1  0.35025000  0.89103000  0.17223000  1.0
  N  N64  1  0.14976000  0.89103000  0.67222000  1.0
  N  N65  1  0.64976000  0.10897000  0.82778000  1.0
  N  N66  1  0.67327000  0.11005000  0.15543000  1.0
  N  N67  1  0.17327000  0.88995000  0.34457000  1.0
  N  N68  1  0.32673000  0.88995000  0.84457000  1.0
  N  N69  1  0.82673000  0.11005000  0.65543000  1.0
  N  N70  1  0.80248000  0.78540000  0.49046000  1.0
  N  N71  1  0.30248000  0.21460000  0.00954000  1.0
  N  N72  1  0.19752000  0.21460000  0.50954000  1.0
  N  N73  1  0.69752000  0.78540000  0.99046000  1.0
