# generated using pymatgen
data_ZnH12C15SN3O4
_symmetry_space_group_name_H-M   'P 1'
_cell_length_a   12.29720000
_cell_length_b   20.10460000
_cell_length_c   20.10460000
_cell_angle_alpha   102.61800000
_cell_angle_beta   94.88550000
_cell_angle_gamma   94.88550000
_symmetry_Int_Tables_number   1
_chemical_formula_structural   ZnH12C15SN3O4
_chemical_formula_sum   'Zn8 H96 C120 S8 N24 O32'
_cell_volume   4805.19593978
_cell_formula_units_Z   8
loop_
 _symmetry_equiv_pos_site_id
 _symmetry_equiv_pos_as_xyz
  1  'x, y, z'
loop_
 _atom_site_type_symbol
 _atom_site_label
 _atom_site_symmetry_multiplicity
 _atom_site_fract_x
 _atom_site_fract_y
 _atom_site_fract_z
 _atom_site_occupancy
  Zn  Zn0  1  0.90416000  0.52928000  0.01709000  1.0
  Zn  Zn1  1  0.59584000  0.98291000  0.47072000  1.0
  Zn  Zn2  1  0.09584000  0.47072000  0.98291000  1.0
  Zn  Zn3  1  0.40416000  0.01709000  0.52928000  1.0
  Zn  Zn4  1  0.70297000  0.79062000  0.05923000  1.0
  Zn  Zn5  1  0.79703000  0.94077000  0.20938000  1.0
  Zn  Zn6  1  0.29703000  0.20938000  0.94077000  1.0
  Zn  Zn7  1  0.20297000  0.05923000  0.79062000  1.0
  H  H8  1  0.85368000  0.67499000  0.07485000  1.0
  H  H9  1  0.64632000  0.92515000  0.32501000  1.0
  H  H10  1  0.14632000  0.32501000  0.92515000  1.0
  H  H11  1  0.35368000  0.07485000  0.67499000  1.0
  H  H12  1  0.78817000  0.65421000  0.98915000  1.0
  H  H13  1  0.71183000  0.01085000  0.34579000  1.0
  H  H14  1  0.21183000  0.34579000  0.01085000  1.0
  H  H15  1  0.28818000  0.98915000  0.65421000  1.0
  H  H16  1  0.67274000  0.54624000  0.94781000  1.0
  H  H17  1  0.82726000  0.05219000  0.45376000  1.0
  H  H18  1  0.32726000  0.45376000  0.05219000  1.0
  H  H19  1  0.17274000  0.94781000  0.54624000  1.0
  H  H20  1  0.64996000  0.48980000  0.00419000  1.0
  H  H21  1  0.85004000  0.99581000  0.51020000  1.0
  H  H22  1  0.35004000  0.51020000  0.99581000  1.0
  H  H23  1  0.14996000  0.00419000  0.48980000  1.0
  H  H24  1  0.73869000  0.51925000  0.11980000  1.0
  H  H25  1  0.76132000  0.88020000  0.48075000  1.0
  H  H26  1  0.26132000  0.48075000  0.88020000  1.0
  H  H27  1  0.23868000  0.11980000  0.51925000  1.0
  H  H28  1  0.82428000  0.59836000  0.15022000  1.0
  H  H29  1  0.67572000  0.84978000  0.40164000  1.0
  H  H30  1  0.17572000  0.40164000  0.84978000  1.0
  H  H31  1  0.32428000  0.15022000  0.59836000  1.0
  H  H32  1  0.51206000  0.67566000  0.03719000  1.0
  H  H33  1  0.98794000  0.96281000  0.32434000  1.0
  H  H34  1  0.48794000  0.32434000  0.96281000  1.0
  H  H35  1  0.01206000  0.03719000  0.67566000  1.0
  H  H36  1  0.59397000  0.65416000  0.96743000  1.0
  H  H37  1  0.90603000  0.03257000  0.34584000  1.0
  H  H38  1  0.40603000  0.34584000  0.03257000  1.0
  H  H39  1  0.09397000  0.96743000  0.65416000  1.0
  H  H40  1  0.54343000  0.51951000  0.09684000  1.0
  H  H41  1  0.95657000  0.90316000  0.48049000  1.0
  H  H42  1  0.45657000  0.48049000  0.90316000  1.0
  H  H43  1  0.04343000  0.09684000  0.51951000  1.0
  H  H44  1  0.48472000  0.59942000  0.11175000  1.0
  H  H45  1  0.01528000  0.88825000  0.40058000  1.0
  H  H46  1  0.51528000  0.40058000  0.88825000  1.0
  H  H47  1  0.98472000  0.11175000  0.59942000  1.0
  H  H48  1  0.74407000  0.70470000  0.17012000  1.0
  H  H49  1  0.75594000  0.82988000  0.29530000  1.0
  H  H50  1  0.25594000  0.29530000  0.82988000  1.0
  H  H51  1  0.24406000  0.17012000  0.70470000  1.0
  H  H52  1  0.59906000  0.70518000  0.15338000  1.0
  H  H53  1  0.90094000  0.84662000  0.29482000  1.0
  H  H54  1  0.40094000  0.29482000  0.84662000  1.0
  H  H55  1  0.09906000  0.15338000  0.70518000  1.0
  H  H56  1  0.77383000  0.39266000  0.13807000  1.0
  H  H57  1  0.72617000  0.86193000  0.60734000  1.0
  H  H58  1  0.22617000  0.60734000  0.86193000  1.0
  H  H59  1  0.27383000  0.13807000  0.39266000  1.0
  H  H60  1  0.72005000  0.29777000  0.19462000  1.0
  H  H61  1  0.77995000  0.80538000  0.70223000  1.0
  H  H62  1  0.27995000  0.70223000  0.80537000  1.0
  H  H63  1  0.22005000  0.19463000  0.29777000  1.0
  H  H64  1  0.75719000  0.18704000  0.22373000  1.0
  H  H65  1  0.74281000  0.77627000  0.81296000  1.0
  H  H66  1  0.24281000  0.81296000  0.77627000  1.0
  H  H67  1  0.25719000  0.22373000  0.18704000  1.0
  H  H68  1  0.04011000  0.09062000  0.15598000  1.0
  H  H69  1  0.45990000  0.84402000  0.90938000  1.0
  H  H70  1  0.95990000  0.90938000  0.84402000  1.0
  H  H71  1  0.54011000  0.15598000  0.09062000  1.0
  H  H72  1  0.09981000  0.18963000  0.10711000  1.0
  H  H73  1  0.40019000  0.89289000  0.81037000  1.0
  H  H74  1  0.90019000  0.81037000  0.89289000  1.0
  H  H75  1  0.59982000  0.10711000  0.18963000  1.0
  H  H76  1  0.06616000  0.30066000  0.08149000  1.0
  H  H77  1  0.43384000  0.91850000  0.69934000  1.0
  H  H78  1  0.93384000  0.69934000  0.91850000  1.0
  H  H79  1  0.56616000  0.08150000  0.30066000  1.0
  H  H80  1  0.32843000  0.60151000  0.13281000  1.0
  H  H81  1  0.17157000  0.86719000  0.39849000  1.0
  H  H82  1  0.67157000  0.39849000  0.86719000  1.0
  H  H83  1  0.82843000  0.13281000  0.60151000  1.0
  H  H84  1  0.03819000  0.68102000  0.20629000  1.0
  H  H85  1  0.46181000  0.79371000  0.31898000  1.0
  H  H86  1  0.96181000  0.31898000  0.79371000  1.0
  H  H87  1  0.53819000  0.20629000  0.68103000  1.0
  H  H88  1  0.44683000  0.69072000  0.22273000  1.0
  H  H89  1  0.05317000  0.77727000  0.30928000  1.0
  H  H90  1  0.55317000  0.30928000  0.77727000  1.0
  H  H91  1  0.94683000  0.22273000  0.69072000  1.0
  H  H92  1  0.02676000  0.74550000  0.03659000  1.0
  H  H93  1  0.47324000  0.96341000  0.25450000  1.0
  H  H94  1  0.97325000  0.25450000  0.96341000  1.0
  H  H95  1  0.52676000  0.03659000  0.74550000  1.0
  H  H96  1  0.08183000  0.91477000  0.21292000  1.0
  H  H97  1  0.41817000  0.78708000  0.08523000  1.0
  H  H98  1  0.91817000  0.08523000  0.78708000  1.0
  H  H99  1  0.58183000  0.21292000  0.91477000  1.0
  H  H100  1  0.22774000  0.74044000  0.03550000  1.0
  H  H101  1  0.27226000  0.96450000  0.25956000  1.0
  H  H102  1  0.77226000  0.25956000  0.96450000  1.0
  H  H103  1  0.72774000  0.03550000  0.74044000  1.0
  C  C104  1  0.77912000  0.65025000  0.04194000  1.0
  C  C105  1  0.72088000  0.95806000  0.34975000  1.0
  C  C106  1  0.22088000  0.34975000  0.95806000  1.0
  C  C107  1  0.27912000  0.04194000  0.65025000  1.0
  C  C108  1  0.66170000  0.54365000  0.00084000  1.0
  C  C109  1  0.83830000  0.99916000  0.45635000  1.0
  C  C110  1  0.33830000  0.45635000  0.99916000  1.0
  C  C111  1  0.16170000  0.00084000  0.54365000  1.0
  C  C112  1  0.74910000  0.57347000  0.11785000  1.0
  C  C113  1  0.75091000  0.88215000  0.42653000  1.0
  C  C114  1  0.25091000  0.42653000  0.88215000  1.0
  C  C115  1  0.24909000  0.11785000  0.57347000  1.0
  C  C116  1  0.58301000  0.64958000  0.01993000  1.0
  C  C117  1  0.91699000  0.98007000  0.35042000  1.0
  C  C118  1  0.41699000  0.35042000  0.98007000  1.0
  C  C119  1  0.08302000  0.01993000  0.64958000  1.0
  C  C120  1  0.55599000  0.57372000  0.09466000  1.0
  C  C121  1  0.94401000  0.90534000  0.42628000  1.0
  C  C122  1  0.44401000  0.42628000  0.90534000  1.0
  C  C123  1  0.05599000  0.09466000  0.57372000  1.0
  C  C124  1  0.66999000  0.67882000  0.13696000  1.0
  C  C125  1  0.83001000  0.86304000  0.32118000  1.0
  C  C126  1  0.33001000  0.32118000  0.86304000  1.0
  C  C127  1  0.16999000  0.13696000  0.67882000  1.0
  C  C128  1  0.95222000  0.40798000  0.07043000  1.0
  C  C129  1  0.54777000  0.92957000  0.59202000  1.0
  C  C130  1  0.04777000  0.59202000  0.92957000  1.0
  C  C131  1  0.45222000  0.07043000  0.40798000  1.0
  C  C132  1  0.92316000  0.35198000  0.10609000  1.0
  C  C133  1  0.57684000  0.89391000  0.64802000  1.0
  C  C134  1  0.07684000  0.64802000  0.89391000  1.0
  C  C135  1  0.42316000  0.10609000  0.35198000  1.0
  C  C136  1  0.82492000  0.35108000  0.13857000  1.0
  C  C137  1  0.67508000  0.86143000  0.64892000  1.0
  C  C138  1  0.17508000  0.64892000  0.86143000  1.0
  C  C139  1  0.32492000  0.13857000  0.35108000  1.0
  C  C140  1  0.79549000  0.29876000  0.16974000  1.0
  C  C141  1  0.70452000  0.83026000  0.70124000  1.0
  C  C142  1  0.20451000  0.70124000  0.83026000  1.0
  C  C143  1  0.29549000  0.16974000  0.29876000  1.0
  C  C144  1  0.86200000  0.24424000  0.16921000  1.0
  C  C145  1  0.63800000  0.83079000  0.75576000  1.0
  C  C146  1  0.13800000  0.75576000  0.83079000  1.0
  C  C147  1  0.36201000  0.16921000  0.24424000  1.0
  C  C148  1  0.83224000  0.18846000  0.19857000  1.0
  C  C149  1  0.66776000  0.80143000  0.81154000  1.0
  C  C150  1  0.16776000  0.81154000  0.80143000  1.0
  C  C151  1  0.33224000  0.19857000  0.18846000  1.0
  C  C152  1  0.89507000  0.13392000  0.19352000  1.0
  C  C153  1  0.60493000  0.80648000  0.86608000  1.0
  C  C154  1  0.10493000  0.86608000  0.80648000  1.0
  C  C155  1  0.39507000  0.19352000  0.13392000  1.0
  C  C156  1  0.99280000  0.13446000  0.16049000  1.0
  C  C157  1  0.50720000  0.83951000  0.86554000  1.0
  C  C158  1  0.00720000  0.86554000  0.83951000  1.0
  C  C159  1  0.49281000  0.16049000  0.13446000  1.0
  C  C160  1  0.02552000  0.18905000  0.13314000  1.0
  C  C161  1  0.47448000  0.86686000  0.81095000  1.0
  C  C162  1  0.97448000  0.81095000  0.86686000  1.0
  C  C163  1  0.52552000  0.13314000  0.18905000  1.0
  C  C164  1  0.96097000  0.24478000  0.13618000  1.0
  C  C165  1  0.53904000  0.86382000  0.75522000  1.0
  C  C166  1  0.03903000  0.75522000  0.86381000  1.0
  C  C167  1  0.46097000  0.13619000  0.24478000  1.0
  C  C168  1  0.99021000  0.29994000  0.10577000  1.0
  C  C169  1  0.50978000  0.89423000  0.70006000  1.0
  C  C170  1  0.00978000  0.70006000  0.89422000  1.0
  C  C171  1  0.49022000  0.10578000  0.29994000  1.0
  C  C172  1  0.85276000  0.07234000  0.21762000  1.0
  C  C173  1  0.64724000  0.78238000  0.92766000  1.0
  C  C174  1  0.14724000  0.92766000  0.78238000  1.0
  C  C175  1  0.35276000  0.21762000  0.07234000  1.0
  C  C176  1  0.10984000  0.58565000  0.10734000  1.0
  C  C177  1  0.39016000  0.89266000  0.41436000  1.0
  C  C178  1  0.89016000  0.41435000  0.89266000  1.0
  C  C179  1  0.60983000  0.10734000  0.58565000  1.0
  C  C180  1  0.17699000  0.63712000  0.16434000  1.0
  C  C181  1  0.32301000  0.83566000  0.36288000  1.0
  C  C182  1  0.82301000  0.36288000  0.83566000  1.0
  C  C183  1  0.67699000  0.16434000  0.63712000  1.0
  C  C184  1  0.29307000  0.63953000  0.16955000  1.0
  C  C185  1  0.20693000  0.83045000  0.36047000  1.0
  C  C186  1  0.70693000  0.36047000  0.83045000  1.0
  C  C187  1  0.79307000  0.16955000  0.63953000  1.0
  C  C188  1  0.12751000  0.68325000  0.21061000  1.0
  C  C189  1  0.37249000  0.78939000  0.31675000  1.0
  C  C190  1  0.87249000  0.31675000  0.78939000  1.0
  C  C191  1  0.62751000  0.21061000  0.68325000  1.0
  C  C192  1  0.19120000  0.73354000  0.26280000  1.0
  C  C193  1  0.30880000  0.73720000  0.26646000  1.0
  C  C194  1  0.80880000  0.26646000  0.73720000  1.0
  C  C195  1  0.69120000  0.26280000  0.73354000  1.0
  C  C196  1  0.35739000  0.68849000  0.21897000  1.0
  C  C197  1  0.14261000  0.78103000  0.31151000  1.0
  C  C198  1  0.64261000  0.31151000  0.78103000  1.0
  C  C199  1  0.85739000  0.21897000  0.68849000  1.0
  C  C200  1  0.92322000  0.83263000  0.12664000  1.0
  C  C201  1  0.57678000  0.87336000  0.16737000  1.0
  C  C202  1  0.07678000  0.16737000  0.87335000  1.0
  C  C203  1  0.42322000  0.12664000  0.83263000  1.0
  C  C204  1  0.04347000  0.82998000  0.12609000  1.0
  C  C205  1  0.45653000  0.87392000  0.17002000  1.0
  C  C206  1  0.95653000  0.17002000  0.87392000  1.0
  C  C207  1  0.54347000  0.12609000  0.82998000  1.0
  C  C208  1  0.08450000  0.78095000  0.07484000  1.0
  C  C209  1  0.41551000  0.92516000  0.21905000  1.0
  C  C210  1  0.91551000  0.21905000  0.92516000  1.0
  C  C211  1  0.58449000  0.07484000  0.78095000  1.0
  C  C212  1  0.11471000  0.87641000  0.17495000  1.0
  C  C213  1  0.38529000  0.82505000  0.12359000  1.0
  C  C214  1  0.88529000  0.12359000  0.82505000  1.0
  C  C215  1  0.61471000  0.17495000  0.87641000  1.0
  C  C216  1  0.19573000  0.77836000  0.07443000  1.0
  C  C217  1  0.30427000  0.92557000  0.22164000  1.0
  C  C218  1  0.80427000  0.22164000  0.92557000  1.0
  C  C219  1  0.69573000  0.07443000  0.77836000  1.0
  C  C220  1  0.22931000  0.87617000  0.17458000  1.0
  C  C221  1  0.27069000  0.82542000  0.12383000  1.0
  C  C222  1  0.77069000  0.12383000  0.82542000  1.0
  C  C223  1  0.72932000  0.17458000  0.87617000  1.0
  S  S224  1  0.86140000  0.96204000  0.03681000  1.0
  S  S225  1  0.63860000  0.96319000  0.03796000  1.0
  S  S226  1  0.13860000  0.03796000  0.96319000  1.0
  S  S227  1  0.36140000  0.03681000  0.96204000  1.0
  S  S228  1  0.72953000  0.96818000  0.92205000  1.0
  S  S229  1  0.77047000  0.07795000  0.03182000  1.0
  S  S230  1  0.27047000  0.03182000  0.07795000  1.0
  S  S231  1  0.22953000  0.92205000  0.96818000  1.0
  N  N232  1  0.76449000  0.57692000  0.04524000  1.0
  N  N233  1  0.73551000  0.95476000  0.42308000  1.0
  N  N234  1  0.23551000  0.42308000  0.95476000  1.0
  N  N235  1  0.26449000  0.04524000  0.57692000  1.0
  N  N236  1  0.68344000  0.68582000  0.06527000  1.0
  N  N237  1  0.81656000  0.93473000  0.31417000  1.0
  N  N238  1  0.31656000  0.31417000  0.93473000  1.0
  N  N239  1  0.18344000  0.06527000  0.68582000  1.0
  N  N240  1  0.56617000  0.57759000  0.02295000  1.0
  N  N241  1  0.93383000  0.97705000  0.42241000  1.0
  N  N242  1  0.43383000  0.42241000  0.97705000  1.0
  N  N243  1  0.06617000  0.02295000  0.57759000  1.0
  N  N244  1  0.65418000  0.60716000  0.14079000  1.0
  N  N245  1  0.84582000  0.85921000  0.39284000  1.0
  N  N246  1  0.34582000  0.39284000  0.85921000  1.0
  N  N247  1  0.15418000  0.14079000  0.60716000  1.0
  N  N248  1  0.75000000  0.93410000  0.06590000  1.0
  N  N249  1  0.25000000  0.06590000  0.93410000  1.0
  N  N250  1  0.83661000  0.93849000  0.95386000  1.0
  N  N251  1  0.66339000  0.04614000  0.06151000  1.0
  N  N252  1  0.16339000  0.06151000  0.04614000  1.0
  N  N253  1  0.33661000  0.95386000  0.93849000  1.0
  N  N254  1  0.75000000  0.05084000  0.94916000  1.0
  N  N255  1  0.25000000  0.94916000  0.05084000  1.0
  O  O256  1  0.88556000  0.45331000  0.07048000  1.0
  O  O257  1  0.61444000  0.92952000  0.54669000  1.0
  O  O258  1  0.11443000  0.54669000  0.92952000  1.0
  O  O259  1  0.38556000  0.07048000  0.45331000  1.0
  O  O260  1  0.04059000  0.40594000  0.04146000  1.0
  O  O261  1  0.45941000  0.95854000  0.59407000  1.0
  O  O262  1  0.95941000  0.59407000  0.95855000  1.0
  O  O263  1  0.54059000  0.04145000  0.40594000  1.0
  O  O264  1  0.89516000  0.01577000  0.19243000  1.0
  O  O265  1  0.60484000  0.80757000  0.98423000  1.0
  O  O266  1  0.10484000  0.98423000  0.80757000  1.0
  O  O267  1  0.39516000  0.19243000  0.01577000  1.0
  O  O268  1  0.77858000  0.07455000  0.25684000  1.0
  O  O269  1  0.72142000  0.74316000  0.92545000  1.0
  O  O270  1  0.22142000  0.92545000  0.74316000  1.0
  O  O271  1  0.27858000  0.25684000  0.07455000  1.0
  O  O272  1  0.00681000  0.58950000  0.09970000  1.0
  O  O273  1  0.49320000  0.90030000  0.41050000  1.0
  O  O274  1  0.99320000  0.41050000  0.90030000  1.0
  O  O275  1  0.50681000  0.09970000  0.58950000  1.0
  O  O276  1  0.16183000  0.54226000  0.06985000  1.0
  O  O277  1  0.33817000  0.93014000  0.45774000  1.0
  O  O278  1  0.83817000  0.45774000  0.93014000  1.0
  O  O279  1  0.66183000  0.06985000  0.54226000  1.0
  O  O280  1  0.86327000  0.80263000  0.07135000  1.0
  O  O281  1  0.63673000  0.92865000  0.19737000  1.0
  O  O282  1  0.13673000  0.19737000  0.92865000  1.0
  O  O283  1  0.36327000  0.07135000  0.80263000  1.0
  O  O284  1  0.88725000  0.86305000  0.18161000  1.0
  O  O285  1  0.61274000  0.81839000  0.13695000  1.0
  O  O286  1  0.11274000  0.13695000  0.81838000  1.0
  O  O287  1  0.38726000  0.18162000  0.86305000  1.0
