# generated using pymatgen
data_Na3P8H45C20(NO4)8
_symmetry_space_group_name_H-M   'P 1'
_cell_length_a   8.91969000
_cell_length_b   11.32320000
_cell_length_c   12.55250000
_cell_angle_alpha   116.01800000
_cell_angle_beta   98.30010000
_cell_angle_gamma   100.68400000
_symmetry_Int_Tables_number   1
_chemical_formula_structural   Na3P8H45C20(NO4)8
_chemical_formula_sum   'Na3 P8 H45 C20 N8 O32'
_cell_volume   1082.38428745
_cell_formula_units_Z   1
loop_
 _symmetry_equiv_pos_site_id
 _symmetry_equiv_pos_as_xyz
  1  'x, y, z'
loop_
 _atom_site_type_symbol
 _atom_site_label
 _atom_site_symmetry_multiplicity
 _atom_site_fract_x
 _atom_site_fract_y
 _atom_site_fract_z
 _atom_site_occupancy
  Na  Na0  1  0.50000000  0.50000000  0.50000000  1.0
  Na  Na1  1  0.60227000  0.14088000  0.01953000  1.0
  Na  Na2  1  0.39773000  0.85911000  0.98047000  1.0
  P  P3  1  0.81031000  0.87505000  0.84866000  1.0
  P  P4  1  0.18969000  0.12495000  0.15134000  1.0
  P  P5  1  0.77730000  0.57814000  0.78262000  1.0
  P  P6  1  0.22270000  0.42186000  0.21738000  1.0
  P  P7  1  0.23429000  0.65346000  0.66488000  1.0
  P  P8  1  0.76571000  0.34654000  0.33512000  1.0
  P  P9  1  0.35321000  0.95753000  0.73154000  1.0
  P  P10  1  0.64679000  0.04247000  0.26846000  1.0
  H  H11  1  0.88350000  0.05619000  0.03388000  1.0
  H  H12  1  0.11650000  0.94381000  0.96612000  1.0
  H  H13  1  0.57260000  0.41798000  0.74820000  1.0
  H  H14  1  0.42740000  0.58202000  0.25180000  1.0
  H  H15  1  0.09485000  0.65864000  0.80204000  1.0
  H  H16  1  0.90515000  0.34136000  0.19796000  1.0
  H  H17  1  0.00000000  0.50000000  0.50000000  1.0
  H  H18  1  0.57758000  0.90484000  0.69852000  1.0
  H  H19  1  0.42241000  0.09516000  0.30149000  1.0
  H  H20  1  0.51067000  0.68822000  0.79002000  1.0
  H  H21  1  0.48933000  0.31178000  0.20999000  1.0
  H  H22  1  0.03527000  0.83421000  0.72499000  1.0
  H  H23  1  0.96473000  0.16579000  0.27501000  1.0
  H  H24  1  0.94334000  0.84151000  0.04089000  1.0
  H  H25  1  0.05665000  0.15849000  0.95911000  1.0
  H  H26  1  0.76574000  0.87498000  0.08022000  1.0
  H  H27  1  0.23426000  0.12502000  0.91978000  1.0
  H  H28  1  0.04508000  0.67899000  0.08398000  1.0
  H  H29  1  0.95492000  0.32101000  0.91603000  1.0
  H  H30  1  0.94559000  0.50196000  0.15141000  1.0
  H  H31  1  0.05440000  0.49804000  0.84859000  1.0
  H  H32  1  0.65001000  0.47768000  0.15496000  1.0
  H  H33  1  0.34999000  0.52232000  0.84504000  1.0
  H  H34  1  0.56540000  0.66206000  0.08085000  1.0
  H  H35  1  0.43460000  0.33794000  0.91915000  1.0
  H  H36  1  0.31349000  0.73656000  0.47883000  1.0
  H  H37  1  0.68651000  0.26344000  0.52117000  1.0
  H  H38  1  0.11881000  0.63152000  0.43763000  1.0
  H  H39  1  0.88119000  0.36848000  0.56237000  1.0
  H  H40  1  0.86461000  0.91609000  0.33078000  1.0
  H  H41  1  0.13539000  0.08391000  0.66922000  1.0
  H  H42  1  0.35053000  0.92744000  0.42768000  1.0
  H  H43  1  0.64947000  0.07257000  0.57232000  1.0
  H  H44  1  0.14264000  0.02806000  0.32650000  1.0
  H  H45  1  0.85736000  0.97194000  0.67350000  1.0
  H  H46  1  0.88279000  0.75649000  0.42755000  1.0
  H  H47  1  0.11722000  0.24351000  0.57245000  1.0
  H  H48  1  0.76638000  0.61816000  0.48136000  1.0
  H  H49  1  0.23362000  0.38184000  0.51864000  1.0
  H  H50  1  0.70962000  0.73614000  0.57033000  1.0
  H  H51  1  0.29038000  0.26386000  0.42967000  1.0
  H  H52  1  0.68378000  0.31649000  0.86397000  1.0
  H  H53  1  0.31622000  0.68351000  0.13603000  1.0
  H  H54  1  0.64291000  0.15813000  0.80734000  1.0
  H  H55  1  0.35709000  0.84187000  0.19266000  1.0
  C  C56  1  0.73332000  0.73841000  0.88889000  1.0
  C  C57  1  0.26667000  0.26159000  0.11111000  1.0
  C  C58  1  0.81732000  0.79570000  0.02419000  1.0
  C  C59  1  0.18268000  0.20430000  0.97581000  1.0
  C  C60  1  0.92604000  0.64679000  0.09148000  1.0
  C  C61  1  0.07396000  0.35321000  0.90852000  1.0
  C  C62  1  0.71745000  0.54684000  0.12968000  1.0
  C  C63  1  0.28255000  0.45316000  0.87032000  1.0
  C  C64  1  0.67455000  0.63498000  0.09173000  1.0
  C  C65  1  0.32545000  0.36502000  0.90827000  1.0
  C  C66  1  0.19761000  0.78921000  0.62817000  1.0
  C  C67  1  0.80239000  0.21079000  0.37183000  1.0
  C  C68  1  0.19494000  0.73670000  0.49179000  1.0
  C  C69  1  0.80507000  0.26330000  0.50821000  1.0
  C  C70  1  0.22355000  0.90631000  0.41052000  1.0
  C  C71  1  0.77645000  0.09369000  0.58948000  1.0
  C  C72  1  0.12069000  0.95560000  0.36080000  1.0
  C  C73  1  0.87931000  0.04441000  0.63921000  1.0
  C  C74  1  0.98101000  0.81335000  0.41088000  1.0
  C  C75  1  0.01899000  0.18665000  0.58912000  1.0
  N  N76  1  0.80598000  0.69531000  0.06803000  1.0
  N  N77  1  0.19402000  0.30469000  0.93197000  1.0
  N  N78  1  0.87417000  0.55677000  0.12903000  1.0
  N  N79  1  0.12583000  0.44323000  0.87097000  1.0
  N  N80  1  0.13420000  0.81741000  0.44072000  1.0
  N  N81  1  0.86580000  0.18260000  0.55929000  1.0
  N  N82  1  0.97179000  0.89642000  0.36204000  1.0
  N  N83  1  0.02821000  0.10358000  0.63796000  1.0
  O  O84  1  0.98495000  0.88400000  0.85462000  1.0
  O  O85  1  0.01505000  0.11600000  0.14538000  1.0
  O  O86  1  0.79426000  0.01333000  0.95331000  1.0
  O  O87  1  0.20574000  0.98667000  0.04669000  1.0
  O  O88  1  0.71097000  0.84695000  0.72783000  1.0
  O  O89  1  0.28902000  0.15305000  0.27217000  1.0
  O  O90  1  0.71558000  0.54352000  0.65269000  1.0
  O  O91  1  0.28442000  0.45648000  0.34731000  1.0
  O  O92  1  0.94982000  0.59047000  0.83052000  1.0
  O  O93  1  0.05018000  0.40953000  0.16948000  1.0
  O  O94  1  0.67633000  0.45829000  0.80680000  1.0
  O  O95  1  0.32367000  0.54171000  0.19321000  1.0
  O  O96  1  0.40211000  0.64860000  0.66676000  1.0
  O  O97  1  0.59789000  0.35140000  0.33324000  1.0
  O  O98  1  0.20695000  0.69494000  0.79794000  1.0
  O  O99  1  0.79305000  0.30506000  0.20206000  1.0
  O  O100  1  0.11114000  0.51547000  0.57542000  1.0
  O  O101  1  0.88886000  0.48453000  0.42458000  1.0
  O  O102  1  0.39850000  0.97203000  0.85848000  1.0
  O  O103  1  0.60149000  0.02797000  0.14152000  1.0
  O  O104  1  0.50310000  0.95269000  0.67383000  1.0
  O  O105  1  0.49690000  0.04731000  0.32617000  1.0
  O  O106  1  0.29084000  0.06793000  0.71988000  1.0
  O  O107  1  0.70916000  0.93207000  0.28012000  1.0
  O  O108  1  0.56782000  0.71378000  0.87729000  1.0
  O  O109  1  0.43218000  0.28622000  0.12271000  1.0
  O  O110  1  0.04498000  0.80332000  0.63885000  1.0
  O  O111  1  0.95502000  0.19668000  0.36115000  1.0
  O  O112  1  0.69198000  0.67253000  0.48214000  1.0
  O  O113  1  0.30803000  0.32747000  0.51787000  1.0
  O  O114  1  0.68997000  0.24346000  0.88501000  1.0
  O  O115  1  0.31002000  0.75654000  0.11499000  1.0
