# generated using pymatgen
data_ZnH14C22N3(O2F)2
_symmetry_space_group_name_H-M   'P 1'
_cell_length_a   15.97290000
_cell_length_b   17.36770000
_cell_length_c   17.91980000
_cell_angle_alpha   90.25200000
_cell_angle_beta   93.13140000
_cell_angle_gamma   96.10000000
_symmetry_Int_Tables_number   1
_chemical_formula_structural   ZnH14C22N3(O2F)2
_chemical_formula_sum   'Zn2 H28 C44 N6 O8 F4'
_cell_volume   4935.38892529
_cell_formula_units_Z   2
loop_
 _symmetry_equiv_pos_site_id
 _symmetry_equiv_pos_as_xyz
  1  'x, y, z'
loop_
 _atom_site_type_symbol
 _atom_site_label
 _atom_site_symmetry_multiplicity
 _atom_site_fract_x
 _atom_site_fract_y
 _atom_site_fract_z
 _atom_site_occupancy
  Zn  Zn0  1  0.41269000  0.49760000  0.49544000  1.0
  Zn  Zn1  1  0.58729000  0.50239000  0.50454000  1.0
  H  H2  1  0.71423000  0.42663000  0.42654000  1.0
  H  H3  1  0.87294000  0.42677000  0.42661000  1.0
  H  H4  1  0.89249000  0.60205000  0.60094000  1.0
  H  H5  1  0.10747000  0.39798000  0.39905000  1.0
  H  H6  1  0.12704000  0.57325000  0.57339000  1.0
  H  H7  1  0.28575000  0.57338000  0.57345000  1.0
  H  H8  1  0.61910000  0.25948000  0.50523000  1.0
  H  H9  1  0.61402000  0.11414000  0.50509000  1.0
  H  H10  1  0.34268000  0.09921000  0.49356000  1.0
  H  H11  1  0.65731000  0.90079000  0.50652000  1.0
  H  H12  1  0.38598000  0.88585000  0.49498000  1.0
  H  H13  1  0.38090000  0.74051000  0.49482000  1.0
  H  H14  1  0.36297000  0.49437000  0.73228000  1.0
  H  H15  1  0.63210000  0.50509000  0.74228000  1.0
  H  H16  1  0.36787000  0.49489000  0.25770000  1.0
  H  H17  1  0.63699000  0.50534000  0.26776000  1.0
  H  H18  1  0.69392000  0.45642000  0.87820000  1.0
  H  H19  1  0.65337000  0.50628000  0.95270000  1.0
  H  H20  1  0.70116000  0.55890000  0.87856000  1.0
  H  H21  1  0.30477000  0.54307000  0.86406000  1.0
  H  H22  1  0.34760000  0.49354000  0.94119000  1.0
  H  H23  1  0.29781000  0.44053000  0.86309000  1.0
  H  H24  1  0.70200000  0.55942000  0.13653000  1.0
  H  H25  1  0.65238000  0.50564000  0.05882000  1.0
  H  H26  1  0.69546000  0.45691000  0.13638000  1.0
  H  H27  1  0.29901000  0.44078000  0.12100000  1.0
  H  H28  1  0.34667000  0.49418000  0.04728000  1.0
  H  H29  1  0.30586000  0.54324000  0.12216000  1.0
  C  C30  1  0.49442000  0.34831000  0.49950000  1.0
  C  C31  1  0.50384000  0.50009000  0.35429000  1.0
  C  C32  1  0.50558000  0.65168000  0.50049000  1.0
  C  C33  1  0.49611000  0.49982000  0.64569000  1.0
  C  C34  1  0.75717000  0.46384000  0.46387000  1.0
  C  C35  1  0.84384000  0.46418000  0.46403000  1.0
  C  C36  1  0.89391000  0.51462000  0.51422000  1.0
  C  C37  1  0.85552000  0.56238000  0.56169000  1.0
  C  C38  1  0.76785000  0.55688000  0.55674000  1.0
  C  C39  1  0.14445000  0.43766000  0.43829000  1.0
  C  C40  1  0.10607000  0.48541000  0.48577000  1.0
  C  C41  1  0.15615000  0.53584000  0.53596000  1.0
  C  C42  1  0.24282000  0.53617000  0.53611000  1.0
  C  C43  1  0.23212000  0.44315000  0.44324000  1.0
  C  C44  1  0.48562000  0.26128000  0.49926000  1.0
  C  C45  1  0.55923000  0.22287000  0.50254000  1.0
  C  C46  1  0.55671000  0.14300000  0.50256000  1.0
  C  C47  1  0.47796000  0.09786000  0.49923000  1.0
  C  C48  1  0.40362000  0.13411000  0.49606000  1.0
  C  C49  1  0.40823000  0.21443000  0.49609000  1.0
  C  C50  1  0.59638000  0.86589000  0.50399000  1.0
  C  C51  1  0.52204000  0.90214000  0.50081000  1.0
  C  C52  1  0.44329000  0.85700000  0.49750000  1.0
  C  C53  1  0.44077000  0.77712000  0.49750000  1.0
  C  C54  1  0.51438000  0.73871000  0.50076000  1.0
  C  C55  1  0.59177000  0.78557000  0.50394000  1.0
  C  C56  1  0.49742000  0.49982000  0.72928000  1.0
  C  C57  1  0.42214000  0.49688000  0.76596000  1.0
  C  C58  1  0.42154000  0.49675000  0.84364000  1.0
  C  C59  1  0.49960000  0.49981000  0.88648000  1.0
  C  C60  1  0.57659000  0.50289000  0.84950000  1.0
  C  C61  1  0.57386000  0.50275000  0.77164000  1.0
  C  C62  1  0.50024000  0.49981000  0.96582000  1.0
  C  C63  1  0.49977000  0.49987000  0.03418000  1.0
  C  C64  1  0.50039000  0.49994000  0.11352000  1.0
  C  C65  1  0.42340000  0.49697000  0.15049000  1.0
  C  C66  1  0.42612000  0.49716000  0.22834000  1.0
  C  C67  1  0.50255000  0.50004000  0.27071000  1.0
  C  C68  1  0.57784000  0.50291000  0.23406000  1.0
  C  C69  1  0.57846000  0.50301000  0.15637000  1.0
  C  C70  1  0.66053000  0.50630000  0.89233000  1.0
  C  C71  1  0.33873000  0.49331000  0.88022000  1.0
  C  C72  1  0.66128000  0.50641000  0.11980000  1.0
  C  C73  1  0.33947000  0.49363000  0.10764000  1.0
  N  N74  1  0.71936000  0.50980000  0.51009000  1.0
  N  N75  1  0.98333000  0.52203000  0.52160000  1.0
  N  N76  1  0.01665000  0.47800000  0.47839000  1.0
  N  N77  1  0.28061000  0.49022000  0.48989000  1.0
  N  N78  1  0.46614000  0.01606000  0.49879000  1.0
  N  N79  1  0.53386000  0.98394000  0.50125000  1.0
  O  O80  1  0.42727000  0.38150000  0.49859000  1.0
  O  O81  1  0.56940000  0.38198000  0.50070000  1.0
  O  O82  1  0.57515000  0.49836000  0.38964000  1.0
  O  O83  1  0.43338000  0.50189000  0.38412000  1.0
  O  O84  1  0.57272000  0.61850000  0.50120000  1.0
  O  O85  1  0.43060000  0.61800000  0.49946000  1.0
  O  O86  1  0.42478000  0.50142000  0.61035000  1.0
  O  O87  1  0.56661000  0.49824000  0.61586000  1.0
  F  F88  1  0.72863000  0.60128000  0.60172000  1.0
  F  F89  1  0.27133000  0.39875000  0.39825000  1.0
  F  F90  1  0.33365000  0.24552000  0.49272000  1.0
  F  F91  1  0.66635000  0.75447000  0.50732000  1.0
