# generated using pymatgen
data_UH20C15NO6
_symmetry_space_group_name_H-M   'P 1'
_cell_length_a   8.10416000
_cell_length_b   9.73743000
_cell_length_c   11.95310000
_cell_angle_alpha   70.59390000
_cell_angle_beta   87.66990000
_cell_angle_gamma   68.83380000
_symmetry_Int_Tables_number   1
_chemical_formula_structural   UH20C15NO6
_chemical_formula_sum   'U2 H40 C30 N2 O12'
_cell_volume   826.27369893
_cell_formula_units_Z   2
loop_
 _symmetry_equiv_pos_site_id
 _symmetry_equiv_pos_as_xyz
  1  'x, y, z'
loop_
 _atom_site_type_symbol
 _atom_site_label
 _atom_site_symmetry_multiplicity
 _atom_site_fract_x
 _atom_site_fract_y
 _atom_site_fract_z
 _atom_site_occupancy
  U  U0  1  0.76730000  0.55249000  0.16533000  1.0
  U  U1  1  0.23270000  0.44749000  0.83467000  1.0
  H  H2  1  0.39344000  0.58872000  0.03782000  1.0
  H  H3  1  0.60655000  0.41129000  0.96217000  1.0
  H  H4  1  0.08580000  0.75923000  0.96225000  1.0
  H  H5  1  0.91420000  0.24079000  0.03774000  1.0
  H  H6  1  0.16098000  0.09685000  0.09704000  1.0
  H  H7  1  0.83903000  0.90315000  0.90297000  1.0
  H  H8  1  0.46864000  0.90937000  0.16761000  1.0
  H  H9  1  0.53136000  0.09063000  0.83239000  1.0
  H  H10  1  0.23161000  0.29334000  0.32852000  1.0
  H  H11  1  0.76839000  0.70666000  0.67148000  1.0
  H  H12  1  0.36136000  0.40342000  0.25267000  1.0
  H  H13  1  0.63865000  0.59658000  0.74733000  1.0
  H  H14  1  0.44524000  0.05754000  0.28877000  1.0
  H  H15  1  0.55475000  0.94246000  0.71123000  1.0
  H  H16  1  0.56237000  0.17210000  0.20056000  1.0
  H  H17  1  0.43763000  0.82790000  0.79944000  1.0
  H  H18  1  0.51509000  0.11831000  0.46585000  1.0
  H  H19  1  0.48490000  0.88169000  0.53415000  1.0
  H  H20  1  0.63714000  0.22577000  0.37849000  1.0
  H  H21  1  0.36286000  0.77424000  0.62151000  1.0
  H  H22  1  0.72633000  0.87623000  0.42459000  1.0
  H  H23  1  0.27367000  0.12377000  0.57541000  1.0
  H  H24  1  0.81850000  0.94759000  0.51323000  1.0
  H  H25  1  0.18150000  0.05241000  0.48677000  1.0
  H  H26  1  0.11822000  0.82965000  0.48014000  1.0
  H  H27  1  0.88178000  0.17035000  0.51987000  1.0
  H  H28  1  0.19719000  0.86714000  0.33779000  1.0
  H  H29  1  0.80281000  0.13286000  0.66221000  1.0
  H  H30  1  0.36609000  0.55692000  0.42961000  1.0
  H  H31  1  0.63390000  0.44309000  0.57039000  1.0
  H  H32  1  0.23923000  0.44129000  0.43770000  1.0
  H  H33  1  0.76077000  0.55871000  0.56230000  1.0
  H  H34  1  0.07729000  0.69490000  0.28935000  1.0
  H  H35  1  0.92271000  0.30510000  0.71065000  1.0
  H  H36  1  0.95768000  0.67702000  0.41572000  1.0
  H  H37  1  0.04232000  0.32298000  0.58428000  1.0
  H  H38  1  0.87011000  0.99241000  0.24959000  1.0
  H  H39  1  0.12989000  0.00760000  0.75041000  1.0
  H  H40  1  0.93414000  0.09308000  0.32739000  1.0
  H  H41  1  0.06586000  0.90692000  0.67261000  1.0
  C  C42  1  0.33696000  0.70226000  0.04954000  1.0
  C  C43  1  0.66304000  0.29775000  0.95046000  1.0
  C  C44  1  0.16288000  0.79978000  0.00717000  1.0
  C  C45  1  0.83712000  0.20023000  0.99282000  1.0
  C  C46  1  0.09225000  0.94622000  0.02241000  1.0
  C  C47  1  0.90775000  0.05379000  0.97759000  1.0
  C  C48  1  0.20526000  0.98556000  0.08179000  1.0
  C  C49  1  0.79475000  0.01445000  0.91821000  1.0
  C  C50  1  0.37825000  0.88150000  0.12154000  1.0
  C  C51  1  0.62175000  0.11851000  0.87846000  1.0
  C  C52  1  0.20963000  0.35993000  0.13974000  1.0
  C  C53  1  0.79037000  0.64006000  0.86026000  1.0
  C  C54  1  0.31832000  0.30686000  0.25602000  1.0
  C  C55  1  0.68168000  0.69314000  0.74398000  1.0
  C  C56  1  0.48493000  0.15798000  0.27829000  1.0
  C  C57  1  0.51507000  0.84202000  0.72170000  1.0
  C  C58  1  0.59801000  0.12495000  0.39038000  1.0
  C  C59  1  0.40199000  0.87505000  0.60962000  1.0
  C  C60  1  0.76427000  0.97517000  0.42194000  1.0
  C  C61  1  0.23573000  0.02483000  0.57805000  1.0
  C  C62  1  0.23532000  0.50785000  0.58718000  1.0
  C  C63  1  0.76467000  0.49215000  0.41282000  1.0
  C  C64  1  0.08697000  0.84365000  0.38722000  1.0
  C  C65  1  0.91303000  0.15635000  0.61278000  1.0
  C  C66  1  0.23777000  0.54622000  0.45468000  1.0
  C  C67  1  0.76222000  0.45378000  0.54532000  1.0
  C  C68  1  0.08125000  0.69043000  0.38237000  1.0
  C  C69  1  0.91875000  0.30957000  0.61763000  1.0
  C  C70  1  0.91241000  0.98393000  0.33897000  1.0
  C  C71  1  0.08759000  0.01607000  0.66103000  1.0
  N  N72  1  0.44427000  0.74165000  0.10577000  1.0
  N  N73  1  0.55573000  0.25835000  0.89422000  1.0
  O  O74  1  0.68251000  0.39915000  0.18143000  1.0
  O  O75  1  0.31750000  0.60083000  0.81858000  1.0
  O  O76  1  0.84104000  0.71392000  0.14202000  1.0
  O  O77  1  0.15895000  0.28606000  0.85799000  1.0
  O  O78  1  0.04234000  0.38794000  0.14008000  1.0
  O  O79  1  0.95766000  0.61206000  0.85992000  1.0
  O  O80  1  0.28610000  0.37672000  0.04391000  1.0
  O  O81  1  0.71390000  0.62328000  0.95609000  1.0
  O  O82  1  0.37274000  0.40636000  0.65752000  1.0
  O  O83  1  0.62726000  0.59364000  0.34248000  1.0
  O  O84  1  0.09594000  0.57357000  0.63344000  1.0
  O  O85  1  0.90406000  0.42642000  0.36656000  1.0
