# generated using pymatgen
data_Cd3H28C44(NO7)2
_symmetry_space_group_name_H-M   'P 1'
_cell_length_a   9.57583000
_cell_length_b   10.03840000
_cell_length_c   13.64505444
_cell_angle_alpha   94.31689200
_cell_angle_beta   107.89510036
_cell_angle_gamma   116.66680000
_symmetry_Int_Tables_number   1
_chemical_formula_structural   Cd3H28C44(NO7)2
_chemical_formula_sum   'Cd3 H28 C44 N2 O14'
_cell_volume   1079.80491135
_cell_formula_units_Z   1
loop_
 _symmetry_equiv_pos_site_id
 _symmetry_equiv_pos_as_xyz
  1  'x, y, z'
loop_
 _atom_site_type_symbol
 _atom_site_label
 _atom_site_symmetry_multiplicity
 _atom_site_fract_x
 _atom_site_fract_y
 _atom_site_fract_z
 _atom_site_occupancy
  Cd  Cd0  1  0.50000000  0.50000000  0.50000000  1.0
  Cd  Cd1  1  0.50354000  0.78075000  0.34970000  1.0
  Cd  Cd2  1  0.49645000  0.21924000  0.65030000  1.0
  H  H3  1  0.58465000  0.84578000  0.58365000  1.0
  H  H4  1  0.41535000  0.15422000  0.41635000  1.0
  H  H5  1  0.74575000  0.83733000  0.57550000  1.0
  H  H6  1  0.25425000  0.16267000  0.42450000  1.0
  H  H7  1  0.95318000  0.24731000  0.39596000  1.0
  H  H8  1  0.04683000  0.75269000  0.60404000  1.0
  H  H9  1  0.00813000  0.68787000  0.35602000  1.0
  H  H10  1  0.99186000  0.31213000  0.64398000  1.0
  H  H11  1  0.52971000  0.32185000  0.33400000  1.0
  H  H12  1  0.47029000  0.67814000  0.66600000  1.0
  H  H13  1  0.64445000  0.83954000  0.19635000  1.0
  H  H14  1  0.35556000  0.16048000  0.80365000  1.0
  H  H15  1  0.75699000  0.88800000  0.05418000  1.0
  H  H16  1  0.24301000  0.11201000  0.94582000  1.0
  H  H17  1  0.56653000  0.85314000  0.86981000  1.0
  H  H18  1  0.43347000  0.14686000  0.13019000  1.0
  H  H19  1  0.26890000  0.77644000  0.83001000  1.0
  H  H20  1  0.73109000  0.22356000  0.16999000  1.0
  H  H21  1  0.13704000  0.70019000  0.22625000  1.0
  H  H22  1  0.86298000  0.29982000  0.77376000  1.0
  H  H23  1  0.84838000  0.63278000  0.11178000  1.0
  H  H24  1  0.15162000  0.36723000  0.88822000  1.0
  H  H25  1  0.63756000  0.58543000  0.93227000  1.0
  H  H26  1  0.36245000  0.41458000  0.06774000  1.0
  H  H27  1  0.72784000  0.62686000  0.77946000  1.0
  H  H28  1  0.27216000  0.37314000  0.22054000  1.0
  H  H29  1  0.02254000  0.71444000  0.80243000  1.0
  H  H30  1  0.97746000  0.28556000  0.19757000  1.0
  C  C31  1  0.18065000  0.52954000  0.39214000  1.0
  C  C32  1  0.81936000  0.47046000  0.60786000  1.0
  C  C33  1  0.99840000  0.47179000  0.37385000  1.0
  C  C34  1  0.00160000  0.52821000  0.62615000  1.0
  C  C35  1  0.89918000  0.32211000  0.37989000  1.0
  C  C36  1  0.10084000  0.67789000  0.62012000  1.0
  C  C37  1  0.69168000  0.62298000  0.33430000  1.0
  C  C38  1  0.30831000  0.37701000  0.66569000  1.0
  C  C39  1  0.76113000  0.51543000  0.34327000  1.0
  C  C40  1  0.23887000  0.48456000  0.65673000  1.0
  C  C41  1  0.92948000  0.56889000  0.35603000  1.0
  C  C42  1  0.07051000  0.43110000  0.64397000  1.0
  C  C43  1  0.66166000  0.36402000  0.34637000  1.0
  C  C44  1  0.33834000  0.63597000  0.65363000  1.0
  C  C45  1  0.73029000  0.26753000  0.36628000  1.0
  C  C46  1  0.26971000  0.73246000  0.63372000  1.0
  C  C47  1  0.62566000  0.10673000  0.37293000  1.0
  C  C48  1  0.37434000  0.89327000  0.62707000  1.0
  C  C49  1  0.39097000  0.78134000  0.09445000  1.0
  C  C50  1  0.60904000  0.21867000  0.90555000  1.0
  C  C51  1  0.56194000  0.82628000  0.11619000  1.0
  C  C52  1  0.43806000  0.17373000  0.88381000  1.0
  C  C53  1  0.62440000  0.85231000  0.03641000  1.0
  C  C54  1  0.37560000  0.14770000  0.96359000  1.0
  C  C55  1  0.51723000  0.83292000  0.93270000  1.0
  C  C56  1  0.48277000  0.16708000  0.06730000  1.0
  C  C57  1  0.34948000  0.78956000  0.91036000  1.0
  C  C58  1  0.65052000  0.21044000  0.08964000  1.0
  C  C59  1  0.28192000  0.76380000  0.99004000  1.0
  C  C60  1  0.71808000  0.23620000  0.00996000  1.0
  C  C61  1  0.10789000  0.71993000  0.97064000  1.0
  C  C62  1  0.89211000  0.28007000  0.02936000  1.0
  C  C63  1  0.05518000  0.69687000  0.05780000  1.0
  C  C64  1  0.94482000  0.30314000  0.94220000  1.0
  C  C65  1  0.17546000  0.71767000  0.15867000  1.0
  C  C66  1  0.82455000  0.28234000  0.84134000  1.0
  C  C67  1  0.88563000  0.64982000  0.04368000  1.0
  C  C68  1  0.11437000  0.35018000  0.95633000  1.0
  C  C69  1  0.76910000  0.62432000  0.94426000  1.0
  C  C70  1  0.23090000  0.37569000  0.05574000  1.0
  C  C71  1  0.82083000  0.64891000  0.85790000  1.0
  C  C72  1  0.17917000  0.35110000  0.14210000  1.0
  C  C73  1  0.98696000  0.69683000  0.87082000  1.0
  C  C74  1  0.01304000  0.30317000  0.12918000  1.0
  N  N75  1  0.33307000  0.75584000  0.17659000  1.0
  N  N76  1  0.66693000  0.24416000  0.82341000  1.0
  O  O77  1  0.23455000  0.43493000  0.41306000  1.0
  O  O78  1  0.76546000  0.56507000  0.58694000  1.0
  O  O79  1  0.26631000  0.66620000  0.38628000  1.0
  O  O80  1  0.73369000  0.33381000  0.61372000  1.0
  O  O81  1  0.54775000  0.57449000  0.34749000  1.0
  O  O82  1  0.45225000  0.42551000  0.65251000  1.0
  O  O83  1  0.76797000  0.75128000  0.31739000  1.0
  O  O84  1  0.23200000  0.24870000  0.68258000  1.0
  O  O85  1  0.69635000  0.02378000  0.38187000  1.0
  O  O86  1  0.30365000  0.97621000  0.61812000  1.0
  O  O87  1  0.47494000  0.05798000  0.36683000  1.0
  O  O88  1  0.52506000  0.94202000  0.63317000  1.0
  O  O89  1  0.62260000  0.78421000  0.54462000  1.0
  O  O90  1  0.37740000  0.21578000  0.45538000  1.0
