# generated using pymatgen
data_Zn2H9C9N3O8
_symmetry_space_group_name_H-M   'P 1'
_cell_length_a   13.31640000
_cell_length_b   14.85260000
_cell_length_c   16.53060000
_cell_angle_alpha   72.21880000
_cell_angle_beta   71.77900000
_cell_angle_gamma   73.38180000
_symmetry_Int_Tables_number   1
_chemical_formula_structural   Zn2H9C9N3O8
_chemical_formula_sum   'Zn8 H36 C36 N12 O32'
_cell_volume   2890.84495740
_cell_formula_units_Z   4
loop_
 _symmetry_equiv_pos_site_id
 _symmetry_equiv_pos_as_xyz
  1  'x, y, z'
loop_
 _atom_site_type_symbol
 _atom_site_label
 _atom_site_symmetry_multiplicity
 _atom_site_fract_x
 _atom_site_fract_y
 _atom_site_fract_z
 _atom_site_occupancy
  Zn  Zn0  1  0.97124000  0.06439000  0.98597000  1.0
  Zn  Zn1  1  0.73010000  0.02299000  0.01974000  1.0
  Zn  Zn2  1  0.93544000  0.84901000  0.03798000  1.0
  Zn  Zn3  1  0.91637000  0.98621000  0.84923000  1.0
  Zn  Zn4  1  0.31776000  0.42993000  0.40753000  1.0
  Zn  Zn5  1  0.53939000  0.43252000  0.44502000  1.0
  Zn  Zn6  1  0.31912000  0.42457000  0.60309000  1.0
  Zn  Zn7  1  0.33504000  0.61566000  0.45565000  1.0
  H  H8  1  0.43424000  0.01011000  0.41320000  1.0
  H  H9  1  0.65776000  0.19208000  0.36308000  1.0
  H  H10  1  0.65357000  0.29766000  0.20144000  1.0
  H  H11  1  0.58027000  0.21484000  0.20072000  1.0
  H  H12  1  0.73770000  0.07915000  0.25662000  1.0
  H  H13  1  0.81215000  0.17135000  0.22170000  1.0
  H  H14  1  0.18484000  0.57362000  0.07287000  1.0
  H  H15  1  0.34104000  0.71008000  0.17978000  1.0
  H  H16  1  0.18029000  0.80807000  0.27458000  1.0
  H  H17  1  0.09404000  0.76905000  0.23555000  1.0
  H  H18  1  0.25969000  0.84302000  0.08440000  1.0
  H  H19  1  0.20443000  0.93000000  0.14653000  1.0
  H  H20  1  0.91824000  0.32625000  0.43056000  1.0
  H  H21  1  0.99750000  0.34247000  0.65842000  1.0
  H  H22  1  0.18446000  0.18863000  0.58397000  1.0
  H  H23  1  0.05573000  0.16165000  0.63680000  1.0
  H  H24  1  0.14001000  0.24769000  0.74016000  1.0
  H  H25  1  0.21010000  0.13209000  0.72575000  1.0
  H  H26  1  0.74601000  0.50515000  0.61061000  1.0
  H  H27  1  0.59204000  0.76796000  0.39921000  1.0
  H  H28  1  0.76035000  0.64462000  0.27891000  1.0
  H  H29  1  0.77447000  0.75191000  0.29539000  1.0
  H  H30  1  0.58184000  0.82781000  0.25422000  1.0
  H  H31  1  0.61629000  0.72940000  0.20564000  1.0
  H  H32  1  0.70271000  0.94296000  0.51265000  1.0
  H  H33  1  0.49383000  0.12880000  0.68010000  1.0
  H  H34  1  0.57015000  0.23272000  0.74867000  1.0
  H  H35  1  0.69664000  0.17343000  0.69204000  1.0
  H  H36  1  0.62039000  0.01405000  0.76726000  1.0
  H  H37  1  0.52130000  0.08251000  0.83943000  1.0
  H  H38  1  0.54843000  0.80629000  0.62755000  1.0
  H  H39  1  0.32268000  0.62044000  0.75195000  1.0
  H  H40  1  0.11074000  0.67243000  0.74894000  1.0
  H  H41  1  0.14278000  0.78735000  0.69652000  1.0
  H  H42  1  0.22960000  0.76534000  0.82380000  1.0
  H  H43  1  0.17699000  0.66095000  0.87671000  1.0
  C  C44  1  0.51819000  0.98269000  0.42174000  1.0
  C  C45  1  0.59182000  0.21142000  0.32982000  1.0
  C  C46  1  0.63989000  0.22368000  0.22952000  1.0
  C  C47  1  0.74593000  0.15005000  0.21089000  1.0
  C  C48  1  0.78014000  0.13023000  0.12022000  1.0
  C  C49  1  0.51894000  0.30551000  0.35140000  1.0
  C  C50  1  0.26125000  0.59920000  0.03636000  1.0
  C  C51  1  0.26021000  0.69243000  0.21147000  1.0
  C  C52  1  0.17420000  0.78596000  0.21907000  1.0
  C  C53  1  0.18868000  0.86680000  0.13522000  1.0
  C  C54  1  0.09559000  0.90221000  0.09123000  1.0
  C  C55  1  0.26909000  0.62421000  0.30044000  1.0
  C  C56  1  0.85937000  0.36131000  0.48243000  1.0
  C  C57  1  0.05587000  0.31439000  0.60324000  1.0
  C  C58  1  0.11008000  0.20654000  0.63388000  1.0
  C  C59  1  0.13219000  0.18388000  0.72433000  1.0
  C  C60  1  0.04995000  0.13503000  0.79877000  1.0
  C  C61  1  0.14664000  0.37091000  0.56392000  1.0
  C  C62  1  0.70563000  0.58287000  0.59706000  1.0
  C  C63  1  0.64045000  0.69740000  0.38695000  1.0
  C  C64  1  0.71502000  0.71397000  0.29484000  1.0
  C  C65  1  0.65073000  0.77513000  0.22670000  1.0
  C  C66  1  0.71828000  0.83100000  0.14515000  1.0
  C  C67  1  0.56201000  0.63355000  0.40104000  1.0
  C  C68  1  0.73195000  0.97145000  0.55391000  1.0
  C  C69  1  0.56044000  0.16782000  0.65022000  1.0
  C  C70  1  0.61160000  0.16835000  0.72252000  1.0
  C  C71  1  0.60323000  0.07602000  0.79635000  1.0
  C  C72  1  0.68528000  0.05314000  0.84968000  1.0
  C  C73  1  0.51354000  0.27055000  0.60504000  1.0
  C  C74  1  0.46001000  0.83392000  0.64948000  1.0
  C  C75  1  0.28338000  0.66909000  0.70035000  1.0
  C  C76  1  0.16675000  0.71802000  0.74141000  1.0
  C  C77  1  0.16297000  0.73112000  0.83027000  1.0
  C  C78  1  0.06166000  0.79469000  0.87237000  1.0
  C  C79  1  0.28373000  0.61050000  0.63927000  1.0
  N  N80  1  0.58045000  0.05664000  0.39862000  1.0
  N  N81  1  0.53119000  0.13511000  0.35908000  1.0
  N  N82  1  0.29662000  0.64722000  0.08435000  1.0
  N  N83  1  0.23334000  0.64350000  0.15916000  1.0
  N  N84  1  0.90491000  0.36045000  0.55224000  1.0
  N  N85  1  0.00348000  0.32079000  0.53575000  1.0
  N  N86  1  0.66127000  0.61126000  0.52321000  1.0
  N  N87  1  0.70451000  0.66274000  0.45360000  1.0
  N  N88  1  0.64572000  0.03113000  0.60327000  1.0
  N  N89  1  0.64679000  0.11838000  0.58749000  1.0
  N  N90  1  0.40366000  0.75682000  0.68796000  1.0
  N  N91  1  0.34262000  0.74700000  0.64905000  1.0
  O  O92  1  0.88648000  0.98192000  0.97410000  1.0
  O  O93  1  0.55873000  0.89853000  0.44775000  1.0
  O  O94  1  0.70871000  0.11293000  0.09379000  1.0
  O  O95  1  0.87897000  0.12910000  0.07973000  1.0
  O  O96  1  0.56907000  0.36884000  0.34642000  1.0
  O  O97  1  0.41705000  0.31295000  0.37314000  1.0
  O  O98  1  0.31307000  0.58964000  0.96388000  1.0
  O  O99  1  0.02720000  0.84886000  0.11206000  1.0
  O  O100  1  0.09499000  0.98285000  0.03468000  1.0
  O  O101  1  0.26015000  0.66430000  0.36092000  1.0
  O  O102  1  0.29019000  0.53409000  0.30468000  1.0
  O  O103  1  0.76536000  0.39799000  0.48388000  1.0
  O  O104  1  0.99906000  0.08711000  0.77944000  1.0
  O  O105  1  0.04137000  0.14333000  0.87545000  1.0
  O  O106  1  0.17932000  0.39064000  0.61980000  1.0
  O  O107  1  0.18355000  0.38828000  0.48141000  1.0
  O  O108  1  0.68770000  0.63689000  0.64491000  1.0
  O  O109  1  0.81714000  0.79013000  0.12005000  1.0
  O  O110  1  0.67093000  0.91423000  0.10894000  1.0
  O  O111  1  0.46246000  0.67445000  0.41422000  1.0
  O  O112  1  0.60381000  0.54566000  0.39816000  1.0
  O  O113  1  0.82281000  0.94699000  0.56510000  1.0
  O  O114  1  0.78280000  0.02222000  0.81106000  1.0
  O  O115  1  0.65115000  0.06602000  0.92750000  1.0
  O  O116  1  0.41655000  0.30293000  0.64398000  1.0
  O  O117  1  0.57256000  0.31390000  0.53627000  1.0
  O  O118  1  0.41619000  0.91768000  0.65113000  1.0
  O  O119  1  0.01392000  0.86636000  0.82242000  1.0
  O  O120  1  0.03474000  0.77223000  0.95616000  1.0
  O  O121  1  0.30492000  0.51893000  0.66891000  1.0
  O  O122  1  0.26228000  0.65581000  0.56584000  1.0
  O  O123  1  0.37987000  0.47469000  0.47791000  1.0
