# generated using pymatgen
data_CaH22(C9O4)2
_symmetry_space_group_name_H-M   'P 1'
_cell_length_a   6.66996000
_cell_length_b   8.84810000
_cell_length_c   15.88260000
_cell_angle_alpha   95.85600000
_cell_angle_beta   89.99970000
_cell_angle_gamma   89.99970000
_symmetry_Int_Tables_number   1
_chemical_formula_structural   CaH22(C9O4)2
_chemical_formula_sum   'Ca2 H44 C36 O16'
_cell_volume   932.44351750
_cell_formula_units_Z   2
loop_
 _symmetry_equiv_pos_site_id
 _symmetry_equiv_pos_as_xyz
  1  'x, y, z'
loop_
 _atom_site_type_symbol
 _atom_site_label
 _atom_site_symmetry_multiplicity
 _atom_site_fract_x
 _atom_site_fract_y
 _atom_site_fract_z
 _atom_site_occupancy
  Ca  Ca0  1  0.60264000  0.44759000  0.54786000  1.0
  Ca  Ca1  1  0.10265000  0.55240000  0.45214000  1.0
  H  H2  1  0.93470000  0.40409000  0.00870000  1.0
  H  H3  1  0.43470000  0.59589000  0.99130000  1.0
  H  H4  1  0.79120000  0.55346000  0.97028000  1.0
  H  H5  1  0.29120000  0.44653000  0.02972000  1.0
  H  H6  1  0.95369000  0.43844000  0.89984000  1.0
  H  H7  1  0.45369000  0.56155000  0.10016000  1.0
  H  H8  1  0.38270000  0.16582000  0.91230000  1.0
  H  H9  1  0.88271000  0.83419000  0.08770000  1.0
  H  H10  1  0.10884000  0.20227000  0.81090000  1.0
  H  H11  1  0.60885000  0.79775000  0.18910000  1.0
  H  H12  1  0.41728000  0.59394000  0.73414000  1.0
  H  H13  1  0.91726000  0.40606000  0.26586000  1.0
  H  H14  1  0.69007000  0.55573000  0.83279000  1.0
  H  H15  1  0.19006000  0.44427000  0.16721000  1.0
  H  H16  1  0.98390000  0.53871000  0.74120000  1.0
  H  H17  1  0.48388000  0.46132000  0.25880000  1.0
  H  H18  1  0.94747000  0.34350000  0.71501000  1.0
  H  H19  1  0.44747000  0.65653000  0.28499000  1.0
  H  H20  1  0.01909000  0.13884000  0.96717000  1.0
  H  H21  1  0.51907000  0.86115000  0.03283000  1.0
  H  H22  1  0.92681000  0.13096000  0.07238000  1.0
  H  H23  1  0.42681000  0.86901000  0.92762000  1.0
  H  H24  1  0.07513000  0.97726000  0.02218000  1.0
  H  H25  1  0.57509000  0.02273000  0.97782000  1.0
  H  H26  1  0.06586000  0.00696000  0.17349000  1.0
  H  H27  1  0.56584000  0.99303000  0.82652000  1.0
  H  H28  1  0.23579000  0.93964000  0.30170000  1.0
  H  H29  1  0.73576000  0.06036000  0.69830000  1.0
  H  H30  1  0.75763000  0.19044000  0.23799000  1.0
  H  H31  1  0.25764000  0.80956000  0.76201000  1.0
  H  H32  1  0.58468000  0.26236000  0.10854000  1.0
  H  H33  1  0.08467000  0.73764000  0.89145000  1.0
  H  H34  1  0.55963000  0.90476000  0.37323000  1.0
  H  H35  1  0.05962000  0.09523000  0.62677000  1.0
  H  H36  1  0.77716000  0.00808000  0.34630000  1.0
  H  H37  1  0.27714000  0.99193000  0.65370000  1.0
  H  H38  1  0.45239000  0.25544000  0.67007000  1.0
  H  H39  1  0.95241000  0.74456000  0.32992000  1.0
  H  H40  1  0.48763000  0.17476000  0.57781000  1.0
  H  H41  1  0.98764000  0.82524000  0.42218000  1.0
  H  H42  1  0.68616000  0.77928000  0.57344000  1.0
  H  H43  1  0.18616000  0.22071000  0.42656000  1.0
  H  H44  1  0.44873000  0.75202000  0.57946000  1.0
  H  H45  1  0.94873000  0.24798000  0.42055000  1.0
  C  C46  1  0.85206000  0.43869000  0.95440000  1.0
  C  C47  1  0.35206000  0.56130000  0.04561000  1.0
  C  C48  1  0.55525000  0.35583000  0.87881000  1.0
  C  C49  1  0.05524000  0.64417000  0.12119000  1.0
  C  C50  1  0.39107000  0.25657000  0.87120000  1.0
  C  C51  1  0.89108000  0.74343000  0.12879000  1.0
  C  C52  1  0.23670000  0.27975000  0.81528000  1.0
  C  C53  1  0.73671000  0.72027000  0.18472000  1.0
  C  C54  1  0.23975000  0.40266000  0.76585000  1.0
  C  C55  1  0.73976000  0.59736000  0.23416000  1.0
  C  C56  1  0.40747000  0.49895000  0.77267000  1.0
  C  C57  1  0.90747000  0.50106000  0.22733000  1.0
  C  C58  1  0.56475000  0.47656000  0.82818000  1.0
  C  C59  1  0.06474000  0.52345000  0.17182000  1.0
  C  C60  1  0.05984000  0.43435000  0.71363000  1.0
  C  C61  1  0.55984000  0.56568000  0.28637000  1.0
  C  C62  1  0.09213000  0.45882000  0.62152000  1.0
  C  C63  1  0.59213000  0.54118000  0.37848000  1.0
  C  C64  1  0.05308000  0.10107000  0.02911000  1.0
  C  C65  1  0.55308000  0.89891000  0.97089000  1.0
  C  C66  1  0.31497000  0.13879000  0.13224000  1.0
  C  C67  1  0.81497000  0.86120000  0.86776000  1.0
  C  C68  1  0.21674000  0.04920000  0.18706000  1.0
  C  C69  1  0.71673000  0.95079000  0.81294000  1.0
  C  C70  1  0.31387000  0.01069000  0.25981000  1.0
  C  C71  1  0.81386000  0.98931000  0.74019000  1.0
  C  C72  1  0.50958000  0.05954000  0.27905000  1.0
  C  C73  1  0.00958000  0.94046000  0.72095000  1.0
  C  C74  1  0.60471000  0.15163000  0.22414000  1.0
  C  C75  1  0.10471000  0.84837000  0.77586000  1.0
  C  C76  1  0.50936000  0.19230000  0.15166000  1.0
  C  C77  1  0.00936000  0.80771000  0.84834000  1.0
  C  C78  1  0.61477000  0.01528000  0.35722000  1.0
  C  C79  1  0.11476000  0.98472000  0.64279000  1.0
  C  C80  1  0.57552000  0.13137000  0.43354000  1.0
  C  C81  1  0.07552000  0.86863000  0.56646000  1.0
  O  O82  1  0.26415000  0.45585000  0.58814000  1.0
  O  O83  1  0.76415000  0.54415000  0.41186000  1.0
  O  O84  1  0.93525000  0.48596000  0.57936000  1.0
  O  O85  1  0.43523000  0.51405000  0.42063000  1.0
  O  O86  1  0.69500000  0.32859000  0.93839000  1.0
  O  O87  1  0.19501000  0.67141000  0.06161000  1.0
  O  O88  1  0.41057000  0.12600000  0.47345000  1.0
  O  O89  1  0.91057000  0.87399000  0.52655000  1.0
  O  O90  1  0.71010000  0.23157000  0.45337000  1.0
  O  O91  1  0.21009000  0.76843000  0.54663000  1.0
  O  O92  1  0.23390000  0.17727000  0.05770000  1.0
  O  O93  1  0.73390000  0.82272000  0.94230000  1.0
  O  O94  1  0.55762000  0.22743000  0.62857000  1.0
  O  O95  1  0.05764000  0.77256000  0.37143000  1.0
  O  O96  1  0.58323000  0.71200000  0.59412000  1.0
  O  O97  1  0.08323000  0.28799000  0.40588000  1.0
