# generated using pymatgen
data_H16PbC27(NO)4
_symmetry_space_group_name_H-M   'P 1'
_cell_length_a   9.17930000
_cell_length_b   9.22316000
_cell_length_c   15.53300000
_cell_angle_alpha   91.52140000
_cell_angle_beta   101.52900000
_cell_angle_gamma   111.88600000
_symmetry_Int_Tables_number   1
_chemical_formula_structural   H16PbC27(NO)4
_chemical_formula_sum   'H32 Pb2 C54 N8 O8'
_cell_volume   1188.24907032
_cell_formula_units_Z   2
loop_
 _symmetry_equiv_pos_site_id
 _symmetry_equiv_pos_as_xyz
  1  'x, y, z'
loop_
 _atom_site_type_symbol
 _atom_site_label
 _atom_site_symmetry_multiplicity
 _atom_site_fract_x
 _atom_site_fract_y
 _atom_site_fract_z
 _atom_site_occupancy
  H  H0  1  0.30662000  0.61318000  0.06770000  1.0
  H  H1  1  0.69338000  0.38682000  0.93229000  1.0
  H  H2  1  0.09484000  0.44923000  0.14300000  1.0
  H  H3  1  0.90517000  0.55076000  0.85700000  1.0
  H  H4  1  0.88352000  0.19357000  0.06321000  1.0
  H  H5  1  0.11650000  0.80641000  0.93679000  1.0
  H  H6  1  0.09408000  0.27298000  0.83759000  1.0
  H  H7  1  0.90592000  0.72701000  0.16241000  1.0
  H  H8  1  0.50547000  0.53061000  0.63090000  1.0
  H  H9  1  0.49454000  0.46941000  0.36910000  1.0
  H  H10  1  0.39119000  0.52960000  0.46958000  1.0
  H  H11  1  0.60884000  0.47041000  0.53042000  1.0
  H  H12  1  0.30201000  0.74384000  0.42146000  1.0
  H  H13  1  0.69801000  0.25617000  0.57854000  1.0
  H  H14  1  0.49281000  0.98450000  0.93330000  1.0
  H  H15  1  0.50718000  0.01548000  0.06670000  1.0
  H  H16  1  0.39006000  0.19960000  0.91078000  1.0
  H  H17  1  0.60994000  0.80039000  0.08922000  1.0
  H  H18  1  0.30640000  0.25862000  0.75541000  1.0
  H  H19  1  0.69360000  0.74138000  0.24460000  1.0
  H  H20  1  0.10455000  0.06389000  0.30041000  1.0
  H  H21  1  0.89543000  0.93611000  0.69959000  1.0
  H  H22  1  0.95942000  0.17626000  0.19418000  1.0
  H  H23  1  0.04057000  0.82376000  0.80583000  1.0
  H  H24  1  0.87726000  0.39226000  0.24225000  1.0
  H  H25  1  0.12275000  0.60777000  0.75776000  1.0
  H  H26  1  0.94572000  0.48862000  0.40074000  1.0
  H  H27  1  0.05430000  0.51141000  0.59927000  1.0
  H  H28  1  0.09218000  0.36917000  0.51255000  1.0
  H  H29  1  0.90782000  0.63084000  0.48746000  1.0
  H  H30  1  0.21041000  0.96444000  0.39964000  1.0
  H  H31  1  0.78958000  0.03557000  0.60036000  1.0
  Pb  Pb32  1  0.61649000  0.74467000  0.83767000  1.0
  Pb  Pb33  1  0.38353000  0.25532000  0.16233000  1.0
  C  C34  1  0.33740000  0.55294000  0.90190000  1.0
  C  C35  1  0.66260000  0.44704000  0.09809000  1.0
  C  C36  1  0.21413000  0.45280000  0.94848000  1.0
  C  C37  1  0.78590000  0.54719000  0.05152000  1.0
  C  C38  1  0.21444000  0.50158000  0.03482000  1.0
  C  C39  1  0.78556000  0.49842000  0.96517000  1.0
  C  C40  1  0.09636000  0.40914000  0.07667000  1.0
  C  C41  1  0.90365000  0.59084000  0.92333000  1.0
  C  C42  1  0.97855000  0.26742000  0.03281000  1.0
  C  C43  1  0.02146000  0.73256000  0.96719000  1.0
  C  C44  1  0.97822000  0.21715000  0.94687000  1.0
  C  C45  1  0.02179000  0.78285000  0.05313000  1.0
  C  C46  1  0.85248000  0.06368000  0.90070000  1.0
  C  C47  1  0.14752000  0.93632000  0.09929000  1.0
  C  C48  1  0.09534000  0.31094000  0.90480000  1.0
  C  C49  1  0.90467000  0.68907000  0.09519000  1.0
  C  C50  1  0.46472000  0.62288000  0.60758000  1.0
  C  C51  1  0.53528000  0.37713000  0.39242000  1.0
  C  C52  1  0.40218000  0.62319000  0.51741000  1.0
  C  C53  1  0.59783000  0.37683000  0.48259000  1.0
  C  C54  1  0.35135000  0.74181000  0.49118000  1.0
  C  C55  1  0.64867000  0.25821000  0.50882000  1.0
  C  C56  1  0.35918000  0.85641000  0.55564000  1.0
  C  C57  1  0.64082000  0.14360000  0.44435000  1.0
  C  C58  1  0.42079000  0.84521000  0.64608000  1.0
  C  C59  1  0.57920000  0.15479000  0.35392000  1.0
  C  C60  1  0.41812000  0.95089000  0.71658000  1.0
  C  C61  1  0.58187000  0.04912000  0.28342000  1.0
  C  C62  1  0.45341000  0.01192000  0.86716000  1.0
  C  C63  1  0.54658000  0.98807000  0.13284000  1.0
  C  C64  1  0.39592000  0.13285000  0.85357000  1.0
  C  C65  1  0.60407000  0.86714000  0.14643000  1.0
  C  C66  1  0.35009000  0.16439000  0.76800000  1.0
  C  C67  1  0.64990000  0.83560000  0.23200000  1.0
  C  C68  1  0.35857000  0.07145000  0.69704000  1.0
  C  C69  1  0.64141000  0.92854000  0.30296000  1.0
  C  C70  1  0.30250000  0.08451000  0.60559000  1.0
  C  C71  1  0.69748000  0.91547000  0.39441000  1.0
  C  C72  1  0.30349000  0.97942000  0.53902000  1.0
  C  C73  1  0.69651000  0.02059000  0.46098000  1.0
  C  C74  1  0.19144000  0.14187000  0.48223000  1.0
  C  C75  1  0.80854000  0.85813000  0.51777000  1.0
  C  C76  1  0.10931000  0.21027000  0.41560000  1.0
  C  C77  1  0.89068000  0.78974000  0.58441000  1.0
  C  C78  1  0.07213000  0.15690000  0.32521000  1.0
  C  C79  1  0.92786000  0.84311000  0.67479000  1.0
  C  C80  1  0.98973000  0.22232000  0.26346000  1.0
  C  C81  1  0.01026000  0.77770000  0.73655000  1.0
  C  C82  1  0.94448000  0.34228000  0.29004000  1.0
  C  C83  1  0.05552000  0.65774000  0.70997000  1.0
  C  C84  1  0.98232000  0.39617000  0.37987000  1.0
  C  C85  1  0.01767000  0.60385000  0.62013000  1.0
  C  C86  1  0.06300000  0.33029000  0.44225000  1.0
  C  C87  1  0.93700000  0.66973000  0.55775000  1.0
  N  N88  1  0.47475000  0.73107000  0.66915000  1.0
  N  N89  1  0.52524000  0.26894000  0.33085000  1.0
  N  N90  1  0.46597000  0.92528000  0.80116000  1.0
  N  N91  1  0.53401000  0.07472000  0.19884000  1.0
  N  N92  1  0.23264000  0.01811000  0.46140000  1.0
  N  N93  1  0.76734000  0.98189000  0.53860000  1.0
  N  N94  1  0.23343000  0.18468000  0.56943000  1.0
  N  N95  1  0.76655000  0.81531000  0.43058000  1.0
  O  O96  1  0.44825000  0.67995000  0.94543000  1.0
  O  O97  1  0.55175000  0.32004000  0.05456000  1.0
  O  O98  1  0.32852000  0.51045000  0.82187000  1.0
  O  O99  1  0.67149000  0.48951000  0.17813000  1.0
  O  O100  1  0.83674000  0.02951000  0.81858000  1.0
  O  O101  1  0.16324000  0.97050000  0.18141000  1.0
  O  O102  1  0.76513000  0.97264000  0.94796000  1.0
  O  O103  1  0.23488000  0.02735000  0.05204000  1.0
