# generated using pymatgen
data_ZnH20C32Br4(NO)8
_symmetry_space_group_name_H-M   'P 1'
_cell_length_a   8.07295000
_cell_length_b   10.78370000
_cell_length_c   11.47660000
_cell_angle_alpha   64.27200000
_cell_angle_beta   76.60590000
_cell_angle_gamma   85.77170000
_symmetry_Int_Tables_number   1
_chemical_formula_structural   ZnH20C32Br4(NO)8
_chemical_formula_sum   'Zn1 H20 C32 Br4 N8 O8'
_cell_volume   875.17090812
_cell_formula_units_Z   1
loop_
 _symmetry_equiv_pos_site_id
 _symmetry_equiv_pos_as_xyz
  1  'x, y, z'
loop_
 _atom_site_type_symbol
 _atom_site_label
 _atom_site_symmetry_multiplicity
 _atom_site_fract_x
 _atom_site_fract_y
 _atom_site_fract_z
 _atom_site_occupancy
  Zn  Zn0  1  0.00000000  0.00000000  0.50000000  1.0
  H  H1  1  0.79954000  0.22419000  0.47536000  1.0
  H  H2  1  0.20046000  0.77581000  0.52465000  1.0
  H  H3  1  0.82405000  0.17665000  0.35764000  1.0
  H  H4  1  0.17596000  0.82334000  0.64236000  1.0
  H  H5  1  0.27129000  0.44270000  0.45583000  1.0
  H  H6  1  0.72872000  0.55730000  0.54417000  1.0
  H  H7  1  0.04675000  0.26073000  0.52836000  1.0
  H  H8  1  0.95325000  0.73927000  0.47164000  1.0
  H  H9  1  0.34192000  0.07594000  0.30520000  1.0
  H  H10  1  0.65808000  0.92405000  0.69480000  1.0
  H  H11  1  0.58416000  0.24471000  0.22794000  1.0
  H  H12  1  0.41584000  0.75529000  0.77206000  1.0
  H  H13  1  0.03366000  0.73662000  0.23032000  1.0
  H  H14  1  0.96635000  0.26338000  0.76968000  1.0
  H  H15  1  0.34489000  0.77642000  0.12799000  1.0
  H  H16  1  0.65512000  0.22357000  0.87201000  1.0
  H  H17  1  0.35710000  0.45544000  0.01941000  1.0
  H  H18  1  0.64291000  0.54456000  0.98059000  1.0
  H  H19  1  0.04691000  0.39842000  0.12070000  1.0
  H  H20  1  0.95310000  0.60158000  0.87929000  1.0
  C  C21  1  0.44551000  0.35825000  0.33600000  1.0
  C  C22  1  0.55449000  0.64175000  0.66400000  1.0
  C  C23  1  0.29020000  0.36447000  0.41869000  1.0
  C  C24  1  0.70980000  0.63554000  0.58131000  1.0
  C  C25  1  0.16532000  0.26425000  0.45811000  1.0
  C  C26  1  0.83468000  0.73576000  0.54189000  1.0
  C  C27  1  0.33220000  0.15919000  0.33572000  1.0
  C  C28  1  0.66779000  0.84081000  0.66428000  1.0
  C  C29  1  0.46612000  0.25399000  0.29232000  1.0
  C  C30  1  0.53388000  0.74601000  0.70768000  1.0
  C  C31  1  0.58148000  0.45535000  0.30585000  1.0
  C  C32  1  0.41852000  0.54465000  0.69415000  1.0
  C  C33  1  0.83510000  0.54230000  0.24217000  1.0
  C  C34  1  0.16490000  0.45770000  0.75782000  1.0
  C  C35  1  0.01553000  0.56532000  0.18177000  1.0
  C  C36  1  0.98447000  0.43468000  0.81823000  1.0
  C  C37  1  0.10164000  0.67227000  0.18447000  1.0
  C  C38  1  0.89837000  0.32773000  0.81552000  1.0
  C  C39  1  0.27445000  0.69473000  0.12631000  1.0
  C  C40  1  0.72555000  0.30526000  0.87368000  1.0
  C  C41  1  0.28077000  0.51686000  0.06584000  1.0
  C  C42  1  0.71923000  0.48313000  0.93416000  1.0
  C  C43  1  0.10772000  0.48475000  0.12201000  1.0
  C  C44  1  0.89229000  0.51525000  0.87799000  1.0
  C  C45  1  0.98197000  0.03948000  0.10404000  1.0
  C  C46  1  0.01802000  0.96052000  0.89596000  1.0
  C  C47  1  0.13437000  0.06874000  0.00761000  1.0
  C  C48  1  0.86562000  0.93126000  0.99239000  1.0
  C  C49  1  0.15315000  0.02837000  0.90457000  1.0
  C  C50  1  0.84684000  0.97163000  0.09543000  1.0
  C  C51  1  0.96408000  0.07632000  0.21979000  1.0
  C  C52  1  0.03592000  0.92368000  0.78022000  1.0
  Br  Br53  1  0.31068000  0.16892000  0.01726000  1.0
  Br  Br54  1  0.68932000  0.83108000  0.98275000  1.0
  Br  Br55  1  0.35984000  0.06342000  0.77473000  1.0
  Br  Br56  1  0.64014000  0.93658000  0.22526000  1.0
  N  N57  1  0.18533000  0.16272000  0.41813000  1.0
  N  N58  1  0.81467000  0.83728000  0.58187000  1.0
  N  N59  1  0.57734000  0.55302000  0.34558000  1.0
  N  N60  1  0.42267000  0.44698000  0.65442000  1.0
  N  N61  1  0.74074000  0.60786000  0.30578000  1.0
  N  N62  1  0.25927000  0.39214000  0.69422000  1.0
  N  N63  1  0.36418000  0.61988000  0.06667000  1.0
  N  N64  1  0.63583000  0.38011000  0.93333000  1.0
  O  O65  1  0.74186000  0.44342000  0.23818000  1.0
  O  O66  1  0.25815000  0.55658000  0.76182000  1.0
  O  O67  1  0.02697000  0.99013000  0.31501000  1.0
  O  O68  1  0.97303000  0.00986000  0.68499000  1.0
  O  O69  1  0.88799000  0.18503000  0.21264000  1.0
  O  O70  1  0.11201000  0.81497000  0.78737000  1.0
  O  O71  1  0.79163000  0.14456000  0.45811000  1.0
  O  O72  1  0.20837000  0.85544000  0.54190000  1.0
