# generated using pymatgen
data_ZnH4(CN5)2
_symmetry_space_group_name_H-M   'P 1'
_cell_length_a   10.28970000
_cell_length_b   10.33670000
_cell_length_c   20.07020000
_cell_angle_alpha   90.00000000
_cell_angle_beta   90.00000000
_cell_angle_gamma   119.72300000
_symmetry_Int_Tables_number   1
_chemical_formula_structural   ZnH4(CN5)2
_chemical_formula_sum   'Zn8 H32 C16 N80'
_cell_volume   1853.84073379
_cell_formula_units_Z   8
loop_
 _symmetry_equiv_pos_site_id
 _symmetry_equiv_pos_as_xyz
  1  'x, y, z'
loop_
 _atom_site_type_symbol
 _atom_site_label
 _atom_site_symmetry_multiplicity
 _atom_site_fract_x
 _atom_site_fract_y
 _atom_site_fract_z
 _atom_site_occupancy
  Zn  Zn0  1  0.37079000  0.54587000  0.59731000  1.0
  Zn  Zn1  1  0.62921000  0.45412000  0.09731000  1.0
  Zn  Zn2  1  0.62921000  0.45413000  0.40269000  1.0
  Zn  Zn3  1  0.37079000  0.54587000  0.90269000  1.0
  Zn  Zn4  1  0.04610000  0.87875000  0.59625000  1.0
  Zn  Zn5  1  0.95390000  0.12125000  0.09625000  1.0
  Zn  Zn6  1  0.95390000  0.12125000  0.40375000  1.0
  Zn  Zn7  1  0.04610000  0.87875000  0.90375000  1.0
  H  H8  1  0.93528000  0.53815000  0.58490000  1.0
  H  H9  1  0.06472000  0.46185000  0.08490000  1.0
  H  H10  1  0.06472000  0.46185000  0.41510000  1.0
  H  H11  1  0.93528000  0.53815000  0.91510000  1.0
  H  H12  1  0.03461000  0.44059000  0.58781000  1.0
  H  H13  1  0.96539000  0.55941000  0.08781000  1.0
  H  H14  1  0.96539000  0.55941000  0.41219000  1.0
  H  H15  1  0.03461000  0.44059000  0.91219000  1.0
  H  H16  1  0.47984000  0.30617000  0.57527000  1.0
  H  H17  1  0.52016000  0.69383000  0.07527000  1.0
  H  H18  1  0.52016000  0.69383000  0.42473000  1.0
  H  H19  1  0.47984000  0.30617000  0.92473000  1.0
  H  H20  1  0.38128000  0.11045000  0.56538000  1.0
  H  H21  1  0.61872000  0.88955000  0.06538000  1.0
  H  H22  1  0.61872000  0.88955000  0.43462000  1.0
  H  H23  1  0.38128000  0.11045000  0.93462000  1.0
  H  H24  1  0.80337000  0.98049000  0.57865000  1.0
  H  H25  1  0.19663000  0.01951000  0.07864000  1.0
  H  H26  1  0.19663000  0.01951000  0.42135000  1.0
  H  H27  1  0.80337000  0.98049000  0.92136000  1.0
  H  H28  1  0.60701000  0.88145000  0.57040000  1.0
  H  H29  1  0.39299000  0.11856000  0.07040000  1.0
  H  H30  1  0.39299000  0.11855000  0.42960000  1.0
  H  H31  1  0.60701000  0.88145000  0.92960000  1.0
  H  H32  1  0.34421000  0.31482000  0.79149000  1.0
  H  H33  1  0.65580000  0.68518000  0.29149000  1.0
  H  H34  1  0.65580000  0.68518000  0.20851000  1.0
  H  H35  1  0.34420000  0.31482000  0.70851000  1.0
  H  H36  1  0.00685000  0.62809000  0.70770000  1.0
  H  H37  1  0.99315000  0.37191000  0.20770000  1.0
  H  H38  1  0.99315000  0.37191000  0.29230000  1.0
  H  H39  1  0.00685000  0.62809000  0.79230000  1.0
  C  C40  1  0.16031000  0.66328000  0.57220000  1.0
  C  C41  1  0.83969000  0.33672000  0.07221000  1.0
  C  C42  1  0.83969000  0.33672000  0.42779000  1.0
  C  C43  1  0.16031000  0.66328000  0.92779000  1.0
  C  C44  1  0.25230000  0.20828000  0.57498000  1.0
  C  C45  1  0.74770000  0.79172000  0.07498000  1.0
  C  C46  1  0.74770000  0.79172000  0.42502000  1.0
  C  C47  1  0.25230000  0.20828000  0.92502000  1.0
  C  C48  1  0.70591000  0.75434000  0.58086000  1.0
  C  C49  1  0.29409000  0.24566000  0.08086000  1.0
  C  C50  1  0.29409000  0.24566000  0.41914000  1.0
  C  C51  1  0.70591000  0.75434000  0.91914000  1.0
  C  C52  1  0.36322000  0.50186000  0.75000000  1.0
  C  C53  1  0.63678000  0.49814000  0.25000000  1.0
  C  C54  1  0.05100000  0.82359000  0.75000000  1.0
  C  C55  1  0.94901000  0.17641000  0.25000000  1.0
  N  N56  1  0.29486000  0.67443000  0.56072000  1.0
  N  N57  1  0.70514000  0.32557000  0.06072000  1.0
  N  N58  1  0.70514000  0.32557000  0.43928000  1.0
  N  N59  1  0.29486000  0.67443000  0.93928000  1.0
  N  N60  1  0.39164000  0.82029000  0.54613000  1.0
  N  N61  1  0.60836000  0.17971000  0.04613000  1.0
  N  N62  1  0.60836000  0.17971000  0.45387000  1.0
  N  N63  1  0.39164000  0.82029000  0.95387000  1.0
  N  N64  1  0.32038000  0.89383000  0.54752000  1.0
  N  N65  1  0.67962000  0.10617000  0.04752000  1.0
  N  N66  1  0.67963000  0.10617000  0.45248000  1.0
  N  N67  1  0.32037000  0.89383000  0.95248000  1.0
  N  N68  1  0.17422000  0.79908000  0.56336000  1.0
  N  N69  1  0.82578000  0.20092000  0.06336000  1.0
  N  N70  1  0.82578000  0.20092000  0.43664000  1.0
  N  N71  1  0.17422000  0.79908000  0.93664000  1.0
  N  N72  1  0.03519000  0.53997000  0.59285000  1.0
  N  N73  1  0.96481000  0.46003000  0.09285000  1.0
  N  N74  1  0.96481000  0.46003000  0.40715000  1.0
  N  N75  1  0.03519000  0.53997000  0.90715000  1.0
  N  N76  1  0.23624000  0.33048000  0.57891000  1.0
  N  N77  1  0.76376000  0.66952000  0.07891000  1.0
  N  N78  1  0.76377000  0.66952000  0.42109000  1.0
  N  N79  1  0.23623000  0.33048000  0.92109000  1.0
  N  N80  1  0.08627000  0.28106000  0.57625000  1.0
  N  N81  1  0.91373000  0.71894000  0.07625000  1.0
  N  N82  1  0.91373000  0.71894000  0.42375000  1.0
  N  N83  1  0.08627000  0.28106000  0.92375000  1.0
  N  N84  1  0.01468000  0.13807000  0.57048000  1.0
  N  N85  1  0.98532000  0.86194000  0.07048000  1.0
  N  N86  1  0.98533000  0.86194000  0.42952000  1.0
  N  N87  1  0.01467000  0.13807000  0.92952000  1.0
  N  N88  1  0.11414000  0.08731000  0.56891000  1.0
  N  N89  1  0.88586000  0.91269000  0.06891000  1.0
  N  N90  1  0.88586000  0.91269000  0.43109000  1.0
  N  N91  1  0.11414000  0.08731000  0.93109000  1.0
  N  N92  1  0.38143000  0.20657000  0.57831000  1.0
  N  N93  1  0.61857000  0.79343000  0.07831000  1.0
  N  N94  1  0.61857000  0.79343000  0.42169000  1.0
  N  N95  1  0.38143000  0.20657000  0.92169000  1.0
  N  N96  1  0.82917000  0.73855000  0.58205000  1.0
  N  N97  1  0.17083000  0.26145000  0.08205000  1.0
  N  N98  1  0.17083000  0.26145000  0.41795000  1.0
  N  N99  1  0.82917000  0.73855000  0.91795000  1.0
  N  N100  1  0.77970000  0.58957000  0.57886000  1.0
  N  N101  1  0.22030000  0.41043000  0.07886000  1.0
  N  N102  1  0.22030000  0.41043000  0.42114000  1.0
  N  N103  1  0.77970000  0.58957000  0.92114000  1.0
  N  N104  1  0.63565000  0.51756000  0.57571000  1.0
  N  N105  1  0.36435000  0.48244000  0.07571000  1.0
  N  N106  1  0.36435000  0.48244000  0.42429000  1.0
  N  N107  1  0.63565000  0.51756000  0.92429000  1.0
  N  N108  1  0.58412000  0.61618000  0.57673000  1.0
  N  N109  1  0.41588000  0.38382000  0.07672000  1.0
  N  N110  1  0.41588000  0.38382000  0.42327000  1.0
  N  N111  1  0.58412000  0.61618000  0.92328000  1.0
  N  N112  1  0.70378000  0.88261000  0.58387000  1.0
  N  N113  1  0.29623000  0.11739000  0.08387000  1.0
  N  N114  1  0.29623000  0.11739000  0.41613000  1.0
  N  N115  1  0.70377000  0.88261000  0.91613000  1.0
  N  N116  1  0.35624000  0.57431000  0.69552000  1.0
  N  N117  1  0.64376000  0.42569000  0.19552000  1.0
  N  N118  1  0.64376000  0.42569000  0.30448000  1.0
  N  N119  1  0.35624000  0.57431000  0.80448000  1.0
  N  N120  1  0.34375000  0.69310000  0.71785000  1.0
  N  N121  1  0.65625000  0.30691000  0.21785000  1.0
  N  N122  1  0.65625000  0.30691000  0.28215000  1.0
  N  N123  1  0.34375000  0.69310000  0.78215000  1.0
  N  N124  1  0.38118000  0.37988000  0.75000000  1.0
  N  N125  1  0.61882000  0.62012000  0.25000000  1.0
  N  N126  1  0.08304000  0.91036000  0.69543000  1.0
  N  N127  1  0.91696000  0.08964000  0.19543000  1.0
  N  N128  1  0.91696000  0.08964000  0.30458000  1.0
  N  N129  1  0.08304000  0.91036000  0.80458000  1.0
  N  N130  1  0.13756000  0.05289000  0.71786000  1.0
  N  N131  1  0.86244000  0.94711000  0.21786000  1.0
  N  N132  1  0.86244000  0.94711000  0.28214000  1.0
  N  N133  1  0.13756000  0.05289000  0.78214000  1.0
  N  N134  1  0.99091000  0.67295000  0.75000000  1.0
  N  N135  1  0.00909000  0.32705000  0.25000000  1.0
