# generated using pymatgen
data_NiH(CO)5
_symmetry_space_group_name_H-M   'P 1'
_cell_length_a   6.72852000
_cell_length_b   15.07710000
_cell_length_c   15.07920000
_cell_angle_alpha   117.82800000
_cell_angle_beta   98.54910000
_cell_angle_gamma   98.55360000
_symmetry_Int_Tables_number   1
_chemical_formula_structural   NiH(CO)5
_chemical_formula_sum   'Ni6 H6 C30 O30'
_cell_volume   1295.50979621
_cell_formula_units_Z   6
loop_
 _symmetry_equiv_pos_site_id
 _symmetry_equiv_pos_as_xyz
  1  'x, y, z'
loop_
 _atom_site_type_symbol
 _atom_site_label
 _atom_site_symmetry_multiplicity
 _atom_site_fract_x
 _atom_site_fract_y
 _atom_site_fract_z
 _atom_site_occupancy
  Ni  Ni0  1  0.03158000  0.40997000  0.73105000  1.0
  Ni  Ni1  1  0.30047000  0.26899000  0.67891000  1.0
  Ni  Ni2  1  0.62164000  0.32111000  0.59010000  1.0
  Ni  Ni3  1  0.96842000  0.59003000  0.26895000  1.0
  Ni  Ni4  1  0.69954000  0.73101000  0.32109000  1.0
  Ni  Ni5  1  0.37836000  0.67889000  0.40991000  1.0
  H  H6  1  0.87482000  0.55972000  0.02117000  1.0
  H  H7  1  0.85354000  0.97871000  0.53837000  1.0
  H  H8  1  0.31522000  0.46161000  0.44032000  1.0
  H  H9  1  0.12518000  0.44028000  0.97883000  1.0
  H  H10  1  0.14646000  0.02129000  0.46163000  1.0
  H  H11  1  0.68478000  0.53839000  0.55968000  1.0
  C  C12  1  0.68521000  0.43478000  0.82511000  1.0
  C  C13  1  0.86017000  0.17487000  0.60963000  1.0
  C  C14  1  0.25064000  0.39048000  0.56530000  1.0
  C  C15  1  0.31479000  0.56522000  0.17489000  1.0
  C  C16  1  0.13983000  0.82513000  0.39037000  1.0
  C  C17  1  0.74936000  0.60952000  0.43470000  1.0
  C  C18  1  0.58306000  0.46479000  0.91198000  1.0
  C  C19  1  0.67118000  0.08799000  0.55268000  1.0
  C  C20  1  0.11855000  0.44736000  0.53532000  1.0
  C  C21  1  0.41694000  0.53521000  0.08802000  1.0
  C  C22  1  0.32882000  0.91201000  0.44732000  1.0
  C  C23  1  0.88145000  0.55264000  0.46468000  1.0
  C  C24  1  0.36515000  0.42936000  0.89880000  1.0
  C  C25  1  0.46644000  0.10126000  0.53058000  1.0
  C  C26  1  0.93592000  0.46946000  0.57068000  1.0
  C  C27  1  0.63485000  0.57064000  0.10120000  1.0
  C  C28  1  0.53356000  0.89874000  0.46942000  1.0
  C  C29  1  0.06408000  0.53054000  0.42932000  1.0
  C  C30  1  0.70953000  0.53327000  0.01170000  1.0
  C  C31  1  0.69778000  0.98823000  0.52141000  1.0
  C  C32  1  0.17640000  0.47856000  0.46680000  1.0
  C  C33  1  0.29046000  0.46673000  0.98830000  1.0
  C  C34  1  0.30222000  0.01177000  0.47859000  1.0
  C  C35  1  0.82360000  0.52144000  0.53320000  1.0
  C  C36  1  0.74616000  0.35713000  0.09832000  1.0
  C  C37  1  0.64769000  0.90160000  0.25894000  1.0
  C  C38  1  0.38889000  0.74125000  0.64265000  1.0
  C  C39  1  0.25384000  0.64286000  0.90167000  1.0
  C  C40  1  0.35231000  0.09840000  0.74106000  1.0
  C  C41  1  0.61111000  0.25875000  0.35735000  1.0
  O  O42  1  0.87953000  0.46891000  0.84259000  1.0
  O  O43  1  0.03701000  0.15740000  0.62632000  1.0
  O  O44  1  0.41086000  0.37384000  0.53119000  1.0
  O  O45  1  0.12048000  0.53109000  0.15741000  1.0
  O  O46  1  0.96299000  0.84260000  0.37368000  1.0
  O  O47  1  0.58914000  0.62616000  0.46881000  1.0
  O  O48  1  0.56977000  0.37432000  0.73224000  1.0
  O  O49  1  0.83759000  0.26777000  0.64210000  1.0
  O  O50  1  0.19555000  0.35799000  0.62571000  1.0
  O  O51  1  0.43024000  0.62568000  0.26776000  1.0
  O  O52  1  0.16241000  0.73223000  0.35790000  1.0
  O  O53  1  0.80445000  0.64201000  0.37429000  1.0
  O  O54  1  0.22619000  0.36281000  0.80833000  1.0
  O  O55  1  0.41795000  0.19174000  0.55449000  1.0
  O  O56  1  0.86348000  0.44549000  0.63720000  1.0
  O  O57  1  0.77381000  0.63719000  0.19167000  1.0
  O  O58  1  0.58205000  0.80826000  0.44551000  1.0
  O  O59  1  0.13652000  0.55451000  0.36280000  1.0
  O  O60  1  0.74704000  0.42046000  0.18280000  1.0
  O  O61  1  0.56416000  0.81714000  0.23791000  1.0
  O  O62  1  0.32649000  0.76229000  0.57923000  1.0
  O  O63  1  0.25296000  0.57954000  0.81720000  1.0
  O  O64  1  0.43584000  0.18286000  0.76209000  1.0
  O  O65  1  0.67351000  0.23771000  0.42077000  1.0
  O  O66  1  0.74278000  0.29271000  0.01480000  1.0
  O  O67  1  0.72775000  0.98508000  0.27792000  1.0
  O  O68  1  0.44979000  0.72225000  0.70716000  1.0
  O  O69  1  0.25722000  0.70728000  0.98520000  1.0
  O  O70  1  0.27225000  0.01492000  0.72208000  1.0
  O  O71  1  0.55020000  0.27774000  0.29284000  1.0
