# generated using pymatgen
data_AlH7C16O9
_symmetry_space_group_name_H-M   'P 1'
_cell_length_a   6.64658000
_cell_length_b   17.80560000
_cell_length_c   18.38220000
_cell_angle_alpha   90.00020000
_cell_angle_beta   89.81250000
_cell_angle_gamma   90.00040000
_symmetry_Int_Tables_number   1
_chemical_formula_structural   AlH7C16O9
_chemical_formula_sum   'Al4 H28 C64 O36'
_cell_volume   2175.45453145
_cell_formula_units_Z   4
loop_
 _symmetry_equiv_pos_site_id
 _symmetry_equiv_pos_as_xyz
  1  'x, y, z'
loop_
 _atom_site_type_symbol
 _atom_site_label
 _atom_site_symmetry_multiplicity
 _atom_site_fract_x
 _atom_site_fract_y
 _atom_site_fract_z
 _atom_site_occupancy
  Al  Al0  1  0.75333000  0.25526000  0.25036000  1.0
  Al  Al1  1  0.24667000  0.74474000  0.74964000  1.0
  Al  Al2  1  0.74667000  0.75526000  0.74964000  1.0
  Al  Al3  1  0.25334000  0.24474000  0.25036000  1.0
  H  H4  1  0.24318000  0.55160000  0.61231000  1.0
  H  H5  1  0.75683000  0.44841000  0.38768000  1.0
  H  H6  1  0.25682000  0.05159000  0.38768000  1.0
  H  H7  1  0.74319000  0.94841000  0.61231000  1.0
  H  H8  1  0.74206000  0.94869000  0.88673000  1.0
  H  H9  1  0.25793000  0.05131000  0.11327000  1.0
  H  H10  1  0.75795000  0.44869000  0.11328000  1.0
  H  H11  1  0.24206000  0.55131000  0.88673000  1.0
  H  H12  1  0.51313000  0.66991000  0.57844000  1.0
  H  H13  1  0.48688000  0.33009000  0.42158000  1.0
  H  H14  1  0.98684000  0.16993000  0.42157000  1.0
  H  H15  1  0.01314000  0.83008000  0.57842000  1.0
  H  H16  1  0.01358000  0.82691000  0.92856000  1.0
  H  H17  1  0.98643000  0.17308000  0.07144000  1.0
  H  H18  1  0.48642000  0.32691000  0.07145000  1.0
  H  H19  1  0.51358000  0.67309000  0.92856000  1.0
  H  H20  1  0.50255000  0.37780000  0.54311000  1.0
  H  H21  1  0.49747000  0.62220000  0.45689000  1.0
  H  H22  1  0.99746000  0.87779000  0.45689000  1.0
  H  H23  1  0.00253000  0.12221000  0.54311000  1.0
  H  H24  1  0.99873000  0.12337000  0.95320000  1.0
  H  H25  1  0.00125000  0.87662000  0.04680000  1.0
  H  H26  1  0.50126000  0.62337000  0.04680000  1.0
  H  H27  1  0.49874000  0.37663000  0.95321000  1.0
  H  H28  1  0.48663000  0.34906000  0.24079000  1.0
  H  H29  1  0.51337000  0.65094000  0.75922000  1.0
  H  H30  1  0.01338000  0.84906000  0.75922000  1.0
  H  H31  1  0.98662000  0.15094000  0.24079000  1.0
  C  C32  1  0.50837000  0.16220000  0.35052000  1.0
  C  C33  1  0.49164000  0.83780000  0.64947000  1.0
  C  C34  1  0.99163000  0.66220000  0.64948000  1.0
  C  C35  1  0.00837000  0.33780000  0.35052000  1.0
  C  C36  1  0.00885000  0.33811000  0.14965000  1.0
  C  C37  1  0.99113000  0.66189000  0.85036000  1.0
  C  C38  1  0.49115000  0.83811000  0.85035000  1.0
  C  C39  1  0.50886000  0.16189000  0.14964000  1.0
  C  C40  1  0.97258000  0.61050000  0.58624000  1.0
  C  C41  1  0.02743000  0.38950000  0.41376000  1.0
  C  C42  1  0.52741000  0.11050000  0.41376000  1.0
  C  C43  1  0.47258000  0.88950000  0.58624000  1.0
  C  C44  1  0.47314000  0.88915000  0.91421000  1.0
  C  C45  1  0.52685000  0.11084000  0.08579000  1.0
  C  C46  1  0.02686000  0.38915000  0.08579000  1.0
  C  C47  1  0.97314000  0.61084000  0.91421000  1.0
  C  C48  1  0.22973000  0.43830000  0.51306000  1.0
  C  C49  1  0.77029000  0.56170000  0.48695000  1.0
  C  C50  1  0.27028000  0.93830000  0.48695000  1.0
  C  C51  1  0.72971000  0.06170000  0.51305000  1.0
  C  C52  1  0.72890000  0.06198000  0.98593000  1.0
  C  C53  1  0.27109000  0.93802000  0.01406000  1.0
  C  C54  1  0.77110000  0.56197000  0.01406000  1.0
  C  C55  1  0.22890000  0.43802000  0.98594000  1.0
  C  C56  1  0.19850000  0.38421000  0.45937000  1.0
  C  C57  1  0.80153000  0.61580000  0.54063000  1.0
  C  C58  1  0.30152000  0.88420000  0.54062000  1.0
  C  C59  1  0.69845000  0.11580000  0.45938000  1.0
  C  C60  1  0.69654000  0.11653000  0.03917000  1.0
  C  C61  1  0.30345000  0.88347000  0.96083000  1.0
  C  C62  1  0.80346000  0.61653000  0.96083000  1.0
  C  C63  1  0.19656000  0.38348000  0.03918000  1.0
  C  C64  1  0.88707000  0.44591000  0.42330000  1.0
  C  C65  1  0.11293000  0.55409000  0.57670000  1.0
  C  C66  1  0.61293000  0.94591000  0.57670000  1.0
  C  C67  1  0.38706000  0.05409000  0.42330000  1.0
  C  C68  1  0.38736000  0.05409000  0.07699000  1.0
  C  C69  1  0.61264000  0.94590000  0.92301000  1.0
  C  C70  1  0.11263000  0.55409000  0.92301000  1.0
  C  C71  1  0.88735000  0.44590000  0.07698000  1.0
  C  C72  1  0.91243000  0.50163000  0.47734000  1.0
  C  C73  1  0.08758000  0.49838000  0.52266000  1.0
  C  C74  1  0.58757000  0.00163000  0.52266000  1.0
  C  C75  1  0.41242000  0.99838000  0.47734000  1.0
  C  C76  1  0.41247000  0.99840000  0.02289000  1.0
  C  C77  1  0.58751000  0.00160000  0.97711000  1.0
  C  C78  1  0.08752000  0.49840000  0.97712000  1.0
  C  C79  1  0.91250000  0.50160000  0.02289000  1.0
  C  C80  1  0.65764000  0.68115000  0.54973000  1.0
  C  C81  1  0.34239000  0.31886000  0.45028000  1.0
  C  C82  1  0.84234000  0.18116000  0.45028000  1.0
  C  C83  1  0.15763000  0.81884000  0.54972000  1.0
  C  C84  1  0.16343000  0.81695000  0.95348000  1.0
  C  C85  1  0.83656000  0.18304000  0.04653000  1.0
  C  C86  1  0.33657000  0.31696000  0.04653000  1.0
  C  C87  1  0.66343000  0.68304000  0.95348000  1.0
  C  C88  1  0.41758000  0.43046000  0.55533000  1.0
  C  C89  1  0.58243000  0.56954000  0.44468000  1.0
  C  C90  1  0.08243000  0.93046000  0.44468000  1.0
  C  C91  1  0.91756000  0.06955000  0.55532000  1.0
  C  C92  1  0.91682000  0.06958000  0.94321000  1.0
  C  C93  1  0.08317000  0.93041000  0.05679000  1.0
  C  C94  1  0.58317000  0.56958000  0.05679000  1.0
  C  C95  1  0.41682000  0.43042000  0.94321000  1.0
  O  O96  1  0.33563000  0.17489000  0.17622000  1.0
  O  O97  1  0.66436000  0.82511000  0.82378000  1.0
  O  O98  1  0.16436000  0.67488000  0.82378000  1.0
  O  O99  1  0.83565000  0.32511000  0.17623000  1.0
  O  O100  1  0.83607000  0.32577000  0.32323000  1.0
  O  O101  1  0.16395000  0.67423000  0.67678000  1.0
  O  O102  1  0.66394000  0.82577000  0.67677000  1.0
  O  O103  1  0.33604000  0.17422000  0.32322000  1.0
  O  O104  1  0.67436000  0.18850000  0.32671000  1.0
  O  O105  1  0.32564000  0.81150000  0.67329000  1.0
  O  O106  1  0.82564000  0.68849000  0.67329000  1.0
  O  O107  1  0.17438000  0.31151000  0.32671000  1.0
  O  O108  1  0.17558000  0.31372000  0.17443000  1.0
  O  O109  1  0.82443000  0.68627000  0.82557000  1.0
  O  O110  1  0.32442000  0.81372000  0.82556000  1.0
  O  O111  1  0.67557000  0.18628000  0.17443000  1.0
  O  O112  1  0.49823000  0.29565000  0.24980000  1.0
  O  O113  1  0.50178000  0.70435000  0.75021000  1.0
  O  O114  1  0.00178000  0.79565000  0.75020000  1.0
  O  O115  1  0.99823000  0.20435000  0.24979000  1.0
  O  O116  1  0.69888000  0.74326000  0.52560000  1.0
  O  O117  1  0.30114000  0.25674000  0.47440000  1.0
  O  O118  1  0.80110000  0.24327000  0.47441000  1.0
  O  O119  1  0.19889000  0.75673000  0.52559000  1.0
  O  O120  1  0.21358000  0.75485000  0.97523000  1.0
  O  O121  1  0.78644000  0.24515000  0.02477000  1.0
  O  O122  1  0.28643000  0.25486000  0.02476000  1.0
  O  O123  1  0.71358000  0.74514000  0.97523000  1.0
  O  O124  1  0.48714000  0.47529000  0.59940000  1.0
  O  O125  1  0.51286000  0.52471000  0.40062000  1.0
  O  O126  1  0.01283000  0.97529000  0.40062000  1.0
  O  O127  1  0.98715000  0.02471000  0.59938000  1.0
  O  O128  1  0.98952000  0.02330000  0.90110000  1.0
  O  O129  1  0.01048000  0.97669000  0.09889000  1.0
  O  O130  1  0.51048000  0.52330000  0.09889000  1.0
  O  O131  1  0.48952000  0.47670000  0.90111000  1.0
