# generated using pymatgen
data_CoH13C14NO7
_symmetry_space_group_name_H-M   'P 1'
_cell_length_a   4.66429000
_cell_length_b   9.85393000
_cell_length_c   15.04850000
_cell_angle_alpha   102.91400000
_cell_angle_beta   91.85100000
_cell_angle_gamma   96.36440000
_symmetry_Int_Tables_number   1
_chemical_formula_structural   CoH13C14NO7
_chemical_formula_sum   'Co2 H26 C28 N2 O14'
_cell_volume   668.83991380
_cell_formula_units_Z   2
loop_
 _symmetry_equiv_pos_site_id
 _symmetry_equiv_pos_as_xyz
  1  'x, y, z'
loop_
 _atom_site_type_symbol
 _atom_site_label
 _atom_site_symmetry_multiplicity
 _atom_site_fract_x
 _atom_site_fract_y
 _atom_site_fract_z
 _atom_site_occupancy
  Co  Co0  1  0.75254000  0.11793000  0.69947000  1.0
  Co  Co1  1  0.24746000  0.88207000  0.30053000  1.0
  H  H2  1  0.09407000  0.41996000  0.46054000  1.0
  H  H3  1  0.90594000  0.58004000  0.53946000  1.0
  H  H4  1  0.40852000  0.59399000  0.39256000  1.0
  H  H5  1  0.59149000  0.40601000  0.60744000  1.0
  H  H6  1  0.72345000  0.49671000  0.26848000  1.0
  H  H7  1  0.27655000  0.50329000  0.73152000  1.0
  H  H8  1  0.83186000  0.13846000  0.20122000  1.0
  H  H9  1  0.16814000  0.86153000  0.79878000  1.0
  H  H10  1  0.98078000  0.31614000  0.20907000  1.0
  H  H11  1  0.01922000  0.68385000  0.79093000  1.0
  H  H12  1  0.29774000  0.07633000  0.11361000  1.0
  H  H13  1  0.70224000  0.92367000  0.88639000  1.0
  H  H14  1  0.08160000  0.06172000  0.95686000  1.0
  H  H15  1  0.91839000  0.93829000  0.04314000  1.0
  H  H16  1  0.75256000  0.36964000  0.91441000  1.0
  H  H17  1  0.24744000  0.63037000  0.08559000  1.0
  H  H18  1  0.95729000  0.39592000  0.07371000  1.0
  H  H19  1  0.04271000  0.60408000  0.92629000  1.0
  H  H20  1  0.20423000  0.26705000  0.69037000  1.0
  H  H21  1  0.79577000  0.73295000  0.30963000  1.0
  H  H22  1  0.01128000  0.26675000  0.59953000  1.0
  H  H23  1  0.98872000  0.73325000  0.40047000  1.0
  H  H24  1  0.30151000  0.06619000  0.57705000  1.0
  H  H25  1  0.69849000  0.93381000  0.42295000  1.0
  H  H26  1  0.59490000  0.13171000  0.53241000  1.0
  H  H27  1  0.40510000  0.86829000  0.46759000  1.0
  C  C28  1  0.42941000  0.18773000  0.30768000  1.0
  C  C29  1  0.57059000  0.81227000  0.69232000  1.0
  C  C30  1  0.24159000  0.24124000  0.37797000  1.0
  C  C31  1  0.75842000  0.75876000  0.62204000  1.0
  C  C32  1  0.23968000  0.38494000  0.40736000  1.0
  C  C33  1  0.76032000  0.61506000  0.59264000  1.0
  C  C34  1  0.41142000  0.48149000  0.37011000  1.0
  C  C35  1  0.58858000  0.51851000  0.62989000  1.0
  C  C36  1  0.58374000  0.42932000  0.30145000  1.0
  C  C37  1  0.41627000  0.57068000  0.69855000  1.0
  C  C38  1  0.03658000  0.14804000  0.41916000  1.0
  C  C39  1  0.96342000  0.85195000  0.58084000  1.0
  C  C40  1  0.78130000  0.24278000  0.19644000  1.0
  C  C41  1  0.21869000  0.75721000  0.80356000  1.0
  C  C42  1  0.64094000  0.23772000  0.10390000  1.0
  C  C43  1  0.35905000  0.76227000  0.89609000  1.0
  C  C44  1  0.39210000  0.14409000  0.07115000  1.0
  C  C45  1  0.60789000  0.85591000  0.92885000  1.0
  C  C46  1  0.27427000  0.13365000  0.98359000  1.0
  C  C47  1  0.72572000  0.86635000  0.01641000  1.0
  C  C48  1  0.40589000  0.21270000  0.92618000  1.0
  C  C49  1  0.59411000  0.78731000  0.07382000  1.0
  C  C50  1  0.65123000  0.30827000  0.95932000  1.0
  C  C51  1  0.34878000  0.69173000  0.04068000  1.0
  C  C52  1  0.76462000  0.32218000  0.04819000  1.0
  C  C53  1  0.23538000  0.67782000  0.95181000  1.0
  C  C54  1  0.28207000  0.19306000  0.83073000  1.0
  C  C55  1  0.71793000  0.80695000  0.16927000  1.0
  N  N56  1  0.59304000  0.28949000  0.27175000  1.0
  N  N57  1  0.40695000  0.71051000  0.72825000  1.0
  O  O58  1  0.46231000  0.06119000  0.27491000  1.0
  O  O59  1  0.53769000  0.93882000  0.72509000  1.0
  O  O60  1  0.01742000  0.01442000  0.39143000  1.0
  O  O61  1  0.98258000  0.98558000  0.60857000  1.0
  O  O62  1  0.88054000  0.20715000  0.48039000  1.0
  O  O63  1  0.11946000  0.79285000  0.51961000  1.0
  O  O64  1  0.02195000  0.13540000  0.81387000  1.0
  O  O65  1  0.97806000  0.86460000  0.18613000  1.0
  O  O66  1  0.44059000  0.23720000  0.77201000  1.0
  O  O67  1  0.55941000  0.76281000  0.22799000  1.0
  O  O68  1  0.01322000  0.28703000  0.66703000  1.0
  O  O69  1  0.98678000  0.71297000  0.33297000  1.0
  O  O70  1  0.48412000  0.13167000  0.58767000  1.0
  O  O71  1  0.51588000  0.86832000  0.41233000  1.0
