# generated using pymatgen
data_KH3(CO)4
_symmetry_space_group_name_H-M   'P 1'
_cell_length_a   4.44362000
_cell_length_b   7.88295000
_cell_length_c   16.11040000
_cell_angle_alpha   89.99970000
_cell_angle_beta   90.00020000
_cell_angle_gamma   89.99990000
_symmetry_Int_Tables_number   1
_chemical_formula_structural   KH3(CO)4
_chemical_formula_sum   'K4 H12 C16 O16'
_cell_volume   564.32853176
_cell_formula_units_Z   4
loop_
 _symmetry_equiv_pos_site_id
 _symmetry_equiv_pos_as_xyz
  1  'x, y, z'
loop_
 _atom_site_type_symbol
 _atom_site_label
 _atom_site_symmetry_multiplicity
 _atom_site_fract_x
 _atom_site_fract_y
 _atom_site_fract_z
 _atom_site_occupancy
  K  K0  1  0.75946000  0.24820000  0.99907000  1.0
  K  K1  1  0.24054000  0.75179000  0.49907000  1.0
  K  K2  1  0.24055000  0.74821000  0.99907000  1.0
  K  K3  1  0.75946000  0.25179000  0.49907000  1.0
  H  H4  1  0.58137000  0.56612000  0.82198000  1.0
  H  H5  1  0.41863000  0.43389000  0.32198000  1.0
  H  H6  1  0.41863000  0.06611000  0.82198000  1.0
  H  H7  1  0.58137000  0.93388000  0.32198000  1.0
  H  H8  1  0.58262000  0.56819000  0.67689000  1.0
  H  H9  1  0.41738000  0.43181000  0.17689000  1.0
  H  H10  1  0.41738000  0.06819000  0.67689000  1.0
  H  H11  1  0.58261000  0.93181000  0.17689000  1.0
  H  H12  1  0.00641000  0.28899000  0.74886000  1.0
  H  H13  1  0.99359000  0.71101000  0.24886000  1.0
  H  H14  1  0.99359000  0.78899000  0.74886000  1.0
  H  H15  1  0.00641000  0.21101000  0.24886000  1.0
  C  C16  1  0.21842000  0.39476000  0.85053000  1.0
  C  C17  1  0.78158000  0.60524000  0.35053000  1.0
  C  C18  1  0.78158000  0.89476000  0.85053000  1.0
  C  C19  1  0.21842000  0.10524000  0.35053000  1.0
  C  C20  1  0.41312000  0.48817000  0.79089000  1.0
  C  C21  1  0.58687000  0.51183000  0.29089000  1.0
  C  C22  1  0.58687000  0.98817000  0.79089000  1.0
  C  C23  1  0.41313000  0.01183000  0.29089000  1.0
  C  C24  1  0.41387000  0.48939000  0.70738000  1.0
  C  C25  1  0.58612000  0.51061000  0.20738000  1.0
  C  C26  1  0.58612000  0.98939000  0.70738000  1.0
  C  C27  1  0.41387000  0.01061000  0.20738000  1.0
  C  C28  1  0.21967000  0.39732000  0.64716000  1.0
  C  C29  1  0.78033000  0.60268000  0.14716000  1.0
  C  C30  1  0.78032000  0.89732000  0.64716000  1.0
  C  C31  1  0.21968000  0.10268000  0.14716000  1.0
  O  O32  1  0.26107000  0.41822000  0.92671000  1.0
  O  O33  1  0.73893000  0.58177000  0.42671000  1.0
  O  O34  1  0.73893000  0.91823000  0.92671000  1.0
  O  O35  1  0.26108000  0.08178000  0.42671000  1.0
  O  O36  1  0.01286000  0.29033000  0.82343000  1.0
  O  O37  1  0.98714000  0.70967000  0.32343000  1.0
  O  O38  1  0.98714000  0.79033000  0.82343000  1.0
  O  O39  1  0.01286000  0.20967000  0.32343000  1.0
  O  O40  1  0.01412000  0.29239000  0.67367000  1.0
  O  O41  1  0.98588000  0.70761000  0.17368000  1.0
  O  O42  1  0.98588000  0.79239000  0.67368000  1.0
  O  O43  1  0.01412000  0.20760000  0.17367000  1.0
  O  O44  1  0.26362000  0.42262000  0.57116000  1.0
  O  O45  1  0.73639000  0.57737000  0.07116000  1.0
  O  O46  1  0.73639000  0.92262000  0.57116000  1.0
  O  O47  1  0.26362000  0.07737000  0.07116000  1.0
