# generated using pymatgen
data_NaH9C8SN2O3
_symmetry_space_group_name_H-M   'P 1'
_cell_length_a   9.55054000
_cell_length_b   10.03010000
_cell_length_c   10.31640000
_cell_angle_alpha   90.00000000
_cell_angle_beta   97.96770000
_cell_angle_gamma   90.00000000
_symmetry_Int_Tables_number   1
_chemical_formula_structural   NaH9C8SN2O3
_chemical_formula_sum   'Na4 H36 C32 S4 N8 O12'
_cell_volume   978.69749611
_cell_formula_units_Z   4
loop_
 _symmetry_equiv_pos_site_id
 _symmetry_equiv_pos_as_xyz
  1  'x, y, z'
loop_
 _atom_site_type_symbol
 _atom_site_label
 _atom_site_symmetry_multiplicity
 _atom_site_fract_x
 _atom_site_fract_y
 _atom_site_fract_z
 _atom_site_occupancy
  Na  Na0  1  0.23960000  0.48221000  0.83286000  1.0
  Na  Na1  1  0.26040000  0.98221000  0.16714000  1.0
  Na  Na2  1  0.76040000  0.51779000  0.16714000  1.0
  Na  Na3  1  0.73960000  0.01779000  0.83286000  1.0
  H  H4  1  0.39762000  0.43873000  0.56390000  1.0
  H  H5  1  0.10238000  0.93873000  0.43610000  1.0
  H  H6  1  0.60238000  0.56127000  0.43610000  1.0
  H  H7  1  0.89762000  0.06127000  0.56390000  1.0
  H  H8  1  0.37035000  0.49935000  0.32389000  1.0
  H  H9  1  0.12965000  0.99935000  0.67611000  1.0
  H  H10  1  0.62965000  0.50065000  0.67611000  1.0
  H  H11  1  0.87035000  0.00065000  0.32389000  1.0
  H  H12  1  0.16645000  0.64459000  0.23352000  1.0
  H  H13  1  0.33355000  0.14458000  0.76648000  1.0
  H  H14  1  0.83355000  0.35542000  0.76648000  1.0
  H  H15  1  0.66645000  0.85541000  0.23352000  1.0
  H  H16  1  0.00013000  0.72388000  0.38280000  1.0
  H  H17  1  0.49987000  0.22387000  0.61720000  1.0
  H  H18  1  0.99987000  0.27613000  0.61719000  1.0
  H  H19  1  0.50013000  0.77613000  0.38281000  1.0
  H  H20  1  0.93175000  0.73757000  0.60114000  1.0
  H  H21  1  0.56825000  0.23757000  0.39886000  1.0
  H  H22  1  0.06825000  0.26243000  0.39886000  1.0
  H  H23  1  0.43175000  0.76243000  0.60114000  1.0
  H  H24  1  0.89636000  0.60895000  0.89590000  1.0
  H  H25  1  0.60364000  0.10895000  0.10411000  1.0
  H  H26  1  0.10364000  0.39105000  0.10410000  1.0
  H  H27  1  0.39636000  0.89105000  0.89590000  1.0
  H  H28  1  0.85493000  0.75178000  0.79426000  1.0
  H  H29  1  0.64507000  0.25179000  0.20574000  1.0
  H  H30  1  0.14507000  0.24821000  0.20574000  1.0
  H  H31  1  0.35493000  0.74822000  0.79426000  1.0
  H  H32  1  0.06358000  0.87291000  0.91392000  1.0
  H  H33  1  0.43642000  0.37291000  0.08608000  1.0
  H  H34  1  0.93642000  0.12709000  0.08608000  1.0
  H  H35  1  0.56358000  0.62709000  0.91392000  1.0
  H  H36  1  0.12049000  0.72407000  0.00090000  1.0
  H  H37  1  0.37951000  0.22407000  0.99909000  1.0
  H  H38  1  0.87951000  0.27593000  0.99910000  1.0
  H  H39  1  0.62048000  0.77594000  0.00091000  1.0
  C  C40  1  0.31164000  0.50287000  0.51984000  1.0
  C  C41  1  0.18836000  0.00288000  0.48016000  1.0
  C  C42  1  0.68836000  0.49713000  0.48016000  1.0
  C  C43  1  0.81164000  0.99712000  0.51984000  1.0
  C  C44  1  0.29580000  0.53570000  0.38674000  1.0
  C  C45  1  0.20420000  0.03570000  0.61326000  1.0
  C  C46  1  0.70420000  0.46430000  0.61326000  1.0
  C  C47  1  0.79580000  0.96430000  0.38674000  1.0
  C  C48  1  0.18301000  0.61706000  0.33649000  1.0
  C  C49  1  0.31699000  0.11706000  0.66351000  1.0
  C  C50  1  0.81699000  0.38294000  0.66351000  1.0
  C  C51  1  0.68301000  0.88294000  0.33649000  1.0
  C  C52  1  0.09073000  0.66233000  0.42050000  1.0
  C  C53  1  0.40927000  0.16233000  0.57950000  1.0
  C  C54  1  0.90927000  0.33767000  0.57950000  1.0
  C  C55  1  0.59073000  0.83767000  0.42050000  1.0
  C  C56  1  0.11554000  0.62597000  0.55267000  1.0
  C  C57  1  0.38446000  0.12598000  0.44733000  1.0
  C  C58  1  0.88446000  0.37403000  0.44733000  1.0
  C  C59  1  0.61554000  0.87403000  0.55267000  1.0
  C  C60  1  0.02052000  0.67374000  0.64391000  1.0
  C  C61  1  0.47948000  0.17374000  0.35610000  1.0
  C  C62  1  0.97948000  0.32626000  0.35610000  1.0
  C  C63  1  0.52052000  0.82626000  0.64390000  1.0
  C  C64  1  0.94236000  0.69436000  0.84942000  1.0
  C  C65  1  0.55764000  0.19436000  0.15058000  1.0
  C  C66  1  0.05765000  0.30564000  0.15058000  1.0
  C  C67  1  0.44236000  0.80564000  0.84942000  1.0
  C  C68  1  0.02774000  0.77991000  0.95490000  1.0
  C  C69  1  0.47226000  0.27992000  0.04510000  1.0
  C  C70  1  0.97226000  0.22008000  0.04510000  1.0
  C  C71  1  0.52774000  0.72009000  0.95490000  1.0
  S  S72  1  0.93192000  0.82710000  0.08508000  1.0
  S  S73  1  0.56809000  0.32710000  0.91492000  1.0
  S  S74  1  0.06809000  0.17290000  0.91492000  1.0
  S  S75  1  0.43192000  0.67290000  0.08508000  1.0
  N  N76  1  0.22496000  0.54685000  0.60179000  1.0
  N  N77  1  0.27504000  0.04685000  0.39821000  1.0
  N  N78  1  0.77504000  0.45315000  0.39821000  1.0
  N  N79  1  0.72496000  0.95315000  0.60179000  1.0
  N  N80  1  0.03962000  0.64229000  0.76523000  1.0
  N  N81  1  0.46038000  0.14229000  0.23477000  1.0
  N  N82  1  0.96038000  0.35771000  0.23476000  1.0
  N  N83  1  0.53962000  0.85771000  0.76524000  1.0
  O  O84  1  0.81189000  0.91104000  0.02852000  1.0
  O  O85  1  0.68811000  0.41104000  0.97148000  1.0
  O  O86  1  0.18811000  0.08896000  0.97148000  1.0
  O  O87  1  0.31189000  0.58896000  0.02852000  1.0
  O  O88  1  0.88531000  0.70224000  0.14007000  1.0
  O  O89  1  0.61469000  0.20224000  0.85993000  1.0
  O  O90  1  0.11469000  0.29776000  0.85993000  1.0
  O  O91  1  0.38531000  0.79776000  0.14007000  1.0
  O  O92  1  0.03359000  0.90105000  0.17901000  1.0
  O  O93  1  0.46641000  0.40105000  0.82099000  1.0
  O  O94  1  0.96641000  0.09895000  0.82099000  1.0
  O  O95  1  0.53359000  0.59895000  0.17901000  1.0
