# generated using pymatgen
data_CuH14C11Br3N4
_symmetry_space_group_name_H-M   'P 1'
_cell_length_a   4.07731000
_cell_length_b   8.59098000
_cell_length_c   20.98460000
_cell_angle_alpha   89.99990000
_cell_angle_beta   89.99970000
_cell_angle_gamma   92.71790000
_symmetry_Int_Tables_number   1
_chemical_formula_structural   CuH14C11Br3N4
_chemical_formula_sum   'Cu2 H28 C22 Br6 N8'
_cell_volume   734.22357812
_cell_formula_units_Z   2
loop_
 _symmetry_equiv_pos_site_id
 _symmetry_equiv_pos_as_xyz
  1  'x, y, z'
loop_
 _atom_site_type_symbol
 _atom_site_label
 _atom_site_symmetry_multiplicity
 _atom_site_fract_x
 _atom_site_fract_y
 _atom_site_fract_z
 _atom_site_occupancy
  Cu  Cu0  1  0.03943000  0.58513000  0.75000000  1.0
  Cu  Cu1  1  0.96056000  0.41487000  0.25000000  1.0
  H  H2  1  0.72882000  0.65163000  0.62327000  1.0
  H  H3  1  0.27119000  0.34837000  0.12327000  1.0
  H  H4  1  0.27118000  0.34837000  0.37672000  1.0
  H  H5  1  0.72882000  0.65163000  0.87673000  1.0
  H  H6  1  0.47796000  0.52543000  0.57426000  1.0
  H  H7  1  0.52205000  0.47457000  0.07426000  1.0
  H  H8  1  0.52204000  0.47457000  0.42574000  1.0
  H  H9  1  0.47796000  0.52543000  0.92574000  1.0
  H  H10  1  0.87400000  0.58794000  0.54770000  1.0
  H  H11  1  0.12601000  0.41207000  0.04770000  1.0
  H  H12  1  0.12600000  0.41207000  0.45230000  1.0
  H  H13  1  0.87399000  0.58794000  0.95230000  1.0
  H  H14  1  0.03232000  0.95239000  0.60302000  1.0
  H  H15  1  0.96768000  0.04761000  0.10302000  1.0
  H  H16  1  0.96768000  0.04761000  0.39698000  1.0
  H  H17  1  0.03232000  0.95239000  0.89698000  1.0
  H  H18  1  0.96941000  0.94267000  0.68661000  1.0
  H  H19  1  0.03058000  0.05733000  0.18661000  1.0
  H  H20  1  0.03059000  0.05733000  0.31339000  1.0
  H  H21  1  0.96941000  0.94267000  0.81339000  1.0
  H  H22  1  0.36585000  0.98954000  0.65610000  1.0
  H  H23  1  0.63415000  0.01046000  0.15610000  1.0
  H  H24  1  0.63415000  0.01046000  0.34390000  1.0
  H  H25  1  0.36585000  0.98954000  0.84390000  1.0
  H  H26  1  0.51518000  0.34940000  0.75000000  1.0
  H  H27  1  0.48481000  0.65060000  0.25000000  1.0
  H  H28  1  0.40516000  0.14314000  0.75000000  1.0
  H  H29  1  0.59483000  0.85686000  0.25000000  1.0
  C  C30  1  0.73035000  0.55293000  0.59015000  1.0
  C  C31  1  0.26966000  0.44707000  0.09015000  1.0
  C  C32  1  0.26966000  0.44707000  0.40985000  1.0
  C  C33  1  0.73034000  0.55293000  0.90985000  1.0
  C  C34  1  0.86803000  0.41605000  0.62184000  1.0
  C  C35  1  0.13198000  0.58396000  0.12184000  1.0
  C  C36  1  0.13197000  0.58395000  0.37815000  1.0
  C  C37  1  0.86803000  0.41604000  0.87816000  1.0
  C  C38  1  0.86735000  0.25951000  0.60108000  1.0
  C  C39  1  0.13266000  0.74049000  0.10108000  1.0
  C  C40  1  0.13265000  0.74049000  0.39892000  1.0
  C  C41  1  0.86735000  0.25951000  0.89892000  1.0
  C  C42  1  0.03026000  0.17396000  0.64656000  1.0
  C  C43  1  0.96974000  0.82604000  0.14656000  1.0
  C  C44  1  0.96974000  0.82604000  0.35344000  1.0
  C  C45  1  0.03026000  0.17396000  0.85345000  1.0
  C  C46  1  0.10366000  0.00684000  0.64852000  1.0
  C  C47  1  0.89634000  0.99316000  0.14853000  1.0
  C  C48  1  0.89634000  0.99316000  0.35147000  1.0
  C  C49  1  0.10366000  0.00684000  0.85148000  1.0
  C  C50  1  0.31160000  0.26053000  0.75000000  1.0
  C  C51  1  0.68840000  0.73947000  0.25000000  1.0
  Br  Br52  1  0.55898000  0.74558000  0.75000000  1.0
  Br  Br53  1  0.44102000  0.25442000  0.25000000  1.0
  Br  Br54  1  0.68524000  0.17923000  0.52493000  1.0
  Br  Br55  1  0.31477000  0.82078000  0.02493000  1.0
  Br  Br56  1  0.31476000  0.82077000  0.47507000  1.0
  Br  Br57  1  0.68523000  0.17923000  0.97507000  1.0
  N  N58  1  0.02646000  0.42740000  0.67804000  1.0
  N  N59  1  0.97354000  0.57260000  0.17804000  1.0
  N  N60  1  0.97354000  0.57260000  0.32196000  1.0
  N  N61  1  0.02646000  0.42740000  0.82196000  1.0
  N  N62  1  0.12214000  0.28068000  0.69238000  1.0
  N  N63  1  0.87786000  0.71932000  0.19238000  1.0
  N  N64  1  0.87785000  0.71932000  0.30762000  1.0
  N  N65  1  0.12214000  0.28068000  0.80763000  1.0
