# generated using pymatgen
data_ZnH17C12Br(NO)2
_symmetry_space_group_name_H-M   'P 1'
_cell_length_a   14.78700000
_cell_length_b   15.76180000
_cell_length_c   15.76286474
_cell_angle_alpha   119.99929652
_cell_angle_beta   90.00009999
_cell_angle_gamma   89.99990000
_symmetry_Int_Tables_number   1
_chemical_formula_structural   ZnH17C12Br(NO)2
_chemical_formula_sum   'Zn6 H102 C72 Br6 N12 O12'
_cell_volume   3181.66715419
_cell_formula_units_Z   6
loop_
 _symmetry_equiv_pos_site_id
 _symmetry_equiv_pos_as_xyz
  1  'x, y, z'
loop_
 _atom_site_type_symbol
 _atom_site_label
 _atom_site_symmetry_multiplicity
 _atom_site_fract_x
 _atom_site_fract_y
 _atom_site_fract_z
 _atom_site_occupancy
  Zn  Zn0  1  0.51832000  0.60627000  0.24657000  1.0
  Zn  Zn1  1  0.68482000  0.35961000  0.60629000  1.0
  Zn  Zn2  1  0.85140000  0.75343000  0.35974000  1.0
  Zn  Zn3  1  0.01832000  0.39374000  0.75344000  1.0
  Zn  Zn4  1  0.18482000  0.64039000  0.39371000  1.0
  Zn  Zn5  1  0.35140000  0.24657000  0.64026000  1.0
  H  H6  1  0.55820000  0.86654000  0.48095000  1.0
  H  H7  1  0.72521000  0.38547000  0.86645000  1.0
  H  H8  1  0.89162000  0.51907000  0.38557000  1.0
  H  H9  1  0.05820000  0.13345000  0.51905000  1.0
  H  H10  1  0.22521000  0.61453000  0.13355000  1.0
  H  H11  1  0.39161000  0.48093000  0.61443000  1.0
  H  H12  1  0.59851000  0.75786000  0.55012000  1.0
  H  H13  1  0.76549000  0.20771000  0.75788000  1.0
  H  H14  1  0.93199000  0.45009000  0.20780000  1.0
  H  H15  1  0.09851000  0.24214000  0.44988000  1.0
  H  H16  1  0.26549000  0.79230000  0.24212000  1.0
  H  H17  1  0.43199000  0.54991000  0.79220000  1.0
  H  H18  1  0.53938000  0.65987000  0.45207000  1.0
  H  H19  1  0.70652000  0.20769000  0.65976000  1.0
  H  H20  1  0.87285000  0.54815000  0.20788000  1.0
  H  H21  1  0.03938000  0.34013000  0.54793000  1.0
  H  H22  1  0.20652000  0.79231000  0.34024000  1.0
  H  H23  1  0.37285000  0.45185000  0.79212000  1.0
  H  H24  1  0.39499000  0.76127000  0.51232000  1.0
  H  H25  1  0.56195000  0.24854000  0.76068000  1.0
  H  H26  1  0.72841000  0.48766000  0.24857000  1.0
  H  H27  1  0.89499000  0.23873000  0.48768000  1.0
  H  H28  1  0.06195000  0.75146000  0.23932000  1.0
  H  H29  1  0.22841000  0.51234000  0.75143000  1.0
  H  H30  1  0.42939000  0.78528000  0.25742000  1.0
  H  H31  1  0.59642000  0.52793000  0.78533000  1.0
  H  H32  1  0.76254000  0.74256000  0.52787000  1.0
  H  H33  1  0.92939000  0.21472000  0.74258000  1.0
  H  H34  1  0.09642000  0.47207000  0.21467000  1.0
  H  H35  1  0.26254000  0.25744000  0.47213000  1.0
  H  H36  1  0.54391000  0.82151000  0.28590000  1.0
  H  H37  1  0.71094000  0.53550000  0.82151000  1.0
  H  H38  1  0.87708000  0.71424000  0.53577000  1.0
  H  H39  1  0.04390000  0.17849000  0.71410000  1.0
  H  H40  1  0.21094000  0.46450000  0.17849000  1.0
  H  H41  1  0.37708000  0.28576000  0.46423000  1.0
  H  H42  1  0.37243000  0.72815000  0.64725000  1.0
  H  H43  1  0.53955000  0.08060000  0.72790000  1.0
  H  H44  1  0.70627000  0.35263000  0.08049000  1.0
  H  H45  1  0.87243000  0.27186000  0.35276000  1.0
  H  H46  1  0.03955000  0.91940000  0.27210000  1.0
  H  H47  1  0.20627000  0.64737000  0.91951000  1.0
  H  H48  1  0.49112000  0.71533000  0.65653000  1.0
  H  H49  1  0.65826000  0.05865000  0.71534000  1.0
  H  H50  1  0.82502000  0.34348000  0.05874000  1.0
  H  H51  1  0.99112000  0.28467000  0.34347000  1.0
  H  H52  1  0.15826000  0.94135000  0.28466000  1.0
  H  H53  1  0.32502000  0.65652000  0.94126000  1.0
  H  H54  1  0.43196000  0.63010000  0.54904000  1.0
  H  H55  1  0.59920000  0.08065000  0.62988000  1.0
  H  H56  1  0.76582000  0.45087000  0.08075000  1.0
  H  H57  1  0.93196000  0.36990000  0.45096000  1.0
  H  H58  1  0.09920000  0.91935000  0.37012000  1.0
  H  H59  1  0.26582000  0.54913000  0.91925000  1.0
  H  H60  1  0.39129000  0.90226000  0.68119000  1.0
  H  H61  1  0.55785000  0.22107000  0.90187000  1.0
  H  H62  1  0.72476000  0.31888000  0.22089000  1.0
  H  H63  1  0.89129000  0.09774000  0.31881000  1.0
  H  H64  1  0.05785000  0.77893000  0.09813000  1.0
  H  H65  1  0.22476000  0.68112000  0.77911000  1.0
  H  H66  1  0.46378000  0.92908000  0.60847000  1.0
  H  H67  1  0.63037000  0.32060000  0.92873000  1.0
  H  H68  1  0.79719000  0.39165000  0.32048000  1.0
  H  H69  1  0.96378000  0.07092000  0.39153000  1.0
  H  H70  1  0.13037000  0.67940000  0.07127000  1.0
  H  H71  1  0.29719000  0.60834000  0.67951000  1.0
  H  H72  1  0.51082000  0.89603000  0.69158000  1.0
  H  H73  1  0.67738000  0.20451000  0.89603000  1.0
  H  H74  1  0.84431000  0.30852000  0.20438000  1.0
  H  H75  1  0.01082000  0.10396000  0.30842000  1.0
  H  H76  1  0.17738000  0.79549000  0.10397000  1.0
  H  H77  1  0.34431000  0.69148000  0.79562000  1.0
  H  H78  1  0.56336000  0.99620000  0.37264000  1.0
  H  H79  1  0.73042000  0.62350000  0.99615000  1.0
  H  H80  1  0.89677000  0.62734000  0.62350000  1.0
  H  H81  1  0.06335000  0.00380000  0.62736000  1.0
  H  H82  1  0.23042000  0.37650000  0.00385000  1.0
  H  H83  1  0.39677000  0.37265000  0.37650000  1.0
  H  H84  1  0.32763000  0.87569000  0.43905000  1.0
  H  H85  1  0.49449000  0.43688000  0.87583000  1.0
  H  H86  1  0.66071000  0.56117000  0.43711000  1.0
  H  H87  1  0.82763000  0.12431000  0.56095000  1.0
  H  H88  1  0.99449000  0.56312000  0.12417000  1.0
  H  H89  1  0.16071000  0.43883000  0.56289000  1.0
  H  H90  1  0.28396000  0.04542000  0.56021000  1.0
  H  H91  1  0.45097000  0.48545000  0.04561000  1.0
  H  H92  1  0.61733000  0.43978000  0.48550000  1.0
  H  H93  1  0.78396000  0.95458000  0.43979000  1.0
  H  H94  1  0.95096000  0.51455000  0.95439000  1.0
  H  H95  1  0.11733000  0.56022000  0.51450000  1.0
  H  H96  1  0.51219000  0.16058000  0.50102000  1.0
  H  H97  1  0.67931000  0.65961000  0.16057000  1.0
  H  H98  1  0.84580000  0.49888000  0.65949000  1.0
  H  H99  1  0.01219000  0.83942000  0.49898000  1.0
  H  H100  1  0.17931000  0.34039000  0.83943000  1.0
  H  H101  1  0.34580000  0.50113000  0.34052000  1.0
  H  H102  1  0.42667000  0.74341000  0.38355000  1.0
  H  H103  1  0.59348000  0.35994000  0.74366000  1.0
  H  H104  1  0.75994000  0.61641000  0.35996000  1.0
  H  H105  1  0.92667000  0.25659000  0.61645000  1.0
  H  H106  1  0.09348000  0.64006000  0.25634000  1.0
  H  H107  1  0.25994000  0.38360000  0.64005000  1.0
  C  C108  1  0.55731000  0.78613000  0.43572000  1.0
  C  C109  1  0.72422000  0.35033000  0.78604000  1.0
  C  C110  1  0.89066000  0.56437000  0.35045000  1.0
  C  C111  1  0.05731000  0.21388000  0.56429000  1.0
  C  C112  1  0.22422000  0.64967000  0.21396000  1.0
  C  C113  1  0.39066000  0.43563000  0.64955000  1.0
  C  C114  1  0.54043000  0.74010000  0.50014000  1.0
  C  C115  1  0.70742000  0.23985000  0.73999000  1.0
  C  C116  1  0.87386000  0.50002000  0.23999000  1.0
  C  C117  1  0.04043000  0.25990000  0.49986000  1.0
  C  C118  1  0.20742000  0.76015000  0.26001000  1.0
  C  C119  1  0.37386000  0.49998000  0.76001000  1.0
  C  C120  1  0.45301000  0.77274000  0.56099000  1.0
  C  C121  1  0.61995000  0.21153000  0.77245000  1.0
  C  C122  1  0.78652000  0.43906000  0.21157000  1.0
  C  C123  1  0.95301000  0.22725000  0.43901000  1.0
  C  C124  1  0.11995000  0.78847000  0.22755000  1.0
  C  C125  1  0.28652000  0.56094000  0.78843000  1.0
  C  C126  1  0.64946000  0.75220000  0.38485000  1.0
  C  C127  1  0.81630000  0.36736000  0.75202000  1.0
  C  C128  1  0.98277000  0.61531000  0.36735000  1.0
  C  C129  1  0.14946000  0.24780000  0.61515000  1.0
  C  C130  1  0.31630000  0.63264000  0.24798000  1.0
  C  C131  1  0.48277000  0.38469000  0.63265000  1.0
  C  C132  1  0.47852000  0.81871000  0.31767000  1.0
  C  C133  1  0.64550000  0.50104000  0.81875000  1.0
  C  C134  1  0.81173000  0.68236000  0.50115000  1.0
  C  C135  1  0.97852000  0.18129000  0.68233000  1.0
  C  C136  1  0.14550000  0.49896000  0.18125000  1.0
  C  C137  1  0.31173000  0.31764000  0.49885000  1.0
  C  C138  1  0.43617000  0.70777000  0.60601000  1.0
  C  C139  1  0.60331000  0.10149000  0.70758000  1.0
  C  C140  1  0.76996000  0.39395000  0.10151000  1.0
  C  C141  1  0.93617000  0.29223000  0.39399000  1.0
  C  C142  1  0.10331000  0.89851000  0.29242000  1.0
  C  C143  1  0.26996000  0.60605000  0.89849000  1.0
  C  C144  1  0.45495000  0.88104000  0.63972000  1.0
  C  C145  1  0.62160000  0.24129000  0.88078000  1.0
  C  C146  1  0.78841000  0.36037000  0.24118000  1.0
  C  C147  1  0.95495000  0.11896000  0.36028000  1.0
  C  C148  1  0.12160000  0.75871000  0.11922000  1.0
  C  C149  1  0.28841000  0.63963000  0.75882000  1.0
  C  C150  1  0.44913000  0.92088000  0.39274000  1.0
  C  C151  1  0.61610000  0.52822000  0.92094000  1.0
  C  C152  1  0.78240000  0.60731000  0.52829000  1.0
  C  C153  1  0.94913000  0.07912000  0.60726000  1.0
  C  C154  1  0.11610000  0.47179000  0.07906000  1.0
  C  C155  1  0.28240000  0.39269000  0.47171000  1.0
  C  C156  1  0.50036000  0.00297000  0.41157000  1.0
  C  C157  1  0.66741000  0.59142000  0.00298000  1.0
  C  C158  1  0.83376000  0.58842000  0.59142000  1.0
  C  C159  1  0.00036000  0.99703000  0.58843000  1.0
  C  C160  1  0.16741000  0.40858000  0.99702000  1.0
  C  C161  1  0.33376000  0.41158000  0.40858000  1.0
  C  C162  1  0.37021000  0.93613000  0.44783000  1.0
  C  C163  1  0.53714000  0.48847000  0.93624000  1.0
  C  C164  1  0.70342000  0.55227000  0.48861000  1.0
  C  C165  1  0.87021000  0.06387000  0.55217000  1.0
  C  C166  1  0.03714000  0.51154000  0.06376000  1.0
  C  C167  1  0.20342000  0.44773000  0.51139000  1.0
  C  C168  1  0.34547000  0.03080000  0.51708000  1.0
  C  C169  1  0.51244000  0.51391000  0.03092000  1.0
  C  C170  1  0.67882000  0.48294000  0.51395000  1.0
  C  C171  1  0.84547000  0.96919000  0.48291000  1.0
  C  C172  1  0.01244000  0.48609000  0.96908000  1.0
  C  C173  1  0.17882000  0.51706000  0.48605000  1.0
  C  C174  1  0.47189000  0.09576000  0.48294000  1.0
  C  C175  1  0.63894000  0.61290000  0.09579000  1.0
  C  C176  1  0.80539000  0.51699000  0.61282000  1.0
  C  C177  1  0.97189000  0.90424000  0.51706000  1.0
  C  C178  1  0.13894000  0.38710000  0.90421000  1.0
  C  C179  1  0.30539000  0.48301000  0.38718000  1.0
  Br  Br180  1  0.52221000  0.46683000  0.26734000  1.0
  Br  Br181  1  0.68912000  0.19914000  0.46726000  1.0
  Br  Br182  1  0.85524000  0.73193000  0.19925000  1.0
  Br  Br183  1  0.02221000  0.53318000  0.73267000  1.0
  Br  Br184  1  0.18912000  0.80086000  0.53274000  1.0
  Br  Br185  1  0.35524000  0.26806000  0.80075000  1.0
  N  N186  1  0.48792000  0.75263000  0.35844000  1.0
  N  N187  1  0.65475000  0.39417000  0.75268000  1.0
  N  N188  1  0.82117000  0.64158000  0.39430000  1.0
  N  N189  1  0.98792000  0.24738000  0.64157000  1.0
  N  N190  1  0.15475000  0.60583000  0.24732000  1.0
  N  N191  1  0.32117000  0.35842000  0.60570000  1.0
  N  N192  1  0.39530000  0.10963000  0.53443000  1.0
  N  N193  1  0.56233000  0.57534000  0.10970000  1.0
  N  N194  1  0.72878000  0.46552000  0.57529000  1.0
  N  N195  1  0.89530000  0.89037000  0.46557000  1.0
  N  N196  1  0.06233000  0.42466000  0.89030000  1.0
  N  N197  1  0.22878000  0.53449000  0.42472000  1.0
  O  O198  1  0.65291000  0.66747000  0.30871000  1.0
  O  O199  1  0.81963000  0.35854000  0.66720000  1.0
  O  O200  1  0.98612000  0.69137000  0.35861000  1.0
  O  O201  1  0.15291000  0.33253000  0.69129000  1.0
  O  O202  1  0.31963000  0.64146000  0.33280000  1.0
  O  O203  1  0.48612000  0.30863000  0.64139000  1.0
  O  O204  1  0.71674000  0.80838000  0.42362000  1.0
  O  O205  1  0.88360000  0.38508000  0.80825000  1.0
  O  O206  1  0.05009000  0.57666000  0.38484000  1.0
  O  O207  1  0.21674000  0.19162000  0.57638000  1.0
  O  O208  1  0.38360000  0.61492000  0.19175000  1.0
  O  O209  1  0.55009000  0.42334000  0.61516000  1.0
