# generated using pymatgen
data_Cu2H9C6(IN)2
_symmetry_space_group_name_H-M   'P 1'
_cell_length_a   4.19806000
_cell_length_b   10.23920000
_cell_length_c   12.17150000
_cell_angle_alpha   109.37200000
_cell_angle_beta   94.83980000
_cell_angle_gamma   92.81870000
_symmetry_Int_Tables_number   1
_chemical_formula_structural   Cu2H9C6(IN)2
_chemical_formula_sum   'Cu4 H18 C12 I4 N4'
_cell_volume   490.14927549
_cell_formula_units_Z   2
loop_
 _symmetry_equiv_pos_site_id
 _symmetry_equiv_pos_as_xyz
  1  'x, y, z'
loop_
 _atom_site_type_symbol
 _atom_site_label
 _atom_site_symmetry_multiplicity
 _atom_site_fract_x
 _atom_site_fract_y
 _atom_site_fract_z
 _atom_site_occupancy
  Cu  Cu0  1  0.53232000  0.11052000  0.84587000  1.0
  Cu  Cu1  1  0.46767000  0.88948000  0.15413000  1.0
  Cu  Cu2  1  0.98897000  0.05258000  0.15512000  1.0
  Cu  Cu3  1  0.01103000  0.94742000  0.84489000  1.0
  H  H4  1  0.80229000  0.14157000  0.61912000  1.0
  H  H5  1  0.19772000  0.85843000  0.38088000  1.0
  H  H6  1  0.16192000  0.05714000  0.61420000  1.0
  H  H7  1  0.83809000  0.94286000  0.38580000  1.0
  H  H8  1  0.08345000  0.15853000  0.52215000  1.0
  H  H9  1  0.91655000  0.84148000  0.47785000  1.0
  H  H10  1  0.72252000  0.43083000  0.93198000  1.0
  H  H11  1  0.27749000  0.56917000  0.06802000  1.0
  H  H12  1  0.38252000  0.60491000  0.84022000  1.0
  H  H13  1  0.61748000  0.39509000  0.15978000  1.0
  H  H14  1  0.88157000  0.55478000  0.69568000  1.0
  H  H15  1  0.11842000  0.44522000  0.30432000  1.0
  H  H16  1  0.74808000  0.38030000  0.61163000  1.0
  H  H17  1  0.25192000  0.61969000  0.38837000  1.0
  H  H18  1  0.33016000  0.54419000  0.57105000  1.0
  H  H19  1  0.66982000  0.45581000  0.42895000  1.0
  H  H20  1  0.18974000  0.37146000  0.48323000  1.0
  H  H21  1  0.81024000  0.62855000  0.51677000  1.0
  C  C22  1  0.05937000  0.15161000  0.60937000  1.0
  C  C23  1  0.94064000  0.84839000  0.39063000  1.0
  C  C24  1  0.22739000  0.27275000  0.70383000  1.0
  C  C25  1  0.77261000  0.72726000  0.29616000  1.0
  C  C26  1  0.54398000  0.40563000  0.85682000  1.0
  C  C27  1  0.45603000  0.59438000  0.14317000  1.0
  C  C28  1  0.37834000  0.49269000  0.81291000  1.0
  C  C29  1  0.62167000  0.50731000  0.18709000  1.0
  C  C30  1  0.96009000  0.45523000  0.64140000  1.0
  C  C31  1  0.03992000  0.54477000  0.35860000  1.0
  C  C32  1  0.11395000  0.47213000  0.53738000  1.0
  C  C33  1  0.88605000  0.52787000  0.46262000  1.0
  I  I34  1  0.03712000  0.19412000  0.00428000  1.0
  I  I35  1  0.96288000  0.80588000  0.99572000  1.0
  I  I36  1  0.45677000  0.85493000  0.70650000  1.0
  I  I37  1  0.54322000  0.14507000  0.29350000  1.0
  N  N38  1  0.44807000  0.26914000  0.78905000  1.0
  N  N39  1  0.55195000  0.73086000  0.21095000  1.0
  N  N40  1  0.17904000  0.40772000  0.71685000  1.0
  N  N41  1  0.82097000  0.59227000  0.28315000  1.0
