# generated using pymatgen
data_ZnH2C16I4(NO3)2
_symmetry_space_group_name_H-M   'P 1'
_cell_length_a   8.09239000
_cell_length_b   9.27657000
_cell_length_c   23.72350000
_cell_angle_alpha   89.99910000
_cell_angle_beta   89.99820000
_cell_angle_gamma   88.24280000
_symmetry_Int_Tables_number   1
_chemical_formula_structural   ZnH2C16I4(NO3)2
_chemical_formula_sum   'Zn2 H4 C32 I8 N4 O12'
_cell_volume   1780.07670046
_cell_formula_units_Z   2
loop_
 _symmetry_equiv_pos_site_id
 _symmetry_equiv_pos_as_xyz
  1  'x, y, z'
loop_
 _atom_site_type_symbol
 _atom_site_label
 _atom_site_symmetry_multiplicity
 _atom_site_fract_x
 _atom_site_fract_y
 _atom_site_fract_z
 _atom_site_occupancy
  Zn  Zn0  1  0.33854000  0.50855000  0.50000000  1.0
  Zn  Zn1  1  0.66144000  0.49142000  0.50000000  1.0
  H  H2  1  0.11544000  0.64896000  0.05347000  1.0
  H  H3  1  0.88456000  0.35105000  0.94652000  1.0
  H  H4  1  0.88456000  0.35103000  0.05346000  1.0
  H  H5  1  0.11543000  0.64897000  0.94653000  1.0
  C  C6  1  0.49402000  0.77907000  0.50001000  1.0
  C  C7  1  0.50595000  0.22089000  0.50001000  1.0
  C  C8  1  0.50000000  0.50004000  0.79115000  1.0
  C  C9  1  0.49999000  0.50001000  0.20885000  1.0
  C  C10  1  0.49998000  0.49999000  0.60961000  1.0
  C  C11  1  0.50000000  0.49998000  0.39038000  1.0
  C  C12  1  0.44472000  0.37908000  0.70282000  1.0
  C  C13  1  0.55529000  0.62093000  0.29718000  1.0
  C  C14  1  0.55526000  0.62097000  0.70281000  1.0
  C  C15  1  0.44471000  0.37909000  0.29718000  1.0
  C  C16  1  0.49999000  0.50002000  0.67341000  1.0
  C  C17  1  0.50000000  0.50000000  0.32659000  1.0
  C  C18  1  0.64257000  0.44113000  0.12165000  1.0
  C  C19  1  0.35745000  0.55890000  0.87835000  1.0
  C  C20  1  0.35745000  0.55891000  0.12165000  1.0
  C  C21  1  0.64256000  0.44118000  0.87835000  1.0
  C  C22  1  0.35910000  0.55538000  0.05925000  1.0
  C  C23  1  0.64099000  0.44481000  0.94074000  1.0
  C  C24  1  0.64098000  0.44480000  0.05925000  1.0
  C  C25  1  0.35910000  0.55538000  0.94075000  1.0
  C  C26  1  0.50006000  0.50012000  0.03006000  1.0
  C  C27  1  0.50007000  0.50013000  0.96994000  1.0
  C  C28  1  0.22186000  0.60767000  0.02960000  1.0
  C  C29  1  0.77818000  0.39243000  0.97040000  1.0
  C  C30  1  0.77818000  0.39242000  0.02960000  1.0
  C  C31  1  0.22185000  0.60767000  0.97040000  1.0
  C  C32  1  0.49971000  0.93460000  0.50003000  1.0
  C  C33  1  0.50027000  0.06537000  0.50003000  1.0
  C  C34  1  0.44281000  0.37964000  0.76203000  1.0
  C  C35  1  0.55722000  0.62040000  0.23797000  1.0
  C  C36  1  0.55718000  0.62043000  0.76202000  1.0
  C  C37  1  0.44276000  0.37961000  0.23797000  1.0
  I  I38  1  0.35583000  0.20532000  0.80863000  1.0
  I  I39  1  0.64424000  0.79471000  0.19138000  1.0
  I  I40  1  0.64416000  0.79476000  0.80861000  1.0
  I  I41  1  0.35571000  0.20533000  0.19138000  1.0
  I  I42  1  0.37286000  0.19727000  0.65703000  1.0
  I  I43  1  0.62722000  0.80273000  0.34298000  1.0
  I  I44  1  0.62714000  0.80276000  0.65700000  1.0
  I  I45  1  0.37284000  0.19725000  0.34298000  1.0
  N  N46  1  0.50001000  0.50002000  0.14845000  1.0
  N  N47  1  0.50001000  0.50005000  0.85154000  1.0
  N  N48  1  0.93178000  0.49732000  0.50000000  1.0
  N  N49  1  0.06819000  0.50266000  0.50000000  1.0
  O  O50  1  0.35069000  0.72663000  0.50001000  1.0
  O  O51  1  0.64927000  0.27335000  0.50000000  1.0
  O  O52  1  0.36720000  0.29019000  0.50000000  1.0
  O  O53  1  0.63277000  0.70976000  0.50000000  1.0
  O  O54  1  0.36020000  0.51590000  0.58564000  1.0
  O  O55  1  0.63977000  0.48407000  0.41435000  1.0
  O  O56  1  0.36023000  0.51591000  0.41435000  1.0
  O  O57  1  0.63977000  0.48408000  0.58564000  1.0
  O  O58  1  0.75833000  0.39086000  0.14946000  1.0
  O  O59  1  0.24163000  0.60913000  0.85054000  1.0
  O  O60  1  0.24164000  0.60913000  0.14946000  1.0
  O  O61  1  0.75835000  0.39089000  0.85053000  1.0
