# generated using pymatgen
data_Zn3H14C14(NO2)6
_symmetry_space_group_name_H-M   'P 1'
_cell_length_a   7.30656000
_cell_length_b   7.96090000
_cell_length_c   10.01210000
_cell_angle_alpha   108.56500000
_cell_angle_beta   96.99840000
_cell_angle_gamma   107.46300000
_symmetry_Int_Tables_number   1
_chemical_formula_structural   Zn3H14C14(NO2)6
_chemical_formula_sum   'Zn3 H14 C14 N6 O12'
_cell_volume   511.17928491
_cell_formula_units_Z   1
loop_
 _symmetry_equiv_pos_site_id
 _symmetry_equiv_pos_as_xyz
  1  'x, y, z'
loop_
 _atom_site_type_symbol
 _atom_site_label
 _atom_site_symmetry_multiplicity
 _atom_site_fract_x
 _atom_site_fract_y
 _atom_site_fract_z
 _atom_site_occupancy
  Zn  Zn0  1  0.50000000  0.00000000  0.00000000  1.0
  Zn  Zn1  1  0.21572000  0.06618000  0.43732000  1.0
  Zn  Zn2  1  0.78428000  0.93381000  0.56267000  1.0
  H  H3  1  0.55752000  0.78424000  0.74402000  1.0
  H  H4  1  0.44249000  0.21577000  0.25599000  1.0
  H  H5  1  0.60160000  0.67881000  0.84393000  1.0
  H  H6  1  0.39841000  0.32120000  0.15608000  1.0
  H  H7  1  0.80063000  0.35008000  0.05007000  1.0
  H  H8  1  0.19936000  0.64991000  0.94993000  1.0
  H  H9  1  0.78733000  0.20805000  0.89148000  1.0
  H  H10  1  0.21267000  0.79194000  0.10852000  1.0
  H  H11  1  0.71135000  0.49602000  0.34003000  1.0
  H  H12  1  0.28865000  0.50398000  0.65998000  1.0
  H  H13  1  0.51305000  0.15617000  0.73432000  1.0
  H  H14  1  0.48694000  0.84383000  0.26568000  1.0
  H  H15  1  0.01162000  0.85284000  0.84109000  1.0
  H  H16  1  0.98837000  0.14716000  0.15891000  1.0
  C  C17  1  0.60511000  0.35567000  0.54335000  1.0
  C  C18  1  0.39488000  0.64433000  0.45665000  1.0
  C  C19  1  0.80920000  0.42429000  0.51958000  1.0
  C  C20  1  0.19080000  0.57570000  0.48042000  1.0
  C  C21  1  0.97398000  0.42892000  0.61151000  1.0
  C  C22  1  0.02602000  0.57107000  0.38849000  1.0
  C  C23  1  0.95639000  0.34724000  0.72819000  1.0
  C  C24  1  0.04361000  0.65276000  0.27181000  1.0
  C  C25  1  0.83745000  0.49419000  0.40904000  1.0
  C  C26  1  0.16255000  0.50581000  0.59096000  1.0
  C  C27  1  0.36212000  0.07867000  0.73214000  1.0
  C  C28  1  0.63787000  0.92133000  0.26786000  1.0
  C  C29  1  0.10718000  0.92391000  0.78545000  1.0
  C  C30  1  0.89282000  0.07609000  0.21455000  1.0
  N  N31  1  0.30653000  0.00450000  0.83077000  1.0
  N  N32  1  0.69347000  0.99550000  0.16923000  1.0
  N  N33  1  0.20704000  0.04511000  0.62947000  1.0
  N  N34  1  0.79295000  0.95488000  0.37053000  1.0
  N  N35  1  0.04238000  0.94448000  0.66339000  1.0
  N  N36  1  0.95762000  0.05551000  0.33660000  1.0
  O  O37  1  0.60406000  0.80329000  0.84705000  1.0
  O  O38  1  0.39595000  0.19672000  0.15296000  1.0
  O  O39  1  0.74434000  0.21420000  0.98198000  1.0
  O  O40  1  0.25566000  0.78580000  0.01802000  1.0
  O  O41  1  0.47333000  0.22036000  0.42857000  1.0
  O  O42  1  0.52666000  0.77965000  0.57144000  1.0
  O  O43  1  0.56952000  0.42636000  0.66212000  1.0
  O  O44  1  0.43048000  0.57365000  0.33788000  1.0
  O  O45  1  0.80518000  0.19235000  0.69987000  1.0
  O  O46  1  0.19482000  0.80765000  0.30013000  1.0
  O  O47  1  0.08522000  0.42535000  0.84488000  1.0
  O  O48  1  0.91478000  0.57465000  0.15512000  1.0
