# generated using pymatgen
data_CuH7C12(NO2)2
_symmetry_space_group_name_H-M   'P 1'
_cell_length_a   5.19648000
_cell_length_b   17.95800000
_cell_length_c   28.28209292
_cell_angle_alpha   89.23837185
_cell_angle_beta   84.72895536
_cell_angle_gamma   81.67530000
_symmetry_Int_Tables_number   1
_chemical_formula_structural   CuH7C12(NO2)2
_chemical_formula_sum   'Cu8 H56 C96 N16 O32'
_cell_volume   2600.38779773
_cell_formula_units_Z   8
loop_
 _symmetry_equiv_pos_site_id
 _symmetry_equiv_pos_as_xyz
  1  'x, y, z'
loop_
 _atom_site_type_symbol
 _atom_site_label
 _atom_site_symmetry_multiplicity
 _atom_site_fract_x
 _atom_site_fract_y
 _atom_site_fract_z
 _atom_site_occupancy
  Cu  Cu0  1  0.39162000  0.53094000  0.24005000  1.0
  Cu  Cu1  1  0.16055000  0.46909000  0.75998000  1.0
  Cu  Cu2  1  0.67196000  0.96907000  0.74010000  1.0
  Cu  Cu3  1  0.38099000  0.03103000  0.25985000  1.0
  Cu  Cu4  1  0.09789000  0.78061000  0.00851000  1.0
  Cu  Cu5  1  0.88669000  0.21941000  0.99148000  1.0
  Cu  Cu6  1  0.62858000  0.71944000  0.50847000  1.0
  Cu  Cu7  1  0.85562000  0.28060000  0.49140000  1.0
  H  H8  1  0.09104000  0.55100000  0.11392000  1.0
  H  H9  1  0.75408000  0.44923000  0.88610000  1.0
  H  H10  1  0.39159000  0.94920000  0.61398000  1.0
  H  H11  1  0.95423000  0.05071000  0.38609000  1.0
  H  H12  1  0.43829000  0.72808000  0.10804000  1.0
  H  H13  1  0.27372000  0.27192000  0.89198000  1.0
  H  H14  1  0.91656000  0.77205000  0.60799000  1.0
  H  H15  1  0.29612000  0.22792000  0.39199000  1.0
  H  H16  1  0.22379000  0.67027000  0.18129000  1.0
  H  H17  1  0.07417000  0.32964000  0.81875000  1.0
  H  H18  1  0.64415000  0.82967000  0.68131000  1.0
  H  H19  1  0.15472000  0.17020000  0.31871000  1.0
  H  H20  1  0.71482000  0.50852000  0.37045000  1.0
  H  H21  1  0.59295000  0.49165000  0.62943000  1.0
  H  H22  1  0.97295000  0.99146000  0.87052000  1.0
  H  H23  1  0.83390000  0.00836000  0.12955000  1.0
  H  H24  1  0.39023000  0.34036000  0.37603000  1.0
  H  H25  1  0.10644000  0.65961000  0.62395000  1.0
  H  H26  1  0.47956000  0.15973000  0.87610000  1.0
  H  H27  1  0.51544000  0.84036000  0.12403000  1.0
  H  H28  1  0.58074000  0.39555000  0.29965000  1.0
  H  H29  1  0.27494000  0.60443000  0.70039000  1.0
  H  H30  1  0.72565000  0.10452000  0.79976000  1.0
  H  H31  1  0.62924000  0.89564000  0.20040000  1.0
  H  H32  1  0.54742000  0.80678000  0.84701000  1.0
  H  H33  1  0.20045000  0.19322000  0.15304000  1.0
  H  H34  1  0.10413000  0.69328000  0.34694000  1.0
  H  H35  1  0.14229000  0.30680000  0.65303000  1.0
  H  H36  1  0.81966000  0.89991000  0.86648000  1.0
  H  H37  1  0.58530000  0.10004000  0.13368000  1.0
  H  H38  1  0.46967000  0.60008000  0.36631000  1.0
  H  H39  1  0.43469000  0.39980000  0.63361000  1.0
  H  H40  1  0.78567000  0.94904000  0.95188000  1.0
  H  H41  1  0.68618000  0.05081000  0.04831000  1.0
  H  H42  1  0.48490000  0.55085000  0.45172000  1.0
  H  H43  1  0.48671000  0.44888000  0.54824000  1.0
  H  H44  1  0.48775000  0.89287000  0.01266000  1.0
  H  H45  1  0.39324000  0.10687000  0.98746000  1.0
  H  H46  1  0.13094000  0.60700000  0.51252000  1.0
  H  H47  1  0.24949000  0.39298000  0.48741000  1.0
  H  H48  1  0.33068000  0.71787000  0.83750000  1.0
  H  H49  1  0.88601000  0.28206000  0.16251000  1.0
  H  H50  1  0.79863000  0.78196000  0.33743000  1.0
  H  H51  1  0.91664000  0.21795000  0.66244000  1.0
  H  H52  1  0.03025000  0.62181000  0.83231000  1.0
  H  H53  1  0.48461000  0.37824000  0.16769000  1.0
  H  H54  1  0.40230000  0.87808000  0.33220000  1.0
  H  H55  1  0.61184000  0.12172000  0.66759000  1.0
  H  H56  1  0.73944000  0.59582000  0.90360000  1.0
  H  H57  1  0.23899000  0.40424000  0.09643000  1.0
  H  H58  1  0.08551000  0.90421000  0.40348000  1.0
  H  H59  1  0.39280000  0.09557000  0.59627000  1.0
  H  H60  1  0.75622000  0.66810000  0.97925000  1.0
  H  H61  1  0.40342000  0.33199000  0.02077000  1.0
  H  H62  1  0.17446000  0.83203000  0.47916000  1.0
  H  H63  1  0.48513000  0.16783000  0.52061000  1.0
  C  C64  1  0.76548000  0.54960000  0.16670000  1.0
  C  C65  1  0.47975000  0.45055000  0.83333000  1.0
  C  C66  1  0.06451000  0.95050000  0.66674000  1.0
  C  C67  1  0.68148000  0.04940000  0.33328000  1.0
  C  C68  1  0.89815000  0.57838000  0.12742000  1.0
  C  C69  1  0.60211000  0.42183000  0.87261000  1.0
  C  C70  1  0.22612000  0.92180000  0.62746000  1.0
  C  C71  1  0.77503000  0.07815000  0.37256000  1.0
  C  C72  1  0.78279000  0.64405000  0.10620000  1.0
  C  C73  1  0.53148000  0.35614000  0.89384000  1.0
  C  C74  1  0.17665000  0.85613000  0.60621000  1.0
  C  C75  1  0.63866000  0.14386000  0.39377000  1.0
  C  C76  1  0.53547000  0.67808000  0.12478000  1.0
  C  C77  1  0.33706000  0.32200000  0.87526000  1.0
  C  C78  1  0.96353000  0.82204000  0.62476000  1.0
  C  C79  1  0.40999000  0.17794000  0.37521000  1.0
  C  C80  1  0.41444000  0.64628000  0.16453000  1.0
  C  C81  1  0.22384000  0.35374000  0.83551000  1.0
  C  C82  1  0.81067000  0.85372000  0.66455000  1.0
  C  C83  1  0.32865000  0.14618000  0.33545000  1.0
  C  C84  1  0.87559000  0.48100000  0.19354000  1.0
  C  C85  1  0.54739000  0.51925000  0.80654000  1.0
  C  C86  1  0.10542000  0.01916000  0.69356000  1.0
  C  C87  1  0.81815000  0.98075000  0.30647000  1.0
  C  C88  1  0.93443000  0.67806000  0.06551000  1.0
  C  C89  1  0.67693000  0.32212000  0.93449000  1.0
  C  C90  1  0.36248000  0.82213000  0.56553000  1.0
  C  C91  1  0.74951000  0.17792000  0.43445000  1.0
  C  C92  1  0.02697000  0.51105000  0.31494000  1.0
  C  C93  1  0.85139000  0.48912000  0.68505000  1.0
  C  C94  1  0.28752000  0.98899000  0.81500000  1.0
  C  C95  1  0.09043000  0.01098000  0.18507000  1.0
  C  C96  1  0.90698000  0.48283000  0.35582000  1.0
  C  C97  1  0.74448000  0.51736000  0.64414000  1.0
  C  C98  1  0.13914000  0.01724000  0.85587000  1.0
  C  C99  1  0.01133000  0.98267000  0.14421000  1.0
  C  C100  1  0.03548000  0.42038000  0.37822000  1.0
  C  C101  1  0.83325000  0.57978000  0.62176000  1.0
  C  C102  1  0.20487000  0.07974000  0.87825000  1.0
  C  C103  1  0.16250000  0.92025000  0.12183000  1.0
  C  C104  1  0.28298000  0.38802000  0.35868000  1.0
  C  C105  1  0.02890000  0.61208000  0.64133000  1.0
  C  C106  1  0.42001000  0.11210000  0.85872000  1.0
  C  C107  1  0.39053000  0.88797000  0.14137000  1.0
  C  C108  1  0.39071000  0.41836000  0.31718000  1.0
  C  C109  1  0.12515000  0.58169000  0.68285000  1.0
  C  C110  1  0.55837000  0.08171000  0.81726000  1.0
  C  C111  1  0.45672000  0.91838000  0.18285000  1.0
  C  C112  1  0.90889000  0.57900000  0.28806000  1.0
  C  C113  1  0.77422000  0.42111000  0.71186000  1.0
  C  C114  1  0.23789000  0.92089000  0.78820000  1.0
  C  C115  1  0.94545000  0.07898000  0.21193000  1.0
  C  C116  1  0.90364000  0.38935000  0.42257000  1.0
  C  C117  1  0.71521000  0.61082000  0.57738000  1.0
  C  C118  1  0.04232000  0.11073000  0.92263000  1.0
  C  C119  1  0.07556000  0.88926000  0.07742000  1.0
  C  C120  1  0.36742000  0.80058000  0.91879000  1.0
  C  C121  1  0.08642000  0.19933000  0.08123000  1.0
  C  C122  1  0.91819000  0.69941000  0.41873000  1.0
  C  C123  1  0.03466000  0.30060000  0.58119000  1.0
  C  C124  1  0.53478000  0.82734000  0.88330000  1.0
  C  C125  1  0.24476000  0.17261000  0.11676000  1.0
  C  C126  1  0.11219000  0.67267000  0.38321000  1.0
  C  C127  1  0.16621000  0.32732000  0.61674000  1.0
  C  C128  1  0.68740000  0.88092000  0.89482000  1.0
  C  C129  1  0.46250000  0.11899000  0.10531000  1.0
  C  C130  1  0.31847000  0.61906000  0.39467000  1.0
  C  C131  1  0.33079000  0.38081000  0.60526000  1.0
  C  C132  1  0.67122000  0.90658000  0.94151000  1.0
  C  C133  1  0.51879000  0.09326000  0.05864000  1.0
  C  C134  1  0.32804000  0.59334000  0.44135000  1.0
  C  C135  1  0.36162000  0.40648000  0.55859000  1.0
  C  C136  1  0.50166000  0.87698000  0.97541000  1.0
  C  C137  1  0.35380000  0.12284000  0.02469000  1.0
  C  C138  1  0.12898000  0.62296000  0.47528000  1.0
  C  C139  1  0.22599000  0.37699000  0.52464000  1.0
  C  C140  1  0.19949000  0.74346000  0.91109000  1.0
  C  C141  1  0.85383000  0.25649000  0.08891000  1.0
  C  C142  1  0.69315000  0.75655000  0.41105000  1.0
  C  C143  1  0.85926000  0.24345000  0.58883000  1.0
  C  C144  1  0.20099000  0.70580000  0.86818000  1.0
  C  C145  1  0.77491000  0.29414000  0.13183000  1.0
  C  C146  1  0.65689000  0.79411000  0.36811000  1.0
  C  C147  1  0.81785000  0.20582000  0.63174000  1.0
  C  C148  1  0.03522000  0.65200000  0.86523000  1.0
  C  C149  1  0.55258000  0.34800000  0.13478000  1.0
  C  C150  1  0.43739000  0.84792000  0.36514000  1.0
  C  C151  1  0.64957000  0.15193000  0.63467000  1.0
  C  C152  1  0.87174000  0.63730000  0.90517000  1.0
  C  C153  1  0.41426000  0.36273000  0.09485000  1.0
  C  C154  1  0.25925000  0.86270000  0.40507000  1.0
  C  C155  1  0.52636000  0.13713000  0.59471000  1.0
  C  C156  1  0.87992000  0.67669000  0.94697000  1.0
  C  C157  1  0.50344000  0.32333000  0.05306000  1.0
  C  C158  1  0.30684000  0.82338000  0.44689000  1.0
  C  C159  1  0.57624000  0.17652000  0.55292000  1.0
  N  N160  1  0.52827000  0.58338000  0.18463000  1.0
  N  N161  1  0.29454000  0.41666000  0.81539000  1.0
  N  N162  1  0.86135000  0.91662000  0.68468000  1.0
  N  N163  1  0.46239000  0.08328000  0.31533000  1.0
  N  N164  1  0.26435000  0.47872000  0.29633000  1.0
  N  N165  1  0.03789000  0.52138000  0.70369000  1.0
  N  N166  1  0.49259000  0.02131000  0.79641000  1.0
  N  N167  1  0.30937000  0.97874000  0.20367000  1.0
  N  N168  1  0.35286000  0.82587000  0.96410000  1.0
  N  N169  1  0.14258000  0.17400000  0.03593000  1.0
  N  N170  1  0.92898000  0.67409000  0.46403000  1.0
  N  N171  1  0.06576000  0.32590000  0.53588000  1.0
  N  N172  1  0.04092000  0.72819000  0.94968000  1.0
  N  N173  1  0.71855000  0.27180000  0.05032000  1.0
  N  N174  1  0.51931000  0.77187000  0.44964000  1.0
  N  N175  1  0.73962000  0.22811000  0.55021000  1.0
  O  O176  1  0.71886000  0.46006000  0.22803000  1.0
  O  O177  1  0.40412000  0.54013000  0.77205000  1.0
  O  O178  1  0.92757000  0.04005000  0.72803000  1.0
  O  O179  1  0.69626000  0.96001000  0.27187000  1.0
  O  O180  1  0.10230000  0.44961000  0.18265000  1.0
  O  O181  1  0.73140000  0.55078000  0.81748000  1.0
  O  O182  1  0.30050000  0.05065000  0.68267000  1.0
  O  O183  1  0.03347000  0.94917000  0.31748000  1.0
  O  O184  1  0.15823000  0.64706000  0.05098000  1.0
  O  O185  1  0.85497000  0.35321000  0.94902000  1.0
  O  O186  1  0.55503000  0.85321000  0.55100000  1.0
  O  O187  1  0.95873000  0.14694000  0.44900000  1.0
  O  O188  1  0.81895000  0.74070000  0.04897000  1.0
  O  O189  1  0.60818000  0.25939000  0.95099000  1.0
  O  O190  1  0.30998000  0.75943000  0.54902000  1.0
  O  O191  1  0.61747000  0.24059000  0.45094000  1.0
  O  O192  1  0.06021000  0.59999000  0.25287000  1.0
  O  O193  1  0.91101000  0.40007000  0.74708000  1.0
  O  O194  1  0.41018000  0.89993000  0.75300000  1.0
  O  O195  1  0.06169000  0.09999000  0.24710000  1.0
  O  O196  1  0.68262000  0.61012000  0.30011000  1.0
  O  O197  1  0.59151000  0.38996000  0.69969000  1.0
  O  O198  1  0.04343000  0.88956000  0.80036000  1.0
  O  O199  1  0.73122000  0.11007000  0.19987000  1.0
  O  O200  1  0.70452000  0.42606000  0.44344000  1.0
  O  O201  1  0.57252000  0.57434000  0.55664000  1.0
  O  O202  1  0.87957000  0.07413000  0.94347000  1.0
  O  O203  1  0.89700000  0.92586000  0.05657000  1.0
  O  O204  1  0.01912000  0.32417000  0.43497000  1.0
  O  O205  1  0.77951000  0.67576000  0.56484000  1.0
  O  O206  1  0.09338000  0.17581000  0.93507000  1.0
  O  O207  1  0.20447000  0.82425000  0.06495000  1.0
