# generated using pymatgen
data_HoCu2H8C8N6ClO12
_symmetry_space_group_name_H-M   'P 1'
_cell_length_a   6.30327000
_cell_length_b   11.31560000
_cell_length_c   12.24550000
_cell_angle_alpha   77.65000000
_cell_angle_beta   89.99570000
_cell_angle_gamma   89.94890000
_symmetry_Int_Tables_number   1
_chemical_formula_structural   HoCu2H8C8N6ClO12
_chemical_formula_sum   'Ho2 Cu4 H16 C16 N12 Cl2 O24'
_cell_volume   853.20198877
_cell_formula_units_Z   2
loop_
 _symmetry_equiv_pos_site_id
 _symmetry_equiv_pos_as_xyz
  1  'x, y, z'
loop_
 _atom_site_type_symbol
 _atom_site_label
 _atom_site_symmetry_multiplicity
 _atom_site_fract_x
 _atom_site_fract_y
 _atom_site_fract_z
 _atom_site_occupancy
  Ho  Ho0  1  0.51497000  0.74999000  0.00012000  1.0
  Ho  Ho1  1  0.48538000  0.24980000  0.00005000  1.0
  Cu  Cu2  1  0.86473000  0.88660000  0.42027000  1.0
  Cu  Cu3  1  0.87084000  0.61339000  0.58149000  1.0
  Cu  Cu4  1  0.13028000  0.11313000  0.58033000  1.0
  Cu  Cu5  1  0.13281000  0.38639000  0.41950000  1.0
  H  H6  1  0.71352000  0.53239000  0.95989000  1.0
  H  H7  1  0.71341000  0.96760000  0.04026000  1.0
  H  H8  1  0.28695000  0.46751000  0.04029000  1.0
  H  H9  1  0.28673000  0.03251000  0.95978000  1.0
  H  H10  1  0.78457000  0.54433000  0.08069000  1.0
  H  H11  1  0.78419000  0.95556000  0.91945000  1.0
  H  H12  1  0.21588000  0.45565000  0.91948000  1.0
  H  H13  1  0.21543000  0.04434000  0.08060000  1.0
  H  H14  1  0.69870000  0.78272000  0.22173000  1.0
  H  H15  1  0.69944000  0.71730000  0.77855000  1.0
  H  H16  1  0.30041000  0.21738000  0.77840000  1.0
  H  H17  1  0.30111000  0.28283000  0.22142000  1.0
  H  H18  1  0.72477000  0.63945000  0.22852000  1.0
  H  H19  1  0.72416000  0.86070000  0.77176000  1.0
  H  H20  1  0.27554000  0.36074000  0.77165000  1.0
  H  H21  1  0.27563000  0.13944000  0.22844000  1.0
  C  C22  1  0.21389000  0.85357000  0.19302000  1.0
  C  C23  1  0.21440000  0.64647000  0.80681000  1.0
  C  C24  1  0.78540000  0.14618000  0.80650000  1.0
  C  C25  1  0.78599000  0.35371000  0.19318000  1.0
  C  C26  1  0.15824000  0.74421000  0.28016000  1.0
  C  C27  1  0.15749000  0.75587000  0.71998000  1.0
  C  C28  1  0.84184000  0.25561000  0.71962000  1.0
  C  C29  1  0.84266000  0.24435000  0.28009000  1.0
  C  C30  1  0.20115000  0.62045000  0.28980000  1.0
  C  C31  1  0.20040000  0.87955000  0.71013000  1.0
  C  C32  1  0.79911000  0.37934000  0.71005000  1.0
  C  C33  1  0.79998000  0.12059000  0.28964000  1.0
  C  C34  1  0.28651000  0.53780000  0.22156000  1.0
  C  C35  1  0.28586000  0.96245000  0.77808000  1.0
  C  C36  1  0.71398000  0.46198000  0.77839000  1.0
  C  C37  1  0.71349000  0.03788000  0.22171000  1.0
  N  N38  1  0.04683000  0.75313000  0.37257000  1.0
  N  N39  1  0.04424000  0.74720000  0.62809000  1.0
  N  N40  1  0.95426000  0.24707000  0.62737000  1.0
  N  N41  1  0.95472000  0.25297000  0.37239000  1.0
  N  N42  1  0.02361000  0.64306000  0.43613000  1.0
  N  N43  1  0.01999000  0.85751000  0.56469000  1.0
  N  N44  1  0.97830000  0.35691000  0.56418000  1.0
  N  N45  1  0.97830000  0.14278000  0.43548000  1.0
  N  N46  1  0.11650000  0.56265000  0.38856000  1.0
  N  N47  1  0.11397000  0.93723000  0.61173000  1.0
  N  N48  1  0.88466000  0.43728000  0.61152000  1.0
  N  N49  1  0.88559000  0.06280000  0.38816000  1.0
  Cl  Cl50  1  0.58901000  0.74982000  0.49961000  1.0
  Cl  Cl51  1  0.41116000  0.24906000  0.49975000  1.0
  O  O52  1  0.29820000  0.83416000  0.10404000  1.0
  O  O53  1  0.29866000  0.66596000  0.89569000  1.0
  O  O54  1  0.70137000  0.16564000  0.89550000  1.0
  O  O55  1  0.70155000  0.33416000  0.10432000  1.0
  O  O56  1  0.17414000  0.95676000  0.21134000  1.0
  O  O57  1  0.17543000  0.54334000  0.78821000  1.0
  O  O58  1  0.82442000  0.04301000  0.78791000  1.0
  O  O59  1  0.82519000  0.45689000  0.21157000  1.0
  O  O60  1  0.34899000  0.57323000  0.12256000  1.0
  O  O61  1  0.34924000  0.92724000  0.87693000  1.0
  O  O62  1  0.65105000  0.42665000  0.87728000  1.0
  O  O63  1  0.65181000  0.07333000  0.12253000  1.0
  O  O64  1  0.28436000  0.42465000  0.27135000  1.0
  O  O65  1  0.28234000  0.07552000  0.72809000  1.0
  O  O66  1  0.71720000  0.57518000  0.72875000  1.0
  O  O67  1  0.71395000  0.92497000  0.27195000  1.0
  O  O68  1  0.75028000  0.59324000  0.00441000  1.0
  O  O69  1  0.74998000  0.90672000  0.99567000  1.0
  O  O70  1  0.25025000  0.40671000  0.99567000  1.0
  O  O71  1  0.25006000  0.09331000  0.00441000  1.0
  O  O72  1  0.68979000  0.71714000  0.18022000  1.0
  O  O73  1  0.68975000  0.78292000  0.81998000  1.0
  O  O74  1  0.31038000  0.28298000  0.81985000  1.0
  O  O75  1  0.31062000  0.21706000  0.18012000  1.0
