# generated using pymatgen
data_Ni2H12C14N2O11
_symmetry_space_group_name_H-M   'P 1'
_cell_length_a   9.72926000
_cell_length_b   10.11070000
_cell_length_c   10.39310000
_cell_angle_alpha   75.79800000
_cell_angle_beta   65.81090000
_cell_angle_gamma   67.64970000
_symmetry_Int_Tables_number   1
_chemical_formula_structural   Ni2H12C14N2O11
_chemical_formula_sum   'Ni4 H24 C28 N4 O22'
_cell_volume   857.66928863
_cell_formula_units_Z   2
loop_
 _symmetry_equiv_pos_site_id
 _symmetry_equiv_pos_as_xyz
  1  'x, y, z'
loop_
 _atom_site_type_symbol
 _atom_site_label
 _atom_site_symmetry_multiplicity
 _atom_site_fract_x
 _atom_site_fract_y
 _atom_site_fract_z
 _atom_site_occupancy
  Ni  Ni0  1  0.44085000  0.18690000  0.69199000  1.0
  Ni  Ni1  1  0.02230000  0.30105000  0.82048000  1.0
  Ni  Ni2  1  0.97768000  0.69870000  0.17950000  1.0
  Ni  Ni3  1  0.55912000  0.81284000  0.30820000  1.0
  H  H4  1  0.41904000  0.57746000  0.46268000  1.0
  H  H5  1  0.77875000  0.98057000  0.54634000  1.0
  H  H6  1  0.82981000  0.14227000  0.86027000  1.0
  H  H7  1  0.92064000  0.47264000  0.58506000  1.0
  H  H8  1  0.98650000  0.99976000  0.30749000  1.0
  H  H9  1  0.78311000  0.83320000  0.05633000  1.0
  H  H10  1  0.21685000  0.16619000  0.94334000  1.0
  H  H11  1  0.71954000  0.01251000  0.84241000  1.0
  H  H12  1  0.31549000  0.85165000  0.26246000  1.0
  H  H13  1  0.74336000  0.94845000  0.16741000  1.0
  H  H14  1  0.29901000  0.54098000  0.97987000  1.0
  H  H15  1  0.86343000  0.13998000  0.99455000  1.0
  H  H16  1  0.49439000  0.69784000  0.00084000  1.0
  H  H17  1  0.22232000  0.01926000  0.45458000  1.0
  H  H18  1  0.70127000  0.45900000  0.02019000  1.0
  H  H19  1  0.25670000  0.05094000  0.83214000  1.0
  H  H20  1  0.01394000  0.99976000  0.69313000  1.0
  H  H21  1  0.50590000  0.30217000  0.99913000  1.0
  H  H22  1  0.27678000  0.99015000  0.15754000  1.0
  H  H23  1  0.13635000  0.85934000  0.00508000  1.0
  H  H24  1  0.58116000  0.42236000  0.53715000  1.0
  H  H25  1  0.16906000  0.85870000  0.13948000  1.0
  H  H26  1  0.68251000  0.15130000  0.73755000  1.0
  H  H27  1  0.07990000  0.52731000  0.41502000  1.0
  C  C28  1  0.77839000  0.35333000  0.34469000  1.0
  C  C29  1  0.10071000  0.90323000  0.64525000  1.0
  C  C30  1  0.58655000  0.65031000  0.90593000  1.0
  C  C31  1  0.00641000  0.24186000  0.12895000  1.0
  C  C32  1  0.82516000  0.52819000  0.67368000  1.0
  C  C33  1  0.28065000  0.33659000  0.34780000  1.0
  C  C34  1  0.26283000  0.27100000  0.49858000  1.0
  C  C35  1  0.78454000  0.08459000  0.48764000  1.0
  C  C36  1  0.40462000  0.27454000  0.22781000  1.0
  C  C37  1  0.77103000  0.50509000  0.27948000  1.0
  C  C38  1  0.73764000  0.72888000  0.50137000  1.0
  C  C39  1  0.89646000  0.23193000  0.28038000  1.0
  C  C40  1  0.22921000  0.49453000  0.72046000  1.0
  C  C41  1  0.30012000  0.48206000  0.08249000  1.0
  C  C42  1  0.21614000  0.91519000  0.51291000  1.0
  C  C43  1  0.51961000  0.12573000  0.23500000  1.0
  C  C44  1  0.10377000  0.76764000  0.71967000  1.0
  C  C45  1  0.71984000  0.66334000  0.65217000  1.0
  C  C46  1  0.89970000  0.09642000  0.35508000  1.0
  C  C47  1  0.17529000  0.47176000  0.32635000  1.0
  C  C48  1  0.41382000  0.34969000  0.09406000  1.0
  C  C49  1  0.59581000  0.72536000  0.77214000  1.0
  C  C50  1  0.70021000  0.51793000  0.91756000  1.0
  C  C51  1  0.48072000  0.87406000  0.76485000  1.0
  C  C52  1  0.32853000  0.66748000  0.51960000  1.0
  C  C53  1  0.67176000  0.33228000  0.48040000  1.0
  C  C54  1  0.99357000  0.75776000  0.87102000  1.0
  C  C55  1  0.22184000  0.64629000  0.65525000  1.0
  N  N56  1  0.67130000  0.20095000  0.55003000  1.0
  N  N57  1  0.32923000  0.79888000  0.45028000  1.0
  N  N58  1  0.18265000  0.54253000  0.19716000  1.0
  N  N59  1  0.81766000  0.45744000  0.80290000  1.0
  O  O60  1  0.93604000  0.31058000  0.04167000  1.0
  O  O61  1  0.84563000  0.82459000  0.90067000  1.0
  O  O62  1  0.63351000  0.59710000  0.29459000  1.0
  O  O63  1  0.60494000  0.78759000  0.48191000  1.0
  O  O64  1  0.33315000  0.89179000  0.81957000  1.0
  O  O65  1  0.87628000  0.71534000  0.41076000  1.0
  O  O66  1  0.06381000  0.68891000  0.95841000  1.0
  O  O67  1  0.91781000  0.13378000  0.89209000  1.0
  O  O68  1  0.54648000  0.97267000  0.70950000  1.0
  O  O69  1  0.66722000  0.10777000  0.17972000  1.0
  O  O70  1  0.76440000  0.84107000  0.16099000  1.0
  O  O71  1  0.39548000  0.21211000  0.51811000  1.0
  O  O72  1  0.12413000  0.28468000  0.58914000  1.0
  O  O73  1  0.31420000  0.88389000  0.16549000  1.0
  O  O74  1  0.36677000  0.40249000  0.70512000  1.0
  O  O75  1  0.08153000  0.86635000  0.10737000  1.0
  O  O76  1  0.09585000  0.47409000  0.77811000  1.0
  O  O77  1  0.15446000  0.17529000  0.09906000  1.0
  O  O78  1  0.23545000  0.15835000  0.83877000  1.0
  O  O79  1  0.90441000  0.52550000  0.22224000  1.0
  O  O80  1  0.68320000  0.11864000  0.83475000  1.0
  O  O81  1  0.45371000  0.02726000  0.29086000  1.0
