# generated using pymatgen
data_ZnH8(C5O2)2
_symmetry_space_group_name_H-M   'P 1'
_cell_length_a   4.88680000
_cell_length_b   9.63720000
_cell_length_c   19.73280000
_cell_angle_alpha   95.46910000
_cell_angle_beta   90.00000000
_cell_angle_gamma   89.99990000
_symmetry_Int_Tables_number   1
_chemical_formula_structural   ZnH8(C5O2)2
_chemical_formula_sum   'Zn4 H32 C40 O16'
_cell_volume   925.08708514
_cell_formula_units_Z   4
loop_
 _symmetry_equiv_pos_site_id
 _symmetry_equiv_pos_as_xyz
  1  'x, y, z'
loop_
 _atom_site_type_symbol
 _atom_site_label
 _atom_site_symmetry_multiplicity
 _atom_site_fract_x
 _atom_site_fract_y
 _atom_site_fract_z
 _atom_site_occupancy
  Zn  Zn0  1  0.80843000  0.70646000  0.76167000  1.0
  Zn  Zn1  1  0.30843000  0.79354000  0.23833000  1.0
  Zn  Zn2  1  0.19157000  0.29354000  0.23833000  1.0
  Zn  Zn3  1  0.69157000  0.20646000  0.76167000  1.0
  H  H4  1  0.09823000  0.48040000  0.85456000  1.0
  H  H5  1  0.59823000  0.01960000  0.14544000  1.0
  H  H6  1  0.90176000  0.51960000  0.14544000  1.0
  H  H7  1  0.40177000  0.98040000  0.85456000  1.0
  H  H8  1  0.99326000  0.63349000  0.90155000  1.0
  H  H9  1  0.49326000  0.86651000  0.09845000  1.0
  H  H10  1  0.00674000  0.36651000  0.09845000  1.0
  H  H11  1  0.50674000  0.13349000  0.90155000  1.0
  H  H12  1  0.59036000  0.38451000  0.88469000  1.0
  H  H13  1  0.09035000  0.11549000  0.11531000  1.0
  H  H14  1  0.40964000  0.61549000  0.11531000  1.0
  H  H15  1  0.90965000  0.88451000  0.88469000  1.0
  H  H16  1  0.13847000  0.68098000  0.01754000  1.0
  H  H17  1  0.63847000  0.81902000  0.98245000  1.0
  H  H18  1  0.86153000  0.31902000  0.98246000  1.0
  H  H19  1  0.36153000  0.18098000  0.01754000  1.0
  H  H20  1  0.68672000  0.27057000  0.61643000  1.0
  H  H21  1  0.18672000  0.22943000  0.38357000  1.0
  H  H22  1  0.31328000  0.72943000  0.38357000  1.0
  H  H23  1  0.81328000  0.77057000  0.61643000  1.0
  H  H24  1  0.35981000  0.32803000  0.64301000  1.0
  H  H25  1  0.85981000  0.17197000  0.35699000  1.0
  H  H26  1  0.64019000  0.67197000  0.35699000  1.0
  H  H27  1  0.14019000  0.82803000  0.64301000  1.0
  H  H28  1  0.18945000  0.56573000  0.59750000  1.0
  H  H29  1  0.68945000  0.93427000  0.40250000  1.0
  H  H30  1  0.81055000  0.43427000  0.40250000  1.0
  H  H31  1  0.31055000  0.06573000  0.59750000  1.0
  H  H32  1  0.85725000  0.32005000  0.50929000  1.0
  H  H33  1  0.35725000  0.17995000  0.49071000  1.0
  H  H34  1  0.14275000  0.67995000  0.49071000  1.0
  H  H35  1  0.64275000  0.82005000  0.50929000  1.0
  C  C36  1  0.32841000  0.65444000  0.83354000  1.0
  C  C37  1  0.82841000  0.84556000  0.16646000  1.0
  C  C38  1  0.67159000  0.34556000  0.16646000  1.0
  C  C39  1  0.17159000  0.15444000  0.83354000  1.0
  C  C40  1  0.17682000  0.57459000  0.88450000  1.0
  C  C41  1  0.67682000  0.92541000  0.11550000  1.0
  C  C42  1  0.82318000  0.42541000  0.11550000  1.0
  C  C43  1  0.32318000  0.07459000  0.88450000  1.0
  C  C44  1  0.34368000  0.53648000  0.94400000  1.0
  C  C45  1  0.84368000  0.96352000  0.05600000  1.0
  C  C46  1  0.65632000  0.46352000  0.05600000  1.0
  C  C47  1  0.15632000  0.03648000  0.94400000  1.0
  C  C48  1  0.54830000  0.43473000  0.93545000  1.0
  C  C49  1  0.04830000  0.06527000  0.06455000  1.0
  C  C50  1  0.45170000  0.56527000  0.06455000  1.0
  C  C51  1  0.95170000  0.93473000  0.93545000  1.0
  C  C52  1  0.29727000  0.60157000  0.00950000  1.0
  C  C53  1  0.79728000  0.89843000  0.99050000  1.0
  C  C54  1  0.70273000  0.39843000  0.99050000  1.0
  C  C55  1  0.20272000  0.10157000  0.00950000  1.0
  C  C56  1  0.67948000  0.45503000  0.68498000  1.0
  C  C57  1  0.17949000  0.04497000  0.31502000  1.0
  C  C58  1  0.32051000  0.54497000  0.31502000  1.0
  C  C59  1  0.82052000  0.95503000  0.68498000  1.0
  C  C60  1  0.55894000  0.36449000  0.62508000  1.0
  C  C61  1  0.05894000  0.13551000  0.37492000  1.0
  C  C62  1  0.44106000  0.63551000  0.37492000  1.0
  C  C63  1  0.94106000  0.86449000  0.62508000  1.0
  C  C64  1  0.52676000  0.43472000  0.56070000  1.0
  C  C65  1  0.02676000  0.06528000  0.43930000  1.0
  C  C66  1  0.47324000  0.56528000  0.43930000  1.0
  C  C67  1  0.97324000  0.93472000  0.56070000  1.0
  C  C68  1  0.32687000  0.53683000  0.55488000  1.0
  C  C69  1  0.82688000  0.96317000  0.44512000  1.0
  C  C70  1  0.67313000  0.46317000  0.44512000  1.0
  C  C71  1  0.17312000  0.03683000  0.55488000  1.0
  C  C72  1  0.69935000  0.39882000  0.50514000  1.0
  C  C73  1  0.19935000  0.10118000  0.49486000  1.0
  C  C74  1  0.30065000  0.60118000  0.49486000  1.0
  C  C75  1  0.80065000  0.89882000  0.50514000  1.0
  O  O76  1  0.20209000  0.69779000  0.78289000  1.0
  O  O77  1  0.70209000  0.80221000  0.21711000  1.0
  O  O78  1  0.79791000  0.30221000  0.21711000  1.0
  O  O79  1  0.29791000  0.19779000  0.78289000  1.0
  O  O80  1  0.58540000  0.67300000  0.84130000  1.0
  O  O81  1  0.08540000  0.82699000  0.15870000  1.0
  O  O82  1  0.41460000  0.32699000  0.15870000  1.0
  O  O83  1  0.91460000  0.17301000  0.84130000  1.0
  O  O84  1  0.71648000  0.58422000  0.67886000  1.0
  O  O85  1  0.21648000  0.91578000  0.32114000  1.0
  O  O86  1  0.28352000  0.41578000  0.32114000  1.0
  O  O87  1  0.78352000  0.08422000  0.67886000  1.0
  O  O88  1  0.73786000  0.40186000  0.74000000  1.0
  O  O89  1  0.23786000  0.09814000  0.26000000  1.0
  O  O90  1  0.26214000  0.59814000  0.26000000  1.0
  O  O91  1  0.76214000  0.90186000  0.74000000  1.0
