# generated using pymatgen
data_NiH34C32(NO)4
_symmetry_space_group_name_H-M   'P 1'
_cell_length_a   11.29650000
_cell_length_b   14.49340000
_cell_length_c   20.75060000
_cell_angle_alpha   69.59900000
_cell_angle_beta   79.34200000
_cell_angle_gamma   89.94320000
_symmetry_Int_Tables_number   1
_chemical_formula_structural   NiH34C32(NO)4
_chemical_formula_sum   'Ni4 H136 C128 N16 O16'
_cell_volume   3121.91426791
_cell_formula_units_Z   4
loop_
 _symmetry_equiv_pos_site_id
 _symmetry_equiv_pos_as_xyz
  1  'x, y, z'
loop_
 _atom_site_type_symbol
 _atom_site_label
 _atom_site_symmetry_multiplicity
 _atom_site_fract_x
 _atom_site_fract_y
 _atom_site_fract_z
 _atom_site_occupancy
  Ni  Ni0  1  0.66619000  0.87536000  0.73942000  1.0
  Ni  Ni1  1  0.83425000  0.61409000  0.26088000  1.0
  Ni  Ni2  1  0.33382000  0.12465000  0.26057000  1.0
  Ni  Ni3  1  0.16576000  0.38590000  0.73912000  1.0
  H  H4  1  0.17002000  0.20993000  0.69106000  1.0
  H  H5  1  0.32973000  0.90075000  0.30887000  1.0
  H  H6  1  0.82997000  0.79007000  0.30893000  1.0
  H  H7  1  0.67026000  0.09926000  0.69113000  1.0
  H  H8  1  0.98956000  0.17069000  0.41695000  1.0
  H  H9  1  0.50959000  0.58764000  0.58324000  1.0
  H  H10  1  0.01044000  0.82930000  0.58305000  1.0
  H  H11  1  0.49042000  0.41236000  0.41675000  1.0
  H  H12  1  0.89507000  0.32378000  0.86392000  1.0
  H  H13  1  0.60481000  0.18672000  0.13616000  1.0
  H  H14  1  0.10493000  0.67622000  0.13609000  1.0
  H  H15  1  0.39518000  0.81329000  0.86383000  1.0
  H  H16  1  0.84733000  0.10721000  0.53408000  1.0
  H  H17  1  0.65238000  0.64105000  0.46631000  1.0
  H  H18  1  0.15268000  0.89278000  0.46592000  1.0
  H  H19  1  0.34763000  0.35896000  0.53368000  1.0
  H  H20  1  0.78494000  0.00843000  0.83168000  1.0
  H  H21  1  0.71555000  0.83905000  0.16889000  1.0
  H  H22  1  0.21507000  0.99157000  0.16833000  1.0
  H  H23  1  0.28444000  0.16095000  0.83111000  1.0
  H  H24  1  0.91641000  0.01836000  0.72445000  1.0
  H  H25  1  0.58372000  0.74211000  0.27567000  1.0
  H  H26  1  0.08358000  0.98165000  0.27555000  1.0
  H  H27  1  0.41628000  0.25790000  0.72433000  1.0
  H  H28  1  0.05223000  0.07489000  0.66533000  1.0
  H  H29  1  0.44793000  0.73969000  0.33490000  1.0
  H  H30  1  0.94776000  0.92512000  0.33467000  1.0
  H  H31  1  0.55207000  0.26031000  0.66510000  1.0
  H  H32  1  0.45216000  0.72177000  0.79763000  1.0
  H  H33  1  0.04886000  0.51893000  0.20236000  1.0
  H  H34  1  0.54784000  0.27824000  0.20237000  1.0
  H  H35  1  0.95114000  0.48106000  0.79764000  1.0
  H  H36  1  0.03608000  0.93018000  0.81565000  1.0
  H  H37  1  0.46397000  0.74549000  0.18444000  1.0
  H  H38  1  0.96392000  0.06983000  0.18434000  1.0
  H  H39  1  0.53602000  0.25451000  0.81556000  1.0
  H  H40  1  0.17152000  0.98631000  0.75624000  1.0
  H  H41  1  0.32855000  0.74216000  0.24394000  1.0
  H  H42  1  0.82848000  0.01370000  0.24375000  1.0
  H  H43  1  0.67145000  0.25784000  0.75606000  1.0
  H  H44  1  0.10921000  0.90906000  0.67169000  1.0
  H  H45  1  0.39141000  0.58026000  0.32819000  1.0
  H  H46  1  0.89078000  0.09093000  0.32831000  1.0
  H  H47  1  0.60860000  0.41973000  0.67181000  1.0
  H  H48  1  0.98898000  0.84310000  0.73959000  1.0
  H  H49  1  0.51144000  0.58237000  0.26007000  1.0
  H  H50  1  0.01102000  0.15690000  0.26041000  1.0
  H  H51  1  0.48856000  0.41763000  0.73993000  1.0
  H  H52  1  0.68400000  0.93351000  0.56040000  1.0
  H  H53  1  0.81702000  0.49375000  0.43960000  1.0
  H  H54  1  0.31600000  0.06648000  0.43960000  1.0
  H  H55  1  0.18297000  0.50624000  0.56040000  1.0
  H  H56  1  0.92373000  0.77192000  0.89932000  1.0
  H  H57  1  0.57622000  0.67043000  0.10107000  1.0
  H  H58  1  0.07627000  0.22808000  0.10069000  1.0
  H  H59  1  0.42378000  0.32957000  0.89893000  1.0
  H  H60  1  0.95913000  0.70458000  0.02303000  1.0
  H  H61  1  0.54092000  0.72697000  0.97732000  1.0
  H  H62  1  0.04087000  0.29542000  0.97698000  1.0
  H  H63  1  0.45909000  0.27302000  0.02268000  1.0
  H  H64  1  0.70799000  0.30876000  0.94167000  1.0
  H  H65  1  0.79203000  0.24908000  0.05870000  1.0
  H  H66  1  0.29202000  0.69124000  0.05832000  1.0
  H  H67  1  0.20798000  0.75093000  0.94129000  1.0
  H  H68  1  0.64446000  0.18659000  0.99178000  1.0
  H  H69  1  0.85548000  0.17704000  0.00844000  1.0
  H  H70  1  0.35554000  0.81342000  0.00821000  1.0
  H  H71  1  0.14452000  0.82297000  0.99156000  1.0
  H  H72  1  0.58869000  0.25715000  0.91718000  1.0
  H  H73  1  0.91151000  0.17295000  0.08298000  1.0
  H  H74  1  0.41132000  0.74285000  0.08281000  1.0
  H  H75  1  0.08849000  0.82705000  0.91701000  1.0
  H  H76  1  0.17519000  0.75198000  0.66853000  1.0
  H  H77  1  0.32565000  0.42035000  0.33123000  1.0
  H  H78  1  0.82481000  0.24801000  0.33148000  1.0
  H  H79  1  0.67435000  0.57965000  0.66878000  1.0
  H  H80  1  0.09007000  0.66849000  0.74708000  1.0
  H  H81  1  0.41093000  0.41554000  0.25260000  1.0
  H  H82  1  0.90994000  0.33150000  0.25293000  1.0
  H  H83  1  0.58907000  0.58446000  0.74740000  1.0
  H  H84  1  0.61522000  0.02843000  0.98351000  1.0
  H  H85  1  0.88483000  0.01048000  0.01687000  1.0
  H  H86  1  0.38479000  0.97157000  0.01649000  1.0
  H  H87  1  0.11517000  0.98953000  0.98313000  1.0
  H  H88  1  0.60538000  0.98491000  0.91434000  1.0
  H  H89  1  0.89512000  0.89796000  0.08599000  1.0
  H  H90  1  0.39462000  0.01508000  0.08566000  1.0
  H  H91  1  0.10489000  0.10205000  0.91401000  1.0
  H  H92  1  0.53558000  0.09333000  0.91776000  1.0
  H  H93  1  0.96467000  0.00982000  0.08252000  1.0
  H  H94  1  0.46442000  0.90666000  0.08224000  1.0
  H  H95  1  0.03533000  0.99019000  0.91749000  1.0
  H  H96  1  0.25822000  0.83582000  0.74587000  1.0
  H  H97  1  0.24207000  0.58140000  0.25402000  1.0
  H  H98  1  0.74178000  0.16419000  0.25412000  1.0
  H  H99  1  0.75793000  0.41859000  0.74598000  1.0
  H  H100  1  0.14272000  0.76507000  0.81490000  1.0
  H  H101  1  0.35766000  0.57966000  0.18493000  1.0
  H  H102  1  0.85728000  0.23494000  0.18510000  1.0
  H  H103  1  0.64234000  0.42034000  0.81507000  1.0
  H  H104  1  0.32322000  0.71722000  0.57832000  1.0
  H  H105  1  0.17705000  0.29402000  0.42163000  1.0
  H  H106  1  0.67678000  0.28278000  0.42169000  1.0
  H  H107  1  0.82294000  0.70599000  0.57838000  1.0
  H  H108  1  0.28055000  0.61949000  0.79323000  1.0
  H  H109  1  0.22046000  0.41210000  0.20657000  1.0
  H  H110  1  0.71946000  0.38051000  0.20678000  1.0
  H  H111  1  0.77953000  0.58790000  0.79343000  1.0
  H  H112  1  0.28119000  0.59803000  0.71413000  1.0
  H  H113  1  0.22046000  0.31171000  0.28560000  1.0
  H  H114  1  0.71882000  0.40197000  0.28588000  1.0
  H  H115  1  0.77954000  0.68829000  0.71440000  1.0
  H  H116  1  0.50056000  0.80163000  0.40985000  1.0
  H  H117  1  0.99952000  0.21059000  0.59002000  1.0
  H  H118  1  0.49943000  0.19836000  0.59016000  1.0
  H  H119  1  0.00049000  0.78941000  0.40998000  1.0
  H  H120  1  0.40568000  0.89783000  0.41301000  1.0
  H  H121  1  0.09465000  0.30953000  0.58704000  1.0
  H  H122  1  0.59431000  0.10217000  0.58698000  1.0
  H  H123  1  0.90536000  0.69047000  0.41296000  1.0
  H  H124  1  0.34883000  0.77252000  0.45672000  1.0
  H  H125  1  0.15128000  0.22780000  0.54326000  1.0
  H  H126  1  0.65116000  0.22748000  0.54327000  1.0
  H  H127  1  0.84873000  0.77221000  0.45673000  1.0
  H  H128  1  0.59563000  0.01003000  0.40822000  1.0
  H  H129  1  0.90521000  0.41821000  0.59165000  1.0
  H  H130  1  0.40436000  0.98996000  0.59178000  1.0
  H  H131  1  0.09478000  0.58177000  0.40836000  1.0
  H  H132  1  0.66177000  0.90462000  0.39743000  1.0
  H  H133  1  0.83908000  0.30199000  0.60267000  1.0
  H  H134  1  0.33822000  0.09538000  0.60257000  1.0
  H  H135  1  0.16092000  0.69800000  0.39734000  1.0
  H  H136  1  0.73126000  0.97310000  0.43860000  1.0
  H  H137  1  0.76955000  0.41158000  0.56139000  1.0
  H  H138  1  0.26872000  0.02690000  0.56141000  1.0
  H  H139  1  0.23044000  0.58840000  0.43862000  1.0
  C  C140  1  0.94736000  0.22316000  0.80892000  1.0
  C  C141  1  0.55276000  0.03127000  0.19131000  1.0
  C  C142  1  0.05264000  0.77684000  0.19108000  1.0
  C  C143  1  0.44724000  0.96874000  0.80868000  1.0
  C  C144  1  0.92145000  0.96486000  0.56518000  1.0
  C  C145  1  0.57881000  0.52995000  0.43496000  1.0
  C  C146  1  0.07854000  0.03513000  0.43482000  1.0
  C  C147  1  0.42118000  0.47006000  0.56503000  1.0
  C  C148  1  0.08860000  0.19986000  0.73046000  1.0
  C  C149  1  0.41132000  0.92985000  0.26959000  1.0
  C  C150  1  0.91140000  0.80013000  0.26954000  1.0
  C  C151  1  0.58867000  0.07016000  0.73040000  1.0
  C  C152  1  0.70928000  0.79624000  0.85823000  1.0
  C  C153  1  0.79041000  0.65371000  0.14223000  1.0
  C  C154  1  0.29073000  0.20377000  0.14177000  1.0
  C  C155  1  0.20959000  0.34629000  0.85778000  1.0
  C  C156  1  0.91312000  0.13538000  0.79973000  1.0
  C  C157  1  0.58719000  0.93426000  0.20066000  1.0
  C  C158  1  0.08689000  0.86461000  0.20028000  1.0
  C  C159  1  0.41281000  0.06574000  0.79934000  1.0
  C  C160  1  0.73036000  0.75360000  0.93130000  1.0
  C  C161  1  0.76958000  0.68449000  0.06908000  1.0
  C  C162  1  0.26964000  0.24641000  0.06870000  1.0
  C  C163  1  0.23043000  0.31554000  0.93092000  1.0
  C  C164  1  0.83404000  0.92629000  0.63328000  1.0
  C  C165  1  0.66666667  0.55924000  0.36705000  1.0
  C  C166  1  0.16595000  0.07371000  0.36672000  1.0
  C  C167  1  0.33333333  0.44076000  0.63295000  1.0
  C  C168  1  0.99281000  0.09605000  0.45364000  1.0
  C  C169  1  0.50668000  0.54971000  0.54647000  1.0
  C  C170  1  0.00719000  0.90394000  0.54636000  1.0
  C  C171  1  0.49330000  0.45030000  0.45352000  1.0
  C  C172  1  0.87013000  0.25662000  0.85587000  1.0
  C  C173  1  0.62990000  0.11149000  0.14432000  1.0
  C  C174  1  0.12987000  0.74338000  0.14414000  1.0
  C  C175  1  0.37009000  0.88851000  0.85568000  1.0
  C  C176  1  0.91477000  0.06110000  0.51856000  1.0
  C  C177  1  0.58507000  0.57952000  0.48169000  1.0
  C  C178  1  0.08523000  0.93890000  0.48144000  1.0
  C  C179  1  0.41492000  0.42050000  0.51830000  1.0
  C  C180  1  0.76111000  0.20226000  0.89225000  1.0
  C  C181  1  0.73907000  0.09331000  0.10806000  1.0
  C  C182  1  0.23888000  0.79774000  0.10774000  1.0
  C  C183  1  0.26092000  0.90670000  0.89193000  1.0
  C  C184  1  0.80710000  0.07789000  0.83769000  1.0
  C  C185  1  0.69333000  0.91455000  0.16280000  1.0
  C  C186  1  0.19291000  0.92211000  0.16230000  1.0
  C  C187  1  0.30666000  0.08546000  0.83719000  1.0
  C  C188  1  0.00955000  0.04384000  0.72118000  1.0
  C  C189  1  0.49057000  0.76444000  0.27903000  1.0
  C  C190  1  0.99044000  0.95615000  0.27882000  1.0
  C  C191  1  0.50943000  0.23557000  0.72097000  1.0
  C  C192  1  0.46544000  0.74900000  0.74089000  1.0
  C  C193  1  0.03554000  0.48933000  0.25911000  1.0
  C  C194  1  0.53456000  0.25100000  0.25911000  1.0
  C  C195  1  0.96446000  0.51067000  0.74090000  1.0
  C  C196  1  0.53997000  0.82726000  0.63047000  1.0
  C  C197  1  0.96087000  0.45710000  0.36955000  1.0
  C  C198  1  0.46004000  0.17273000  0.36953000  1.0
  C  C199  1  0.03914000  0.54290000  0.63045000  1.0
  C  C200  1  0.73077000  0.11162000  0.88446000  1.0
  C  C201  1  0.76954000  0.99488000  0.11595000  1.0
  C  C202  1  0.26924000  0.88837000  0.11553000  1.0
  C  C203  1  0.23046000  0.00513000  0.88406000  1.0
  C  C204  1  0.43893000  0.76623000  0.63464000  1.0
  C  C205  1  0.06179000  0.39994000  0.36531000  1.0
  C  C206  1  0.56107000  0.23377000  0.36536000  1.0
  C  C207  1  0.93821000  0.60006000  0.63469000  1.0
  C  C208  1  0.07886000  0.95865000  0.75968000  1.0
  C  C209  1  0.42126000  0.71794000  0.24042000  1.0
  C  C210  1  0.92113000  0.04135000  0.24031000  1.0
  C  C211  1  0.57874000  0.28206000  0.75958000  1.0
  C  C212  1  0.08097000  0.87676000  0.72931000  1.0
  C  C213  1  0.41939000  0.60570000  0.27054000  1.0
  C  C214  1  0.91902000  0.12324000  0.27069000  1.0
  C  C215  1  0.58061000  0.39430000  0.72946000  1.0
  C  C216  1  0.60687000  0.88544000  0.56476000  1.0
  C  C217  1  0.89401000  0.44976000  0.43526000  1.0
  C  C218  1  0.39312000  0.11456000  0.43524000  1.0
  C  C219  1  0.10598000  0.55023000  0.56474000  1.0
  C  C220  1  0.84834000  0.74757000  0.94397000  1.0
  C  C221  1  0.65162000  0.69099000  0.05641000  1.0
  C  C222  1  0.15166000  0.25243000  0.05603000  1.0
  C  C223  1  0.34838000  0.30901000  0.94359000  1.0
  C  C224  1  0.86793000  0.71082000  0.01240000  1.0
  C  C225  1  0.63206000  0.72284000  0.98798000  1.0
  C  C226  1  0.13207000  0.28919000  0.98760000  1.0
  C  C227  1  0.36794000  0.27716000  0.01203000  1.0
  C  C228  1  0.67177000  0.24072000  0.93833000  1.0
  C  C229  1  0.82829000  0.17768000  0.06195000  1.0
  C  C230  1  0.32823000  0.75928000  0.06166000  1.0
  C  C231  1  0.17170000  0.82233000  0.93804000  1.0
  C  C232  1  0.17250000  0.71826000  0.72532000  1.0
  C  C233  1  0.32827000  0.44335000  0.27443000  1.0
  C  C234  1  0.82750000  0.28174000  0.27468000  1.0
  C  C235  1  0.67173000  0.55665000  0.72557000  1.0
  C  C236  1  0.61606000  0.05151000  0.92695000  1.0
  C  C237  1  0.88423000  0.97713000  0.07340000  1.0
  C  C238  1  0.38395000  0.94848000  0.07305000  1.0
  C  C239  1  0.11577000  0.02287000  0.92660000  1.0
  C  C240  1  0.16759000  0.79876000  0.75724000  1.0
  C  C241  1  0.33277000  0.55572000  0.24259000  1.0
  C  C242  1  0.83241000  0.20124000  0.24276000  1.0
  C  C243  1  0.66723000  0.44428000  0.75741000  1.0
  C  C244  1  0.40135000  0.76421000  0.57471000  1.0
  C  C245  1  0.09913000  0.33772000  0.42523000  1.0
  C  C246  1  0.59865000  0.23578000  0.42530000  1.0
  C  C247  1  0.90087000  0.66228000  0.57477000  1.0
  C  C248  1  0.28101000  0.65574000  0.73696000  1.0
  C  C249  1  0.22009000  0.39215000  0.26283000  1.0
  C  C250  1  0.71900000  0.34425000  0.26305000  1.0
  C  C251  1  0.77991000  0.60784000  0.73717000  1.0
  C  C252  1  0.46786000  0.82312000  0.50935000  1.0
  C  C253  1  0.03266000  0.33152000  0.49061000  1.0
  C  C254  1  0.53213000  0.17687000  0.49065000  1.0
  C  C255  1  0.96734000  0.66848000  0.50939000  1.0
  C  C256  1  0.57201000  0.88289000  0.50430000  1.0
  C  C257  1  0.92872000  0.38662000  0.49571000  1.0
  C  C258  1  0.42798000  0.11710000  0.49571000  1.0
  C  C259  1  0.07129000  0.61339000  0.50429000  1.0
  C  C260  1  0.42846000  0.82373000  0.44396000  1.0
  C  C261  1  0.07179000  0.26652000  0.55602000  1.0
  C  C262  1  0.57153000  0.17626000  0.55604000  1.0
  C  C263  1  0.92822000  0.73348000  0.44398000  1.0
  C  C264  1  0.64412000  0.94559000  0.43361000  1.0
  C  C265  1  0.85670000  0.37899000  0.56639000  1.0
  C  C266  1  0.35587000  0.05440000  0.56639000  1.0
  C  C267  1  0.14329000  0.62100000  0.43362000  1.0
  N  N268  1  0.05840000  0.26158000  0.76463000  1.0
  N  N269  1  0.44151000  0.02564000  0.23541000  1.0
  N  N270  1  0.94161000  0.73841000  0.23537000  1.0
  N  N271  1  0.55849000  0.97438000  0.76459000  1.0
  N  N272  1  0.00430000  0.12367000  0.74891000  1.0
  N  N273  1  0.49583000  0.87195000  0.25135000  1.0
  N  N274  1  0.99570000  0.87633000  0.25109000  1.0
  N  N275  1  0.50416000  0.12805000  0.74865000  1.0
  N  N276  1  0.55341000  0.81499000  0.69836000  1.0
  N  N277  1  0.94755000  0.51289000  0.30169000  1.0
  N  N278  1  0.44659000  0.18501000  0.30164000  1.0
  N  N279  1  0.05245000  0.48710000  0.69831000  1.0
  N  N280  1  0.39445000  0.71683000  0.70573000  1.0
  N  N281  1  0.10640000  0.42172000  0.29421000  1.0
  N  N282  1  0.60556000  0.28317000  0.29428000  1.0
  N  N283  1  0.89360000  0.57828000  0.70580000  1.0
  O  O284  1  0.76058000  0.98538000  0.65067000  1.0
  O  O285  1  0.74019000  0.63550000  0.34985000  1.0
  O  O286  1  0.23944000  0.01462000  0.34933000  1.0
  O  O287  1  0.25981000  0.36449000  0.65015000  1.0
  O  O288  1  0.61948000  0.76330000  0.84098000  1.0
  O  O289  1  0.88028000  0.60344000  0.15938000  1.0
  O  O290  1  0.38052000  0.23671000  0.15902000  1.0
  O  O291  1  0.11972000  0.39656000  0.84062000  1.0
  O  O292  1  0.78005000  0.86774000  0.81325000  1.0
  O  O293  1  0.71947000  0.68011000  0.18730000  1.0
  O  O294  1  0.21996000  0.13226000  0.18675000  1.0
  O  O295  1  0.28054000  0.31990000  0.81270000  1.0
  O  O296  1  0.82850000  0.83616000  0.67232000  1.0
  O  O297  1  0.67250000  0.50832000  0.32782000  1.0
  O  O298  1  0.17150000  0.16384000  0.32769000  1.0
  O  O299  1  0.32749000  0.49167000  0.67218000  1.0
