# generated using pymatgen
data_CeCuH8C14(NO4)2
_symmetry_space_group_name_H-M   'P 1'
_cell_length_a   9.26117000
_cell_length_b   11.44580000
_cell_length_c   17.23060000
_cell_angle_alpha   73.12600000
_cell_angle_beta   89.97320000
_cell_angle_gamma   66.16900000
_symmetry_Int_Tables_number   1
_chemical_formula_structural   CeCuH8C14(NO4)2
_chemical_formula_sum   'Ce4 Cu4 H32 C56 N8 O32'
_cell_volume   1584.51403354
_cell_formula_units_Z   4
loop_
 _symmetry_equiv_pos_site_id
 _symmetry_equiv_pos_as_xyz
  1  'x, y, z'
loop_
 _atom_site_type_symbol
 _atom_site_label
 _atom_site_symmetry_multiplicity
 _atom_site_fract_x
 _atom_site_fract_y
 _atom_site_fract_z
 _atom_site_occupancy
  Ce  Ce0  1  0.33791000  0.96611000  0.07523000  1.0
  Ce  Ce1  1  0.30414000  0.03397000  0.42473000  1.0
  Ce  Ce2  1  0.66203000  0.03381000  0.92481000  1.0
  Ce  Ce3  1  0.69577000  0.96613000  0.57523000  1.0
  Cu  Cu4  1  0.91496000  0.33299000  0.86522000  1.0
  Cu  Cu5  1  0.24809000  0.66666667  0.63510000  1.0
  Cu  Cu6  1  0.08546000  0.66680000  0.13496000  1.0
  Cu  Cu7  1  0.75215000  0.33341000  0.36475000  1.0
  H  H8  1  0.41658000  0.19906000  0.22021000  1.0
  H  H9  1  0.47814000  0.30918000  0.31197000  1.0
  H  H10  1  0.92587000  0.23537000  0.23874000  1.0
  H  H11  1  0.87686000  0.13114000  0.13876000  1.0
  H  H12  1  0.82565000  0.73230000  0.94251000  1.0
  H  H13  1  0.92320000  0.57374000  0.86509000  1.0
  H  H14  1  0.71473000  0.33280000  0.00016000  1.0
  H  H15  1  0.59569000  0.49212000  0.08072000  1.0
  H  H16  1  0.61557000  0.80097000  0.27978000  1.0
  H  H17  1  0.78702000  0.69101000  0.18788000  1.0
  H  H18  1  0.16100000  0.76480000  0.26102000  1.0
  H  H19  1  0.00796000  0.86877000  0.36116000  1.0
  H  H20  1  0.55843000  0.26781000  0.55735000  1.0
  H  H21  1  0.49732000  0.42597000  0.63508000  1.0
  H  H22  1  0.04805000  0.66658000  0.50038000  1.0
  H  H23  1  0.08837000  0.50763000  0.41958000  1.0
  H  H24  1  0.58341000  0.80098000  0.77986000  1.0
  H  H25  1  0.52200000  0.69093000  0.68802000  1.0
  H  H26  1  0.07413000  0.76474000  0.76105000  1.0
  H  H27  1  0.12298000  0.86884000  0.86112000  1.0
  H  H28  1  0.17436000  0.26764000  0.05758000  1.0
  H  H29  1  0.07698000  0.42613000  0.13504000  1.0
  H  H30  1  0.28540000  0.66708000  0.99991000  1.0
  H  H31  1  0.40435000  0.50778000  0.91931000  1.0
  H  H32  1  0.38448000  0.19907000  0.72013000  1.0
  H  H33  1  0.21330000  0.30883000  0.81218000  1.0
  H  H34  1  0.83915000  0.23511000  0.73919000  1.0
  H  H35  1  0.99189000  0.13136000  0.63890000  1.0
  H  H36  1  0.44159000  0.73215000  0.44260000  1.0
  H  H37  1  0.50282000  0.57404000  0.36482000  1.0
  H  H38  1  0.95205000  0.33346000  0.49958000  1.0
  H  H39  1  0.91156000  0.49239000  0.58043000  1.0
  C  C40  1  0.60929000  0.08708000  0.11657000  1.0
  C  C41  1  0.64273000  0.15479000  0.17231000  1.0
  C  C42  1  0.52961000  0.20693000  0.22140000  1.0
  C  C43  1  0.56395000  0.26750000  0.27324000  1.0
  C  C44  1  0.81403000  0.22692000  0.23158000  1.0
  C  C45  1  0.78603000  0.16816000  0.17665000  1.0
  C  C46  1  0.60976000  0.73586000  0.05380000  1.0
  C  C47  1  0.69635000  0.62859000  0.01693000  1.0
  C  C48  1  0.79590000  0.64668000  0.95796000  1.0
  C  C49  1  0.85321000  0.55679000  0.91444000  1.0
  C  C50  1  0.73452000  0.42353000  0.98945000  1.0
  C  C51  1  0.66979000  0.51160000  0.03412000  1.0
  C  C52  1  0.01886000  0.92693000  0.02607000  1.0
  C  C53  1  0.29036000  0.92348000  0.27146000  1.0
  C  C54  1  0.69638000  0.91281000  0.38347000  1.0
  C  C55  1  0.79751000  0.84508000  0.32770000  1.0
  C  C56  1  0.73650000  0.79303000  0.27857000  1.0
  C  C57  1  0.83131000  0.73259000  0.22663000  1.0
  C  C58  1  0.04075000  0.77315000  0.26823000  1.0
  C  C59  1  0.95413000  0.83179000  0.32326000  1.0
  C  C60  1  0.34635000  0.26416000  0.44608000  1.0
  C  C61  1  0.32551000  0.37134000  0.48312000  1.0
  C  C62  1  0.44307000  0.35329000  0.54205000  1.0
  C  C63  1  0.41043000  0.44296000  0.58575000  1.0
  C  C64  1  0.15858000  0.57597000  0.51099000  1.0
  C  C65  1  0.18194000  0.48810000  0.46616000  1.0
  C  C66  1  0.94588000  0.07307000  0.47389000  1.0
  C  C67  1  0.21385000  0.07639000  0.22851000  1.0
  C  C68  1  0.39055000  0.91293000  0.88344000  1.0
  C  C69  1  0.35717000  0.84525000  0.82766000  1.0
  C  C70  1  0.47038000  0.79312000  0.77861000  1.0
  C  C71  1  0.43610000  0.73259000  0.72671000  1.0
  C  C72  1  0.18597000  0.77315000  0.76827000  1.0
  C  C73  1  0.21387000  0.83186000  0.82326000  1.0
  C  C74  1  0.39019000  0.26407000  0.94624000  1.0
  C  C75  1  0.30366000  0.37133000  0.98313000  1.0
  C  C76  1  0.20413000  0.35324000  0.04211000  1.0
  C  C77  1  0.14689000  0.44313000  0.08565000  1.0
  C  C78  1  0.26559000  0.57635000  0.01062000  1.0
  C  C79  1  0.33025000  0.48831000  0.96593000  1.0
  C  C80  1  0.98109000  0.07300000  0.97397000  1.0
  C  C81  1  0.70963000  0.07652000  0.72855000  1.0
  C  C82  1  0.30347000  0.08735000  0.61647000  1.0
  C  C83  1  0.20244000  0.15500000  0.67229000  1.0
  C  C84  1  0.26356000  0.20699000  0.72140000  1.0
  C  C85  1  0.16892000  0.26730000  0.77343000  1.0
  C  C86  1  0.95937000  0.22678000  0.73192000  1.0
  C  C87  1  0.04585000  0.16825000  0.67681000  1.0
  C  C88  1  0.65354000  0.73589000  0.55387000  1.0
  C  C89  1  0.67446000  0.62865000  0.51685000  1.0
  C  C90  1  0.55695000  0.64667000  0.45790000  1.0
  C  C91  1  0.58968000  0.55701000  0.41418000  1.0
  C  C92  1  0.84148000  0.42403000  0.48898000  1.0
  C  C93  1  0.81804000  0.51189000  0.53383000  1.0
  C  C94  1  0.05398000  0.92709000  0.52608000  1.0
  C  C95  1  0.78607000  0.92362000  0.77147000  1.0
  N  N96  1  0.70539000  0.27519000  0.28023000  1.0
  N  N97  1  0.82203000  0.44684000  0.92843000  1.0
  N  N98  1  0.98040000  0.72493000  0.21955000  1.0
  N  N99  1  0.26933000  0.55273000  0.57194000  1.0
  N  N100  1  0.29468000  0.72491000  0.71963000  1.0
  N  N101  1  0.17812000  0.55305000  0.07167000  1.0
  N  N102  1  0.01986000  0.27494000  0.78059000  1.0
  N  N103  1  0.73081000  0.44727000  0.42799000  1.0
  O  O104  1  0.50857000  0.03732000  0.13582000  1.0
  O  O105  1  0.68222000  0.08574000  0.05423000  1.0
  O  O106  1  0.51368000  0.72018000  0.10432000  1.0
  O  O107  1  0.62405000  0.84849000  0.02995000  1.0
  O  O108  1  0.13836000  0.86732000  0.08157000  1.0
  O  O109  1  0.92890000  0.87563000  0.01061000  1.0
  O  O110  1  0.35131000  0.84880000  0.22768000  1.0
  O  O111  1  0.28184000  0.88602000  0.34761000  1.0
  O  O112  1  0.54602000  0.96277000  0.36412000  1.0
  O  O113  1  0.76789000  0.91395000  0.44588000  1.0
  O  O114  1  0.23489000  0.27993000  0.39539000  1.0
  O  O115  1  0.47304000  0.15151000  0.46999000  1.0
  O  O116  1  0.00592000  0.13260000  0.41835000  1.0
  O  O117  1  0.80467000  0.12435000  0.48937000  1.0
  O  O118  1  0.20030000  0.15104000  0.27229000  1.0
  O  O119  1  0.16761000  0.11390000  0.15239000  1.0
  O  O120  1  0.49126000  0.96270000  0.86422000  1.0
  O  O121  1  0.31763000  0.91417000  0.94579000  1.0
  O  O122  1  0.48624000  0.27976000  0.89570000  1.0
  O  O123  1  0.37584000  0.15145000  0.97009000  1.0
  O  O124  1  0.86160000  0.13262000  0.91846000  1.0
  O  O125  1  0.07103000  0.12431000  0.98944000  1.0
  O  O126  1  0.64873000  0.15114000  0.77237000  1.0
  O  O127  1  0.71811000  0.11404000  0.65239000  1.0
  O  O128  1  0.45385000  0.03736000  0.63573000  1.0
  O  O129  1  0.23182000  0.08628000  0.55408000  1.0
  O  O130  1  0.76494000  0.72019000  0.60456000  1.0
  O  O131  1  0.52683000  0.84851000  0.52993000  1.0
  O  O132  1  0.99400000  0.86751000  0.58163000  1.0
  O  O133  1  0.19517000  0.87586000  0.51055000  1.0
  O  O134  1  0.79959000  0.84900000  0.72768000  1.0
  O  O135  1  0.83221000  0.88609000  0.84760000  1.0
