# generated using pymatgen
data_ZnP2H4(CN)4
_symmetry_space_group_name_H-M   'P 1'
_cell_length_a   7.40358000
_cell_length_b   8.05542000
_cell_length_c   8.74884000
_cell_angle_alpha   62.65600000
_cell_angle_beta   64.97600000
_cell_angle_gamma   89.99070000
_symmetry_Int_Tables_number   1
_chemical_formula_structural   ZnP2H4(CN)4
_chemical_formula_sum   'Zn2 P4 H8 C8 N8'
_cell_volume   407.56679240
_cell_formula_units_Z   2
loop_
 _symmetry_equiv_pos_site_id
 _symmetry_equiv_pos_as_xyz
  1  'x, y, z'
loop_
 _atom_site_type_symbol
 _atom_site_label
 _atom_site_symmetry_multiplicity
 _atom_site_fract_x
 _atom_site_fract_y
 _atom_site_fract_z
 _atom_site_occupancy
  Zn  Zn0  1  0.74992000  0.99995000  0.00007000  1.0
  Zn  Zn1  1  0.25008000  0.00005000  0.99993000  1.0
  P  P2  1  0.80918000  0.21127000  0.38196000  1.0
  P  P3  1  0.19082000  0.78873000  0.61805000  1.0
  P  P4  1  0.69057000  0.59247000  0.61867000  1.0
  P  P5  1  0.30943000  0.40754000  0.38133000  1.0
  H  H6  1  0.55558000  0.14859000  0.27730000  1.0
  H  H7  1  0.83230000  0.85076000  0.72355000  1.0
  H  H8  1  0.94402000  0.42540000  0.72359000  1.0
  H  H9  1  0.66763000  0.57467000  0.27646000  1.0
  H  H10  1  0.44442000  0.85141000  0.72270000  1.0
  H  H11  1  0.16769000  0.14924000  0.27645000  1.0
  H  H12  1  0.05599000  0.57460000  0.27641000  1.0
  H  H13  1  0.33238000  0.42534000  0.72353000  1.0
  C  C14  1  0.70703000  0.14249000  0.26669000  1.0
  C  C15  1  0.97339000  0.85726000  0.73367000  1.0
  C  C16  1  0.79271000  0.40866000  0.73395000  1.0
  C  C17  1  0.52664000  0.59140000  0.26613000  1.0
  C  C18  1  0.29297000  0.85750000  0.73332000  1.0
  C  C19  1  0.02661000  0.14274000  0.26633000  1.0
  C  C20  1  0.20728000  0.59133000  0.26606000  1.0
  C  C21  1  0.47338000  0.40860000  0.73385000  1.0
  N  N22  1  0.82950000  0.07447000  0.15678000  1.0
  N  N23  1  0.98621000  0.92535000  0.84345000  1.0
  N  N24  1  0.67038000  0.23101000  0.84352000  1.0
  N  N25  1  0.51383000  0.76899000  0.15642000  1.0
  N  N26  1  0.17050000  0.92553000  0.84322000  1.0
  N  N27  1  0.01379000  0.07465000  0.15655000  1.0
  N  N28  1  0.32961000  0.76899000  0.15650000  1.0
  N  N29  1  0.48618000  0.23101000  0.84356000  1.0
