# generated using pymatgen
data_La2H9C18(NO4)3
_symmetry_space_group_name_H-M   'P 1'
_cell_length_a   6.65703000
_cell_length_b   7.72703000
_cell_length_c   18.50990000
_cell_angle_alpha   89.99990000
_cell_angle_beta   89.91660000
_cell_angle_gamma   89.99990000
_symmetry_Int_Tables_number   1
_chemical_formula_structural   La2H9C18(NO4)3
_chemical_formula_sum   'La4 H18 C36 N6 O24'
_cell_volume   952.13104275
_cell_formula_units_Z   2
loop_
 _symmetry_equiv_pos_site_id
 _symmetry_equiv_pos_as_xyz
  1  'x, y, z'
loop_
 _atom_site_type_symbol
 _atom_site_label
 _atom_site_symmetry_multiplicity
 _atom_site_fract_x
 _atom_site_fract_y
 _atom_site_fract_z
 _atom_site_occupancy
  La  La0  1  0.06133000  0.59948000  0.89423000  1.0
  La  La1  1  0.43867000  0.59948000  0.60577000  1.0
  La  La2  1  0.93867000  0.40052000  0.10577000  1.0
  La  La3  1  0.56133000  0.40052000  0.39423000  1.0
  H  H4  1  0.42262000  0.52483000  0.08152000  1.0
  H  H5  1  0.07737000  0.52483000  0.41848000  1.0
  H  H6  1  0.57737000  0.47517000  0.91848000  1.0
  H  H7  1  0.92263000  0.47517000  0.58152000  1.0
  H  H8  1  0.75000000  0.72584000  0.75000000  1.0
  H  H9  1  0.25000000  0.27416000  0.25000000  1.0
  H  H10  1  0.13634000  0.99322000  0.03177000  1.0
  H  H11  1  0.36366000  0.99322000  0.46823000  1.0
  H  H12  1  0.86365000  0.00678000  0.96823000  1.0
  H  H13  1  0.63635000  0.00678000  0.53177000  1.0
  H  H14  1  0.71657000  0.98871000  0.13663000  1.0
  H  H15  1  0.78343000  0.98871000  0.36337000  1.0
  H  H16  1  0.28343000  0.01129000  0.86337000  1.0
  H  H17  1  0.21657000  0.01129000  0.63663000  1.0
  H  H18  1  0.02838000  0.19208000  0.81042000  1.0
  H  H19  1  0.47162000  0.19208000  0.68958000  1.0
  H  H20  1  0.97162000  0.80792000  0.18958000  1.0
  H  H21  1  0.52838000  0.80792000  0.31042000  1.0
  C  C22  1  0.26028000  0.74153000  0.05370000  1.0
  C  C23  1  0.23972000  0.74153000  0.44630000  1.0
  C  C24  1  0.73972000  0.25847000  0.94630000  1.0
  C  C25  1  0.76028000  0.25848000  0.55370000  1.0
  C  C26  1  0.26199000  0.92215000  0.05436000  1.0
  C  C27  1  0.23800000  0.92215000  0.44564000  1.0
  C  C28  1  0.73800000  0.07785000  0.94564000  1.0
  C  C29  1  0.76200000  0.07785000  0.55436000  1.0
  C  C30  1  0.42771000  0.00886000  0.08393000  1.0
  C  C31  1  0.07229000  0.00886000  0.41607000  1.0
  C  C32  1  0.57229000  0.99114000  0.91607000  1.0
  C  C33  1  0.92771000  0.99114000  0.58393000  1.0
  C  C34  1  0.43216000  0.20367000  0.08435000  1.0
  C  C35  1  0.06784000  0.20367000  0.41565000  1.0
  C  C36  1  0.56784000  0.79633000  0.91565000  1.0
  C  C37  1  0.93216000  0.79633000  0.58435000  1.0
  C  C38  1  0.59006000  0.92003000  0.11297000  1.0
  C  C39  1  0.90994000  0.92003000  0.38703000  1.0
  C  C40  1  0.40994000  0.07997000  0.88703000  1.0
  C  C41  1  0.09006000  0.07997000  0.61297000  1.0
  C  C42  1  0.59078000  0.73780000  0.11184000  1.0
  C  C43  1  0.90922000  0.73780000  0.38816000  1.0
  C  C44  1  0.40922000  0.26219000  0.88816000  1.0
  C  C45  1  0.09078000  0.26220000  0.61184000  1.0
  C  C46  1  0.75000000  0.40416000  0.75000000  1.0
  C  C47  1  0.25000000  0.59584000  0.25000000  1.0
  C  C48  1  0.75000000  0.20978000  0.75000000  1.0
  C  C49  1  0.25000000  0.79022000  0.25000000  1.0
  C  C50  1  0.90687000  0.12233000  0.78418000  1.0
  C  C51  1  0.59314000  0.12232000  0.71582000  1.0
  C  C52  1  0.09314000  0.87767000  0.21582000  1.0
  C  C53  1  0.40687000  0.87767000  0.28418000  1.0
  C  C54  1  0.90565000  0.94071000  0.78559000  1.0
  C  C55  1  0.59435000  0.94070000  0.71441000  1.0
  C  C56  1  0.09435000  0.05930000  0.21441000  1.0
  C  C57  1  0.40565000  0.05930000  0.28559000  1.0
  N  N58  1  0.42492000  0.65817000  0.08196000  1.0
  N  N59  1  0.07508000  0.65817000  0.41804000  1.0
  N  N60  1  0.57508000  0.34183000  0.91804000  1.0
  N  N61  1  0.92492000  0.34183000  0.58196000  1.0
  N  N62  1  0.75000000  0.85901000  0.75000000  1.0
  N  N63  1  0.25000000  0.14099000  0.25000000  1.0
  O  O64  1  0.11577000  0.64419000  0.02776000  1.0
  O  O65  1  0.38422000  0.64419000  0.47224000  1.0
  O  O66  1  0.88422000  0.35581000  0.97224000  1.0
  O  O67  1  0.61578000  0.35581000  0.52776000  1.0
  O  O68  1  0.26970000  0.28530000  0.07193000  1.0
  O  O69  1  0.23030000  0.28530000  0.42807000  1.0
  O  O70  1  0.73030000  0.71469000  0.92807000  1.0
  O  O71  1  0.76971000  0.71470000  0.57193000  1.0
  O  O72  1  0.59752000  0.28043000  0.09635000  1.0
  O  O73  1  0.90248000  0.28043000  0.40365000  1.0
  O  O74  1  0.40247000  0.71957000  0.90365000  1.0
  O  O75  1  0.09753000  0.71957000  0.59635000  1.0
  O  O76  1  0.73362000  0.64224000  0.13593000  1.0
  O  O77  1  0.76638000  0.64224000  0.36407000  1.0
  O  O78  1  0.26638000  0.35776000  0.86407000  1.0
  O  O79  1  0.23362000  0.35776000  0.63593000  1.0
  O  O80  1  0.85705000  0.48374000  0.79623000  1.0
  O  O81  1  0.64294000  0.48374000  0.70377000  1.0
  O  O82  1  0.14294000  0.51626000  0.20377000  1.0
  O  O83  1  0.35706000  0.51626000  0.29623000  1.0
  O  O84  1  0.03679000  0.84601000  0.81843000  1.0
  O  O85  1  0.46322000  0.84601000  0.68157000  1.0
  O  O86  1  0.96322000  0.15399000  0.18157000  1.0
  O  O87  1  0.53678000  0.15399000  0.31843000  1.0
