# generated using pymatgen
data_Al6H84C84N16O43
_symmetry_space_group_name_H-M   'P 1'
_cell_length_a   13.30170000
_cell_length_b   13.57540000
_cell_length_c   28.14650000
_cell_angle_alpha   89.12950000
_cell_angle_beta   89.60260000
_cell_angle_gamma   61.55100000
_symmetry_Int_Tables_number   1
_chemical_formula_structural   Al6H84C84N16O43
_chemical_formula_sum   'Al6 H84 C84 N16 O43'
_cell_volume   4468.29877774
_cell_formula_units_Z   1
loop_
 _symmetry_equiv_pos_site_id
 _symmetry_equiv_pos_as_xyz
  1  'x, y, z'
loop_
 _atom_site_type_symbol
 _atom_site_label
 _atom_site_symmetry_multiplicity
 _atom_site_fract_x
 _atom_site_fract_y
 _atom_site_fract_z
 _atom_site_occupancy
  Al  Al0  1  0.58589000  0.59054000  0.50142000  1.0
  Al  Al1  1  0.35207000  0.57712000  0.49884000  1.0
  Al  Al2  1  0.57152000  0.36132000  0.50032000  1.0
  Al  Al3  1  0.08929000  0.06698000  0.99907000  1.0
  Al  Al4  1  0.09692000  0.29976000  0.99942000  1.0
  Al  Al5  1  0.32075000  0.08850000  0.99855000  1.0
  H  H6  1  0.20939000  0.50875000  0.21455000  1.0
  H  H7  1  0.14992000  0.92391000  0.28926000  1.0
  H  H8  1  0.41780000  0.45724000  0.26163000  1.0
  H  H9  1  0.52210000  0.28030000  0.71489000  1.0
  H  H10  1  0.27404000  0.23564000  0.69293000  1.0
  H  H11  1  0.41944000  0.17319000  0.70876000  1.0
  H  H12  1  0.35102000  0.16042000  0.78511000  1.0
  H  H13  1  0.21139000  0.26660000  0.77221000  1.0
  H  H14  1  0.15479000  0.44638000  0.71041000  1.0
  H  H15  1  0.53062000  0.25863000  0.21090000  1.0
  H  H16  1  0.14386000  0.45391000  0.79035000  1.0
  H  H17  1  0.00374000  0.16931000  0.22178000  1.0
  H  H18  1  0.79383000  0.48176000  0.78921000  1.0
  H  H19  1  0.01983000  0.21535000  0.69518000  1.0
  H  H20  1  0.98887000  0.36673000  0.77402000  1.0
  H  H21  1  0.05349000  0.21839000  0.77565000  1.0
  H  H22  1  0.47982000  0.14554000  0.28601000  1.0
  H  H23  1  0.89822000  0.14033000  0.70594000  1.0
  H  H24  1  0.76338000  0.22533000  0.79277000  1.0
  H  H25  1  0.66185000  0.44018000  0.71797000  1.0
  H  H26  1  0.19248000  0.83572000  0.79962000  1.0
  H  H27  1  0.17480000  0.99928000  0.68791000  1.0
  H  H28  1  0.69416000  0.52065000  0.27873000  1.0
  H  H29  1  0.15115000  0.01275000  0.76962000  1.0
  H  H30  1  0.27457000  0.19119000  0.23799000  1.0
  H  H31  1  0.25215000  0.06185000  0.76778000  1.0
  H  H32  1  0.30751000  0.69406000  0.72203000  1.0
  H  H33  1  0.72788000  0.23320000  0.28749000  1.0
  H  H34  1  0.98120000  0.29705000  0.30500000  1.0
  H  H35  1  0.05068000  0.10150000  0.30680000  1.0
  H  H36  1  0.93183000  0.15282000  0.33775000  1.0
  H  H37  1  0.12096000  0.24299000  0.22805000  1.0
  H  H38  1  0.03466000  0.32838000  0.18835000  1.0
  H  H39  1  0.83985000  0.48415000  0.28554000  1.0
  H  H40  1  0.63287000  0.48968000  0.19310000  1.0
  H  H41  1  0.66302000  0.59455000  0.19343000  1.0
  H  H42  1  0.70623000  0.29233000  0.15360000  1.0
  H  H43  1  0.51326000  0.84494000  0.20873000  1.0
  H  H44  1  0.07396000  0.40324000  0.27613000  1.0
  H  H45  1  0.14025000  0.38200000  0.32903000  1.0
  H  H46  1  0.28981000  0.00964000  0.34983000  1.0
  H  H47  1  0.25437000  0.09680000  0.30351000  1.0
  H  H48  1  0.43699000  0.02754000  0.23696000  1.0
  H  H49  1  0.39949000  0.01784000  0.18194000  1.0
  H  H50  1  0.64110000  0.37193000  0.26624000  1.0
  H  H51  1  0.16236000  0.03566000  0.21497000  1.0
  H  H52  1  0.30042000  0.70284000  0.18826000  1.0
  H  H53  1  0.35361000  0.62498000  0.26471000  1.0
  H  H54  1  0.49338000  0.55425000  0.26619000  1.0
  H  H55  1  0.47552000  0.67109000  0.15811000  1.0
  H  H56  1  0.04451000  0.95545000  0.21769000  1.0
  H  H57  1  0.11018000  0.94289000  0.16638000  1.0
  H  H58  1  0.59331000  0.17396000  0.77029000  1.0
  H  H59  1  0.50646000  0.15249000  0.80808000  1.0
  H  H60  1  0.17321000  0.62516000  0.72997000  1.0
  H  H61  1  0.85903000  0.47311000  0.20492000  1.0
  H  H62  1  0.19602000  0.57975000  0.67410000  1.0
  H  H63  1  0.30884000  0.52367000  0.80544000  1.0
  H  H64  1  0.37242000  0.50969000  0.71601000  1.0
  H  H65  1  0.48836000  0.36295000  0.84208000  1.0
  H  H66  1  0.83094000  0.50704000  0.70274000  1.0
  H  H67  1  0.97508000  0.38106000  0.65581000  1.0
  H  H68  1  0.70540000  0.23634000  0.67814000  1.0
  H  H69  1  0.61531000  0.41465000  0.79364000  1.0
  H  H70  1  0.61781000  0.52698000  0.81225000  1.0
  H  H71  1  0.95505000  0.09636000  0.82532000  1.0
  H  H72  1  0.51266000  0.71013000  0.28719000  1.0
  H  H73  1  0.91416000  0.03828000  0.78467000  1.0
  H  H74  1  0.09170000  0.90454000  0.72722000  1.0
  H  H75  1  0.13281000  0.81969000  0.68154000  1.0
  H  H76  1  0.39197000  0.96325000  0.67383000  1.0
  H  H77  1  0.47808000  0.63438000  0.74310000  1.0
  H  H78  1  0.59202000  0.63648000  0.71998000  1.0
  H  H79  1  0.53402000  0.77382000  0.65929000  1.0
  H  H80  1  0.53607000  0.79195000  0.82615000  1.0
  H  H81  1  0.37216000  0.70041000  0.83390000  1.0
  H  H82  1  0.42498000  0.99324000  0.74492000  1.0
  H  H83  1  0.43507000  0.90667000  0.29451000  1.0
  H  H84  1  0.55731000  0.90013000  0.75538000  1.0
  H  H85  1  0.88443000  0.11101000  0.24367000  1.0
  H  H86  1  0.78135000  0.11420000  0.20988000  1.0
  H  H87  1  0.19585000  0.77827000  0.28605000  1.0
  H  H88  1  0.67905000  0.68904000  0.47357000  1.0
  H  H89  1  0.98578000  0.97987000  0.97133000  1.0
  C  C90  1  0.38355000  0.71380000  0.43358000  1.0
  C  C91  1  0.36533000  0.35481000  0.34654000  1.0
  C  C92  1  0.72921000  0.30281000  0.26772000  1.0
  C  C93  1  0.39669000  0.39803000  0.43461000  1.0
  C  C94  1  0.93394000  0.26075000  0.28636000  1.0
  C  C95  1  0.96367000  0.25725000  0.23259000  1.0
  C  C96  1  0.91229000  0.28789000  0.11169000  1.0
  C  C97  1  0.80469000  0.34410000  0.29343000  1.0
  C  C98  1  0.77395000  0.26516000  0.21688000  1.0
  C  C99  1  0.85234000  0.31914000  0.20288000  1.0
  C  C100  1  0.79636000  0.44567000  0.21520000  1.0
  C  C101  1  0.37262000  0.37078000  0.38866000  1.0
  C  C102  1  0.78168000  0.45675000  0.27015000  1.0
  C  C103  1  0.88160000  0.30288000  0.15294000  1.0
  C  C104  1  0.77643000  0.35835000  0.34353000  1.0
  C  C105  1  0.70073000  0.40161000  0.43194000  1.0
  C  C106  1  0.74985000  0.37285000  0.38524000  1.0
  C  C107  1  0.43250000  0.72116000  0.27135000  1.0
  C  C108  1  0.34518000  0.92993000  0.28633000  1.0
  C  C109  1  0.32514000  0.96295000  0.23203000  1.0
  C  C110  1  0.31893000  0.90360000  0.11157000  1.0
  C  C111  1  0.33194000  0.82324000  0.29580000  1.0
  C  C112  1  0.30540000  0.25141000  0.24410000  1.0
  C  C113  1  0.43900000  0.75147000  0.21762000  1.0
  C  C114  1  0.32659000  0.86171000  0.20433000  1.0
  C  C115  1  0.21886000  0.84865000  0.22008000  1.0
  C  C116  1  0.21615000  0.84452000  0.27497000  1.0
  C  C117  1  0.38427000  0.70875000  0.56611000  1.0
  C  C118  1  0.32360000  0.88326000  0.15389000  1.0
  C  C119  1  0.34002000  0.79789000  0.34638000  1.0
  C  C120  1  0.35408000  0.77024000  0.38808000  1.0
  C  C121  1  0.44489000  0.34997000  0.72998000  1.0
  C  C122  1  0.33500000  0.24422000  0.71627000  1.0
  C  C123  1  0.33289000  0.31419000  0.20205000  1.0
  C  C124  1  0.30219000  0.24390000  0.76878000  1.0
  C  C125  1  0.29994000  0.29951000  0.88898000  1.0
  C  C126  1  0.33890000  0.35379000  0.70462000  1.0
  C  C127  1  0.44266000  0.31840000  0.78430000  1.0
  C  C128  1  0.32137000  0.33140000  0.79661000  1.0
  C  C129  1  0.38820000  0.40420000  0.56535000  1.0
  C  C130  1  0.22592000  0.44908000  0.77977000  1.0
  C  C131  1  0.22794000  0.45506000  0.72383000  1.0
  C  C132  1  0.31100000  0.31569000  0.84710000  1.0
  C  C133  1  0.35038000  0.36590000  0.65394000  1.0
  C  C134  1  0.41934000  0.22535000  0.26937000  1.0
  C  C135  1  0.36127000  0.37825000  0.61164000  1.0
  C  C136  1  0.74800000  0.42866000  0.72522000  1.0
  C  C137  1  0.95976000  0.29674000  0.71064000  1.0
  C  C138  1  0.97681000  0.29475000  0.76460000  1.0
  C  C139  1  0.92221000  0.28676000  0.88421000  1.0
  C  C140  1  0.83605000  0.31875000  0.70047000  1.0
  C  C141  1  0.71236000  0.38426000  0.56530000  1.0
  C  C142  1  0.76722000  0.41913000  0.78002000  1.0
  C  C143  1  0.87154000  0.30295000  0.79211000  1.0
  C  C144  1  0.84542000  0.20846000  0.77623000  1.0
  C  C145  1  0.35541000  0.33835000  0.29784000  1.0
  C  C146  1  0.82797000  0.21610000  0.72186000  1.0
  C  C147  1  0.89572000  0.29491000  0.84255000  1.0
  C  C148  1  0.80941000  0.33039000  0.65023000  1.0
  C  C149  1  0.77449000  0.34842000  0.60951000  1.0
  C  C150  1  0.26195000  0.78409000  0.72911000  1.0
  C  C151  1  0.25846000  0.96625000  0.70566000  1.0
  C  C152  1  0.23965000  0.98984000  0.75944000  1.0
  C  C153  1  0.23955000  0.36650000  0.27143000  1.0
  C  C154  1  0.31253000  0.92564000  0.88114000  1.0
  C  C155  1  0.32366000  0.83758000  0.69914000  1.0
  C  C156  1  0.44821000  0.28717000  0.22859000  1.0
  C  C157  1  0.27717000  0.79888000  0.78229000  1.0
  C  C158  1  0.32296000  0.88496000  0.78857000  1.0
  C  C159  1  0.44771000  0.84061000  0.76860000  1.0
  C  C160  1  0.45132000  0.78754000  0.71805000  1.0
  C  C161  1  0.31932000  0.90951000  0.83857000  1.0
  C  C162  1  0.33020000  0.80536000  0.64995000  1.0
  C  C163  1  0.34698000  0.76964000  0.60971000  1.0
  C  C164  1  0.96658000  0.25860000  0.06598000  1.0
  C  C165  1  0.26944000  0.42770000  0.23023000  1.0
  C  C166  1  0.27429000  0.26090000  0.06597000  1.0
  C  C167  1  0.38395000  0.39982000  0.25552000  1.0
  C  C168  1  0.29251000  0.95152000  0.06439000  1.0
  C  C169  1  0.96884000  0.26319000  0.93137000  1.0
  C  C170  1  0.27642000  0.26933000  0.93513000  1.0
  C  C171  1  0.28618000  0.96520000  0.92912000  1.0
  C  C172  1  0.30159000  0.28505000  0.11205000  1.0
  C  C173  1  0.31796000  0.29858000  0.15353000  1.0
  N  N174  1  0.96333000  0.14791000  0.30409000  1.0
  N  N175  1  0.22404000  0.56036000  0.70831000  1.0
  N  N176  1  0.66693000  0.44256000  0.80851000  1.0
  N  N177  1  0.93946000  0.09765000  0.78965000  1.0
  N  N178  1  0.14190000  0.82325000  0.71742000  1.0
  N  N179  1  0.50549000  0.66762000  0.71636000  1.0
  N  N180  1  0.47612000  0.93199000  0.76862000  1.0
  N  N181  1  0.83955000  0.14285000  0.21251000  1.0
  N  N182  1  0.03941000  0.30651000  0.22359000  1.0
  N  N183  1  0.69531000  0.51130000  0.18659000  1.0
  N  N184  1  0.13389000  0.41329000  0.29536000  1.0
  N  N185  1  0.26307000  0.02179000  0.31531000  1.0
  N  N186  1  0.42081000  0.97852000  0.21447000  1.0
  N  N187  1  0.42432000  0.62016000  0.28099000  1.0
  N  N188  1  0.11756000  0.94783000  0.20235000  1.0
  N  N189  1  0.53194000  0.20776000  0.79574000  1.0
  O  O190  1  0.67555000  0.49776000  0.44701000  1.0
  O  O191  1  0.34801000  0.17032000  0.04633000  1.0
  O  O192  1  0.36566000  0.97665000  0.04512000  1.0
  O  O193  1  0.47779000  0.69397000  0.45195000  1.0
  O  O194  1  0.19007000  0.98339000  0.94506000  1.0
  O  O195  1  0.98747000  0.17069000  0.95009000  1.0
  O  O196  1  0.99212000  0.33621000  0.94996000  1.0
  O  O197  1  0.18152000  0.33645000  0.95467000  1.0
  O  O198  1  0.34980000  0.17421000  0.95237000  1.0
  O  O199  1  0.36122000  0.98262000  0.95091000  1.0
  O  O200  1  0.17029000  0.15203000  0.99895000  1.0
  O  O201  1  0.31713000  0.49842000  0.54652000  1.0
  O  O202  1  0.31153000  0.68416000  0.45074000  1.0
  O  O203  1  0.32486000  0.49154000  0.45256000  1.0
  O  O204  1  0.49220000  0.32794000  0.45363000  1.0
  O  O205  1  0.68327000  0.32691000  0.45387000  1.0
  O  O206  1  0.68862000  0.48000000  0.54934000  1.0
  O  O207  1  0.48645000  0.67765000  0.55378000  1.0
  O  O208  1  0.31142000  0.68835000  0.54416000  1.0
  O  O209  1  0.67720000  0.30465000  0.18625000  1.0
  O  O210  1  0.53719000  0.76153000  0.20865000  1.0
  O  O211  1  0.22160000  0.06130000  0.22353000  1.0
  O  O212  1  0.48379000  0.33405000  0.54723000  1.0
  O  O213  1  0.22294000  0.75003000  0.20118000  1.0
  O  O214  1  0.44619000  0.66175000  0.18891000  1.0
  O  O215  1  0.22866000  0.54009000  0.80200000  1.0
  O  O216  1  0.45261000  0.44855000  0.72212000  1.0
  O  O217  1  0.45957000  0.39926000  0.81124000  1.0
  O  O218  1  0.75047000  0.52484000  0.70542000  1.0
  O  O219  1  0.98217000  0.38259000  0.69031000  1.0
  O  O220  1  0.72074000  0.22052000  0.71212000  1.0
  O  O221  1  0.31594000  0.02184000  0.68400000  1.0
  O  O222  1  0.51412000  0.82318000  0.68679000  1.0
  O  O223  1  0.68264000  0.31501000  0.54725000  1.0
  O  O224  1  0.53014000  0.75379000  0.79793000  1.0
  O  O225  1  0.34951000  0.69070000  0.80216000  1.0
  O  O226  1  0.50274000  0.50896000  0.50012000  1.0
  O  O227  1  0.19792000  0.96932000  0.04748000  1.0
  O  O228  1  0.99744000  0.16070000  0.05161000  1.0
  O  O229  1  0.98308000  0.33436000  0.04432000  1.0
  O  O230  1  0.17634000  0.32909000  0.04860000  1.0
  O  O231  1  0.66409000  0.66377000  0.50378000  1.0
  O  O232  1  0.02046000  0.98470000  0.00064000  1.0
