# generated using pymatgen
data_ZnH13C10NO10
_symmetry_space_group_name_H-M   'P 1'
_cell_length_a   9.86937000
_cell_length_b   9.96276000
_cell_length_c   13.36210000
_cell_angle_alpha   98.02920000
_cell_angle_beta   90.00000000
_cell_angle_gamma   90.00000000
_symmetry_Int_Tables_number   1
_chemical_formula_structural   ZnH13C10NO10
_chemical_formula_sum   'Zn4 H52 C40 N4 O40'
_cell_volume   1300.96444807
_cell_formula_units_Z   4
loop_
 _symmetry_equiv_pos_site_id
 _symmetry_equiv_pos_as_xyz
  1  'x, y, z'
loop_
 _atom_site_type_symbol
 _atom_site_label
 _atom_site_symmetry_multiplicity
 _atom_site_fract_x
 _atom_site_fract_y
 _atom_site_fract_z
 _atom_site_occupancy
  Zn  Zn0  1  0.25520000  0.22226000  0.82736000  1.0
  Zn  Zn1  1  0.75520000  0.27775000  0.17264000  1.0
  Zn  Zn2  1  0.74480000  0.77774000  0.17264000  1.0
  Zn  Zn3  1  0.24480000  0.72226000  0.82736000  1.0
  H  H4  1  0.12349000  0.12007000  0.67733000  1.0
  H  H5  1  0.62348000  0.37993000  0.32267000  1.0
  H  H6  1  0.87652000  0.87993000  0.32267000  1.0
  H  H7  1  0.37652000  0.62007000  0.67733000  1.0
  H  H8  1  0.14411000  0.98979000  0.73199000  1.0
  H  H9  1  0.64411000  0.51021000  0.26801000  1.0
  H  H10  1  0.85589000  0.01021000  0.26801000  1.0
  H  H11  1  0.35589000  0.48979000  0.73199000  1.0
  H  H12  1  0.09725000  0.44297000  0.84038000  1.0
  H  H13  1  0.59725000  0.05704000  0.15962000  1.0
  H  H14  1  0.90275000  0.55703000  0.15962000  1.0
  H  H15  1  0.40275000  0.94297000  0.84038000  1.0
  H  H16  1  0.01720000  0.32528000  0.88888000  1.0
  H  H17  1  0.51720000  0.17472000  0.11112000  1.0
  H  H18  1  0.98280000  0.67472000  0.11112000  1.0
  H  H19  1  0.48280000  0.82528000  0.88888000  1.0
  H  H20  1  0.36347000  0.45666000  0.92109000  1.0
  H  H21  1  0.86346000  0.04334000  0.07891000  1.0
  H  H22  1  0.63653000  0.54334000  0.07891000  1.0
  H  H23  1  0.13653000  0.95666000  0.92109000  1.0
  H  H24  1  0.40287000  0.32345000  0.96897000  1.0
  H  H25  1  0.90286000  0.17655000  0.03103000  1.0
  H  H26  1  0.59714000  0.67655000  0.03102000  1.0
  H  H27  1  0.09713000  0.82345000  0.96897000  1.0
  H  H28  1  0.62390000  0.04645000  0.52964000  1.0
  H  H29  1  0.12390000  0.45355000  0.47036000  1.0
  H  H30  1  0.37610000  0.95355000  0.47036000  1.0
  H  H31  1  0.87611000  0.54645000  0.52964000  1.0
  H  H32  1  0.58604000  0.28047000  0.82487000  1.0
  H  H33  1  0.08604000  0.21952000  0.17513000  1.0
  H  H34  1  0.41396000  0.71953000  0.17513000  1.0
  H  H35  1  0.91395000  0.78047000  0.82488000  1.0
  H  H36  1  0.92420000  0.33149000  0.62355000  1.0
  H  H37  1  0.42420000  0.16851000  0.37645000  1.0
  H  H38  1  0.07580000  0.66851000  0.37645000  1.0
  H  H39  1  0.57580000  0.83149000  0.62355000  1.0
  H  H40  1  0.83658000  0.04495000  0.45173000  1.0
  H  H41  1  0.33658000  0.45506000  0.54827000  1.0
  H  H42  1  0.16341000  0.95506000  0.54827000  1.0
  H  H43  1  0.66342000  0.54494000  0.45173000  1.0
  H  H44  1  0.94490000  0.18952000  0.47832000  1.0
  H  H45  1  0.44490000  0.31048000  0.52168000  1.0
  H  H46  1  0.05510000  0.81047000  0.52168000  1.0
  H  H47  1  0.55510000  0.68952000  0.47832000  1.0
  H  H48  1  0.64874000  0.48426000  0.88521000  1.0
  H  H49  1  0.14874000  0.01574000  0.11479000  1.0
  H  H50  1  0.35126000  0.51574000  0.11479000  1.0
  H  H51  1  0.85126000  0.98426000  0.88521000  1.0
  H  H52  1  0.80714000  0.56246000  0.92261000  1.0
  H  H53  1  0.30714000  0.93754000  0.07739000  1.0
  H  H54  1  0.19286000  0.43754000  0.07739000  1.0
  H  H55  1  0.69286000  0.06246000  0.92261000  1.0
  C  C56  1  0.66140000  0.12015000  0.59124000  1.0
  C  C57  1  0.16140000  0.37985000  0.40876000  1.0
  C  C58  1  0.33860000  0.87985000  0.40876000  1.0
  C  C59  1  0.83860000  0.62015000  0.59124000  1.0
  C  C60  1  0.59439000  0.15199000  0.68264000  1.0
  C  C61  1  0.09440000  0.34801000  0.31736000  1.0
  C  C62  1  0.40560000  0.84801000  0.31736000  1.0
  C  C63  1  0.90560000  0.65199000  0.68264000  1.0
  C  C64  1  0.64364000  0.25450000  0.75518000  1.0
  C  C65  1  0.14364000  0.24550000  0.24482000  1.0
  C  C66  1  0.35636000  0.74550000  0.24482000  1.0
  C  C67  1  0.85636000  0.75450000  0.75519000  1.0
  C  C68  1  0.76203000  0.32264000  0.73421000  1.0
  C  C69  1  0.26203000  0.17736000  0.26579000  1.0
  C  C70  1  0.23797000  0.67736000  0.26579000  1.0
  C  C71  1  0.73796000  0.82264000  0.73421000  1.0
  C  C72  1  0.82962000  0.28424000  0.64256000  1.0
  C  C73  1  0.32962000  0.21576000  0.35744000  1.0
  C  C74  1  0.17038000  0.71576000  0.35744000  1.0
  C  C75  1  0.67039000  0.78424000  0.64256000  1.0
  C  C76  1  0.46869000  0.07211000  0.70062000  1.0
  C  C77  1  0.96869000  0.42789000  0.29938000  1.0
  C  C78  1  0.53131000  0.92789000  0.29938000  1.0
  C  C79  1  0.03131000  0.57211000  0.70063000  1.0
  C  C80  1  0.83909000  0.15513000  0.47383000  1.0
  C  C81  1  0.33910000  0.34487000  0.52617000  1.0
  C  C82  1  0.16090000  0.84487000  0.52617000  1.0
  C  C83  1  0.66091000  0.65513000  0.47383000  1.0
  C  C84  1  0.76207000  0.22356000  0.39442000  1.0
  C  C85  1  0.26207000  0.27644000  0.60558000  1.0
  C  C86  1  0.23793000  0.77644000  0.60558000  1.0
  C  C87  1  0.73794000  0.72356000  0.39442000  1.0
  C  C88  1  0.75804000  0.46650000  0.89233000  1.0
  C  C89  1  0.25804000  0.03350000  0.10767000  1.0
  C  C90  1  0.24196000  0.53350000  0.10767000  1.0
  C  C91  1  0.74196000  0.96650000  0.89233000  1.0
  C  C92  1  0.78495000  0.36476000  0.96561000  1.0
  C  C93  1  0.28494000  0.13524000  0.03439000  1.0
  C  C94  1  0.21506000  0.63523000  0.03439000  1.0
  C  C95  1  0.71505000  0.86476000  0.96561000  1.0
  N  N96  1  0.77720000  0.18569000  0.57422000  1.0
  N  N97  1  0.27720000  0.31431000  0.42578000  1.0
  N  N98  1  0.22280000  0.81431000  0.42578000  1.0
  N  N99  1  0.72280000  0.68569000  0.57422000  1.0
  O  O100  1  0.11398000  0.08569000  0.74418000  1.0
  O  O101  1  0.61398000  0.41431000  0.25581000  1.0
  O  O102  1  0.88602000  0.91431000  0.25582000  1.0
  O  O103  1  0.38602000  0.58569000  0.74418000  1.0
  O  O104  1  0.87264000  0.27340000  0.94166000  1.0
  O  O105  1  0.37264000  0.22660000  0.05833000  1.0
  O  O106  1  0.12736000  0.72660000  0.05834000  1.0
  O  O107  1  0.62736000  0.77340000  0.94166000  1.0
  O  O108  1  0.10834000  0.36239000  0.87657000  1.0
  O  O109  1  0.60834000  0.13761000  0.12343000  1.0
  O  O110  1  0.89166000  0.63760000  0.12342000  1.0
  O  O111  1  0.39166000  0.86240000  0.87658000  1.0
  O  O112  1  0.71604000  0.38264000  0.04706000  1.0
  O  O113  1  0.21604000  0.11736000  0.95294000  1.0
  O  O114  1  0.28396000  0.61736000  0.95294000  1.0
  O  O115  1  0.78396000  0.88264000  0.04706000  1.0
  O  O116  1  0.40238000  0.36408000  0.90440000  1.0
  O  O117  1  0.90237000  0.13592000  0.09559000  1.0
  O  O118  1  0.59763000  0.63592000  0.09560000  1.0
  O  O119  1  0.09762000  0.86408000  0.90440000  1.0
  O  O120  1  0.66948000  0.30711000  0.42256000  1.0
  O  O121  1  0.16948000  0.19289000  0.57744000  1.0
  O  O122  1  0.33052000  0.69289000  0.57744000  1.0
  O  O123  1  0.83052000  0.80711000  0.42256000  1.0
  O  O124  1  0.80611000  0.18836000  0.30476000  1.0
  O  O125  1  0.30611000  0.31164000  0.69524000  1.0
  O  O126  1  0.19389000  0.81164000  0.69524000  1.0
  O  O127  1  0.69390000  0.68836000  0.30476000  1.0
  O  O128  1  0.42246000  0.99397000  0.62727000  1.0
  O  O129  1  0.92246000  0.50603000  0.37273000  1.0
  O  O130  1  0.57755000  0.00603000  0.37273000  1.0
  O  O131  1  0.07755000  0.49397000  0.62727000  1.0
  O  O132  1  0.42176000  0.08899000  0.79155000  1.0
  O  O133  1  0.92176000  0.41101000  0.20845000  1.0
  O  O134  1  0.57824000  0.91101000  0.20845000  1.0
  O  O135  1  0.07824000  0.58899000  0.79155000  1.0
  O  O136  1  0.81895000  0.42675000  0.79533000  1.0
  O  O137  1  0.31895000  0.07325000  0.20467000  1.0
  O  O138  1  0.18105000  0.57325000  0.20467000  1.0
  O  O139  1  0.68105000  0.92675000  0.79533000  1.0
