# generated using pymatgen
data_GdH4C4O7
_symmetry_space_group_name_H-M   'P 1'
_cell_length_a   6.73537000
_cell_length_b   7.47315000
_cell_length_c   7.83601000
_cell_angle_alpha   98.65430000
_cell_angle_beta   113.32800000
_cell_angle_gamma   110.23600000
_symmetry_Int_Tables_number   1
_chemical_formula_structural   GdH4C4O7
_chemical_formula_sum   'Gd2 H8 C8 O14'
_cell_volume   320.35345800
_cell_formula_units_Z   2
loop_
 _symmetry_equiv_pos_site_id
 _symmetry_equiv_pos_as_xyz
  1  'x, y, z'
loop_
 _atom_site_type_symbol
 _atom_site_label
 _atom_site_symmetry_multiplicity
 _atom_site_fract_x
 _atom_site_fract_y
 _atom_site_fract_z
 _atom_site_occupancy
  Gd  Gd0  1  0.17650000  0.30742000  0.53345000  1.0
  Gd  Gd1  1  0.82350000  0.69258000  0.46655000  1.0
  H  H2  1  0.04275000  0.70907000  0.08323000  1.0
  H  H3  1  0.95725000  0.29094000  0.91678000  1.0
  H  H4  1  0.35746000  0.83527000  0.17571000  1.0
  H  H5  1  0.64254000  0.16473000  0.82429000  1.0
  H  H6  1  0.72633000  0.21632000  0.18873000  1.0
  H  H7  1  0.27367000  0.78368000  0.81127000  1.0
  H  H8  1  0.75624000  0.00863000  0.16484000  1.0
  H  H9  1  0.24377000  0.99137000  0.83516000  1.0
  C  C10  1  0.21885000  0.97299000  0.32933000  1.0
  C  C11  1  0.78115000  0.02702000  0.67067000  1.0
  C  C12  1  0.21809000  0.78724000  0.22002000  1.0
  C  C13  1  0.78192000  0.21277000  0.77998000  1.0
  C  C14  1  0.51487000  0.60496000  0.99223000  1.0
  C  C15  1  0.48514000  0.39503000  0.00779000  1.0
  C  C16  1  0.24534000  0.63946000  0.32924000  1.0
  C  C17  1  0.75466000  0.36055000  0.67076000  1.0
  O  O18  1  0.14738000  0.96251000  0.46016000  1.0
  O  O19  1  0.85262000  0.03750000  0.53984000  1.0
  O  O20  1  0.28709000  0.13474000  0.29412000  1.0
  O  O21  1  0.71291000  0.86527000  0.70588000  1.0
  O  O22  1  0.66964000  0.75578000  0.14761000  1.0
  O  O23  1  0.33036000  0.24420000  0.85238000  1.0
  O  O24  1  0.11447000  0.58251000  0.41111000  1.0
  O  O25  1  0.88554000  0.41750000  0.58889000  1.0
  O  O26  1  0.38097000  0.60872000  0.82730000  1.0
  O  O27  1  0.61902000  0.39127000  0.17269000  1.0
  O  O28  1  0.39190000  0.56808000  0.33297000  1.0
  O  O29  1  0.60810000  0.43193000  0.66703000  1.0
  O  O30  1  0.84321000  0.15847000  0.20882000  1.0
  O  O31  1  0.15679000  0.84152000  0.79118000  1.0
