# generated using pymatgen
data_CdH5C5IN6O
_symmetry_space_group_name_H-M   'P 1'
_cell_length_a   7.25804000
_cell_length_b   10.12110000
_cell_length_c   14.91700000
_cell_angle_alpha   89.99990000
_cell_angle_beta   93.89370000
_cell_angle_gamma   90.00000000
_symmetry_Int_Tables_number   1
_chemical_formula_structural   CdH5C5IN6O
_chemical_formula_sum   'Cd4 H20 C20 I4 N24 O4'
_cell_volume   1093.26374091
_cell_formula_units_Z   4
loop_
 _symmetry_equiv_pos_site_id
 _symmetry_equiv_pos_as_xyz
  1  'x, y, z'
loop_
 _atom_site_type_symbol
 _atom_site_label
 _atom_site_symmetry_multiplicity
 _atom_site_fract_x
 _atom_site_fract_y
 _atom_site_fract_z
 _atom_site_occupancy
  Cd  Cd0  1  0.90283000  0.94661000  0.14721000  1.0
  Cd  Cd1  1  0.59717000  0.44661000  0.35279000  1.0
  Cd  Cd2  1  0.09717000  0.05339000  0.85279000  1.0
  Cd  Cd3  1  0.40283000  0.55339000  0.64721000  1.0
  H  H4  1  0.00793000  0.79483000  0.34635000  1.0
  H  H5  1  0.49207000  0.29483000  0.15365000  1.0
  H  H6  1  0.99207000  0.20517000  0.65365000  1.0
  H  H7  1  0.50793000  0.70516000  0.84635000  1.0
  H  H8  1  0.24681000  0.63724000  0.41580000  1.0
  H  H9  1  0.25319000  0.13724000  0.08420000  1.0
  H  H10  1  0.75319000  0.36276000  0.58420000  1.0
  H  H11  1  0.74681000  0.86276000  0.91580000  1.0
  H  H12  1  0.50143000  0.62104000  0.17486000  1.0
  H  H13  1  0.99857000  0.12104000  0.32514000  1.0
  H  H14  1  0.49857000  0.37896000  0.82514000  1.0
  H  H15  1  0.00143000  0.87896000  0.67486000  1.0
  H  H16  1  0.81213000  0.67119000  0.11295000  1.0
  H  H17  1  0.68787000  0.17119000  0.38705000  1.0
  H  H18  1  0.18787000  0.32881000  0.88705000  1.0
  H  H19  1  0.31213000  0.82881000  0.61295000  1.0
  H  H20  1  0.65209000  0.75415000  0.06090000  1.0
  H  H21  1  0.84791000  0.25415000  0.43910000  1.0
  H  H22  1  0.34791000  0.24585000  0.93910000  1.0
  H  H23  1  0.15209000  0.74585000  0.56090000  1.0
  C  C24  1  0.28363000  0.81146000  0.08746000  1.0
  C  C25  1  0.21637000  0.31146000  0.41255000  1.0
  C  C26  1  0.71637000  0.18854000  0.91254000  1.0
  C  C27  1  0.78363000  0.68854000  0.58746000  1.0
  C  C28  1  0.26861000  0.75689000  0.17687000  1.0
  C  C29  1  0.23139000  0.25689000  0.32313000  1.0
  C  C30  1  0.73139000  0.24311000  0.82313000  1.0
  C  C31  1  0.76861000  0.74311000  0.67687000  1.0
  C  C32  1  0.12187000  0.75925000  0.30882000  1.0
  C  C33  1  0.37813000  0.25925000  0.19118000  1.0
  C  C34  1  0.87813000  0.24075000  0.69118000  1.0
  C  C35  1  0.62187000  0.74075000  0.80882000  1.0
  C  C36  1  0.25162000  0.66979000  0.34657000  1.0
  C  C37  1  0.24838000  0.16979000  0.15343000  1.0
  C  C38  1  0.74838000  0.33021000  0.65343000  1.0
  C  C39  1  0.75162000  0.83021000  0.84657000  1.0
  C  C40  1  0.39295000  0.66258000  0.21356000  1.0
  C  C41  1  0.10705000  0.16258000  0.28644000  1.0
  C  C42  1  0.60705000  0.33742000  0.78643000  1.0
  C  C43  1  0.89295000  0.83742000  0.71356000  1.0
  I  I44  1  0.66049000  0.96141000  0.28842000  1.0
  I  I45  1  0.83952000  0.46141000  0.21157000  1.0
  I  I46  1  0.33951000  0.03859000  0.71158000  1.0
  I  I47  1  0.16048000  0.53859000  0.78843000  1.0
  N  N48  1  0.15905000  0.89458000  0.04793000  1.0
  N  N49  1  0.34096000  0.39458000  0.45207000  1.0
  N  N50  1  0.84095000  0.10542000  0.95207000  1.0
  N  N51  1  0.65905000  0.60542000  0.54793000  1.0
  N  N52  1  0.22612000  0.92354000  0.96883000  1.0
  N  N53  1  0.27388000  0.42354000  0.53117000  1.0
  N  N54  1  0.77388000  0.07646000  0.03117000  1.0
  N  N55  1  0.72612000  0.57646000  0.46883000  1.0
  N  N56  1  0.38468000  0.86165000  0.96039000  1.0
  N  N57  1  0.11532000  0.36165000  0.53961000  1.0
  N  N58  1  0.61532000  0.13835000  0.03961000  1.0
  N  N59  1  0.88468000  0.63835000  0.46039000  1.0
  N  N60  1  0.42371000  0.79010000  0.03427000  1.0
  N  N61  1  0.07629000  0.29010000  0.46573000  1.0
  N  N62  1  0.57629000  0.20990000  0.96573000  1.0
  N  N63  1  0.92371000  0.70990000  0.53427000  1.0
  N  N64  1  0.13109000  0.80256000  0.22475000  1.0
  N  N65  1  0.36891000  0.30257000  0.27525000  1.0
  N  N66  1  0.86891000  0.19743000  0.77525000  1.0
  N  N67  1  0.63109000  0.69743000  0.72475000  1.0
  N  N68  1  0.38434000  0.62032000  0.29810000  1.0
  N  N69  1  0.11566000  0.12032000  0.20190000  1.0
  N  N70  1  0.61566000  0.37968000  0.70190000  1.0
  N  N71  1  0.88434000  0.87968000  0.79810000  1.0
  O  O72  1  0.78959000  0.75060000  0.07552000  1.0
  O  O73  1  0.71041000  0.25060000  0.42448000  1.0
  O  O74  1  0.21041000  0.24940000  0.92448000  1.0
  O  O75  1  0.28959000  0.74940000  0.57552000  1.0
