# generated using pymatgen
data_Ag2H2C7O6
_symmetry_space_group_name_H-M   'P 1'
_cell_length_a   3.94067000
_cell_length_b   8.51066944
_cell_length_c   11.69580000
_cell_angle_alpha   88.95104637
_cell_angle_beta   85.63290000
_cell_angle_gamma   76.74222712
_symmetry_Int_Tables_number   1
_chemical_formula_structural   Ag2H2C7O6
_chemical_formula_sum   'Ag4 H4 C14 O12'
_cell_volume   380.68785559
_cell_formula_units_Z   2
loop_
 _symmetry_equiv_pos_site_id
 _symmetry_equiv_pos_as_xyz
  1  'x, y, z'
loop_
 _atom_site_type_symbol
 _atom_site_label
 _atom_site_symmetry_multiplicity
 _atom_site_fract_x
 _atom_site_fract_y
 _atom_site_fract_z
 _atom_site_occupancy
  Ag  Ag0  1  0.51886000  0.40443000  0.60563000  1.0
  Ag  Ag1  1  0.07729000  0.40556000  0.89401000  1.0
  Ag  Ag2  1  0.48113000  0.59557000  0.39437000  1.0
  Ag  Ag3  1  0.92271000  0.59444000  0.10599000  1.0
  H  H4  1  0.70046000  0.05536000  0.59332000  1.0
  H  H5  1  0.24179000  0.05574000  0.90772000  1.0
  H  H6  1  0.29952000  0.94464000  0.40669000  1.0
  H  H7  1  0.75819000  0.94427000  0.09228000  1.0
  C  C8  1  0.95435000  0.08889000  0.75057000  1.0
  C  C9  1  0.04565000  0.91111000  0.24943000  1.0
  C  C10  1  0.85317000  0.99596000  0.66230000  1.0
  C  C11  1  0.14972000  0.99606000  0.83858000  1.0
  C  C12  1  0.14683000  0.00404000  0.33770000  1.0
  C  C13  1  0.85028000  0.00394000  0.16141000  1.0
  C  C14  1  0.93670000  0.83199000  0.66691000  1.0
  C  C15  1  0.23270000  0.83207000  0.83350000  1.0
  C  C16  1  0.06331000  0.16800000  0.33309000  1.0
  C  C17  1  0.76730000  0.16794000  0.16650000  1.0
  C  C18  1  0.81675000  0.71746000  0.59103000  1.0
  C  C19  1  0.46821000  0.71763000  0.90903000  1.0
  C  C20  1  0.18325000  0.28254000  0.40897000  1.0
  C  C21  1  0.53178000  0.28238000  0.09097000  1.0
  O  O22  1  0.12592000  0.75071000  0.75008000  1.0
  O  O23  1  0.87409000  0.24929000  0.24992000  1.0
  O  O24  1  0.65047000  0.77818000  0.50636000  1.0
  O  O25  1  0.57656000  0.77833000  0.99315000  1.0
  O  O26  1  0.34953000  0.22182000  0.49364000  1.0
  O  O27  1  0.42344000  0.22167000  0.00685000  1.0
  O  O28  1  0.88381000  0.57063000  0.62308000  1.0
  O  O29  1  0.54595000  0.57077000  0.87722000  1.0
  O  O30  1  0.11619000  0.42937000  0.37692000  1.0
  O  O31  1  0.45406000  0.42923000  0.12277000  1.0
  O  O32  1  0.87653000  0.24250000  0.75075000  1.0
  O  O33  1  0.12347000  0.75750000  0.24925000  1.0
