# generated using pymatgen
data_MnH60(C35N4)2
_symmetry_space_group_name_H-M   'P 1'
_cell_length_a   15.12460000
_cell_length_b   15.30740000
_cell_length_c   16.58200000
_cell_angle_alpha   115.62400000
_cell_angle_beta   90.64640000
_cell_angle_gamma   88.83520000
_symmetry_Int_Tables_number   1
_chemical_formula_structural   MnH60(C35N4)2
_chemical_formula_sum   'Mn2 H120 C140 N16'
_cell_volume   3460.74435280
_cell_formula_units_Z   2
loop_
 _symmetry_equiv_pos_site_id
 _symmetry_equiv_pos_as_xyz
  1  'x, y, z'
loop_
 _atom_site_type_symbol
 _atom_site_label
 _atom_site_symmetry_multiplicity
 _atom_site_fract_x
 _atom_site_fract_y
 _atom_site_fract_z
 _atom_site_occupancy
  Mn  Mn0  1  0.00000000  0.00000000  0.00000000  1.0
  Mn  Mn1  1  0.50000000  0.50000000  0.50000000  1.0
  H  H2  1  0.07686000  0.28052000  0.91285000  1.0
  H  H3  1  0.92314000  0.71949000  0.08716000  1.0
  H  H4  1  0.07844000  0.11751000  0.75530000  1.0
  H  H5  1  0.92156000  0.88249000  0.24471000  1.0
  H  H6  1  0.06330000  0.74535000  0.67100000  1.0
  H  H7  1  0.93668000  0.25465000  0.32899000  1.0
  H  H8  1  0.01728000  0.63857000  0.75848000  1.0
  H  H9  1  0.98271000  0.36144000  0.24152000  1.0
  H  H10  1  0.93513000  0.85788000  0.49393000  1.0
  H  H11  1  0.06487000  0.14211000  0.50607000  1.0
  H  H12  1  0.21388000  0.91098000  0.52992000  1.0
  H  H13  1  0.78613000  0.08902000  0.47008000  1.0
  H  H14  1  0.86908000  0.96900000  0.70576000  1.0
  H  H15  1  0.13092000  0.03099000  0.29424000  1.0
  H  H16  1  0.84662000  0.86106000  0.60826000  1.0
  H  H17  1  0.15339000  0.13894000  0.39173000  1.0
  H  H18  1  0.89399000  0.85485000  0.70415000  1.0
  H  H19  1  0.10601000  0.14514000  0.29584000  1.0
  H  H20  1  0.14911000  0.84292000  0.37844000  1.0
  H  H21  1  0.85090000  0.15706000  0.62156000  1.0
  H  H22  1  0.03576000  0.80961000  0.36254000  1.0
  H  H23  1  0.96425000  0.19037000  0.63747000  1.0
  H  H24  1  0.06551000  0.93158000  0.39649000  1.0
  H  H25  1  0.93449000  0.06840000  0.60350000  1.0
  H  H26  1  0.21600000  0.94347000  0.76658000  1.0
  H  H27  1  0.78399000  0.05654000  0.23343000  1.0
  H  H28  1  0.28080000  0.90481000  0.66749000  1.0
  H  H29  1  0.71920000  0.09518000  0.33252000  1.0
  H  H30  1  0.24517000  0.02694000  0.72410000  1.0
  H  H31  1  0.75484000  0.97305000  0.27590000  1.0
  H  H32  1  0.21439000  0.50693000  0.17661000  1.0
  H  H33  1  0.78561000  0.49307000  0.82339000  1.0
  H  H34  1  0.95106000  0.55709000  0.10295000  1.0
  H  H35  1  0.04894000  0.44291000  0.89705000  1.0
  H  H36  1  0.18380000  0.29228000  0.18358000  1.0
  H  H37  1  0.81620000  0.70772000  0.81642000  1.0
  H  H38  1  0.26525000  0.35198000  0.14970000  1.0
  H  H39  1  0.73474000  0.64802000  0.85030000  1.0
  H  H40  1  0.20957000  0.24917000  0.06926000  1.0
  H  H41  1  0.79043000  0.75083000  0.93074000  1.0
  H  H42  1  0.11371000  0.68353000  0.25318000  1.0
  H  H43  1  0.88630000  0.31647000  0.74682000  1.0
  H  H44  1  0.04990000  0.69141000  0.16637000  1.0
  H  H45  1  0.95010000  0.30859000  0.83363000  1.0
  H  H46  1  0.16440000  0.66289000  0.15162000  1.0
  H  H47  1  0.83560000  0.33711000  0.84838000  1.0
  H  H48  1  0.89760000  0.31339000  0.97399000  1.0
  H  H49  1  0.10241000  0.68661000  0.02601000  1.0
  H  H50  1  0.85056000  0.43042000  0.03747000  1.0
  H  H51  1  0.14944000  0.56958000  0.96252000  1.0
  H  H52  1  0.85776000  0.34374000  0.08230000  1.0
  H  H53  1  0.14224000  0.65626000  0.91770000  1.0
  H  H54  1  0.24709000  0.74960000  0.52178000  1.0
  H  H55  1  0.75291000  0.25039000  0.47821000  1.0
  H  H56  1  0.17014000  0.61729000  0.56565000  1.0
  H  H57  1  0.82986000  0.38271000  0.43435000  1.0
  H  H58  1  0.27604000  0.30674000  0.59775000  1.0
  H  H59  1  0.72396000  0.69326000  0.40225000  1.0
  H  H60  1  0.43557000  0.21707000  0.58866000  1.0
  H  H61  1  0.56443000  0.78293000  0.41134000  1.0
  H  H62  1  0.04724000  0.47870000  0.73338000  1.0
  H  H63  1  0.95276000  0.52130000  0.26662000  1.0
  H  H64  1  0.01159000  0.34472000  0.44823000  1.0
  H  H65  1  0.98842000  0.65527000  0.55176000  1.0
  H  H66  1  0.20796000  0.61020000  0.76251000  1.0
  H  H67  1  0.79204000  0.38980000  0.23749000  1.0
  H  H68  1  0.19789000  0.51370000  0.79318000  1.0
  H  H69  1  0.80210000  0.48630000  0.20682000  1.0
  H  H70  1  0.28801000  0.51529000  0.72587000  1.0
  H  H71  1  0.71199000  0.48472000  0.27413000  1.0
  H  H72  1  0.90410000  0.31957000  0.56225000  1.0
  H  H73  1  0.09591000  0.68043000  0.43774000  1.0
  H  H74  1  0.90842000  0.41143000  0.67469000  1.0
  H  H75  1  0.09158000  0.58857000  0.32530000  1.0
  H  H76  1  0.87921000  0.44162000  0.58628000  1.0
  H  H77  1  0.12079000  0.55837000  0.41371000  1.0
  H  H78  1  0.21294000  0.42009000  0.39070000  1.0
  H  H79  1  0.78707000  0.57990000  0.60929000  1.0
  H  H80  1  0.22654000  0.30390000  0.38692000  1.0
  H  H81  1  0.77347000  0.69609000  0.61308000  1.0
  H  H82  1  0.12525000  0.33597000  0.35046000  1.0
  H  H83  1  0.87476000  0.66401000  0.64954000  1.0
  H  H84  1  0.29130000  0.85833000  0.31712000  1.0
  H  H85  1  0.70869000  0.14166000  0.68288000  1.0
  H  H86  1  0.40055000  0.03769000  0.57556000  1.0
  H  H87  1  0.59946000  0.96231000  0.42443000  1.0
  H  H88  1  0.30806000  0.63409000  0.33381000  1.0
  H  H89  1  0.69195000  0.36590000  0.66619000  1.0
  H  H90  1  0.39975000  0.64840000  0.27655000  1.0
  H  H91  1  0.60025000  0.35161000  0.72345000  1.0
  H  H92  1  0.29412000  0.68946000  0.25967000  1.0
  H  H93  1  0.70587000  0.31054000  0.74033000  1.0
  H  H94  1  0.29498000  0.03188000  0.36735000  1.0
  H  H95  1  0.70503000  0.96811000  0.63264000  1.0
  H  H96  1  0.34719000  0.10891000  0.47007000  1.0
  H  H97  1  0.65282000  0.89108000  0.52991000  1.0
  H  H98  1  0.23951000  0.06578000  0.47007000  1.0
  H  H99  1  0.76050000  0.93422000  0.52991000  1.0
  H  H100  1  0.43059000  0.85655000  0.64972000  1.0
  H  H101  1  0.56941000  0.14345000  0.35028000  1.0
  H  H102  1  0.46845000  0.97187000  0.66417000  1.0
  H  H103  1  0.53155000  0.02813000  0.33582000  1.0
  H  H104  1  0.53175000  0.86482000  0.60226000  1.0
  H  H105  1  0.46826000  0.13517000  0.39773000  1.0
  H  H106  1  0.74322000  0.15732000  0.10614000  1.0
  H  H107  1  0.25677000  0.84268000  0.89386000  1.0
  H  H108  1  0.54651000  0.38211000  0.04487000  1.0
  H  H109  1  0.45349000  0.61791000  0.95514000  1.0
  H  H110  1  0.64911000  0.32124000  0.30233000  1.0
  H  H111  1  0.35089000  0.67876000  0.69768000  1.0
  H  H112  1  0.57348000  0.22582000  0.25513000  1.0
  H  H113  1  0.42652000  0.77419000  0.74488000  1.0
  H  H114  1  0.68917000  0.20049000  0.24453000  1.0
  H  H115  1  0.31082000  0.79952000  0.75548000  1.0
  H  H116  1  0.60550000  0.34822000  0.91180000  1.0
  H  H117  1  0.39451000  0.65179000  0.08822000  1.0
  H  H118  1  0.71882000  0.31464000  0.89795000  1.0
  H  H119  1  0.28119000  0.68537000  0.10206000  1.0
  H  H120  1  0.63828000  0.22494000  0.84878000  1.0
  H  H121  1  0.36172000  0.77507000  0.15123000  1.0
  C  C122  1  0.04133000  0.17786000  0.97005000  1.0
  C  C123  1  0.95867000  0.82214000  0.02996000  1.0
  C  C124  1  0.06440000  0.20637000  0.90105000  1.0
  C  C125  1  0.93560000  0.79363000  0.09896000  1.0
  C  C126  1  0.06562000  0.12444000  0.82207000  1.0
  C  C127  1  0.93438000  0.87557000  0.17793000  1.0
  C  C128  1  0.04680000  0.04452000  0.84258000  1.0
  C  C129  1  0.95319000  0.95548000  0.15742000  1.0
  C  C130  1  0.04856000  0.94745000  0.77982000  1.0
  C  C131  1  0.95143000  0.05255000  0.22018000  1.0
  C  C132  1  0.03666000  0.87072000  0.80280000  1.0
  C  C133  1  0.96334000  0.12928000  0.19720000  1.0
  C  C134  1  0.04354000  0.77033000  0.74021000  1.0
  C  C135  1  0.95645000  0.22967000  0.25978000  1.0
  C  C136  1  0.02047000  0.71680000  0.78448000  1.0
  C  C137  1  0.97952000  0.28320000  0.21551000  1.0
  C  C138  1  0.00054000  0.78423000  0.87510000  1.0
  C  C139  1  0.99945000  0.21578000  0.12490000  1.0
  C  C140  1  0.02797000  0.24310000  0.05938000  1.0
  C  C141  1  0.97203000  0.75690000  0.94062000  1.0
  C  C142  1  0.05958000  0.92403000  0.68323000  1.0
  C  C143  1  0.94041000  0.07598000  0.31678000  1.0
  C  C144  1  0.98395000  0.89817000  0.62725000  1.0
  C  C145  1  0.01605000  0.10183000  0.37275000  1.0
  C  C146  1  0.99350000  0.87819000  0.53721000  1.0
  C  C147  1  0.00651000  0.12181000  0.46279000  1.0
  C  C148  1  0.07515000  0.88376000  0.50089000  1.0
  C  C149  1  0.92485000  0.11623000  0.49911000  1.0
  C  C150  1  0.14918000  0.90783000  0.55717000  1.0
  C  C151  1  0.85082000  0.09217000  0.44284000  1.0
  C  C152  1  0.14286000  0.92767000  0.64784000  1.0
  C  C153  1  0.85713000  0.07234000  0.35217000  1.0
  C  C154  1  0.89377000  0.89522000  0.66324000  1.0
  C  C155  1  0.10623000  0.10478000  0.33676000  1.0
  C  C156  1  0.08209000  0.86548000  0.40459000  1.0
  C  C157  1  0.91791000  0.13450000  0.59541000  1.0
  C  C158  1  0.22532000  0.95168000  0.70472000  1.0
  C  C159  1  0.77468000  0.04832000  0.29528000  1.0
  C  C160  1  0.04707000  0.34752000  0.08747000  1.0
  C  C161  1  0.95293000  0.65248000  0.91253000  1.0
  C  C162  1  0.13133000  0.38223000  0.12285000  1.0
  C  C163  1  0.86867000  0.61777000  0.87715000  1.0
  C  C164  1  0.14868000  0.48041000  0.15054000  1.0
  C  C165  1  0.85132000  0.51958000  0.84946000  1.0
  C  C166  1  0.08427000  0.54482000  0.14524000  1.0
  C  C167  1  0.91574000  0.45518000  0.85477000  1.0
  C  C168  1  0.00171000  0.50826000  0.10887000  1.0
  C  C169  1  0.99829000  0.49175000  0.89113000  1.0
  C  C170  1  0.98182000  0.41024000  0.07953000  1.0
  C  C171  1  0.01818000  0.58977000  0.92047000  1.0
  C  C172  1  0.20143000  0.31561000  0.13172000  1.0
  C  C173  1  0.79856000  0.68439000  0.86829000  1.0
  C  C174  1  0.10355000  0.65074000  0.18041000  1.0
  C  C175  1  0.89645000  0.34926000  0.81959000  1.0
  C  C176  1  0.89223000  0.37289000  0.04146000  1.0
  C  C177  1  0.10777000  0.62711000  0.95854000  1.0
  C  C178  1  0.36773000  0.65533000  0.50298000  1.0
  C  C179  1  0.63227000  0.34466000  0.49701000  1.0
  C  C180  1  0.27704000  0.68571000  0.52417000  1.0
  C  C181  1  0.72296000  0.31429000  0.47582000  1.0
  C  C182  1  0.23795000  0.61893000  0.54585000  1.0
  C  C183  1  0.76205000  0.38107000  0.45415000  1.0
  C  C184  1  0.30445000  0.54763000  0.53874000  1.0
  C  C185  1  0.69555000  0.45237000  0.46126000  1.0
  C  C186  1  0.28866000  0.46741000  0.55557000  1.0
  C  C187  1  0.71134000  0.53260000  0.44443000  1.0
  C  C188  1  0.35480000  0.40298000  0.55665000  1.0
  C  C189  1  0.64520000  0.59702000  0.44336000  1.0
  C  C190  1  0.33991000  0.32400000  0.57972000  1.0
  C  C191  1  0.66009000  0.67601000  0.42028000  1.0
  C  C192  1  0.41986000  0.27884000  0.57495000  1.0
  C  C193  1  0.58013000  0.72116000  0.42505000  1.0
  C  C194  1  0.48367000  0.32801000  0.54636000  1.0
  C  C195  1  0.51633000  0.67199000  0.45364000  1.0
  C  C196  1  0.42847000  0.70296000  0.47372000  1.0
  C  C197  1  0.57153000  0.29704000  0.52628000  1.0
  C  C198  1  0.19529000  0.44807000  0.56977000  1.0
  C  C199  1  0.80471000  0.55193000  0.43023000  1.0
  C  C200  1  0.16165000  0.47732000  0.65646000  1.0
  C  C201  1  0.83835000  0.52268000  0.34354000  1.0
  C  C202  1  0.07331000  0.45763000  0.66619000  1.0
  C  C203  1  0.92669000  0.54237000  0.33380000  1.0
  C  C204  1  0.01789000  0.41150000  0.59248000  1.0
  C  C205  1  0.98211000  0.58850000  0.40752000  1.0
  C  C206  1  0.05331000  0.38241000  0.50680000  1.0
  C  C207  1  0.94669000  0.61758000  0.49319000  1.0
  C  C208  1  0.14125000  0.39919000  0.49385000  1.0
  C  C209  1  0.85876000  0.60080000  0.50615000  1.0
  C  C210  1  0.21716000  0.53133000  0.73843000  1.0
  C  C211  1  0.78283000  0.46867000  0.26157000  1.0
  C  C212  1  0.92262000  0.39474000  0.60484000  1.0
  C  C213  1  0.07739000  0.60525000  0.39515000  1.0
  C  C214  1  0.17803000  0.36326000  0.40067000  1.0
  C  C215  1  0.82198000  0.63673000  0.59932000  1.0
  C  C216  1  0.39869000  0.79147000  0.46397000  1.0
  C  C217  1  0.60131000  0.20853000  0.53603000  1.0
  C  C218  1  0.35434000  0.78171000  0.38537000  1.0
  C  C219  1  0.64566000  0.21829000  0.61462000  1.0
  C  C220  1  0.32691000  0.86545000  0.37732000  1.0
  C  C221  1  0.67309000  0.13455000  0.62267000  1.0
  C  C222  1  0.34177000  0.95805000  0.44533000  1.0
  C  C223  1  0.65822000  0.04195000  0.55466000  1.0
  C  C224  1  0.38744000  0.96599000  0.52201000  1.0
  C  C225  1  0.61256000  0.03401000  0.47798000  1.0
  C  C226  1  0.41621000  0.88412000  0.53270000  1.0
  C  C227  1  0.58379000  0.11588000  0.46730000  1.0
  C  C228  1  0.33793000  0.68367000  0.31025000  1.0
  C  C229  1  0.66207000  0.31632000  0.68975000  1.0
  C  C230  1  0.30473000  0.04586000  0.43752000  1.0
  C  C231  1  0.69528000  0.95414000  0.56247000  1.0
  C  C232  1  0.46416000  0.89526000  0.61661000  1.0
  C  C233  1  0.53585000  0.10473000  0.38339000  1.0
  C  C234  1  0.81590000  0.07512000  0.96106000  1.0
  C  C235  1  0.18409000  0.92489000  0.03894000  1.0
  C  C236  1  0.76855000  0.14521000  0.94475000  1.0
  C  C237  1  0.23144000  0.85479000  0.05525000  1.0
  C  C238  1  0.78982000  0.14169000  0.86069000  1.0
  C  C239  1  0.21017000  0.85830000  0.13931000  1.0
  C  C240  1  0.70637000  0.21037000  0.00872000  1.0
  C  C241  1  0.29362000  0.78963000  0.99128000  1.0
  C  C242  1  0.69901000  0.20680000  0.09263000  1.0
  C  C243  1  0.30098000  0.79320000  0.90737000  1.0
  C  C244  1  0.63906000  0.26163000  0.15824000  1.0
  C  C245  1  0.36094000  0.73837000  0.84177000  1.0
  C  C246  1  0.58019000  0.32573000  0.14040000  1.0
  C  C247  1  0.41981000  0.67428000  0.85961000  1.0
  C  C248  1  0.58990000  0.33188000  0.05800000  1.0
  C  C249  1  0.41010000  0.66813000  0.94201000  1.0
  C  C250  1  0.65034000  0.27783000  0.99268000  1.0
  C  C251  1  0.34965000  0.72218000  0.00733000  1.0
  C  C252  1  0.63754000  0.25173000  0.24434000  1.0
  C  C253  1  0.36246000  0.74828000  0.75567000  1.0
  C  C254  1  0.65322000  0.29189000  0.90854000  1.0
  C  C255  1  0.34678000  0.70812000  0.09147000  1.0
  C  C256  1  0.45089000  0.43622000  0.17044000  1.0
  C  C257  1  0.54911000  0.56379000  0.82957000  1.0
  C  C258  1  0.51092000  0.38347000  0.19967000  1.0
  C  C259  1  0.48908000  0.61654000  0.80035000  1.0
  C  C260  1  0.49194000  0.39264000  0.28511000  1.0
  C  C261  1  0.50806000  0.60737000  0.71489000  1.0
  N  N262  1  0.03133000  0.07851000  0.93330000  1.0
  N  N263  1  0.96867000  0.92150000  0.06670000  1.0
  N  N264  1  0.01263000  0.87792000  0.88567000  1.0
  N  N265  1  0.98737000  0.12209000  0.11433000  1.0
  N  N266  1  0.38385000  0.57143000  0.51346000  1.0
  N  N267  1  0.61615000  0.42857000  0.48654000  1.0
  N  N268  1  0.44314000  0.40507000  0.53743000  1.0
  N  N269  1  0.55687000  0.59493000  0.46258000  1.0
  N  N270  1  0.85701000  0.01397000  0.97061000  1.0
  N  N271  1  0.14298000  0.98604000  0.02940000  1.0
  N  N272  1  0.81260000  0.13390000  0.79040000  1.0
  N  N273  1  0.18739000  0.86609000  0.20961000  1.0
  N  N274  1  0.40086000  0.47838000  0.14493000  1.0
  N  N275  1  0.59914000  0.52162000  0.85508000  1.0
  N  N276  1  0.47008000  0.40392000  0.35711000  1.0
  N  N277  1  0.52992000  0.59610000  0.64291000  1.0
