# generated using pymatgen
data_CdH20C22(NO2)2
_symmetry_space_group_name_H-M   'P 1'
_cell_length_a   9.98248000
_cell_length_b   10.19780000
_cell_length_c   11.48380000
_cell_angle_alpha   102.59700000
_cell_angle_beta   99.60740000
_cell_angle_gamma   119.23000000
_symmetry_Int_Tables_number   1
_chemical_formula_structural   CdH20C22(NO2)2
_chemical_formula_sum   'Cd2 H40 C44 N4 O8'
_cell_volume   942.93327907
_cell_formula_units_Z   2
loop_
 _symmetry_equiv_pos_site_id
 _symmetry_equiv_pos_as_xyz
  1  'x, y, z'
loop_
 _atom_site_type_symbol
 _atom_site_label
 _atom_site_symmetry_multiplicity
 _atom_site_fract_x
 _atom_site_fract_y
 _atom_site_fract_z
 _atom_site_occupancy
  Cd  Cd0  1  0.94184000  0.60073000  0.62804000  1.0
  Cd  Cd1  1  0.05817000  0.39927000  0.37196000  1.0
  H  H2  1  0.05502000  0.37984000  0.68947000  1.0
  H  H3  1  0.94498000  0.62016000  0.31053000  1.0
  H  H4  1  0.20802000  0.35304000  0.86848000  1.0
  H  H5  1  0.79198000  0.64696000  0.13152000  1.0
  H  H6  1  0.23521000  0.75652000  0.11651000  1.0
  H  H7  1  0.76478000  0.24348000  0.88349000  1.0
  H  H8  1  0.08269000  0.76690000  0.92702000  1.0
  H  H9  1  0.91731000  0.23310000  0.07298000  1.0
  H  H10  1  0.25462000  0.51776000  0.18567000  1.0
  H  H11  1  0.74538000  0.48224000  0.81433000  1.0
  H  H12  1  0.32475000  0.42755000  0.08541000  1.0
  H  H13  1  0.67524000  0.57245000  0.91459000  1.0
  H  H14  1  0.49078000  0.78700000  0.23052000  1.0
  H  H15  1  0.50922000  0.21300000  0.76948000  1.0
  H  H16  1  0.56266000  0.71323000  0.12110000  1.0
  H  H17  1  0.43734000  0.28676000  0.87890000  1.0
  H  H18  1  0.40127000  0.42222000  0.27543000  1.0
  H  H19  1  0.59873000  0.57778000  0.72457000  1.0
  H  H20  1  0.57805000  0.40385000  0.44043000  1.0
  H  H21  1  0.42196000  0.59615000  0.55957000  1.0
  H  H22  1  0.97112000  0.85483000  0.50011000  1.0
  H  H23  1  0.02888000  0.14517000  0.49989000  1.0
  H  H24  1  0.81082000  0.89403000  0.33408000  1.0
  H  H25  1  0.18918000  0.10597000  0.66592000  1.0
  H  H26  1  0.01542000  0.09571000  0.89292000  1.0
  H  H27  1  0.98458000  0.90429000  0.10708000  1.0
  H  H28  1  0.95647000  0.07485000  0.73352000  1.0
  H  H29  1  0.04353000  0.92515000  0.26648000  1.0
  H  H30  1  0.79238000  0.92243000  0.98075000  1.0
  H  H31  1  0.20761000  0.07757000  0.01925000  1.0
  H  H32  1  0.52073000  0.85421000  0.99131000  1.0
  H  H33  1  0.47927000  0.14579000  0.00869000  1.0
  H  H34  1  0.33216000  0.85598000  0.82152000  1.0
  H  H35  1  0.66785000  0.14402000  0.17847000  1.0
  H  H36  1  0.68410000  0.98727000  0.62663000  1.0
  H  H37  1  0.31591000  0.01273000  0.37338000  1.0
  H  H38  1  0.43966000  0.00235000  0.56499000  1.0
  H  H39  1  0.56035000  0.99765000  0.43501000  1.0
  H  H40  1  0.29360000  0.93989000  0.64614000  1.0
  H  H41  1  0.70640000  0.06011000  0.35386000  1.0
  C  C42  1  0.09787000  0.46071000  0.78582000  1.0
  C  C43  1  0.90213000  0.53929000  0.21418000  1.0
  C  C44  1  0.18253000  0.44659000  0.88611000  1.0
  C  C45  1  0.81747000  0.55341000  0.11389000  1.0
  C  C46  1  0.23453000  0.55198000  0.00871000  1.0
  C  C47  1  0.76546000  0.44802000  0.99128000  1.0
  C  C48  1  0.19842000  0.67019000  0.02374000  1.0
  C  C49  1  0.80158000  0.32980000  0.97626000  1.0
  C  C50  1  0.11369000  0.67733000  0.91886000  1.0
  C  C51  1  0.88631000  0.32267000  0.08114000  1.0
  C  C52  1  0.32258000  0.53590000  0.11832000  1.0
  C  C53  1  0.67741000  0.46410000  0.88169000  1.0
  C  C54  1  0.49505000  0.68195000  0.18803000  1.0
  C  C55  1  0.50495000  0.31804000  0.81197000  1.0
  C  C56  1  0.59130000  0.66110000  0.28987000  1.0
  C  C57  1  0.40870000  0.33891000  0.71013000  1.0
  C  C58  1  0.52714000  0.52229000  0.32106000  1.0
  C  C59  1  0.47286000  0.47771000  0.67894000  1.0
  C  C60  1  0.62553000  0.51055000  0.41403000  1.0
  C  C61  1  0.37448000  0.48945000  0.58597000  1.0
  C  C62  1  0.84413000  0.76267000  0.44732000  1.0
  C  C63  1  0.15587000  0.23734000  0.55268000  1.0
  C  C64  1  0.75416000  0.78387000  0.35614000  1.0
  C  C65  1  0.24584000  0.21613000  0.64386000  1.0
  C  C66  1  0.95205000  0.87353000  0.76396000  1.0
  C  C67  1  0.04795000  0.12647000  0.23604000  1.0
  C  C68  1  0.92503000  0.01069000  0.79996000  1.0
  C  C69  1  0.07497000  0.98931000  0.20004000  1.0
  C  C70  1  0.75749000  0.96118000  0.80345000  1.0
  C  C71  1  0.24251000  0.03882000  0.19655000  1.0
  C  C72  1  0.70880000  0.92052000  0.90481000  1.0
  C  C73  1  0.29119000  0.07948000  0.09518000  1.0
  C  C74  1  0.55612000  0.88143000  0.91063000  1.0
  C  C75  1  0.44388000  0.11857000  0.08937000  1.0
  C  C76  1  0.44963000  0.88165000  0.81513000  1.0
  C  C77  1  0.55037000  0.11835000  0.18486000  1.0
  C  C78  1  0.49368000  0.91832000  0.71145000  1.0
  C  C79  1  0.50632000  0.08168000  0.28855000  1.0
  C  C80  1  0.64803000  0.95750000  0.70673000  1.0
  C  C81  1  0.35197000  0.04249000  0.29327000  1.0
  C  C82  1  0.37424000  0.91327000  0.60725000  1.0
  C  C83  1  0.62577000  0.08673000  0.39275000  1.0
  C  C84  1  0.27144000  0.74600000  0.50616000  1.0
  C  C85  1  0.72856000  0.25400000  0.49384000  1.0
  N  N86  1  0.06405000  0.57451000  0.80149000  1.0
  N  N87  1  0.93595000  0.42549000  0.19851000  1.0
  N  N88  1  0.78174000  0.62777000  0.47624000  1.0
  N  N89  1  0.21826000  0.37223000  0.52376000  1.0
  O  O90  1  0.07406000  0.90112000  0.72725000  1.0
  O  O91  1  0.92594000  0.09888000  0.27275000  1.0
  O  O92  1  0.85244000  0.73915000  0.77036000  1.0
  O  O93  1  0.14757000  0.26085000  0.22965000  1.0
  O  O94  1  0.32753000  0.70362000  0.42638000  1.0
  O  O95  1  0.67247000  0.29639000  0.57362000  1.0
  O  O96  1  0.12825000  0.64937000  0.51020000  1.0
  O  O97  1  0.87175000  0.35063000  0.48980000  1.0
