# generated using pymatgen
data_Ca2H15C16NO12
_symmetry_space_group_name_H-M   'P 1'
_cell_length_a   9.57246000
_cell_length_b   10.45120000
_cell_length_c   11.42910000
_cell_angle_alpha   75.71100000
_cell_angle_beta   83.64210000
_cell_angle_gamma   81.22120000
_symmetry_Int_Tables_number   1
_chemical_formula_structural   Ca2H15C16NO12
_chemical_formula_sum   'Ca4 H30 C32 N2 O24'
_cell_volume   1091.86324651
_cell_formula_units_Z   2
loop_
 _symmetry_equiv_pos_site_id
 _symmetry_equiv_pos_as_xyz
  1  'x, y, z'
loop_
 _atom_site_type_symbol
 _atom_site_label
 _atom_site_symmetry_multiplicity
 _atom_site_fract_x
 _atom_site_fract_y
 _atom_site_fract_z
 _atom_site_occupancy
  Ca  Ca0  1  0.50000000  0.00000000  0.50000000  1.0
  Ca  Ca1  1  0.45418000  0.40870000  0.36579000  1.0
  Ca  Ca2  1  0.54581000  0.59130000  0.63421000  1.0
  Ca  Ca3  1  0.50000000  0.50000000  0.00000000  1.0
  H  H4  1  0.04255000  0.72276000  0.95720000  1.0
  H  H5  1  0.95745000  0.27724000  0.04281000  1.0
  H  H6  1  0.76000000  0.68382000  0.99582000  1.0
  H  H7  1  0.23999000  0.31618000  0.00418000  1.0
  H  H8  1  0.35520000  0.78527000  0.12473000  1.0
  H  H9  1  0.64481000  0.21474000  0.87527000  1.0
  H  H10  1  0.34675000  0.05210000  0.01384000  1.0
  H  H11  1  0.65327000  0.94790000  0.98616000  1.0
  H  H12  1  0.19247000  0.19638000  0.72324000  1.0
  H  H13  1  0.80753000  0.80362000  0.27676000  1.0
  H  H14  1  0.20999000  0.01909000  0.76674000  1.0
  H  H15  1  0.79002000  0.98091000  0.23326000  1.0
  H  H16  1  0.03805000  0.11581000  0.76011000  1.0
  H  H17  1  0.96195000  0.88419000  0.23989000  1.0
  H  H18  1  0.10270000  0.26509000  0.33713000  1.0
  H  H19  1  0.89730000  0.73490000  0.66288000  1.0
  H  H20  1  0.95440000  0.17390000  0.36002000  1.0
  H  H21  1  0.04560000  0.82610000  0.63998000  1.0
  H  H22  1  0.13146000  0.08700000  0.37088000  1.0
  H  H23  1  0.86854000  0.91300000  0.62913000  1.0
  H  H24  1  0.86757000  0.19131000  0.64057000  1.0
  H  H25  1  0.13243000  0.80869000  0.35943000  1.0
  H  H26  1  0.85838000  0.29519000  0.49222000  1.0
  H  H27  1  0.14162000  0.70480000  0.50778000  1.0
  H  H28  1  0.96532000  0.33064000  0.59577000  1.0
  H  H29  1  0.03467000  0.66935000  0.40423000  1.0
  H  H30  1  0.23980000  0.47059000  0.55970000  1.0
  H  H31  1  0.76020000  0.52940000  0.44030000  1.0
  H  H32  1  0.18147000  0.45387000  0.43969000  1.0
  H  H33  1  0.81852000  0.54613000  0.56031000  1.0
  C  C34  1  0.20600000  0.55703000  0.16346000  1.0
  C  C35  1  0.79399000  0.44298000  0.83654000  1.0
  C  C36  1  0.05520000  0.58730000  0.13684000  1.0
  C  C37  1  0.94480000  0.41271000  0.86316000  1.0
  C  C38  1  0.98960000  0.66310000  0.03615000  1.0
  C  C39  1  0.01039000  0.33690000  0.96386000  1.0
  C  C40  1  0.84504000  0.64256000  0.05533000  1.0
  C  C41  1  0.15495000  0.35744000  0.94467000  1.0
  C  C42  1  0.83049000  0.55542000  0.16699000  1.0
  C  C43  1  0.16950000  0.44458000  0.83301000  1.0
  C  C44  1  0.70902000  0.49281000  0.23450000  1.0
  C  C45  1  0.29097000  0.50719000  0.76550000  1.0
  C  C46  1  0.44626000  0.74298000  0.38626000  1.0
  C  C47  1  0.55374000  0.25703000  0.61374000  1.0
  C  C48  1  0.41922000  0.85040000  0.27732000  1.0
  C  C49  1  0.58078000  0.14961000  0.72267000  1.0
  C  C50  1  0.37787000  0.86506000  0.16265000  1.0
  C  C51  1  0.62214000  0.13494000  0.83735000  1.0
  C  C52  1  0.37374000  0.00327000  0.10524000  1.0
  C  C53  1  0.62628000  0.99673000  0.89476000  1.0
  C  C54  1  0.41369000  0.06514000  0.18726000  1.0
  C  C55  1  0.58632000  0.93486000  0.81274000  1.0
  C  C56  1  0.43789000  0.20074000  0.19052000  1.0
  C  C57  1  0.56212000  0.79926000  0.80948000  1.0
  C  C58  1  0.15477000  0.10307000  0.58612000  1.0
  C  C59  1  0.84523000  0.89693000  0.41388000  1.0
  C  C60  1  0.14625000  0.10818000  0.71739000  1.0
  C  C61  1  0.85375000  0.89183000  0.28262000  1.0
  C  C62  1  0.06019000  0.17363000  0.38847000  1.0
  C  C63  1  0.93982000  0.82637000  0.61153000  1.0
  C  C64  1  0.92860000  0.25067000  0.56503000  1.0
  C  C65  1  0.07140000  0.74932000  0.43498000  1.0
  N  N66  1  0.04825000  0.16766000  0.51826000  1.0
  N  N67  1  0.95175000  0.83233000  0.48174000  1.0
  O  O68  1  0.29330000  0.60733000  0.07855000  1.0
  O  O69  1  0.70670000  0.39267000  0.92145000  1.0
  O  O70  1  0.23741000  0.40699000  0.50812000  1.0
  O  O71  1  0.76259000  0.59301000  0.49188000  1.0
  O  O72  1  0.23729000  0.48233000  0.26555000  1.0
  O  O73  1  0.76270000  0.51767000  0.73445000  1.0
  O  O74  1  0.95809000  0.52247000  0.21826000  1.0
  O  O75  1  0.04190000  0.47753000  0.78174000  1.0
  O  O76  1  0.71366000  0.43662000  0.34670000  1.0
  O  O77  1  0.28633000  0.56338000  0.65330000  1.0
  O  O78  1  0.60011000  0.49835000  0.17701000  1.0
  O  O79  1  0.39988000  0.50165000  0.82299000  1.0
  O  O80  1  0.47754000  0.78067000  0.47770000  1.0
  O  O81  1  0.52245000  0.21933000  0.52229000  1.0
  O  O82  1  0.43834000  0.62419000  0.38575000  1.0
  O  O83  1  0.56167000  0.37581000  0.61425000  1.0
  O  O84  1  0.44052000  0.97210000  0.29261000  1.0
  O  O85  1  0.55949000  0.02790000  0.70739000  1.0
  O  O86  1  0.46743000  0.21316000  0.29308000  1.0
  O  O87  1  0.53257000  0.78684000  0.70692000  1.0
  O  O88  1  0.42836000  0.29047000  0.09359000  1.0
  O  O89  1  0.57164000  0.70954000  0.90641000  1.0
  O  O90  1  0.26185000  0.03941000  0.54168000  1.0
  O  O91  1  0.73816000  0.96059000  0.45833000  1.0
