# generated using pymatgen
data_BaH14C14N2O11
_symmetry_space_group_name_H-M   'P 1'
_cell_length_a   8.29448000
_cell_length_b   8.32541000
_cell_length_c   14.02140000
_cell_angle_alpha   84.64150000
_cell_angle_beta   79.83910000
_cell_angle_gamma   69.93730000
_symmetry_Int_Tables_number   1
_chemical_formula_structural   BaH14C14N2O11
_chemical_formula_sum   'Ba2 H28 C28 N4 O22'
_cell_volume   894.66151405
_cell_formula_units_Z   2
loop_
 _symmetry_equiv_pos_site_id
 _symmetry_equiv_pos_as_xyz
  1  'x, y, z'
loop_
 _atom_site_type_symbol
 _atom_site_label
 _atom_site_symmetry_multiplicity
 _atom_site_fract_x
 _atom_site_fract_y
 _atom_site_fract_z
 _atom_site_occupancy
  Ba  Ba0  1  0.22738000  0.60512000  0.46456000  1.0
  Ba  Ba1  1  0.77262000  0.39488000  0.53544000  1.0
  H  H2  1  0.13322000  0.48848000  0.02668000  1.0
  H  H3  1  0.86678000  0.51152000  0.97332000  1.0
  H  H4  1  0.10272000  0.22247000  0.97473000  1.0
  H  H5  1  0.89727000  0.77753000  0.02527000  1.0
  H  H6  1  0.11328000  0.97881000  0.09577000  1.0
  H  H7  1  0.88671000  0.02118000  0.90423000  1.0
  H  H8  1  0.15564000  0.00281000  0.26358000  1.0
  H  H9  1  0.84436000  0.99718000  0.73642000  1.0
  H  H10  1  0.60136000  0.37928000  0.02379000  1.0
  H  H11  1  0.39863000  0.62073000  0.97621000  1.0
  H  H12  1  0.56917000  0.09756000  0.00955000  1.0
  H  H13  1  0.43083000  0.90244000  0.99045000  1.0
  H  H14  1  0.58899000  0.89202000  0.15419000  1.0
  H  H15  1  0.41101000  0.10798000  0.84581000  1.0
  H  H16  1  0.63753000  0.97395000  0.30822000  1.0
  H  H17  1  0.36248000  0.02606000  0.69179000  1.0
  H  H18  1  0.19475000  0.25061000  0.59795000  1.0
  H  H19  1  0.80524000  0.74940000  0.40205000  1.0
  H  H20  1  0.91129000  0.96629000  0.36431000  1.0
  H  H21  1  0.08872000  0.03370000  0.63569000  1.0
  H  H22  1  0.51841000  0.77718000  0.39584000  1.0
  H  H23  1  0.48159000  0.22282000  0.60416000  1.0
  H  H24  1  0.29959000  0.21138000  0.49458000  1.0
  H  H25  1  0.70041000  0.78862000  0.50542000  1.0
  H  H26  1  0.00427000  0.82252000  0.28621000  1.0
  H  H27  1  0.99573000  0.17747000  0.71379000  1.0
  H  H28  1  0.35599000  0.93256000  0.37315000  1.0
  H  H29  1  0.64401000  0.06744000  0.62685000  1.0
  C  C30  1  0.15895000  0.25967000  0.24278000  1.0
  C  C31  1  0.84104000  0.74033000  0.75722000  1.0
  C  C32  1  0.15155000  0.39397000  0.17342000  1.0
  C  C33  1  0.84845000  0.60602000  0.82658000  1.0
  C  C34  1  0.13199000  0.38229000  0.07782000  1.0
  C  C35  1  0.86801000  0.61770000  0.92218000  1.0
  C  C36  1  0.11710000  0.23299000  0.04941000  1.0
  C  C37  1  0.88289000  0.76700000  0.95059000  1.0
  C  C38  1  0.12436000  0.09690000  0.11687000  1.0
  C  C39  1  0.87564000  0.90310000  0.88313000  1.0
  C  C40  1  0.14780000  0.10971000  0.21161000  1.0
  C  C41  1  0.85220000  0.89028000  0.78839000  1.0
  C  C42  1  0.16260000  0.27346000  0.34903000  1.0
  C  C43  1  0.83740000  0.72654000  0.65097000  1.0
  C  C44  1  0.65047000  0.22049000  0.25527000  1.0
  C  C45  1  0.34954000  0.77951000  0.74473000  1.0
  C  C46  1  0.63780000  0.33252000  0.17352000  1.0
  C  C47  1  0.36220000  0.66748000  0.82648000  1.0
  C  C48  1  0.60902000  0.28930000  0.08562000  1.0
  C  C49  1  0.39098000  0.71070000  0.91437000  1.0
  C  C50  1  0.59206000  0.13056000  0.07814000  1.0
  C  C51  1  0.40793000  0.86945000  0.92186000  1.0
  C  C52  1  0.60373000  0.01637000  0.15833000  1.0
  C  C53  1  0.39627000  0.98363000  0.84167000  1.0
  C  C54  1  0.63295000  0.06178000  0.24545000  1.0
  C  C55  1  0.36705000  0.93822000  0.75455000  1.0
  C  C56  1  0.67220000  0.26312000  0.35361000  1.0
  C  C57  1  0.32780000  0.73689000  0.64639000  1.0
  N  N58  1  0.66002000  0.49922000  0.17649000  1.0
  N  N59  1  0.33998000  0.50079000  0.82351000  1.0
  N  N60  1  0.16886000  0.55144000  0.19933000  1.0
  N  N61  1  0.83114000  0.44855000  0.80068000  1.0
  O  O62  1  0.05547000  0.40509000  0.39178000  1.0
  O  O63  1  0.94453000  0.59491000  0.60822000  1.0
  O  O64  1  0.27057000  0.15014000  0.38899000  1.0
  O  O65  1  0.72942000  0.84986000  0.61102000  1.0
  O  O66  1  0.26825000  0.54214000  0.25777000  1.0
  O  O67  1  0.73175000  0.45786000  0.74223000  1.0
  O  O68  1  0.08348000  0.68962000  0.16154000  1.0
  O  O69  1  0.91652000  0.31037000  0.83846000  1.0
  O  O70  1  0.55698000  0.38797000  0.39747000  1.0
  O  O71  1  0.44302000  0.61204000  0.60253000  1.0
  O  O72  1  0.80535000  0.16579000  0.38923000  1.0
  O  O73  1  0.19465000  0.83422000  0.61076000  1.0
  O  O74  1  0.74937000  0.51594000  0.23442000  1.0
  O  O75  1  0.25064000  0.48406000  0.76557000  1.0
  O  O76  1  0.59064000  0.61440000  0.11829000  1.0
  O  O77  1  0.40934000  0.38561000  0.88171000  1.0
  O  O78  1  0.29451000  0.27094000  0.55460000  1.0
  O  O79  1  0.70549000  0.72906000  0.44540000  1.0
  O  O80  1  0.97454000  0.83951000  0.35612000  1.0
  O  O81  1  0.02547000  0.16049000  0.64388000  1.0
  O  O82  1  0.40573000  0.80627000  0.37144000  1.0
  O  O83  1  0.59428000  0.19373000  0.62855000  1.0
