# generated using pymatgen
data_DyH9C10(N2O5)2
_symmetry_space_group_name_H-M   'P 1'
_cell_length_a   9.22712000
_cell_length_b   10.89330000
_cell_length_c   14.23000000
_cell_angle_alpha   104.92400000
_cell_angle_beta   90.00000000
_cell_angle_gamma   90.00000000
_symmetry_Int_Tables_number   1
_chemical_formula_structural   DyH9C10(N2O5)2
_chemical_formula_sum   'Dy4 H36 C40 N16 O40'
_cell_volume   1382.06433282
_cell_formula_units_Z   4
loop_
 _symmetry_equiv_pos_site_id
 _symmetry_equiv_pos_as_xyz
  1  'x, y, z'
loop_
 _atom_site_type_symbol
 _atom_site_label
 _atom_site_symmetry_multiplicity
 _atom_site_fract_x
 _atom_site_fract_y
 _atom_site_fract_z
 _atom_site_occupancy
  Dy  Dy0  1  0.37240000  0.54224000  0.76480000  1.0
  Dy  Dy1  1  0.87240000  0.95776000  0.73520000  1.0
  Dy  Dy2  1  0.62760000  0.45776000  0.23520000  1.0
  Dy  Dy3  1  0.12760000  0.04224000  0.26480000  1.0
  H  H4  1  0.60551000  0.22088000  0.01607000  1.0
  H  H5  1  0.10551000  0.27912000  0.48392000  1.0
  H  H6  1  0.39449000  0.77912000  0.98392000  1.0
  H  H7  1  0.89449000  0.72088000  0.51607000  1.0
  H  H8  1  0.10858000  0.18456000  0.92579000  1.0
  H  H9  1  0.60858000  0.31543000  0.57421000  1.0
  H  H10  1  0.89142000  0.81544000  0.07420000  1.0
  H  H11  1  0.39142000  0.68457000  0.42579000  1.0
  H  H12  1  0.09384000  0.30549000  0.73130000  1.0
  H  H13  1  0.59384000  0.19451000  0.76870000  1.0
  H  H14  1  0.90616000  0.69451000  0.26870000  1.0
  H  H15  1  0.40616000  0.80549000  0.23130000  1.0
  H  H16  1  0.44411000  0.91004000  0.84267000  1.0
  H  H17  1  0.94410000  0.58996000  0.65733000  1.0
  H  H18  1  0.55590000  0.08996000  0.15733000  1.0
  H  H19  1  0.05590000  0.41004000  0.34267000  1.0
  H  H20  1  0.83881000  0.55840000  0.94939000  1.0
  H  H21  1  0.33880000  0.94160000  0.55061000  1.0
  H  H22  1  0.16119000  0.44160000  0.05061000  1.0
  H  H23  1  0.66119000  0.05840000  0.44939000  1.0
  H  H24  1  0.34611000  0.39039000  0.55885000  1.0
  H  H25  1  0.84611000  0.10960000  0.94115000  1.0
  H  H26  1  0.65389000  0.60960000  0.44115000  1.0
  H  H27  1  0.15389000  0.89040000  0.05885000  1.0
  H  H28  1  0.20564000  0.47841000  0.58230000  1.0
  H  H29  1  0.70564000  0.02159000  0.91770000  1.0
  H  H30  1  0.79436000  0.52159000  0.41770000  1.0
  H  H31  1  0.29436000  0.97841000  0.08230000  1.0
  H  H32  1  0.58459000  0.42869000  0.87430000  1.0
  H  H33  1  0.08459000  0.07131000  0.62570000  1.0
  H  H34  1  0.41541000  0.57131000  0.12570000  1.0
  H  H35  1  0.91541000  0.92869000  0.37430000  1.0
  H  H36  1  0.55567000  0.57261000  0.93606000  1.0
  H  H37  1  0.05567000  0.92739000  0.56394000  1.0
  H  H38  1  0.44433000  0.42739000  0.06394000  1.0
  H  H39  1  0.94433000  0.07261000  0.43606000  1.0
  C  C40  1  0.16441000  0.79477000  0.73896000  1.0
  C  C41  1  0.66441000  0.70523000  0.76104000  1.0
  C  C42  1  0.83559000  0.20523000  0.26104000  1.0
  C  C43  1  0.33560000  0.29477000  0.23896000  1.0
  C  C44  1  0.21077000  0.91834000  0.80459000  1.0
  C  C45  1  0.71077000  0.58166000  0.69541000  1.0
  C  C46  1  0.78923000  0.08166000  0.19541000  1.0
  C  C47  1  0.28923000  0.41834000  0.30459000  1.0
  C  C48  1  0.34318000  0.96261000  0.84955000  1.0
  C  C49  1  0.84318000  0.53739000  0.65045000  1.0
  C  C50  1  0.65682000  0.03739000  0.15045000  1.0
  C  C51  1  0.15682000  0.46261000  0.34955000  1.0
  C  C52  1  0.31427000  0.08659000  0.90319000  1.0
  C  C53  1  0.81426000  0.41341000  0.59681000  1.0
  C  C54  1  0.68574000  0.91342000  0.09681000  1.0
  C  C55  1  0.18574000  0.58659000  0.40319000  1.0
  C  C56  1  0.40555000  0.18825000  0.96265000  1.0
  C  C57  1  0.90554000  0.31175000  0.53734000  1.0
  C  C58  1  0.59446000  0.81175000  0.03734000  1.0
  C  C59  1  0.09446000  0.68825000  0.46265000  1.0
  C  C60  1  0.13891000  0.68216000  0.94091000  1.0
  C  C61  1  0.63892000  0.81785000  0.55909000  1.0
  C  C62  1  0.86109000  0.31784000  0.05909000  1.0
  C  C63  1  0.36108000  0.18216000  0.44091000  1.0
  C  C64  1  0.05988000  0.56733000  0.88648000  1.0
  C  C65  1  0.55988000  0.93267000  0.61352000  1.0
  C  C66  1  0.94012000  0.43267000  0.11352000  1.0
  C  C67  1  0.44012000  0.06733000  0.38647000  1.0
  C  C68  1  0.92345000  0.51572000  0.89867000  1.0
  C  C69  1  0.42345000  0.98428000  0.60133000  1.0
  C  C70  1  0.07655000  0.48428000  0.10133000  1.0
  C  C71  1  0.57655000  0.01572000  0.39867000  1.0
  C  C72  1  0.92392000  0.39555000  0.83310000  1.0
  C  C73  1  0.42393000  0.10445000  0.66690000  1.0
  C  C74  1  0.07607000  0.60445000  0.16690000  1.0
  C  C75  1  0.57607000  0.89555000  0.33310000  1.0
  C  C76  1  0.82318000  0.28577000  0.81271000  1.0
  C  C77  1  0.32318000  0.21423000  0.68729000  1.0
  C  C78  1  0.17682000  0.71423000  0.18729000  1.0
  C  C79  1  0.67682000  0.78577000  0.31271000  1.0
  N  N80  1  0.17146000  0.10960000  0.88842000  1.0
  N  N81  1  0.67146000  0.39040000  0.61158000  1.0
  N  N82  1  0.82854000  0.89040000  0.11158000  1.0
  N  N83  1  0.32854000  0.60960000  0.38842000  1.0
  N  N84  1  0.10772000  0.00942000  0.82962000  1.0
  N  N85  1  0.60771000  0.49058000  0.67038000  1.0
  N  N86  1  0.89228000  0.99058000  0.17038000  1.0
  N  N87  1  0.39229000  0.50942000  0.32962000  1.0
  N  N88  1  0.13536000  0.48528000  0.81605000  1.0
  N  N89  1  0.63536000  0.01472000  0.68395000  1.0
  N  N90  1  0.86464000  0.51472000  0.18395000  1.0
  N  N91  1  0.36464000  0.98527000  0.31605000  1.0
  N  N92  1  0.05277000  0.38310000  0.78540000  1.0
  N  N93  1  0.55277000  0.11690000  0.71460000  1.0
  N  N94  1  0.94722000  0.61690000  0.21460000  1.0
  N  N95  1  0.44722000  0.88310000  0.28540000  1.0
  O  O96  1  0.24840000  0.70027000  0.72179000  1.0
  O  O97  1  0.74840000  0.79973000  0.77821000  1.0
  O  O98  1  0.75160000  0.29973000  0.27821000  1.0
  O  O99  1  0.25161000  0.20027000  0.22179000  1.0
  O  O100  1  0.03684000  0.79134000  0.70422000  1.0
  O  O101  1  0.53684000  0.70866000  0.79578000  1.0
  O  O102  1  0.96316000  0.20866000  0.29578000  1.0
  O  O103  1  0.46316000  0.29134000  0.20422000  1.0
  O  O104  1  0.27447000  0.68647000  0.91917000  1.0
  O  O105  1  0.77447000  0.81353000  0.58082000  1.0
  O  O106  1  0.72553000  0.31353000  0.08082000  1.0
  O  O107  1  0.22553000  0.18647000  0.41917000  1.0
  O  O108  1  0.07218000  0.76474000  0.00477000  1.0
  O  O109  1  0.57218000  0.73526000  0.49523000  1.0
  O  O110  1  0.92782000  0.23526000  0.99523000  1.0
  O  O111  1  0.42782000  0.26474000  0.50477000  1.0
  O  O112  1  0.69254000  0.30324000  0.84135000  1.0
  O  O113  1  0.19254000  0.19676000  0.65865000  1.0
  O  O114  1  0.30746000  0.69676000  0.15865000  1.0
  O  O115  1  0.80746000  0.80324000  0.34135000  1.0
  O  O116  1  0.87733000  0.18008000  0.76628000  1.0
  O  O117  1  0.37733000  0.31992000  0.73371000  1.0
  O  O118  1  0.12267000  0.81992000  0.23371000  1.0
  O  O119  1  0.62267000  0.68008000  0.26628000  1.0
  O  O120  1  0.35760000  0.29708000  0.99415000  1.0
  O  O121  1  0.85759000  0.20291000  0.50584000  1.0
  O  O122  1  0.64241000  0.70292000  0.00584000  1.0
  O  O123  1  0.14241000  0.79708000  0.49415000  1.0
  O  O124  1  0.53912000  0.15050000  0.97611000  1.0
  O  O125  1  0.03912000  0.34950000  0.52389000  1.0
  O  O126  1  0.46088000  0.84950000  0.02389000  1.0
  O  O127  1  0.96088000  0.65050000  0.47611000  1.0
  O  O128  1  0.30736000  0.47438000  0.59967000  1.0
  O  O129  1  0.80736000  0.02561000  0.90033000  1.0
  O  O130  1  0.69264000  0.52561000  0.40033000  1.0
  O  O131  1  0.19263000  0.97439000  0.09967000  1.0
  O  O132  1  0.51253000  0.49956000  0.88735000  1.0
  O  O133  1  0.01253000  0.00044000  0.61265000  1.0
  O  O134  1  0.48747000  0.50044000  0.11265000  1.0
  O  O135  1  0.98747000  0.99956000  0.38735000  1.0
