# generated using pymatgen
data_Zn4H18C43N4(O8F5)2
_symmetry_space_group_name_H-M   'P 1'
_cell_length_a   9.71306000
_cell_length_b   11.06880000
_cell_length_c   22.09990000
_cell_angle_alpha   89.93960000
_cell_angle_beta   88.76670000
_cell_angle_gamma   89.54230000
_symmetry_Int_Tables_number   1
_chemical_formula_structural   Zn4H18C43N4(O8F5)2
_chemical_formula_sum   'Zn4 H18 C43 N4 O16 F10'
_cell_volume   2375.37551244
_cell_formula_units_Z   1
loop_
 _symmetry_equiv_pos_site_id
 _symmetry_equiv_pos_as_xyz
  1  'x, y, z'
loop_
 _atom_site_type_symbol
 _atom_site_label
 _atom_site_symmetry_multiplicity
 _atom_site_fract_x
 _atom_site_fract_y
 _atom_site_fract_z
 _atom_site_occupancy
  Zn  Zn0  1  0.63934000  0.49768000  0.50230000  1.0
  Zn  Zn1  1  0.35871000  0.50864000  0.49961000  1.0
  Zn  Zn2  1  0.36123000  0.49805000  0.00348000  1.0
  Zn  Zn3  1  0.64302000  0.50405000  0.99902000  1.0
  H  H4  1  0.14545000  0.33815000  0.46450000  1.0
  H  H5  1  0.85123000  0.67267000  0.53623000  1.0
  H  H6  1  0.28045000  0.87746000  0.49885000  1.0
  H  H7  1  0.69942000  0.12883000  0.50259000  1.0
  H  H8  1  0.27862000  0.48408000  0.81004000  1.0
  H  H9  1  0.81340000  0.59592000  0.80387000  1.0
  H  H10  1  0.82618000  0.43498000  0.80329000  1.0
  H  H11  1  0.82217000  0.43615000  0.68936000  1.0
  H  H12  1  0.80859000  0.59702000  0.68994000  1.0
  H  H13  1  0.73720000  0.49761000  0.19229000  1.0
  H  H14  1  0.29808000  0.50114000  0.31029000  1.0
  H  H15  1  0.85668000  0.33899000  0.04386000  1.0
  H  H16  1  0.14751000  0.66043000  0.95949000  1.0
  H  H17  1  0.70592000  0.87379000  0.00368000  1.0
  H  H18  1  0.28502000  0.12846000  0.99959000  1.0
  H  H19  1  0.20292000  0.55746000  0.66611000  1.0
  H  H20  1  0.22903000  0.40052000  0.66025000  1.0
  H  H21  1  0.15106000  0.46170000  0.72747000  1.0
  C  C22  1  0.50613000  0.73896000  0.49974000  1.0
  C  C23  1  0.50232000  0.50181000  0.61832000  1.0
  C  C24  1  0.47455000  0.26729000  0.50193000  1.0
  C  C25  1  0.51202000  0.49868000  0.38365000  1.0
  C  C26  1  0.48142000  0.73715000  0.00263000  1.0
  C  C27  1  0.49669000  0.50139000  0.88364000  1.0
  C  C28  1  0.50870000  0.26510000  0.00122000  1.0
  C  C29  1  0.52102000  0.49988000  0.11887000  1.0
  C  C30  1  0.93664000  0.40920000  0.47892000  1.0
  C  C31  1  0.06048000  0.60196000  0.52144000  1.0
  C  C32  1  0.07983000  0.41306000  0.47958000  1.0
  C  C33  1  0.91727000  0.59819000  0.52075000  1.0
  C  C34  1  0.47816000  0.13158000  0.50221000  1.0
  C  C35  1  0.50164000  0.87459000  0.50126000  1.0
  C  C36  1  0.36181000  0.05734000  0.50133000  1.0
  C  C37  1  0.61793000  0.94885000  0.50270000  1.0
  C  C38  1  0.37269000  0.93245000  0.50048000  1.0
  C  C39  1  0.60716000  0.07367000  0.50268000  1.0
  C  C40  1  0.49772000  0.49873000  0.81623000  1.0
  C  C41  1  0.49453000  0.49820000  0.68572000  1.0
  C  C42  1  0.61855000  0.50435000  0.78137000  1.0
  C  C43  1  0.36946000  0.48931000  0.72044000  1.0
  C  C44  1  0.61585000  0.50430000  0.71833000  1.0
  C  C45  1  0.37480000  0.49041000  0.78386000  1.0
  C  C46  1  0.77404000  0.51325000  0.78313000  1.0
  C  C47  1  0.77128000  0.51368000  0.71161000  1.0
  C  C48  1  0.51865000  0.49821000  0.31579000  1.0
  C  C49  1  0.51633000  0.49991000  0.18678000  1.0
  C  C50  1  0.64123000  0.49704000  0.28079000  1.0
  C  C51  1  0.39384000  0.50110000  0.22183000  1.0
  C  C52  1  0.64041000  0.49810000  0.21807000  1.0
  C  C53  1  0.39477000  0.50017000  0.28451000  1.0
  C  C54  1  0.06471000  0.41010000  0.02993000  1.0
  C  C55  1  0.93978000  0.58883000  0.97307000  1.0
  C  C56  1  0.92182000  0.41053000  0.02544000  1.0
  C  C57  1  0.08250000  0.58862000  0.97766000  1.0
  C  C58  1  0.50608000  0.12951000  0.00207000  1.0
  C  C59  1  0.48473000  0.87273000  0.00235000  1.0
  C  C60  1  0.62307000  0.05441000  0.00337000  1.0
  C  C61  1  0.36773000  0.94788000  0.00110000  1.0
  C  C62  1  0.61321000  0.92961000  0.00326000  1.0
  C  C63  1  0.37765000  0.07262000  0.00089000  1.0
  C  C64  1  0.23038000  0.47657000  0.69217000  1.0
  N  N65  1  0.85684000  0.49895000  0.49921000  1.0
  N  N66  1  0.14045000  0.51206000  0.50130000  1.0
  N  N67  1  0.14355000  0.49663000  0.00654000  1.0
  N  N68  1  0.86086000  0.50245000  0.99649000  1.0
  O  O69  1  0.61787000  0.68495000  0.51245000  1.0
  O  O70  1  0.39389000  0.68822000  0.48582000  1.0
  O  O71  1  0.39271000  0.52539000  0.58955000  1.0
  O  O72  1  0.62081000  0.48238000  0.59372000  1.0
  O  O73  1  0.35916000  0.32142000  0.50892000  1.0
  O  O74  1  0.59069000  0.31808000  0.49468000  1.0
  O  O75  1  0.62304000  0.51798000  0.41138000  1.0
  O  O76  1  0.39403000  0.48068000  0.40836000  1.0
  O  O77  1  0.36560000  0.68503000  0.00795000  1.0
  O  O78  1  0.59824000  0.68464000  0.99773000  1.0
  O  O79  1  0.61354000  0.49021000  0.90869000  1.0
  O  O80  1  0.38094000  0.51498000  0.91130000  1.0
  O  O81  1  0.62283000  0.31829000  0.00852000  1.0
  O  O82  1  0.39292000  0.31663000  0.99318000  1.0
  O  O83  1  0.40726000  0.48700000  0.09227000  1.0
  O  O84  1  0.63867000  0.51189000  0.09302000  1.0
  F  F85  1  0.87491000  0.31170000  0.45729000  1.0
  F  F86  1  0.12222000  0.69904000  0.54378000  1.0
  F  F87  1  0.23245000  0.10572000  0.50017000  1.0
  F  F88  1  0.74729000  0.90034000  0.50296000  1.0
  F  F89  1  0.76629000  0.49349000  0.30723000  1.0
  F  F90  1  0.26852000  0.50422000  0.19575000  1.0
  F  F91  1  0.12708000  0.32002000  0.05891000  1.0
  F  F92  1  0.87723000  0.67877000  0.94390000  1.0
  F  F93  1  0.75196000  0.10180000  0.00420000  1.0
  F  F94  1  0.23886000  0.90071000  0.99922000  1.0
