# generated using pymatgen
data_ZnH18C23N5
_symmetry_space_group_name_H-M   'P 1'
_cell_length_a   18.92570000
_cell_length_b   19.30370000
_cell_length_c   20.33360000
_cell_angle_alpha   107.74100000
_cell_angle_beta   105.31000000
_cell_angle_gamma   112.33700000
_symmetry_Int_Tables_number   1
_chemical_formula_structural   ZnH18C23N5
_chemical_formula_sum   'Zn4 H72 C92 N20'
_cell_volume   5904.84311990
_cell_formula_units_Z   4
loop_
 _symmetry_equiv_pos_site_id
 _symmetry_equiv_pos_as_xyz
  1  'x, y, z'
loop_
 _atom_site_type_symbol
 _atom_site_label
 _atom_site_symmetry_multiplicity
 _atom_site_fract_x
 _atom_site_fract_y
 _atom_site_fract_z
 _atom_site_occupancy
  Zn  Zn0  1  0.11289000  0.10814000  0.50690000  1.0
  Zn  Zn1  1  0.88904000  0.88871000  0.49943000  1.0
  Zn  Zn2  1  0.99962000  0.90375000  0.40118000  1.0
  Zn  Zn3  1  0.99441000  0.09199000  0.60004000  1.0
  H  H4  1  0.21398000  0.15600000  0.39651000  1.0
  H  H5  1  0.71288000  0.84610000  0.52831000  1.0
  H  H6  1  0.69938000  0.23610000  0.32658000  1.0
  H  H7  1  0.78569000  0.17471000  0.37264000  1.0
  H  H8  1  0.05745000  0.32563000  0.48348000  1.0
  H  H9  1  0.12905000  0.47237000  0.50685000  1.0
  H  H10  1  0.12081000  0.59480000  0.49813000  1.0
  H  H11  1  0.24097000  0.84235000  0.54412000  1.0
  H  H12  1  0.38082000  0.11207000  0.67140000  1.0
  H  H13  1  0.66938000  0.18932000  0.72581000  1.0
  H  H14  1  0.73751000  0.11334000  0.67737000  1.0
  H  H15  1  0.84199000  0.69706000  0.47968000  1.0
  H  H16  1  0.87850000  0.91107000  0.25976000  1.0
  H  H17  1  0.59707000  0.84289000  0.54866000  1.0
  H  H18  1  0.44670000  0.76340000  0.52340000  1.0
  H  H19  1  0.31633000  0.76362000  0.52374000  1.0
  H  H20  1  0.75972000  0.85624000  0.15154000  1.0
  H  H21  1  0.62941000  0.76426000  0.03005000  1.0
  H  H22  1  0.49050000  0.57248000  0.84272000  1.0
  H  H23  1  0.38108000  0.43204000  0.73414000  1.0
  H  H24  1  0.60785000  0.84027000  0.27772000  1.0
  H  H25  1  0.31801000  0.56598000  0.94502000  1.0
  H  H26  1  0.11694000  0.85038000  0.49684000  1.0
  H  H27  1  0.47778000  0.74931000  0.15484000  1.0
  H  H28  1  0.86570000  0.13905000  0.51131000  1.0
  H  H29  1  0.20708000  0.42688000  0.83626000  1.0
  H  H30  1  0.27419000  0.06766000  0.96095000  1.0
  H  H31  1  0.25638000  0.15313000  0.16461000  1.0
  H  H32  1  0.22896000  0.15833000  0.27884000  1.0
  H  H33  1  0.00767000  0.84111000  0.73373000  1.0
  H  H34  1  0.15834000  0.88708000  0.07657000  1.0
  H  H35  1  0.04497000  0.83134000  0.85644000  1.0
  H  H36  1  0.13635000  0.89194000  0.19262000  1.0
  H  H37  1  0.13462000  0.10985000  0.74925000  1.0
  H  H38  1  0.72757000  0.88260000  0.38774000  1.0
  H  H39  1  0.03066000  0.17026000  0.39708000  1.0
  H  H40  1  0.85055000  0.11740000  0.65611000  1.0
  H  H41  1  0.05606000  0.88631000  0.25981000  1.0
  H  H42  1  0.27582000  0.30538000  0.63051000  1.0
  H  H43  1  0.06163000  0.64287000  0.23976000  1.0
  H  H44  1  0.09118000  0.74543000  0.24843000  1.0
  H  H45  1  0.16524000  0.72812000  0.30505000  1.0
  H  H46  1  0.10538000  0.79602000  0.38285000  1.0
  H  H47  1  0.07966000  0.69570000  0.37735000  1.0
  H  H48  1  0.99719000  0.83916000  0.61200000  1.0
  H  H49  1  0.93693000  0.63248000  0.27173000  1.0
  H  H50  1  0.96129000  0.73132000  0.27472000  1.0
  H  H51  1  0.59841000  0.46241000  0.19185000  1.0
  H  H52  1  0.67164000  0.57084000  0.22896000  1.0
  H  H53  1  0.65245000  0.49783000  0.13922000  1.0
  H  H54  1  0.79131000  0.54162000  0.24242000  1.0
  H  H55  1  0.72134000  0.43296000  0.20375000  1.0
  H  H56  1  0.68642000  0.45503000  0.31459000  1.0
  H  H57  1  0.74234000  0.56452000  0.34863000  1.0
  H  H58  1  0.64146000  0.32503000  0.68776000  1.0
  H  H59  1  0.26582000  0.12132000  0.63215000  1.0
  H  H60  1  0.58344000  0.22182000  0.61097000  1.0
  H  H61  1  0.55754000  0.29915000  0.60337000  1.0
  H  H62  1  0.45223000  0.20129000  0.63141000  1.0
  H  H63  1  0.51027000  0.30385000  0.70798000  1.0
  H  H64  1  0.50213000  0.21107000  0.76552000  1.0
  H  H65  1  0.60719000  0.26303000  0.77765000  1.0
  H  H66  1  0.40373000  0.15237000  0.79958000  1.0
  H  H67  1  0.42153000  0.23490000  0.88267000  1.0
  H  H68  1  0.48449000  0.18627000  0.88957000  1.0
  H  H69  1  0.37538000  0.13132000  0.93596000  1.0
  H  H70  1  0.11628000  0.28489000  0.75003000  1.0
  H  H71  1  0.35683000  0.05016000  0.85257000  1.0
  H  H72  1  0.24995000  0.07481000  0.77333000  1.0
  H  H73  1  0.26444000  0.15080000  0.85806000  1.0
  H  H74  1  0.03519000  0.65683000  0.46032000  1.0
  H  H75  1  0.69062000  0.35337000  0.31160000  1.0
  C  C76  1  0.16998000  0.08912000  0.37183000  1.0
  C  C77  1  0.21864000  0.05586000  0.59339000  1.0
  C  C78  1  0.14562000  0.27671000  0.71117000  1.0
  C  C79  1  0.75790000  0.91314000  0.55764000  1.0
  C  C80  1  0.93742000  0.71739000  0.36740000  1.0
  C  C81  1  0.22330000  0.33323000  0.71675000  1.0
  C  C82  1  0.90132000  0.66743000  0.40050000  1.0
  C  C83  1  0.22430000  0.98260000  0.58031000  1.0
  C  C84  1  0.08596000  0.97059000  0.70930000  1.0
  C  C85  1  0.97755000  0.59585000  0.43323000  1.0
  C  C86  1  0.89978000  0.58945000  0.39739000  1.0
  C  C87  1  0.74960000  0.98050000  0.59880000  1.0
  C  C88  1  0.82343000  0.51200000  0.36343000  1.0
  C  C89  1  0.82686000  0.44171000  0.36926000  1.0
  C  C90  1  0.90712000  0.44923000  0.40635000  1.0
  C  C91  1  0.85244000  0.90718000  0.30094000  1.0
  C  C92  1  0.98348000  0.52725000  0.43762000  1.0
  C  C93  1  0.75273000  0.36157000  0.34024000  1.0
  C  C94  1  0.75740000  0.29545000  0.34845000  1.0
  C  C95  1  0.83690000  0.30149000  0.38506000  1.0
  C  C96  1  0.91202000  0.37970000  0.41303000  1.0
  C  C97  1  0.99269000  0.38792000  0.44869000  1.0
  C  C98  1  0.77016000  0.88726000  0.29415000  1.0
  C  C99  1  0.06806000  0.46701000  0.47900000  1.0
  C  C100  1  0.06346000  0.53416000  0.47405000  1.0
  C  C101  1  0.84333000  0.23419000  0.39389000  1.0
  C  C102  1  0.92246000  0.24211000  0.42831000  1.0
  C  C103  1  0.91057000  0.13840000  0.48739000  1.0
  C  C104  1  0.99596000  0.31885000  0.45472000  1.0
  C  C105  1  0.30104000  0.90166000  0.57689000  1.0
  C  C106  1  0.30172000  0.97806000  0.60499000  1.0
  C  C107  1  0.38026000  0.05297000  0.64851000  1.0
  C  C108  1  0.45716000  0.05497000  0.65809000  1.0
  C  C109  1  0.93590000  0.17694000  0.44284000  1.0
  C  C110  1  0.45504000  0.97716000  0.62343000  1.0
  C  C111  1  0.37616000  0.89978000  0.58503000  1.0
  C  C112  1  0.53747000  0.13301000  0.69737000  1.0
  C  C113  1  0.60884000  0.13057000  0.69708000  1.0
  C  C114  1  0.60753000  0.05414000  0.65847000  1.0
  C  C115  1  0.77546000  0.89265000  0.36621000  1.0
  C  C116  1  0.52970000  0.97664000  0.62320000  1.0
  C  C117  1  0.52715000  0.89959000  0.58492000  1.0
  C  C118  1  0.44828000  0.82255000  0.55094000  1.0
  C  C119  1  0.37623000  0.82274000  0.55122000  1.0
  C  C120  1  0.22711000  0.28699000  0.65052000  1.0
  C  C121  1  0.67898000  0.05336000  0.65164000  1.0
  C  C122  1  0.67611000  0.97837000  0.61078000  1.0
  C  C123  1  0.60036000  0.90206000  0.57956000  1.0
  C  C124  1  0.28589000  0.41789000  0.77741000  1.0
  C  C125  1  0.26928000  0.45827000  0.83732000  1.0
  C  C126  1  0.33051000  0.53630000  0.89802000  1.0
  C  C127  1  0.99557000  0.15507000  0.42998000  1.0
  C  C128  1  0.41144000  0.57747000  0.90061000  1.0
  C  C129  1  0.42751000  0.53960000  0.83970000  1.0
  C  C130  1  0.36603000  0.46118000  0.77942000  1.0
  C  C131  1  0.87365000  0.71288000  0.44455000  1.0
  C  C132  1  0.62580000  0.78225000  0.08475000  1.0
  C  C133  1  0.69817000  0.83328000  0.15303000  1.0
  C  C134  1  0.54560000  0.74813000  0.08515000  1.0
  C  C135  1  0.69422000  0.85177000  0.22443000  1.0
  C  C136  1  0.61349000  0.82470000  0.22380000  1.0
  C  C137  1  0.54033000  0.77391000  0.15534000  1.0
  C  C138  1  0.17731000  0.02476000  0.24280000  1.0
  C  C139  1  0.82800000  0.05124000  0.62270000  1.0
  C  C140  1  0.16107000  0.94925000  0.18604000  1.0
  C  C141  1  0.17418000  0.94604000  0.12164000  1.0
  C  C142  1  0.14275000  0.91784000  0.52416000  1.0
  C  C143  1  0.20630000  0.01964000  0.11265000  1.0
  C  C144  1  0.23018000  0.09650000  0.17195000  1.0
  C  C145  1  0.21488000  0.09883000  0.23564000  1.0
  C  C146  1  0.21643000  0.01839000  0.90983000  1.0
  C  C147  1  0.19965000  0.02269000  0.84062000  1.0
  C  C148  1  0.15921000  0.95194000  0.91671000  1.0
  C  C149  1  0.12009000  0.96065000  0.77717000  1.0
  C  C150  1  0.06762000  0.88992000  0.78289000  1.0
  C  C151  1  0.09043000  0.95158000  0.30277000  1.0
  C  C152  1  0.08731000  0.88417000  0.85099000  1.0
  C  C153  1  0.09413000  0.04494000  0.70572000  1.0
  C  C154  1  0.15019000  0.02307000  0.30340000  1.0
  C  C155  1  0.97313000  0.70045000  0.31059000  1.0
  C  C156  1  0.06791000  0.72828000  0.34340000  1.0
  C  C157  1  0.09810000  0.71006000  0.28077000  1.0
  C  C158  1  0.74206000  0.50633000  0.31870000  1.0
  C  C159  1  0.73137000  0.49535000  0.23769000  1.0
  C  C160  1  0.65948000  0.50701000  0.19713000  1.0
  C  C161  1  0.54184000  0.21609000  0.73434000  1.0
  C  C162  1  0.51571000  0.24948000  0.67759000  1.0
  C  C163  1  0.57785000  0.27521000  0.64294000  1.0
  C  C164  1  0.02285000  0.90670000  0.63609000  1.0
  C  C165  1  0.26585000  0.09195000  0.83423000  1.0
  C  C166  1  0.35623000  0.10955000  0.87411000  1.0
  C  C167  1  0.42016000  0.17453000  0.86101000  1.0
  N  N168  1  0.12579000  0.05910000  0.40852000  1.0
  N  N169  1  0.47026000  0.68267000  0.02068000  1.0
  N  N170  1  0.21023000  0.02154000  0.04490000  1.0
  N  N171  1  0.83469000  0.94162000  0.55750000  1.0
  N  N172  1  0.16412000  0.95002000  0.98627000  1.0
  N  N173  1  0.90093000  0.92119000  0.37044000  1.0
  N  N174  1  0.95403000  0.09877000  0.50137000  1.0
  N  N175  1  0.85363000  0.91216000  0.41050000  1.0
  N  N176  1  0.00559000  0.10847000  0.46532000  1.0
  N  N177  1  0.87837000  0.02772000  0.59801000  1.0
  N  N178  1  0.07611000  0.97334000  0.36515000  1.0
  N  N179  1  0.89168000  0.78471000  0.43892000  1.0
  N  N180  1  0.15780000  0.21011000  0.60944000  1.0
  N  N181  1  0.09421000  0.95075000  0.50429000  1.0
  N  N182  1  0.03905000  0.02564000  0.63669000  1.0
  N  N183  1  0.99557000  0.94083000  0.59389000  1.0
  N  N184  1  0.14087000  0.03553000  0.54708000  1.0
  N  N185  1  0.10695000  0.20363000  0.64732000  1.0
  N  N186  1  0.93118000  0.78761000  0.39125000  1.0
  N  N187  1  0.48199000  0.65118000  0.96248000  1.0
