# generated using pymatgen
data_SrH8C14S2O9
_symmetry_space_group_name_H-M   'P 1'
_cell_length_a   5.28977000
_cell_length_b   10.32190000
_cell_length_c   14.55840000
_cell_angle_alpha   104.03400000
_cell_angle_beta   100.13200000
_cell_angle_gamma   96.89000000
_symmetry_Int_Tables_number   1
_chemical_formula_structural   SrH8C14S2O9
_chemical_formula_sum   'Sr2 H16 C28 S4 O18'
_cell_volume   748.05624113
_cell_formula_units_Z   2
loop_
 _symmetry_equiv_pos_site_id
 _symmetry_equiv_pos_as_xyz
  1  'x, y, z'
loop_
 _atom_site_type_symbol
 _atom_site_label
 _atom_site_symmetry_multiplicity
 _atom_site_fract_x
 _atom_site_fract_y
 _atom_site_fract_z
 _atom_site_occupancy
  Sr  Sr0  1  0.15743000  0.73883000  0.97694000  1.0
  Sr  Sr1  1  0.84256000  0.26117000  0.02306000  1.0
  H  H2  1  0.83176000  0.30793000  0.75701000  1.0
  H  H3  1  0.16824000  0.69207000  0.24299000  1.0
  H  H4  1  0.90639000  0.29173000  0.59058000  1.0
  H  H5  1  0.09359000  0.70826000  0.40942000  1.0
  H  H6  1  0.28688000  0.58041000  0.71775000  1.0
  H  H7  1  0.71309000  0.41958000  0.28224000  1.0
  H  H8  1  0.92577000  0.79509000  0.73278000  1.0
  H  H9  1  0.07423000  0.20491000  0.26723000  1.0
  H  H10  1  0.94958000  0.79885000  0.56499000  1.0
  H  H11  1  0.05043000  0.20116000  0.43502000  1.0
  H  H12  1  0.33465000  0.05086000  0.72815000  1.0
  H  H13  1  0.66537000  0.94914000  0.27186000  1.0
  H  H14  1  0.75781000  0.75754000  0.11438000  1.0
  H  H15  1  0.24218000  0.24246000  0.88562000  1.0
  H  H16  1  0.83817000  0.90320000  0.10774000  1.0
  H  H17  1  0.16185000  0.09680000  0.89226000  1.0
  C  C18  1  0.55667000  0.44606000  0.74696000  1.0
  C  C19  1  0.44331000  0.55393000  0.25303000  1.0
  C  C20  1  0.73036000  0.36388000  0.71190000  1.0
  C  C21  1  0.26961000  0.63611000  0.28810000  1.0
  C  C22  1  0.77150000  0.35484000  0.61887000  1.0
  C  C23  1  0.22848000  0.64515000  0.38113000  1.0
  C  C24  1  0.63867000  0.42638000  0.56102000  1.0
  C  C25  1  0.36131000  0.57360000  0.43897000  1.0
  C  C26  1  0.46074000  0.50611000  0.59652000  1.0
  C  C27  1  0.53923000  0.49388000  0.40346000  1.0
  C  C28  1  0.42058000  0.51625000  0.69021000  1.0
  C  C29  1  0.57941000  0.48374000  0.30978000  1.0
  C  C30  1  0.68685000  0.41859000  0.46279000  1.0
  C  C31  1  0.31312000  0.58140000  0.53720000  1.0
  C  C32  1  0.62427000  0.91976000  0.74004000  1.0
  C  C33  1  0.37575000  0.08025000  0.25997000  1.0
  C  C34  1  0.79916000  0.84966000  0.69463000  1.0
  C  C35  1  0.20085000  0.15034000  0.30538000  1.0
  C  C36  1  0.81515000  0.85320000  0.60096000  1.0
  C  C37  1  0.18487000  0.14681000  0.39904000  1.0
  C  C38  1  0.65858000  0.92543000  0.55203000  1.0
  C  C39  1  0.34143000  0.07458000  0.44798000  1.0
  C  C40  1  0.48397000  0.99637000  0.59836000  1.0
  C  C41  1  0.51605000  0.00365000  0.40165000  1.0
  C  C42  1  0.46772000  0.99363000  0.69293000  1.0
  C  C43  1  0.53231000  0.00638000  0.30708000  1.0
  C  C44  1  0.68258000  0.92533000  0.45178000  1.0
  C  C45  1  0.31746000  0.07469000  0.54823000  1.0
  S  S46  1  0.52478000  0.47179000  0.86922000  1.0
  S  S47  1  0.47521000  0.52821000  0.13077000  1.0
  S  S48  1  0.60605000  0.91400000  0.86024000  1.0
  S  S49  1  0.39396000  0.08600000  0.13977000  1.0
  O  O50  1  0.90988000  0.82117000  0.11168000  1.0
  O  O51  1  0.09012000  0.17883000  0.88832000  1.0
  O  O52  1  0.26922000  0.51035000  0.87497000  1.0
  O  O53  1  0.73077000  0.48965000  0.12503000  1.0
  O  O54  1  0.55044000  0.34130000  0.89236000  1.0
  O  O55  1  0.44956000  0.65870000  0.10763000  1.0
  O  O56  1  0.74190000  0.57933000  0.92605000  1.0
  O  O57  1  0.25807000  0.42067000  0.07394000  1.0
  O  O58  1  0.84776000  0.35274000  0.43070000  1.0
  O  O59  1  0.15224000  0.64725000  0.56929000  1.0
  O  O60  1  0.39017000  0.80407000  0.85078000  1.0
  O  O61  1  0.60983000  0.19593000  0.14922000  1.0
  O  O62  1  0.86099000  0.88762000  0.90291000  1.0
  O  O63  1  0.13901000  0.11238000  0.09710000  1.0
  O  O64  1  0.55098000  0.04709000  0.90923000  1.0
  O  O65  1  0.44901000  0.95291000  0.09077000  1.0
  O  O66  1  0.83606000  0.86230000  0.41159000  1.0
  O  O67  1  0.16400000  0.13774000  0.58842000  1.0
