# generated using pymatgen
data_LaH3CSO7
_symmetry_space_group_name_H-M   'P 1'
_cell_length_a   7.02612000
_cell_length_b   7.02831000
_cell_length_c   11.74690000
_cell_angle_alpha   89.99910000
_cell_angle_beta   89.99990000
_cell_angle_gamma   89.95560000
_symmetry_Int_Tables_number   1
_chemical_formula_structural   LaH3CSO7
_chemical_formula_sum   'La4 H12 C4 S4 O28'
_cell_volume   580.08229845
_cell_formula_units_Z   4
loop_
 _symmetry_equiv_pos_site_id
 _symmetry_equiv_pos_as_xyz
  1  'x, y, z'
loop_
 _atom_site_type_symbol
 _atom_site_label
 _atom_site_symmetry_multiplicity
 _atom_site_fract_x
 _atom_site_fract_y
 _atom_site_fract_z
 _atom_site_occupancy
  La  La0  1  0.64627000  0.10763000  0.84371000  1.0
  La  La1  1  0.35373000  0.89237000  0.34369000  1.0
  La  La2  1  0.10717000  0.35395000  0.59355000  1.0
  La  La3  1  0.89281000  0.64606000  0.09354000  1.0
  H  H4  1  0.16499000  0.00466000  0.88749000  1.0
  H  H5  1  0.83499000  0.99533000  0.38748000  1.0
  H  H6  1  0.00411000  0.83544000  0.63760000  1.0
  H  H7  1  0.99586000  0.16458000  0.13761000  1.0
  H  H8  1  0.41299000  0.19058000  0.07358000  1.0
  H  H9  1  0.58701000  0.80941000  0.57358000  1.0
  H  H10  1  0.18954000  0.58761000  0.82342000  1.0
  H  H11  1  0.81045000  0.41239000  0.32343000  1.0
  H  H12  1  0.47609000  0.38349000  0.01953000  1.0
  H  H13  1  0.52390000  0.61650000  0.51953000  1.0
  H  H14  1  0.38260000  0.52422000  0.76955000  1.0
  H  H15  1  0.61741000  0.47578000  0.26955000  1.0
  C  C16  1  0.15684000  0.08961000  0.80887000  1.0
  C  C17  1  0.84315000  0.91038000  0.30886000  1.0
  C  C18  1  0.08897000  0.84339000  0.55896000  1.0
  C  C19  1  0.91103000  0.15662000  0.05897000  1.0
  S  S20  1  0.38320000  0.74593000  0.03207000  1.0
  S  S21  1  0.61682000  0.25406000  0.53209000  1.0
  S  S22  1  0.74545000  0.61693000  0.78193000  1.0
  S  S23  1  0.25453000  0.38307000  0.28192000  1.0
  O  O24  1  0.32305000  0.85755000  0.13301000  1.0
  O  O25  1  0.67697000  0.14248000  0.63299000  1.0
  O  O26  1  0.85786000  0.67647000  0.88265000  1.0
  O  O27  1  0.14215000  0.32351000  0.38265000  1.0
  O  O28  1  0.53375000  0.60529000  0.06511000  1.0
  O  O29  1  0.46626000  0.39471000  0.56511000  1.0
  O  O30  1  0.60489000  0.46666000  0.81512000  1.0
  O  O31  1  0.39511000  0.53335000  0.31512000  1.0
  O  O32  1  0.46228000  0.87309000  0.94410000  1.0
  O  O33  1  0.53773000  0.12689000  0.44409000  1.0
  O  O34  1  0.87194000  0.53787000  0.69348000  1.0
  O  O35  1  0.12807000  0.46211000  0.19349000  1.0
  O  O36  1  0.21359000  0.64711000  0.98509000  1.0
  O  O37  1  0.78642000  0.35291000  0.48508000  1.0
  O  O38  1  0.64640000  0.78685000  0.73534000  1.0
  O  O39  1  0.35362000  0.21316000  0.23534000  1.0
  O  O40  1  0.30867000  0.13200000  0.75643000  1.0
  O  O41  1  0.69133000  0.86801000  0.25643000  1.0
  O  O42  1  0.13120000  0.69158000  0.50646000  1.0
  O  O43  1  0.86878000  0.30842000  0.00647000  1.0
  O  O44  1  0.99360000  0.14120000  0.77219000  1.0
  O  O45  1  0.00641000  0.85880000  0.27218000  1.0
  O  O46  1  0.14050000  0.00659000  0.52222000  1.0
  O  O47  1  0.85949000  0.99342000  0.02223000  1.0
  O  O48  1  0.45007000  0.24830000  0.00065000  1.0
  O  O49  1  0.54992000  0.75168000  0.50065000  1.0
  O  O50  1  0.24743000  0.55039000  0.75053000  1.0
  O  O51  1  0.75258000  0.44961000  0.25054000  1.0
