# generated using pymatgen
data_CuH12C8SN6O5
_symmetry_space_group_name_H-M   'P 1'
_cell_length_a   5.19970000
_cell_length_b   6.36180000
_cell_length_c   19.84070000
_cell_angle_alpha   88.63440000
_cell_angle_beta   85.74650000
_cell_angle_gamma   88.56940000
_symmetry_Int_Tables_number   1
_chemical_formula_structural   CuH12C8SN6O5
_chemical_formula_sum   'Cu2 H24 C16 S2 N12 O10'
_cell_volume   654.14868004
_cell_formula_units_Z   2
loop_
 _symmetry_equiv_pos_site_id
 _symmetry_equiv_pos_as_xyz
  1  'x, y, z'
loop_
 _atom_site_type_symbol
 _atom_site_label
 _atom_site_symmetry_multiplicity
 _atom_site_fract_x
 _atom_site_fract_y
 _atom_site_fract_z
 _atom_site_occupancy
  Cu  Cu0  1  0.20550000  0.86004000  0.25021000  1.0
  Cu  Cu1  1  0.79421000  0.13974000  0.74985000  1.0
  H  H2  1  0.56479000  0.70538000  0.51944000  1.0
  H  H3  1  0.44413000  0.29851000  0.03115000  1.0
  H  H4  1  0.43774000  0.29528000  0.48036000  1.0
  H  H5  1  0.55465000  0.70195000  0.96877000  1.0
  H  H6  1  0.79481000  0.54863000  0.41256000  1.0
  H  H7  1  0.20954000  0.44031000  0.93052000  1.0
  H  H8  1  0.20648000  0.45139000  0.58719000  1.0
  H  H9  1  0.78942000  0.55971000  0.06931000  1.0
  H  H10  1  0.59751000  0.62878000  0.30464000  1.0
  H  H11  1  0.41911000  0.36651000  0.81632000  1.0
  H  H12  1  0.40237000  0.37050000  0.69524000  1.0
  H  H13  1  0.58012000  0.63329000  0.18356000  1.0
  H  H14  1  0.91874000  0.10019000  0.36273000  1.0
  H  H15  1  0.07602000  0.88912000  0.85730000  1.0
  H  H16  1  0.08197000  0.89948000  0.63736000  1.0
  H  H17  1  0.92307000  0.11073000  0.14282000  1.0
  H  H18  1  0.91563000  0.09120000  0.45092000  1.0
  H  H19  1  0.09136000  0.90354000  0.94631000  1.0
  H  H20  1  0.08609000  0.90917000  0.54916000  1.0
  H  H21  1  0.90759000  0.09670000  0.05381000  1.0
  H  H22  1  0.22319000  0.43375000  0.26127000  1.0
  H  H23  1  0.77665000  0.56611000  0.73870000  1.0
  H  H24  1  0.95858000  0.48921000  0.23417000  1.0
  H  H25  1  0.04087000  0.51058000  0.76598000  1.0
  C  C26  1  0.62505000  0.65135000  0.41148000  1.0
  C  C27  1  0.38400000  0.34278000  0.92468000  1.0
  C  C28  1  0.37623000  0.34869000  0.58833000  1.0
  C  C29  1  0.61498000  0.65728000  0.07521000  1.0
  C  C30  1  0.49831000  0.73731000  0.46915000  1.0
  C  C31  1  0.51350000  0.26406000  0.97920000  1.0
  C  C32  1  0.50364000  0.26309000  0.53070000  1.0
  C  C33  1  0.48543000  0.73624000  0.02074000  1.0
  C  C34  1  0.51526000  0.69741000  0.35122000  1.0
  C  C35  1  0.49813000  0.29775000  0.86121000  1.0
  C  C36  1  0.48523000  0.30221000  0.64867000  1.0
  C  C37  1  0.50102000  0.70222000  0.13872000  1.0
  C  C38  1  0.20242000  0.91328000  0.40533000  1.0
  C  C39  1  0.81354000  0.08913000  0.90797000  1.0
  C  C40  1  0.79887000  0.08682000  0.59467000  1.0
  C  C41  1  0.18555000  0.91099000  0.09206000  1.0
  S  S42  1  0.64265000  0.16762000  0.25480000  1.0
  S  S43  1  0.35694000  0.83218000  0.74540000  1.0
  N  N44  1  0.30754000  0.82617000  0.34683000  1.0
  N  N45  1  0.70960000  0.17321000  0.85166000  1.0
  N  N46  1  0.69293000  0.17346000  0.65316000  1.0
  N  N47  1  0.28966000  0.82685000  0.14834000  1.0
  N  N48  1  0.01153000  0.05612000  0.40481000  1.0
  N  N49  1  0.00140000  0.94280000  0.90288000  1.0
  N  N50  1  0.98976000  0.94397000  0.59523000  1.0
  N  N51  1  0.99768000  0.05732000  0.09720000  1.0
  N  N52  1  0.28833000  0.85991000  0.46676000  1.0
  N  N53  1  0.72867000  0.14688000  0.97166000  1.0
  N  N54  1  0.71364000  0.14056000  0.53318000  1.0
  N  N55  1  0.27029000  0.85343000  0.02835000  1.0
  O  O56  1  0.35823000  0.14821000  0.24077000  1.0
  O  O57  1  0.64132000  0.85162000  0.75944000  1.0
  O  O58  1  0.65792000  0.23784000  0.32414000  1.0
  O  O59  1  0.24894000  0.67292000  0.79587000  1.0
  O  O60  1  0.34191000  0.76129000  0.67611000  1.0
  O  O61  1  0.75023000  0.32738000  0.20442000  1.0
  O  O62  1  0.77699000  0.96085000  0.24298000  1.0
  O  O63  1  0.22278000  0.03914000  0.75697000  1.0
  O  O64  1  0.09764000  0.55215000  0.25932000  1.0
  O  O65  1  0.90213000  0.44770000  0.74072000  1.0
