# generated using pymatgen
data_Zn4H24C36N4O13
_symmetry_space_group_name_H-M   'P 1'
_cell_length_a   18.37560000
_cell_length_b   18.37560000
_cell_length_c   25.22583539
_cell_angle_alpha   111.36283248
_cell_angle_beta   111.36202260
_cell_angle_gamma   89.99290000
_symmetry_Int_Tables_number   1
_chemical_formula_structural   Zn4H24C36N4O13
_chemical_formula_sum   'Zn8 H48 C72 N8 O26'
_cell_volume   7300.78912205
_cell_formula_units_Z   2
loop_
 _symmetry_equiv_pos_site_id
 _symmetry_equiv_pos_as_xyz
  1  'x, y, z'
loop_
 _atom_site_type_symbol
 _atom_site_label
 _atom_site_symmetry_multiplicity
 _atom_site_fract_x
 _atom_site_fract_y
 _atom_site_fract_z
 _atom_site_occupancy
  Zn  Zn0  1  0.22724000  0.81011000  0.44715000  1.0
  Zn  Zn1  1  0.78002000  0.18985000  0.55284000  1.0
  Zn  Zn2  1  0.63701000  0.22718000  0.44716000  1.0
  Zn  Zn3  1  0.36295000  0.78009000  0.55284000  1.0
  Zn  Zn4  1  0.21992000  0.63698000  0.44716000  1.0
  Zn  Zn5  1  0.77282000  0.36301000  0.55284000  1.0
  Zn  Zn6  1  0.81017000  0.21999000  0.44717000  1.0
  Zn  Zn7  1  0.18982000  0.77275000  0.55283000  1.0
  H  H8  1  0.95860000  0.29351000  0.74204000  1.0
  H  H9  1  0.21905000  0.70359000  0.25802000  1.0
  H  H10  1  0.44557000  0.96104000  0.74199000  1.0
  H  H11  1  0.55147000  0.21655000  0.25795000  1.0
  H  H12  1  0.78348000  0.44851000  0.74207000  1.0
  H  H13  1  0.03891000  0.55439000  0.25796000  1.0
  H  H14  1  0.29643000  0.78093000  0.74203000  1.0
  H  H15  1  0.70644000  0.04141000  0.25793000  1.0
  H  H16  1  0.07326000  0.97217000  0.42937000  1.0
  H  H17  1  0.93035000  0.02290000  0.57013000  1.0
  H  H18  1  0.45716000  0.07323000  0.42936000  1.0
  H  H19  1  0.54720000  0.93028000  0.57010000  1.0
  H  H20  1  0.35610000  0.45722000  0.42936000  1.0
  H  H21  1  0.63978000  0.54719000  0.57014000  1.0
  H  H22  1  0.97220000  0.35614000  0.42937000  1.0
  H  H23  1  0.02298000  0.63980000  0.57017000  1.0
  H  H24  1  0.64387000  0.02779000  0.57063000  1.0
  H  H25  1  0.36018000  0.97710000  0.42989000  1.0
  H  H26  1  0.02787000  0.92674000  0.57064000  1.0
  H  H27  1  0.97705000  0.06964000  0.42986000  1.0
  H  H28  1  0.92677000  0.54283000  0.57063000  1.0
  H  H29  1  0.06963000  0.45281000  0.42983000  1.0
  H  H30  1  0.54280000  0.64389000  0.57063000  1.0
  H  H31  1  0.45278000  0.36022000  0.42987000  1.0
  H  H32  1  0.01853000  0.35367000  0.85692000  1.0
  H  H33  1  0.16416000  0.64322000  0.14318000  1.0
  H  H34  1  0.50004000  0.02097000  0.85682000  1.0
  H  H35  1  0.49675000  0.16161000  0.14308000  1.0
  H  H36  1  0.83842000  0.50323000  0.85693000  1.0
  H  H37  1  0.97901000  0.49990000  0.14311000  1.0
  H  H38  1  0.35679000  0.83590000  0.85689000  1.0
  H  H39  1  0.64630000  0.98148000  0.14307000  1.0
  H  H40  1  0.02513000  0.63333000  0.94466000  1.0
  H  H41  1  0.93571000  0.63877000  0.94325000  1.0
  H  H42  1  0.07462000  0.36483000  0.05532000  1.0
  H  H43  1  0.98647000  0.36264000  0.05677000  1.0
  H  H44  1  0.30951000  0.01929000  0.94468000  1.0
  H  H45  1  0.30587000  0.92969000  0.94323000  1.0
  H  H46  1  0.68867000  0.08046000  0.05535000  1.0
  H  H47  1  0.69552000  0.99244000  0.05673000  1.0
  H  H48  1  0.91952000  0.31133000  0.94460000  1.0
  H  H49  1  0.00758000  0.30444000  0.94330000  1.0
  H  H50  1  0.98071000  0.69045000  0.05530000  1.0
  H  H51  1  0.07033000  0.69418000  0.05680000  1.0
  H  H52  1  0.63512000  0.92537000  0.94467000  1.0
  H  H53  1  0.63742000  0.01352000  0.94323000  1.0
  H  H54  1  0.36673000  0.97491000  0.05540000  1.0
  H  H55  1  0.36114000  0.06427000  0.05670000  1.0
  C  C56  1  0.93326000  0.34030000  0.76765000  1.0
  C  C57  1  0.16700000  0.65809000  0.23243000  1.0
  C  C58  1  0.52824000  0.96216000  0.53968000  1.0
  C  C59  1  0.41830000  0.47611000  0.46006000  1.0
  C  C60  1  0.57747000  0.52824000  0.53971000  1.0
  C  C61  1  0.98400000  0.41834000  0.46007000  1.0
  C  C62  1  0.01152000  0.57750000  0.53974000  1.0
  C  C63  1  0.58168000  0.01599000  0.53992000  1.0
  C  C64  1  0.42248000  0.98856000  0.46031000  1.0
  C  C65  1  0.01605000  0.95824000  0.53994000  1.0
  C  C66  1  0.98853000  0.03776000  0.46029000  1.0
  C  C67  1  0.95827000  0.52393000  0.53993000  1.0
  C  C68  1  0.42567000  0.93457000  0.76757000  1.0
  C  C69  1  0.03777000  0.47178000  0.46026000  1.0
  C  C70  1  0.52389000  0.58170000  0.53991000  1.0
  C  C71  1  0.47175000  0.42252000  0.46029000  1.0
  C  C72  1  0.04178000  0.98398000  0.46009000  1.0
  C  C73  1  0.96223000  0.01145000  0.53971000  1.0
  C  C74  1  0.47607000  0.04176000  0.46008000  1.0
  C  C75  1  0.57265000  0.16561000  0.23235000  1.0
  C  C76  1  0.94832000  0.05164000  0.49999000  1.0
  C  C77  1  0.83442000  0.42734000  0.76767000  1.0
  C  C78  1  0.05597000  0.94406000  0.50001000  1.0
  C  C79  1  0.44832000  0.94833000  0.50000000  1.0
  C  C80  1  0.55592000  0.05593000  0.50000000  1.0
  C  C81  1  0.55165000  0.44834000  0.50001000  1.0
  C  C82  1  0.44405000  0.55596000  0.49999000  1.0
  C  C83  1  0.05168000  0.55167000  0.50000000  1.0
  C  C84  1  0.94409000  0.44409000  0.50000000  1.0
  C  C85  1  0.06536000  0.57430000  0.23238000  1.0
  C  C86  1  0.34192000  0.83298000  0.76762000  1.0
  C  C87  1  0.65967000  0.06675000  0.23233000  1.0
  C  C88  1  0.93267000  0.43264000  0.86532000  1.0
  C  C89  1  0.06739000  0.56735000  0.13472000  1.0
  C  C90  1  0.43263000  0.93266000  0.86528000  1.0
  C  C91  1  0.56732000  0.06734000  0.13467000  1.0
  C  C92  1  0.96612000  0.37363000  0.83196000  1.0
  C  C93  1  0.13558000  0.62466000  0.16812000  1.0
  C  C94  1  0.45655000  0.96745000  0.83188000  1.0
  C  C95  1  0.54167000  0.13416000  0.16804000  1.0
  C  C96  1  0.86587000  0.45831000  0.83199000  1.0
  C  C97  1  0.03252000  0.54341000  0.16806000  1.0
  C  C98  1  0.37535000  0.86445000  0.83194000  1.0
  C  C99  1  0.62632000  0.03387000  0.16801000  1.0
  C  C100  1  0.86750000  0.36749000  0.73497000  1.0
  C  C101  1  0.13250000  0.63253000  0.26508000  1.0
  C  C102  1  0.36745000  0.86742000  0.73492000  1.0
  C  C103  1  0.63252000  0.13253000  0.26503000  1.0
  C  C104  1  0.98550000  0.54979000  0.96739000  1.0
  C  C105  1  0.01575000  0.45019000  0.03263000  1.0
  C  C106  1  0.41756000  0.98310000  0.96737000  1.0
  C  C107  1  0.58240000  0.01810000  0.03261000  1.0
  C  C108  1  0.98198000  0.41757000  0.96738000  1.0
  C  C109  1  0.01700000  0.58245000  0.03264000  1.0
  C  C110  1  0.54981000  0.98434000  0.96735000  1.0
  C  C111  1  0.45019000  0.01459000  0.03262000  1.0
  C  C112  1  0.03309000  0.53301000  0.06603000  1.0
  C  C113  1  0.96703000  0.46698000  0.93400000  1.0
  C  C114  1  0.53298000  0.03301000  0.06599000  1.0
  C  C115  1  0.46698000  0.96705000  0.93397000  1.0
  C  C116  1  0.33297000  0.83307000  0.66614000  1.0
  C  C117  1  0.66698000  0.16686000  0.33380000  1.0
  C  C118  1  0.83306000  0.33318000  0.66620000  1.0
  C  C119  1  0.16693000  0.66683000  0.33386000  1.0
  C  C120  1  0.39081000  0.89082000  0.50000000  1.0
  C  C121  1  0.61349000  0.11349000  0.50000000  1.0
  C  C122  1  0.60918000  0.39084000  0.50001000  1.0
  C  C123  1  0.38648000  0.61354000  0.50000000  1.0
  C  C124  1  0.10917000  0.60917000  0.50000000  1.0
  C  C125  1  0.88652000  0.38652000  0.50000000  1.0
  C  C126  1  0.89082000  0.10916000  0.49999000  1.0
  C  C127  1  0.11354000  0.88648000  0.50000000  1.0
  N  N128  1  0.97315000  0.59986000  0.93326000  1.0
  N  N129  1  0.03512000  0.39997000  0.06675000  1.0
  N  N130  1  0.33322000  0.96836000  0.93325000  1.0
  N  N131  1  0.66666667  0.03988000  0.06674000  1.0
  N  N132  1  0.96016000  0.33337000  0.93325000  1.0
  N  N133  1  0.03167000  0.66678000  0.06675000  1.0
  N  N134  1  0.60003000  0.96492000  0.93325000  1.0
  N  N135  1  0.40012000  0.02689000  0.06674000  1.0
  O  O136  1  0.24997000  0.74997000  0.50000000  1.0
  O  O137  1  0.62236000  0.20199000  0.36079000  1.0
  O  O138  1  0.79793000  0.37783000  0.63925000  1.0
  O  O139  1  0.15834000  0.62231000  0.36079000  1.0
  O  O140  1  0.26153000  0.79754000  0.63920000  1.0
  O  O141  1  0.73858000  0.15869000  0.36075000  1.0
  O  O142  1  0.84120000  0.26158000  0.63921000  1.0
  O  O143  1  0.20254000  0.73825000  0.36086000  1.0
  O  O144  1  0.37740000  0.84168000  0.63914000  1.0
  O  O145  1  0.75001000  0.25001000  0.50000000  1.0
  O  O146  1  0.41929000  0.85053000  0.53264000  1.0
  O  O147  1  0.58745000  0.14247000  0.45884000  1.0
  O  O148  1  0.68208000  0.41929000  0.53275000  1.0
  O  O149  1  0.31637000  0.58749000  0.45880000  1.0
  O  O150  1  0.11335000  0.68209000  0.53265000  1.0
  O  O151  1  0.87146000  0.31636000  0.45888000  1.0
  O  O152  1  0.85068000  0.11350000  0.53276000  1.0
  O  O153  1  0.14246000  0.87128000  0.45880000  1.0
  O  O154  1  0.88653000  0.14933000  0.46725000  1.0
  O  O155  1  0.12870000  0.85757000  0.54120000  1.0
  O  O156  1  0.14944000  0.58069000  0.46735000  1.0
  O  O157  1  0.85748000  0.41259000  0.54112000  1.0
  O  O158  1  0.58075000  0.31792000  0.46724000  1.0
  O  O159  1  0.41248000  0.68366000  0.54120000  1.0
  O  O160  1  0.31789000  0.88665000  0.46736000  1.0
  O  O161  1  0.68363000  0.12861000  0.54116000  1.0
