# generated using pymatgen
data_Zn4H8C40N4O13F16
_symmetry_space_group_name_H-M   'P 1'
_cell_length_a   23.80148189
_cell_length_b   23.80140000
_cell_length_c   23.80030000
_cell_angle_alpha   113.15440000
_cell_angle_beta   107.66632008
_cell_angle_gamma   107.65919221
_symmetry_Int_Tables_number   1
_chemical_formula_structural   Zn4H8C40N4O13F16
_chemical_formula_sum   'Zn8 H16 C80 N8 O26 F32'
_cell_volume   10346.60671363
_cell_formula_units_Z   2
loop_
 _symmetry_equiv_pos_site_id
 _symmetry_equiv_pos_as_xyz
  1  'x, y, z'
loop_
 _atom_site_type_symbol
 _atom_site_label
 _atom_site_symmetry_multiplicity
 _atom_site_fract_x
 _atom_site_fract_y
 _atom_site_fract_z
 _atom_site_occupancy
  Zn  Zn0  1  0.94522000  0.89996000  0.45725000  1.0
  Zn  Zn1  1  0.94522000  0.04525000  0.48796000  1.0
  Zn  Zn2  1  0.05479000  0.04275000  0.60005000  1.0
  Zn  Zn3  1  0.05479000  0.01204000  0.45476000  1.0
  Zn  Zn4  1  0.05730000  0.60002000  0.04523000  1.0
  Zn  Zn5  1  0.94269000  0.45476000  0.89995000  1.0
  Zn  Zn6  1  0.05729000  0.45727000  0.01206000  1.0
  Zn  Zn7  1  0.94269000  0.48794000  0.04272000  1.0
  H  H8  1  0.08606000  0.92653000  0.33606000  1.0
  H  H9  1  0.09174000  0.89470000  0.26061000  1.0
  H  H10  1  0.90958000  0.57344000  0.15953000  1.0
  H  H11  1  0.86596000  0.60528000  0.19704000  1.0
  H  H12  1  0.09046000  0.74999000  0.16389000  1.0
  H  H13  1  0.13406000  0.83111000  0.23933000  1.0
  H  H14  1  0.91394000  0.75001000  0.34045000  1.0
  H  H15  1  0.90828000  0.66889000  0.30296000  1.0
  H  H16  1  0.08607000  0.15955000  0.75002000  1.0
  H  H17  1  0.09173000  0.19705000  0.83113000  1.0
  H  H18  1  0.90955000  0.33611000  0.74998000  1.0
  H  H19  1  0.86595000  0.26068000  0.66886000  1.0
  H  H20  1  0.09043000  0.34048000  0.92657000  1.0
  H  H21  1  0.13405000  0.30296000  0.89475000  1.0
  H  H22  1  0.91394000  0.16392000  0.57345000  1.0
  H  H23  1  0.90827000  0.23937000  0.60527000  1.0
  C  C24  1  0.82266000  0.91133000  0.41135000  1.0
  C  C25  1  1.00000000  0.13939000  0.63940000  1.0
  C  C26  1  0.00002000  0.90968000  0.59033000  1.0
  C  C27  1  0.17734000  0.08864000  0.58869000  1.0
  C  C28  1  0.99999000  0.86061000  0.36059000  1.0
  C  C29  1  0.00004000  0.09039000  0.40974000  1.0
  C  C30  1  0.99998000  0.58865000  0.91129000  1.0
  C  C31  1  0.99999000  0.36063000  0.86061000  1.0
  C  C32  1  0.18065000  0.59030000  0.09031000  1.0
  C  C33  1  0.99996000  0.41129000  0.08864000  1.0
  C  C34  1  0.00002000  0.63938000  0.13938000  1.0
  C  C35  1  0.81934000  0.40966000  0.90965000  1.0
  C  C36  1  1.00000000  0.80458000  0.30457000  1.0
  C  C37  1  0.00002000  0.69540000  0.19539000  1.0
  C  C38  1  0.04359000  0.82084000  0.27668000  1.0
  C  C39  1  0.95587000  0.67913000  0.22272000  1.0
  C  C40  1  0.04415000  0.76687000  0.22327000  1.0
  C  C41  1  0.95643000  0.73311000  0.27725000  1.0
  C  C42  1  1.00000000  0.19541000  0.69541000  1.0
  C  C43  1  0.99999000  0.30461000  0.80459000  1.0
  C  C44  1  0.04359000  0.22276000  0.76691000  1.0
  C  C45  1  0.95585000  0.27672000  0.73310000  1.0
  C  C46  1  0.04413000  0.27727000  0.82087000  1.0
  C  C47  1  0.95641000  0.22330000  0.67913000  1.0
  C  C48  1  1.00000000  0.62641000  0.87357000  1.0
  C  C49  1  0.04019000  0.69935000  0.90929000  1.0
  C  C50  1  0.04026000  0.73430000  0.87422000  1.0
  C  C51  1  0.00005000  0.69856000  0.80148000  1.0
  C  C52  1  0.95980000  0.62582000  0.76569000  1.0
  C  C53  1  0.95981000  0.59072000  0.80061000  1.0
  C  C54  1  0.00006000  0.73390000  0.76614000  1.0
  C  C55  1  0.00005000  0.76452000  0.73549000  1.0
  C  C56  1  0.00005000  0.79985000  0.70015000  1.0
  C  C57  1  0.04437000  0.87163000  0.73492000  1.0
  C  C58  1  0.04444000  0.90665000  0.69994000  1.0
  C  C59  1  0.00003000  0.87197000  0.62805000  1.0
  C  C60  1  0.95562000  0.80008000  0.59336000  1.0
  C  C61  1  0.95572000  0.76510000  0.62838000  1.0
  C  C62  1  0.99994000  0.37353000  0.12636000  1.0
  C  C63  1  0.95977000  0.36906000  0.15914000  1.0
  C  C64  1  0.95972000  0.33393000  0.19402000  1.0
  C  C65  1  0.99998000  0.30144000  0.19851000  1.0
  C  C66  1  0.04021000  0.30592000  0.16600000  1.0
  C  C67  1  0.04015000  0.34081000  0.13088000  1.0
  C  C68  1  1.00000000  0.26614000  0.23388000  1.0
  C  C69  1  1.00000000  0.23550000  0.26453000  1.0
  C  C70  1  0.00003000  0.20019000  0.29989000  1.0
  C  C71  1  0.95569000  0.19061000  0.32732000  1.0
  C  C72  1  0.95561000  0.15557000  0.36227000  1.0
  C  C73  1  0.00001000  0.12808000  0.37201000  1.0
  C  C74  1  0.04444000  0.13783000  0.34455000  1.0
  C  C75  1  0.04435000  0.17274000  0.30947000  1.0
  C  C76  1  0.25608000  0.62803000  0.12802000  1.0
  C  C77  1  0.29330000  0.69993000  0.15552000  1.0
  C  C78  1  0.36329000  0.73489000  0.19058000  1.0
  C  C79  1  0.40031000  0.70014000  0.20016000  1.0
  C  C80  1  0.36330000  0.62838000  0.17270000  1.0
  C  C81  1  0.29329000  0.59334000  0.13774000  1.0
  C  C82  1  0.47099000  0.73549000  0.23551000  1.0
  C  C83  1  0.53226000  0.76610000  0.26616000  1.0
  C  C84  1  0.60293000  0.80144000  0.30150000  1.0
  C  C85  1  0.63991000  0.87419000  0.33400000  1.0
  C  C86  1  0.70991000  0.90927000  0.36911000  1.0
  C  C87  1  0.74717000  0.87358000  0.37362000  1.0
  C  C88  1  0.70995000  0.80065000  0.34087000  1.0
  C  C89  1  0.63993000  0.76570000  0.30598000  1.0
  C  C90  1  0.74391000  0.37195000  0.87195000  1.0
  C  C91  1  0.70669000  0.34444000  0.80003000  1.0
  C  C92  1  0.63670000  0.30938000  0.76508000  1.0
  C  C93  1  0.59969000  0.29981000  0.79984000  1.0
  C  C94  1  0.63672000  0.32729000  0.87162000  1.0
  C  C95  1  0.70672000  0.36224000  0.90664000  1.0
  C  C96  1  0.52902000  0.26447000  0.76451000  1.0
  C  C97  1  0.46774000  0.23383000  0.73390000  1.0
  C  C98  1  0.39707000  0.19850000  0.69856000  1.0
  C  C99  1  0.36008000  0.16599000  0.62582000  1.0
  C  C100  1  0.29006000  0.13087000  0.59073000  1.0
  C  C101  1  0.25283000  0.12638000  0.62644000  1.0
  C  C102  1  0.29008000  0.15916000  0.69939000  1.0
  C  C103  1  0.36009000  0.19404000  0.73434000  1.0
  N  N104  1  0.08858000  0.88823000  0.29956000  1.0
  N  N105  1  0.91139000  0.61176000  0.20035000  1.0
  N  N106  1  0.08865000  0.78899000  0.20039000  1.0
  N  N107  1  0.91143000  0.71099000  0.29964000  1.0
  N  N108  1  0.08857000  0.20035000  0.78902000  1.0
  N  N109  1  0.91136000  0.29962000  0.71099000  1.0
  N  N110  1  0.08863000  0.29967000  0.88826000  1.0
  N  N111  1  0.91143000  0.20043000  0.61175000  1.0
  O  O112  1  1.00000000  0.99999000  0.50000000  1.0
  O  O113  1  0.85135000  0.88037000  0.43142000  1.0
  O  O114  1  0.95241000  0.10730000  0.57610000  1.0
  O  O115  1  0.02476000  0.97557000  0.62744000  1.0
  O  O116  1  0.85132000  0.97097000  0.41996000  1.0
  O  O117  1  0.97527000  0.87258000  0.52444000  1.0
  O  O118  1  0.04759000  0.12368000  0.65490000  1.0
  O  O119  1  0.14868000  0.06859000  0.61969000  1.0
  O  O120  1  0.04756000  0.92390000  0.39265000  1.0
  O  O121  1  0.14868000  0.08000000  0.52903000  1.0
  O  O122  1  0.95242000  0.84510000  0.37631000  1.0
  O  O123  1  0.97524000  0.10271000  0.45084000  1.0
  O  O124  1  0.02479000  0.04925000  0.39739000  1.0
  O  O125  1  0.99999000  0.50000000  0.99999000  1.0
  O  O126  1  0.05101000  0.61959000  0.97092000  1.0
  O  O127  1  0.96879000  0.39273000  0.84511000  1.0
  O  O128  1  0.15186000  0.52441000  0.04920000  1.0
  O  O129  1  0.94895000  0.52901000  0.88030000  1.0
  O  O130  1  0.15187000  0.62742000  0.10265000  1.0
  O  O131  1  0.03118000  0.37633000  0.92390000  1.0
  O  O132  1  0.05098000  0.43134000  0.08002000  1.0
  O  O133  1  0.96881000  0.57608000  0.12366000  1.0
  O  O134  1  0.94892000  0.41989000  0.06856000  1.0
  O  O135  1  0.03123000  0.65488000  0.10728000  1.0
  O  O136  1  0.84812000  0.39731000  0.87253000  1.0
  O  O137  1  0.84813000  0.45080000  0.97554000  1.0
  F  F138  1  0.07917000  0.73866000  0.97904000  1.0
  F  F139  1  0.92081000  0.52097000  0.76128000  1.0
  F  F140  1  0.92062000  0.58926000  0.69599000  1.0
  F  F141  1  0.07944000  0.80399000  0.91080000  1.0
  F  F142  1  0.08799000  0.90717000  0.80355000  1.0
  F  F143  1  0.91210000  0.69650000  0.59285000  1.0
  F  F144  1  0.91014000  0.76240000  0.52516000  1.0
  F  F145  1  0.08989000  0.97485000  0.73763000  1.0
  F  F146  1  0.92076000  0.39980000  0.15944000  1.0
  F  F147  1  0.07916000  0.34049000  0.10013000  1.0
  F  F148  1  0.07940000  0.27542000  0.16864000  1.0
  F  F149  1  0.92053000  0.33130000  0.22452000  1.0
  F  F150  1  0.91205000  0.21559000  0.31921000  1.0
  F  F151  1  0.08798000  0.18084000  0.28448000  1.0
  F  F152  1  0.08990000  0.11509000  0.35232000  1.0
  F  F153  1  0.91014000  0.14777000  0.38499000  1.0
  F  F154  1  0.26277000  0.73760000  0.14773000  1.0
  F  F155  1  0.26278000  0.52514000  0.11501000  1.0
  F  F156  1  0.39638000  0.59284000  0.18079000  1.0
  F  F157  1  0.39636000  0.80350000  0.21557000  1.0
  F  F158  1  0.60677000  0.91074000  0.33138000  1.0
  F  F159  1  0.60682000  0.69600000  0.27547000  1.0
  F  F160  1  0.74039000  0.76134000  0.34055000  1.0
  F  F161  1  0.74034000  0.97902000  0.39984000  1.0
  F  F162  1  0.73720000  0.35223000  0.76236000  1.0
  F  F163  1  0.73725000  0.38500000  0.97485000  1.0
  F  F164  1  0.60366000  0.31922000  0.90717000  1.0
  F  F165  1  0.60360000  0.28437000  0.69644000  1.0
  F  F166  1  0.39320000  0.16860000  0.58924000  1.0
  F  F167  1  0.39323000  0.22457000  0.80404000  1.0
  F  F168  1  0.25965000  0.15949000  0.73871000  1.0
  F  F169  1  0.25964000  0.10014000  0.52099000  1.0
