# generated using pymatgen
data_Sm2Cd3H58C30N6O35
_symmetry_space_group_name_H-M   'P 1'
_cell_length_a   10.62770000
_cell_length_b   10.63700000
_cell_length_c   14.84600000
_cell_angle_alpha   70.74880000
_cell_angle_beta   70.73140000
_cell_angle_gamma   85.00180000
_symmetry_Int_Tables_number   1
_chemical_formula_structural   Sm2Cd3H58C30N6O35
_chemical_formula_sum   'Sm2 Cd3 H58 C30 N6 O35'
_cell_volume   1495.24660801
_cell_formula_units_Z   1
loop_
 _symmetry_equiv_pos_site_id
 _symmetry_equiv_pos_as_xyz
  1  'x, y, z'
loop_
 _atom_site_type_symbol
 _atom_site_label
 _atom_site_symmetry_multiplicity
 _atom_site_fract_x
 _atom_site_fract_y
 _atom_site_fract_z
 _atom_site_occupancy
  Sm  Sm0  1  0.28725000  0.26954000  0.31732000  1.0
  Sm  Sm1  1  0.73194000  0.71402000  0.68411000  1.0
  Cd  Cd2  1  0.60843000  0.94795000  0.37608000  1.0
  Cd  Cd3  1  0.05129000  0.39240000  0.62494000  1.0
  Cd  Cd4  1  0.38325000  0.61491000  0.99930000  1.0
  H  H5  1  0.28033000  0.93547000  0.96975000  1.0
  H  H6  1  0.06491000  0.72126000  0.02883000  1.0
  H  H7  1  0.12591000  0.92221000  0.06588000  1.0
  H  H8  1  0.07844000  0.87577000  0.93282000  1.0
  H  H9  1  0.07792000  0.66666667  0.17309000  1.0
  H  H10  1  0.33009000  0.92459000  0.82441000  1.0
  H  H11  1  0.13765000  0.73467000  0.24628000  1.0
  H  H12  1  0.26489000  0.86146000  0.75160000  1.0
  H  H13  1  0.37863000  0.76465000  0.18554000  1.0
  H  H14  1  0.23681000  0.61826000  0.81564000  1.0
  H  H15  1  0.33308000  0.92640000  0.12573000  1.0
  H  H16  1  0.07506000  0.66945000  0.87021000  1.0
  H  H17  1  0.76000000  0.25918000  0.20636000  1.0
  H  H18  1  0.73982000  0.24266000  0.79439000  1.0
  H  H19  1  0.91572000  0.20481000  0.14467000  1.0
  H  H20  1  0.79346000  0.08664000  0.85608000  1.0
  H  H21  1  0.62290000  0.04289000  0.12275000  1.0
  H  H22  1  0.95733000  0.37547000  0.88000000  1.0
  H  H23  1  0.70643000  0.19965000  0.07194000  1.0
  H  H24  1  0.79931000  0.29429000  0.92900000  1.0
  H  H25  1  0.92417000  0.95736000  0.19346000  1.0
  H  H26  1  0.04191000  0.07729000  0.80614000  1.0
  H  H27  1  0.88087000  0.99926000  0.08183000  1.0
  H  H28  1  0.00020000  0.11901000  0.91838000  1.0
  H  H29  1  0.68599000  0.84055000  0.17037000  1.0
  H  H30  1  0.15919000  0.31422000  0.83042000  1.0
  H  H31  1  0.84064000  0.76254000  0.16569000  1.0
  H  H32  1  0.23714000  0.15971000  0.83467000  1.0
  H  H33  1  0.91022000  0.79420000  0.31641000  1.0
  H  H34  1  0.20549000  0.09040000  0.68439000  1.0
  H  H35  1  0.85666000  0.62572000  0.35628000  1.0
  H  H36  1  0.37408000  0.14399000  0.64440000  1.0
  H  H37  1  0.60299000  0.61085000  0.42227000  1.0
  H  H38  1  0.38937000  0.39706000  0.57837000  1.0
  H  H39  1  0.64417000  0.60027000  0.29858000  1.0
  H  H40  1  0.39950000  0.35637000  0.70216000  1.0
  H  H41  1  0.61102000  0.47206000  0.94275000  1.0
  H  H42  1  0.51109000  0.36951000  0.04616000  1.0
  H  H43  1  0.44183000  0.49610000  0.32826000  1.0
  H  H44  1  0.50483000  0.55944000  0.67270000  1.0
  H  H45  1  0.51361000  0.35866000  0.36571000  1.0
  H  H46  1  0.64233000  0.48703000  0.63667000  1.0
  H  H47  1  0.18187000  0.34998000  0.13603000  1.0
  H  H48  1  0.65462000  0.81489000  0.86648000  1.0
  H  H49  1  0.06911000  0.26833000  0.23577000  1.0
  H  H50  1  0.72887000  0.93339000  0.76633000  1.0
  H  H51  1  0.99363000  0.19194000  0.40053000  1.0
  H  H52  1  0.80796000  0.00735000  0.60014000  1.0
  H  H53  1  0.02744000  0.17570000  0.50275000  1.0
  H  H54  1  0.82509000  0.97279000  0.49804000  1.0
  H  H55  1  0.17266000  0.00508000  0.39238000  1.0
  H  H56  1  0.99696000  0.82869000  0.60677000  1.0
  H  H57  1  0.31585000  0.95181000  0.34364000  1.0
  H  H58  1  0.04993000  0.68551000  0.65587000  1.0
  H  H59  1  0.44042000  0.06076000  0.50605000  1.0
  H  H60  1  0.94033000  0.56077000  0.49378000  1.0
  H  H61  1  0.52342000  0.96073000  0.57288000  1.0
  H  H62  1  0.04163000  0.47809000  0.42710000  1.0
  C  C63  1  0.20140000  0.86378000  0.02580000  1.0
  C  C64  1  0.13674000  0.79993000  0.97271000  1.0
  C  C65  1  0.16846000  0.68572000  0.18748000  1.0
  C  C66  1  0.31359000  0.83290000  0.81050000  1.0
  C  C67  1  0.22065000  0.54871000  0.23120000  1.0
  C  C68  1  0.45230000  0.78314000  0.76728000  1.0
  C  C69  1  0.36581000  0.82972000  0.11437000  1.0
  C  C70  1  0.16975000  0.63495000  0.88481000  1.0
  C  C71  1  0.50505000  0.84952000  0.03463000  1.0
  C  C72  1  0.14392000  0.49847000  0.96797000  1.0
  C  C73  1  0.85609000  0.13574000  0.30737000  1.0
  C  C74  1  0.86279000  0.14590000  0.69341000  1.0
  C  C75  1  0.82294000  0.17124000  0.20890000  1.0
  C  C76  1  0.82746000  0.17924000  0.79182000  1.0
  C  C77  1  0.53717000  0.17692000  0.20400000  1.0
  C  C78  1  0.82493000  0.46556000  0.79836000  1.0
  C  C79  1  0.65887000  0.12054000  0.14343000  1.0
  C  C80  1  0.87952000  0.34180000  0.85816000  1.0
  C  C81  1  0.83950000  0.96589000  0.16502000  1.0
  C  C82  1  0.03351000  0.16127000  0.83524000  1.0
  C  C83  1  0.77025000  0.83011000  0.19960000  1.0
  C  C84  1  0.16950000  0.23025000  0.80093000  1.0
  C  C85  1  0.82273000  0.72676000  0.35730000  1.0
  C  C86  1  0.27295000  0.17783000  0.64337000  1.0
  C  C87  1  0.61530000  0.66927000  0.34324000  1.0
  C  C88  1  0.33069000  0.38515000  0.65730000  1.0
  C  C89  1  0.47595000  0.72242000  0.34218000  1.0
  C  C90  1  0.27792000  0.52467000  0.65784000  1.0
  C  C91  1  0.77923000  0.72907000  0.46554000  1.0
  C  C92  1  0.27077000  0.22085000  0.53520000  1.0
  N  N93  1  0.26398000  0.76717000  0.09404000  1.0
  N  N94  1  0.23292000  0.73724000  0.90431000  1.0
  N  N95  1  0.71889000  0.77222000  0.31007000  1.0
  N  N96  1  0.22748000  0.28176000  0.69045000  1.0
  N  N97  1  0.75084000  0.06554000  0.20065000  1.0
  N  N98  1  0.93376000  0.25054000  0.80015000  1.0
  O  O99  1  0.32741000  0.50729000  0.18071000  1.0
  O  O100  1  0.49439000  0.67749000  0.81815000  1.0
  O  O101  1  0.15178000  0.47468000  0.31778000  1.0
  O  O102  1  0.52683000  0.85247000  0.68110000  1.0
  O  O103  1  0.52835000  0.78595000  0.97033000  1.0
  O  O104  1  0.19689000  0.48079000  0.03786000  1.0
  O  O105  1  0.58717000  0.92291000  0.03877000  1.0
  O  O106  1  0.07565000  0.41400000  0.96141000  1.0
  O  O107  1  0.82259000  0.02146000  0.37261000  1.0
  O  O108  1  0.97719000  0.17937000  0.62806000  1.0
  O  O109  1  0.91459000  0.22746000  0.31668000  1.0
  O  O110  1  0.77105000  0.08731000  0.68417000  1.0
  O  O111  1  0.86134000  0.68730000  0.51475000  1.0
  O  O112  1  0.31242000  0.13840000  0.48633000  1.0
  O  O113  1  0.66666667  0.77170000  0.50456000  1.0
  O  O114  1  0.22856000  0.33341000  0.49582000  1.0
  O  O115  1  0.39707000  0.64415000  0.33824000  1.0
  O  O116  1  0.35648000  0.60350000  0.66146000  1.0
  O  O117  1  0.44854000  0.83973000  0.34794000  1.0
  O  O118  1  0.16059000  0.55225000  0.65185000  1.0
  O  O119  1  0.50765000  0.14381000  0.29959000  1.0
  O  O120  1  0.85592000  0.49470000  0.70280000  1.0
  O  O121  1  0.46297000  0.25465000  0.15957000  1.0
  O  O122  1  0.75091000  0.54116000  0.84352000  1.0
  O  O123  1  0.51738000  0.44236000  0.98224000  1.0
  O  O124  1  0.46642000  0.40563000  0.31878000  1.0
  O  O125  1  0.59527000  0.53584000  0.68239000  1.0
  O  O126  1  0.16741000  0.27888000  0.20362000  1.0
  O  O127  1  0.72202000  0.83488000  0.79698000  1.0
  O  O128  1  0.06651000  0.17433000  0.43216000  1.0
  O  O129  1  0.82650000  0.93440000  0.56865000  1.0
  O  O130  1  0.25454000  0.02791000  0.33513000  1.0
  O  O131  1  0.97419000  0.74731000  0.66438000  1.0
  O  O132  1  0.53182000  0.02831000  0.50594000  1.0
  O  O133  1  0.97343000  0.46961000  0.49373000  1.0
