# generated using pymatgen
data_AgH8C7S2NO4
_symmetry_space_group_name_H-M   'P 1'
_cell_length_a   6.52970000
_cell_length_b   7.82705000
_cell_length_c   20.30260000
_cell_angle_alpha   97.43800000
_cell_angle_beta   89.99990000
_cell_angle_gamma   90.00000000
_symmetry_Int_Tables_number   1
_chemical_formula_structural   AgH8C7S2NO4
_chemical_formula_sum   'Ag4 H32 C28 S8 N4 O16'
_cell_volume   1028.90001328
_cell_formula_units_Z   4
loop_
 _symmetry_equiv_pos_site_id
 _symmetry_equiv_pos_as_xyz
  1  'x, y, z'
loop_
 _atom_site_type_symbol
 _atom_site_label
 _atom_site_symmetry_multiplicity
 _atom_site_fract_x
 _atom_site_fract_y
 _atom_site_fract_z
 _atom_site_occupancy
  Ag  Ag0  1  0.71424000  0.78082000  0.53971000  1.0
  Ag  Ag1  1  0.21424000  0.71918000  0.96029000  1.0
  Ag  Ag2  1  0.28576000  0.21918000  0.46029000  1.0
  Ag  Ag3  1  0.78576000  0.28082000  0.03971000  1.0
  H  H4  1  0.14431000  0.82019000  0.45788000  1.0
  H  H5  1  0.64431000  0.67981000  0.04212000  1.0
  H  H6  1  0.85569000  0.17981000  0.54212000  1.0
  H  H7  1  0.35569000  0.32019000  0.95788000  1.0
  H  H8  1  0.08601000  0.59443000  0.43694000  1.0
  H  H9  1  0.58602000  0.90557000  0.06306000  1.0
  H  H10  1  0.91399000  0.40557000  0.56306000  1.0
  H  H11  1  0.41399000  0.09443000  0.93694000  1.0
  H  H12  1  0.34828000  0.66864000  0.43553000  1.0
  H  H13  1  0.84828000  0.83136000  0.06447000  1.0
  H  H14  1  0.65172000  0.33136000  0.56447000  1.0
  H  H15  1  0.15172000  0.16864000  0.93553000  1.0
  H  H16  1  0.45085000  0.87950000  0.72030000  1.0
  H  H17  1  0.95085000  0.62049000  0.77970000  1.0
  H  H18  1  0.54915000  0.12049000  0.27970000  1.0
  H  H19  1  0.04915000  0.37950000  0.22030000  1.0
  H  H20  1  0.28107000  0.89046000  0.83027000  1.0
  H  H21  1  0.78107000  0.60954000  0.66973000  1.0
  H  H22  1  0.71893000  0.10954000  0.16973000  1.0
  H  H23  1  0.21893000  0.39045000  0.33027000  1.0
  H  H24  1  0.93089000  0.01682000  0.84713000  1.0
  H  H25  1  0.43089000  0.48318000  0.65287000  1.0
  H  H26  1  0.06910000  0.98318000  0.15287000  1.0
  H  H27  1  0.56910000  0.51681000  0.34713000  1.0
  H  H28  1  0.74912000  0.12648000  0.75306000  1.0
  H  H29  1  0.24912000  0.37351000  0.74694000  1.0
  H  H30  1  0.25088000  0.87352000  0.24693000  1.0
  H  H31  1  0.75088000  0.62648000  0.25307000  1.0
  H  H32  1  0.91705000  0.11162000  0.64282000  1.0
  H  H33  1  0.41705000  0.38838000  0.85718000  1.0
  H  H34  1  0.08295000  0.88838000  0.35718000  1.0
  H  H35  1  0.58295000  0.61162000  0.14282000  1.0
  C  C36  1  0.19835000  0.68839000  0.45928000  1.0
  C  C37  1  0.69835000  0.81161000  0.04072000  1.0
  C  C38  1  0.80166000  0.31161000  0.54072000  1.0
  C  C39  1  0.30166000  0.18839000  0.95928000  1.0
  C  C40  1  0.19376000  0.99704000  0.67603000  1.0
  C  C41  1  0.69377000  0.50296000  0.82397000  1.0
  C  C42  1  0.80624000  0.00296000  0.32397000  1.0
  C  C43  1  0.30624000  0.49704000  0.17603000  1.0
  C  C44  1  0.29763000  0.93355000  0.72802000  1.0
  C  C45  1  0.79763000  0.56644000  0.77198000  1.0
  C  C46  1  0.70237000  0.06644000  0.27198000  1.0
  C  C47  1  0.20237000  0.43356000  0.22802000  1.0
  C  C48  1  0.20125000  0.94021000  0.78954000  1.0
  C  C49  1  0.70124000  0.55978000  0.71046000  1.0
  C  C50  1  0.79875000  0.05979000  0.21046000  1.0
  C  C51  1  0.29875000  0.44021000  0.28954000  1.0
  C  C52  1  0.00460000  0.01048000  0.79878000  1.0
  C  C53  1  0.50460000  0.48951000  0.70122000  1.0
  C  C54  1  0.99540000  0.98952000  0.20122000  1.0
  C  C55  1  0.49540000  0.51048000  0.29878000  1.0
  C  C56  1  0.90241000  0.07190000  0.74616000  1.0
  C  C57  1  0.40240000  0.42810000  0.75384000  1.0
  C  C58  1  0.09760000  0.92810000  0.25384000  1.0
  C  C59  1  0.59759000  0.57190000  0.24616000  1.0
  C  C60  1  0.99633000  0.06503000  0.68409000  1.0
  C  C61  1  0.49633000  0.43496000  0.81591000  1.0
  C  C62  1  0.00367000  0.93497000  0.31591000  1.0
  C  C63  1  0.50367000  0.56504000  0.18409000  1.0
  S  S64  1  0.22549000  0.65996000  0.54361000  1.0
  S  S65  1  0.72550000  0.84004000  0.95639000  1.0
  S  S66  1  0.77450000  0.34004000  0.45639000  1.0
  S  S67  1  0.27451000  0.15996000  0.04361000  1.0
  S  S68  1  0.32466000  0.99768000  0.59978000  1.0
  S  S69  1  0.82467000  0.50232000  0.90022000  1.0
  S  S70  1  0.67534000  0.00232000  0.40022000  1.0
  S  S71  1  0.17534000  0.49768000  0.09978000  1.0
  N  N72  1  0.39415000  0.79860000  0.57531000  1.0
  N  N73  1  0.89415000  0.70141000  0.92469000  1.0
  N  N74  1  0.60585000  0.20141000  0.42469000  1.0
  N  N75  1  0.10585000  0.29860000  0.07531000  1.0
  O  O76  1  0.30960000  0.48921000  0.54758000  1.0
  O  O77  1  0.80960000  0.01079000  0.95242000  1.0
  O  O78  1  0.69039000  0.51079000  0.45242000  1.0
  O  O79  1  0.19039000  0.98921000  0.04758000  1.0
  O  O80  1  0.02594000  0.69376000  0.57663000  1.0
  O  O81  1  0.52594000  0.80624000  0.92337000  1.0
  O  O82  1  0.97406000  0.30625000  0.42337000  1.0
  O  O83  1  0.47406000  0.19375000  0.07663000  1.0
  O  O84  1  0.51576000  0.09017000  0.61296000  1.0
  O  O85  1  0.01576000  0.40983000  0.88704000  1.0
  O  O86  1  0.48424000  0.90983000  0.38704000  1.0
  O  O87  1  0.98424000  0.59017000  0.11296000  1.0
  O  O88  1  0.18165000  0.06200000  0.55301000  1.0
  O  O89  1  0.68164000  0.43800000  0.94699000  1.0
  O  O90  1  0.81836000  0.93800000  0.44699000  1.0
  O  O91  1  0.31836000  0.56200000  0.05301000  1.0
