# generated using pymatgen
data_Zn3TeMo6H60C32(NO5)8
_symmetry_space_group_name_H-M   'P 1'
_cell_length_a   9.55570000
_cell_length_b   13.65850000
_cell_length_c   13.92500000
_cell_angle_alpha   115.98000000
_cell_angle_beta   95.52160000
_cell_angle_gamma   97.14410000
_symmetry_Int_Tables_number   1
_chemical_formula_structural   Zn3TeMo6H60C32(NO5)8
_chemical_formula_sum   'Zn3 Te1 Mo6 H60 C32 N8 O40'
_cell_volume   1597.79618419
_cell_formula_units_Z   1
loop_
 _symmetry_equiv_pos_site_id
 _symmetry_equiv_pos_as_xyz
  1  'x, y, z'
loop_
 _atom_site_type_symbol
 _atom_site_label
 _atom_site_symmetry_multiplicity
 _atom_site_fract_x
 _atom_site_fract_y
 _atom_site_fract_z
 _atom_site_occupancy
  Zn  Zn0  1  0.36281000  0.26018000  0.41669000  1.0
  Zn  Zn1  1  0.63993000  0.73701000  0.58773000  1.0
  Zn  Zn2  1  0.49914000  0.50069000  0.99755000  1.0
  Te  Te3  1  0.00131000  0.49836000  0.49878000  1.0
  Mo  Mo4  1  0.76545000  0.27832000  0.43843000  1.0
  Mo  Mo5  1  0.23457000  0.72069000  0.56145000  1.0
  Mo  Mo6  1  0.99526000  0.38293000  0.66848000  1.0
  Mo  Mo7  1  0.00602000  0.61617000  0.33179000  1.0
  Mo  Mo8  1  0.22563000  0.61553000  0.73798000  1.0
  Mo  Mo9  1  0.76927000  0.38712000  0.26623000  1.0
  H  H10  1  0.08313000  0.27175000  0.40449000  1.0
  H  H11  1  0.92047000  0.72826000  0.59755000  1.0
  H  H12  1  0.14048000  0.23491000  0.29208000  1.0
  H  H13  1  0.86393000  0.76450000  0.70961000  1.0
  H  H14  1  0.16031000  0.09879000  0.45962000  1.0
  H  H15  1  0.83985000  0.89801000  0.54087000  1.0
  H  H16  1  0.30950000  0.47377000  0.47269000  1.0
  H  H17  1  0.69944000  0.53568000  0.53850000  1.0
  H  H18  1  0.41073000  0.44137000  0.37923000  1.0
  H  H19  1  0.53609000  0.52971000  0.54194000  1.0
  H  H20  1  0.13653000  0.90392000  0.43937000  1.0
  H  H21  1  0.86257000  0.09180000  0.55844000  1.0
  H  H22  1  0.44768000  0.26701000  0.24109000  1.0
  H  H23  1  0.55993000  0.73184000  0.76077000  1.0
  H  H24  1  0.37722000  0.14034000  0.20301000  1.0
  H  H25  1  0.61960000  0.86107000  0.80073000  1.0
  H  H26  1  0.18535000  0.77785000  0.99919000  1.0
  H  H27  1  0.81485000  0.22517000  0.00110000  1.0
  H  H28  1  0.32992000  0.79730000  0.37121000  1.0
  H  H29  1  0.66963000  0.19899000  0.62689000  1.0
  H  H30  1  0.30116000  0.37709000  0.62216000  1.0
  H  H31  1  0.69687000  0.62277000  0.38056000  1.0
  H  H32  1  0.38902000  0.28484000  0.62151000  1.0
  H  H33  1  0.60639000  0.71296000  0.38066000  1.0
  H  H34  1  0.71308000  0.00472000  0.33756000  1.0
  H  H35  1  0.28731000  0.99369000  0.66268000  1.0
  H  H36  1  0.43925000  0.52405000  0.19334000  1.0
  H  H37  1  0.57254000  0.47503000  0.80186000  1.0
  H  H38  1  0.46031000  0.64334000  0.20222000  1.0
  H  H39  1  0.54141000  0.35679000  0.79571000  1.0
  H  H40  1  0.54031000  0.07838000  0.34012000  1.0
  H  H41  1  0.46194000  0.92048000  0.66324000  1.0
  H  H42  1  0.26746000  0.45385000  0.82811000  1.0
  H  H43  1  0.73164000  0.54865000  0.17063000  1.0
  H  H44  1  0.18937000  0.47093000  0.92481000  1.0
  H  H45  1  0.81212000  0.53054000  0.07531000  1.0
  H  H46  1  0.75906000  0.77830000  0.19694000  1.0
  H  H47  1  0.24188000  0.22080000  0.80263000  1.0
  H  H48  1  0.86958000  0.85000000  0.32370000  1.0
  H  H49  1  0.13131000  0.14813000  0.67601000  1.0
  H  H50  1  0.96002000  0.00529000  0.28397000  1.0
  H  H51  1  0.04058000  0.99417000  0.71769000  1.0
  H  H52  1  0.83610000  0.94736000  0.16306000  1.0
  H  H53  1  0.16410000  0.05346000  0.83891000  1.0
  H  H54  1  0.07907000  0.83926000  0.21208000  1.0
  H  H55  1  0.92138000  0.16029000  0.78707000  1.0
  H  H56  1  0.95182000  0.77603000  0.09243000  1.0
  H  H57  1  0.04828000  0.22489000  0.90684000  1.0
  H  H58  1  0.03378000  0.92588000  0.04376000  1.0
  H  H59  1  0.96586000  0.07666000  0.95785000  1.0
  H  H60  1  0.15203000  0.00069000  0.16930000  1.0
  H  H61  1  0.84703000  0.00112000  0.83273000  1.0
  H  H62  1  0.60032000  0.94962000  0.02237000  1.0
  H  H63  1  0.40090000  0.05533000  0.98212000  1.0
  H  H64  1  0.77704000  0.82196000  0.95627000  1.0
  H  H65  1  0.22330000  0.18274000  0.04553000  1.0
  H  H66  1  0.72648000  0.63536000  0.95036000  1.0
  H  H67  1  0.27282000  0.36773000  0.04757000  1.0
  H  H68  1  0.33858000  0.68883000  0.05483000  1.0
  H  H69  1  0.66071000  0.31291000  0.94369000  1.0
  C  C70  1  0.24058000  0.04787000  0.42856000  1.0
  C  C71  1  0.75963000  0.94900000  0.57182000  1.0
  C  C72  1  0.22833000  0.94091000  0.41802000  1.0
  C  C73  1  0.77138000  0.05545000  0.58093000  1.0
  C  C74  1  0.33602000  0.88107000  0.37970000  1.0
  C  C75  1  0.66396000  0.11558000  0.61932000  1.0
  C  C76  1  0.45318000  0.93002000  0.35254000  1.0
  C  C77  1  0.54759000  0.06746000  0.64796000  1.0
  C  C78  1  0.45515000  0.03699000  0.36320000  1.0
  C  C79  1  0.54634000  0.96103000  0.63878000  1.0
  C  C80  1  0.56952000  0.86659000  0.31278000  1.0
  C  C81  1  0.43158000  0.13142000  0.68766000  1.0
  C  C82  1  0.80658000  0.86211000  0.26061000  1.0
  C  C83  1  0.19425000  0.13670000  0.73960000  1.0
  C  C84  1  0.90259000  0.92578000  0.21736000  1.0
  C  C85  1  0.09787000  0.07413000  0.78372000  1.0
  C  C86  1  0.00907000  0.85727000  0.15675000  1.0
  C  C87  1  0.99109000  0.14323000  0.84329000  1.0
  C  C88  1  0.10119000  0.91694000  0.10738000  1.0
  C  C89  1  0.89857000  0.08506000  0.89380000  1.0
  C  C90  1  0.35220000  0.90523000  0.08355000  1.0
  C  C91  1  0.64786000  0.09793000  0.91864000  1.0
  C  C92  1  0.45531000  0.82846000  0.04176000  1.0
  C  C93  1  0.54488000  0.17492000  0.95983000  1.0
  C  C94  1  0.58163000  0.86650000  0.01584000  1.0
  C  C95  1  0.41911000  0.13778000  0.98697000  1.0
  C  C96  1  0.67991000  0.79664000  0.98071000  1.0
  C  C97  1  0.32045000  0.20758000  0.02074000  1.0
  C  C98  1  0.65170000  0.69232000  0.97595000  1.0
  C  C99  1  0.34797000  0.31092000  0.02320000  1.0
  C  C100  1  0.43411000  0.72195000  0.03389000  1.0
  C  C101  1  0.56553000  0.28054000  0.96557000  1.0
  N  N102  1  0.35208000  0.09484000  0.40094000  1.0
  N  N103  1  0.64908000  0.90276000  0.60092000  1.0
  N  N104  1  0.53117000  0.65596000  0.00286000  1.0
  N  N105  1  0.46836000  0.34652000  0.99551000  1.0
  N  N106  1  0.21371000  0.85756000  0.06179000  1.0
  N  N107  1  0.78645000  0.14533000  0.93913000  1.0
  N  N108  1  0.69032000  0.91907000  0.30314000  1.0
  N  N109  1  0.31052000  0.07940000  0.69757000  1.0
  O  O110  1  0.58090000  0.27186000  0.42455000  1.0
  O  O111  1  0.41869000  0.72549000  0.57686000  1.0
  O  O112  1  0.14383000  0.22096000  0.35503000  1.0
  O  O113  1  0.86200000  0.77990000  0.64751000  1.0
  O  O114  1  0.79442000  0.45520000  0.45794000  1.0
  O  O115  1  0.20832000  0.54246000  0.54055000  1.0
  O  O116  1  0.38866000  0.43064000  0.44128000  1.0
  O  O117  1  0.62933000  0.57969000  0.57968000  1.0
  O  O118  1  0.79462000  0.26789000  0.29738000  1.0
  O  O119  1  0.20022000  0.73113000  0.70105000  1.0
  O  O120  1  0.36418000  0.21809000  0.24448000  1.0
  O  O121  1  0.63904000  0.78544000  0.75953000  1.0
  O  O122  1  0.20055000  0.45627000  0.70036000  1.0
  O  O123  1  0.80052000  0.54585000  0.30358000  1.0
  O  O124  1  0.36898000  0.32891000  0.58309000  1.0
  O  O125  1  0.62518000  0.66763000  0.41790000  1.0
  O  O126  1  0.99923000  0.34886000  0.48166000  1.0
  O  O127  1  0.00263000  0.64813000  0.51637000  1.0
  O  O128  1  0.42025000  0.56355000  0.15114000  1.0
  O  O129  1  0.58146000  0.43655000  0.84628000  1.0
  O  O130  1  0.79075000  0.14504000  0.40746000  1.0
  O  O131  1  0.21129000  0.85403000  0.59094000  1.0
  O  O132  1  0.28013000  0.45527000  0.90047000  1.0
  O  O133  1  0.72074000  0.54660000  0.09826000  1.0
  O  O134  1  0.80139000  0.34675000  0.59360000  1.0
  O  O135  1  0.20062000  0.65108000  0.40551000  1.0
  O  O136  1  0.17668000  0.66585000  0.86506000  1.0
  O  O137  1  0.81161000  0.33624000  0.13717000  1.0
  O  O138  1  0.99875000  0.53948000  0.65224000  1.0
  O  O139  1  0.00184000  0.45740000  0.34503000  1.0
  O  O140  1  0.03392000  0.25142000  0.62240000  1.0
  O  O141  1  0.96934000  0.74827000  0.37764000  1.0
  O  O142  1  0.41123000  0.63530000  0.75901000  1.0
  O  O143  1  0.58277000  0.37348000  0.25188000  1.0
  O  O144  1  0.40059000  0.00716000  0.13732000  1.0
  O  O145  1  0.59917000  0.99608000  0.86625000  1.0
  O  O146  1  0.55166000  0.76447000  0.28904000  1.0
  O  O147  1  0.44998000  0.23346000  0.71098000  1.0
  O  O148  1  0.96859000  0.42418000  0.80004000  1.0
  O  O149  1  0.03031000  0.57313000  0.19942000  1.0
