# generated using pymatgen
data_AgH7C5O2
_symmetry_space_group_name_H-M   'P 1'
_cell_length_a   5.90896000
_cell_length_b   8.87762000
_cell_length_c   10.40570000
_cell_angle_alpha   89.99990000
_cell_angle_beta   90.89540000
_cell_angle_gamma   89.99970000
_symmetry_Int_Tables_number   1
_chemical_formula_structural   AgH7C5O2
_chemical_formula_sum   'Ag4 H28 C20 O8'
_cell_volume   545.79036867
_cell_formula_units_Z   4
loop_
 _symmetry_equiv_pos_site_id
 _symmetry_equiv_pos_as_xyz
  1  'x, y, z'
loop_
 _atom_site_type_symbol
 _atom_site_label
 _atom_site_symmetry_multiplicity
 _atom_site_fract_x
 _atom_site_fract_y
 _atom_site_fract_z
 _atom_site_occupancy
  Ag  Ag0  1  0.91038000  0.62559000  0.56205000  1.0
  Ag  Ag1  1  0.41038000  0.87441000  0.56204000  1.0
  Ag  Ag2  1  0.08960000  0.37441000  0.43796000  1.0
  Ag  Ag3  1  0.58960000  0.12560000  0.43797000  1.0
  H  H4  1  0.73924000  0.33895000  0.66528000  1.0
  H  H5  1  0.23923000  0.16105000  0.66529000  1.0
  H  H6  1  0.26076000  0.66105000  0.33472000  1.0
  H  H7  1  0.76079000  0.83895000  0.33472000  1.0
  H  H8  1  0.09337000  0.37128000  0.78865000  1.0
  H  H9  1  0.59336000  0.12873000  0.78865000  1.0
  H  H10  1  0.90663000  0.62872000  0.21135000  1.0
  H  H11  1  0.40666000  0.87126000  0.21136000  1.0
  H  H12  1  0.90159000  0.30410000  0.90232000  1.0
  H  H13  1  0.40157000  0.19591000  0.90232000  1.0
  H  H14  1  0.09841000  0.69590000  0.09768000  1.0
  H  H15  1  0.59843000  0.80409000  0.09768000  1.0
  H  H16  1  0.96761000  0.49943000  0.89830000  1.0
  H  H17  1  0.46760000  0.00058000  0.89830000  1.0
  H  H18  1  0.03239000  0.50058000  0.10170000  1.0
  H  H19  1  0.53240000  0.99941000  0.10170000  1.0
  H  H20  1  0.38290000  0.61078000  0.90895000  1.0
  H  H21  1  0.88290000  0.88921000  0.90895000  1.0
  H  H22  1  0.61709000  0.38921000  0.09105000  1.0
  H  H23  1  0.11711000  0.11079000  0.09104000  1.0
  H  H24  1  0.53780000  0.74546000  0.82144000  1.0
  H  H25  1  0.03781000  0.75453000  0.82143000  1.0
  H  H26  1  0.46218000  0.25454000  0.17856000  1.0
  H  H27  1  0.96220000  0.24546000  0.17856000  1.0
  H  H28  1  0.68130000  0.62311000  0.93118000  1.0
  H  H29  1  0.18131000  0.87689000  0.93118000  1.0
  H  H30  1  0.31868000  0.37689000  0.06882000  1.0
  H  H31  1  0.81870000  0.12311000  0.06882000  1.0
  C  C32  1  0.38372000  0.51247000  0.65457000  1.0
  C  C33  1  0.88372000  0.98755000  0.65457000  1.0
  C  C34  1  0.61628000  0.48753000  0.34543000  1.0
  C  C35  1  0.11629000  0.01247000  0.34542000  1.0
  C  C36  1  0.57151000  0.51814000  0.75354000  1.0
  C  C37  1  0.07151000  0.98186000  0.75354000  1.0
  C  C38  1  0.42848000  0.48186000  0.24645000  1.0
  C  C39  1  0.92850000  0.01814000  0.24645000  1.0
  C  C40  1  0.74580000  0.41970000  0.74443000  1.0
  C  C41  1  0.24579000  0.08030000  0.74443000  1.0
  C  C42  1  0.25420000  0.58030000  0.25557000  1.0
  C  C43  1  0.75422000  0.91969000  0.25557000  1.0
  C  C44  1  0.93696000  0.39995000  0.83826000  1.0
  C  C45  1  0.43695000  0.10006000  0.83826000  1.0
  C  C46  1  0.06303000  0.60005000  0.16174000  1.0
  C  C47  1  0.56306000  0.89994000  0.16174000  1.0
  C  C48  1  0.54358000  0.63032000  0.85977000  1.0
  C  C49  1  0.04358000  0.86968000  0.85977000  1.0
  C  C50  1  0.45641000  0.36968000  0.14023000  1.0
  C  C51  1  0.95643000  0.13032000  0.14022000  1.0
  O  O52  1  0.25482000  0.62935000  0.64861000  1.0
  O  O53  1  0.75482000  0.87066000  0.64861000  1.0
  O  O54  1  0.74518000  0.37065000  0.35138000  1.0
  O  O55  1  0.24519000  0.12935000  0.35138000  1.0
  O  O56  1  0.35823000  0.39355000  0.58790000  1.0
  O  O57  1  0.85822000  0.10646000  0.58792000  1.0
  O  O58  1  0.64177000  0.60644000  0.41209000  1.0
  O  O59  1  0.14178000  0.89355000  0.41209000  1.0
