# generated using pymatgen
data_CdH4C6(SeN2)2
_symmetry_space_group_name_H-M   'P 1'
_cell_length_a   6.04126000
_cell_length_b   6.62833000
_cell_length_c   6.63024000
_cell_angle_alpha   70.47820000
_cell_angle_beta   85.41480000
_cell_angle_gamma   85.40770000
_symmetry_Int_Tables_number   1
_chemical_formula_structural   CdH4C6(SeN2)2
_chemical_formula_sum   'Cd1 H4 C6 Se2 N4'
_cell_volume   249.03211518
_cell_formula_units_Z   1
loop_
 _symmetry_equiv_pos_site_id
 _symmetry_equiv_pos_as_xyz
  1  'x, y, z'
loop_
 _atom_site_type_symbol
 _atom_site_label
 _atom_site_symmetry_multiplicity
 _atom_site_fract_x
 _atom_site_fract_y
 _atom_site_fract_z
 _atom_site_occupancy
  Cd  Cd0  1  0.50000000  0.99998000  0.00000000  1.0
  H  H1  1  0.18556000  0.76240000  0.43172000  1.0
  H  H2  1  0.18558000  0.43180000  0.76232000  1.0
  H  H3  1  0.81446000  0.23759000  0.56828000  1.0
  H  H4  1  0.81443000  0.56819000  0.23768000  1.0
  C  C5  1  0.03240000  0.83882000  0.83890000  1.0
  C  C6  1  0.96758000  0.16118000  0.16111000  1.0
  C  C7  1  0.32586000  0.64407000  0.46170000  1.0
  C  C8  1  0.32591000  0.46176000  0.64399000  1.0
  C  C9  1  0.67414000  0.35592000  0.53831000  1.0
  C  C10  1  0.67414000  0.53824000  0.35599000  1.0
  Se  Se11  1  0.77170000  0.77153000  0.77187000  1.0
  Se  Se12  1  0.22830000  0.22847000  0.22813000  1.0
  N  N13  1  0.20475000  0.88125000  0.88106000  1.0
  N  N14  1  0.79519000  0.11878000  0.11897000  1.0
  N  N15  1  0.49998000  0.68169000  0.31832000  1.0
  N  N16  1  0.50003000  0.31833000  0.68168000  1.0
