# generated using pymatgen
data_HgH9C11N3Cl2O
_symmetry_space_group_name_H-M   'P 1'
_cell_length_a   7.41492000
_cell_length_b   11.03500000
_cell_length_c   15.71100000
_cell_angle_alpha   89.99960000
_cell_angle_beta   86.73710000
_cell_angle_gamma   89.99960000
_symmetry_Int_Tables_number   1
_chemical_formula_structural   HgH9C11N3Cl2O
_chemical_formula_sum   'Hg4 H36 C44 N12 Cl8 O4'
_cell_volume   1283.44724344
_cell_formula_units_Z   4
loop_
 _symmetry_equiv_pos_site_id
 _symmetry_equiv_pos_as_xyz
  1  'x, y, z'
loop_
 _atom_site_type_symbol
 _atom_site_label
 _atom_site_symmetry_multiplicity
 _atom_site_fract_x
 _atom_site_fract_y
 _atom_site_fract_z
 _atom_site_occupancy
  Hg  Hg0  1  0.39888000  0.16760000  0.97273000  1.0
  Hg  Hg1  1  0.60112000  0.66760000  0.52728000  1.0
  Hg  Hg2  1  0.60112000  0.83240000  0.02727000  1.0
  Hg  Hg3  1  0.39889000  0.33240000  0.47272000  1.0
  H  H4  1  0.10663000  0.58415000  0.13171000  1.0
  H  H5  1  0.89335000  0.08414000  0.36831000  1.0
  H  H6  1  0.89337000  0.41585000  0.86830000  1.0
  H  H7  1  0.10662000  0.91585000  0.63170000  1.0
  H  H8  1  0.31207000  0.45625000  0.03539000  1.0
  H  H9  1  0.68792000  0.95623000  0.46461000  1.0
  H  H10  1  0.68793000  0.54375000  0.96461000  1.0
  H  H11  1  0.31207000  0.04375000  0.53539000  1.0
  H  H12  1  0.91366000  0.19111000  0.02903000  1.0
  H  H13  1  0.08635000  0.69110000  0.47097000  1.0
  H  H14  1  0.08634000  0.80889000  0.97097000  1.0
  H  H15  1  0.91366000  0.30890000  0.52903000  1.0
  H  H16  1  0.34260000  0.18706000  0.17827000  1.0
  H  H17  1  0.65742000  0.68706000  0.32173000  1.0
  H  H18  1  0.65742000  0.81293000  0.82174000  1.0
  H  H19  1  0.34258000  0.31294000  0.67826000  1.0
  H  H20  1  0.04278000  0.16944000  0.25236000  1.0
  H  H21  1  0.95724000  0.66944000  0.24764000  1.0
  H  H22  1  0.95724000  0.83055000  0.74765000  1.0
  H  H23  1  0.04276000  0.33056000  0.75236000  1.0
  H  H24  1  0.92260000  0.33550000  0.34848000  1.0
  H  H25  1  0.07740000  0.83551000  0.15152000  1.0
  H  H26  1  0.07741000  0.66449000  0.65152000  1.0
  H  H27  1  0.92260000  0.16450000  0.84848000  1.0
  H  H28  1  0.11277000  0.51859000  0.36947000  1.0
  H  H29  1  0.88722000  0.01859000  0.13054000  1.0
  H  H30  1  0.88724000  0.48141000  0.63053000  1.0
  H  H31  1  0.11278000  0.98142000  0.86947000  1.0
  H  H32  1  0.41289000  0.53767000  0.29464000  1.0
  H  H33  1  0.58709000  0.03767000  0.20536000  1.0
  H  H34  1  0.58711000  0.46233000  0.70535000  1.0
  H  H35  1  0.41291000  0.96234000  0.79465000  1.0
  H  H36  1  0.63619000  0.45904000  0.20080000  1.0
  H  H37  1  0.36381000  0.95904000  0.29919000  1.0
  H  H38  1  0.36381000  0.54096000  0.79919000  1.0
  H  H39  1  0.63619000  0.04097000  0.70080000  1.0
  C  C40  1  0.06248000  0.49605000  0.10938000  1.0
  C  C41  1  0.93750000  0.99604000  0.39062000  1.0
  C  C42  1  0.93752000  0.50395000  0.89062000  1.0
  C  C43  1  0.06248000  0.00395000  0.60938000  1.0
  C  C44  1  0.17674000  0.42524000  0.05573000  1.0
  C  C45  1  0.82324000  0.92522000  0.44427000  1.0
  C  C46  1  0.82326000  0.57477000  0.94427000  1.0
  C  C47  1  0.17674000  0.07477000  0.55573000  1.0
  C  C48  1  0.95835000  0.27888000  0.05202000  1.0
  C  C49  1  0.04165000  0.77887000  0.44798000  1.0
  C  C50  1  0.04165000  0.72112000  0.94798000  1.0
  C  C51  1  0.95835000  0.22113000  0.55202000  1.0
  C  C52  1  0.84566000  0.34976000  0.10658000  1.0
  C  C53  1  0.15434000  0.84976000  0.39342000  1.0
  C  C54  1  0.15434000  0.65023000  0.89342000  1.0
  C  C55  1  0.84566000  0.15024000  0.60658000  1.0
  C  C56  1  0.66285000  0.30347000  0.13597000  1.0
  C  C57  1  0.33714000  0.80347000  0.36403000  1.0
  C  C58  1  0.33714000  0.69653000  0.86403000  1.0
  C  C59  1  0.66285000  0.19653000  0.63597000  1.0
  C  C60  1  0.39800000  0.36363000  0.23083000  1.0
  C  C61  1  0.60200000  0.86362000  0.26917000  1.0
  C  C62  1  0.60201000  0.63637000  0.76917000  1.0
  C  C63  1  0.39800000  0.13638000  0.73083000  1.0
  C  C64  1  0.29246000  0.25955000  0.21988000  1.0
  C  C65  1  0.70754000  0.75954000  0.28012000  1.0
  C  C66  1  0.70755000  0.74045000  0.78012000  1.0
  C  C67  1  0.29245000  0.24046000  0.71988000  1.0
  C  C68  1  0.12277000  0.25059000  0.26230000  1.0
  C  C69  1  0.87723000  0.75059000  0.23770000  1.0
  C  C70  1  0.87724000  0.74940000  0.73771000  1.0
  C  C71  1  0.12277000  0.24941000  0.76230000  1.0
  C  C72  1  0.05597000  0.34291000  0.31599000  1.0
  C  C73  1  0.94403000  0.84291000  0.18400000  1.0
  C  C74  1  0.94404000  0.65709000  0.68401000  1.0
  C  C75  1  0.05597000  0.15710000  0.81600000  1.0
  C  C76  1  0.16206000  0.44596000  0.32731000  1.0
  C  C77  1  0.83793000  0.94596000  0.17269000  1.0
  C  C78  1  0.83794000  0.55404000  0.67269000  1.0
  C  C79  1  0.16207000  0.05405000  0.82732000  1.0
  C  C80  1  0.33206000  0.45677000  0.28504000  1.0
  C  C81  1  0.66792000  0.95677000  0.21497000  1.0
  C  C82  1  0.66794000  0.54323000  0.71496000  1.0
  C  C83  1  0.33207000  0.04324000  0.78504000  1.0
  N  N84  1  0.89761000  0.45816000  0.13527000  1.0
  N  N85  1  0.10238000  0.95816000  0.36473000  1.0
  N  N86  1  0.10239000  0.54184000  0.86473000  1.0
  N  N87  1  0.89761000  0.04184000  0.63527000  1.0
  N  N88  1  0.12451000  0.31707000  0.02732000  1.0
  N  N89  1  0.87549000  0.81705000  0.47268000  1.0
  N  N90  1  0.87550000  0.68293000  0.97268000  1.0
  N  N91  1  0.12451000  0.18294000  0.52732000  1.0
  N  N92  1  0.56935000  0.37979000  0.18989000  1.0
  N  N93  1  0.43065000  0.87978000  0.31011000  1.0
  N  N94  1  0.43066000  0.62021000  0.81011000  1.0
  N  N95  1  0.56934000  0.12022000  0.68989000  1.0
  Cl  Cl96  1  0.55148000  0.32368000  0.89691000  1.0
  Cl  Cl97  1  0.44852000  0.82369000  0.60309000  1.0
  Cl  Cl98  1  0.44853000  0.67631000  0.10309000  1.0
  Cl  Cl99  1  0.55147000  0.17631000  0.39691000  1.0
  Cl  Cl100  1  0.26076000  0.00896000  0.05323000  1.0
  Cl  Cl101  1  0.73925000  0.50896000  0.44677000  1.0
  Cl  Cl102  1  0.73926000  0.99103000  0.94677000  1.0
  Cl  Cl103  1  0.26074000  0.49104000  0.55322000  1.0
  O  O104  1  0.60962000  0.20280000  0.11164000  1.0
  O  O105  1  0.39038000  0.70280000  0.38836000  1.0
  O  O106  1  0.39037000  0.79720000  0.88835000  1.0
  O  O107  1  0.60962000  0.29720000  0.61163000  1.0
