# generated using pymatgen
data_Zn2H16C36(N4O3)3
_symmetry_space_group_name_H-M   'P 1'
_cell_length_a   19.39600000
_cell_length_b   20.53530000
_cell_length_c   20.96050000
_cell_angle_alpha   67.77900000
_cell_angle_beta   68.75340000
_cell_angle_gamma   103.94560000
_symmetry_Int_Tables_number   1
_chemical_formula_structural   Zn2H16C36(N4O3)3
_chemical_formula_sum   'Zn4 H32 C72 N24 O18'
_cell_volume   6475.00738220
_cell_formula_units_Z   2
loop_
 _symmetry_equiv_pos_site_id
 _symmetry_equiv_pos_as_xyz
  1  'x, y, z'
loop_
 _atom_site_type_symbol
 _atom_site_label
 _atom_site_symmetry_multiplicity
 _atom_site_fract_x
 _atom_site_fract_y
 _atom_site_fract_z
 _atom_site_occupancy
  Zn  Zn0  1  0.01210000  0.10278000  0.40785000  1.0
  Zn  Zn1  1  0.01226000  0.87057000  0.57690000  1.0
  Zn  Zn2  1  0.12109000  0.99815000  0.37664000  1.0
  Zn  Zn3  1  0.93130000  0.00592000  0.60975000  1.0
  H  H4  1  0.97574000  0.13057000  0.25281000  1.0
  H  H5  1  0.01807000  0.87655000  0.79796000  1.0
  H  H6  1  0.85443000  0.70750000  0.73906000  1.0
  H  H7  1  0.16393000  0.24630000  0.35616000  1.0
  H  H8  1  0.10878000  0.85348000  0.32552000  1.0
  H  H9  1  0.95850000  0.16036000  0.62467000  1.0
  H  H10  1  0.76028000  0.03814000  0.64403000  1.0
  H  H11  1  0.27592000  0.09859000  0.37555000  1.0
  H  H12  1  0.91411000  0.73069000  0.57247000  1.0
  H  H13  1  0.98610000  0.26175000  0.38923000  1.0
  H  H14  1  0.84727000  0.06721000  0.40881000  1.0
  H  H15  1  0.14097000  0.93671000  0.63106000  1.0
  H  H16  1  0.75392000  0.87686000  0.71332000  1.0
  H  H17  1  0.30763000  0.16862000  0.21480000  1.0
  H  H18  1  0.05370000  0.94574000  0.28078000  1.0
  H  H19  1  0.04394000  0.10639000  0.64968000  1.0
  H  H20  1  0.58426000  0.05379000  0.43289000  1.0
  H  H21  1  0.45277000  0.15857000  0.59120000  1.0
  H  H22  1  0.42342000  0.96983000  0.56944000  1.0
  H  H23  1  0.61264000  0.24195000  0.45519000  1.0
  H  H24  1  0.55046000  0.18437000  0.37433000  1.0
  H  H25  1  0.48624000  0.02820000  0.65005000  1.0
  H  H26  1  0.51035000  0.51217000  0.92606000  1.0
  H  H27  1  0.51722000  0.53087000  0.15101000  1.0
  H  H28  1  0.38062000  0.51002000  0.04884000  1.0
  H  H29  1  0.64726000  0.53408000  0.02811000  1.0
  H  H30  1  0.04676000  0.57374000  0.38963000  1.0
  H  H31  1  0.75771000  0.38410000  0.59058000  1.0
  H  H32  1  0.92737000  0.94598000  0.06433000  1.0
  H  H33  1  0.20155000  0.16696000  0.85603000  1.0
  H  H34  1  0.98828000  0.47106000  0.59392000  1.0
  H  H35  1  0.82269000  0.49374000  0.38241000  1.0
  C  C36  1  0.99596000  0.08533000  0.27100000  1.0
  C  C37  1  0.01689000  0.92682000  0.75585000  1.0
  C  C38  1  0.84311000  0.75898000  0.72117000  1.0
  C  C39  1  0.18749000  0.21467000  0.32946000  1.0
  C  C40  1  0.06719000  0.83492000  0.38689000  1.0
  C  C41  1  0.97106000  0.17574000  0.56468000  1.0
  C  C42  1  0.79246000  0.04169000  0.58740000  1.0
  C  C43  1  0.23157000  0.05172000  0.43660000  1.0
  C  C44  1  0.96736000  0.77200000  0.51323000  1.0
  C  C45  1  0.98416000  0.22725000  0.44448000  1.0
  C  C46  1  0.83702000  0.05636000  0.46710000  1.0
  C  C47  1  0.16316000  0.96901000  0.56757000  1.0
  C  C48  1  0.79196000  0.84596000  0.70809000  1.0
  C  C49  1  0.26068000  0.17468000  0.25694000  1.0
  C  C50  1  0.03548000  0.99028000  0.28595000  1.0
  C  C51  1  0.03059000  0.04509000  0.68044000  1.0
  C  C52  1  0.01334000  0.03932000  0.23736000  1.0
  C  C53  1  0.04934000  0.00555000  0.73803000  1.0
  C  C54  1  0.77117000  0.76670000  0.75745000  1.0
  C  C55  1  0.26624000  0.23988000  0.26655000  1.0
  C  C56  1  0.99583000  0.76381000  0.44602000  1.0
  C  C57  1  0.95806000  0.23308000  0.51333000  1.0
  C  C58  1  0.77684000  0.06320000  0.52355000  1.0
  C  C59  1  0.23863000  0.03352000  0.50528000  1.0
  C  C60  1  0.46657000  0.03007000  0.54412000  1.0
  C  C61  1  0.57026000  0.18138000  0.48048000  1.0
  C  C62  1  0.55378000  0.07672000  0.46806000  1.0
  C  C63  1  0.48204000  0.13501000  0.55611000  1.0
  C  C64  1  0.71476000  0.08503000  0.51855000  1.0
  C  C65  1  0.30885000  0.06690000  0.50865000  1.0
  C  C66  1  0.49957000  0.06245000  0.58887000  1.0
  C  C67  1  0.53661000  0.14939000  0.43558000  1.0
  C  C68  1  0.58922000  0.10836000  0.51311000  1.0
  C  C69  1  0.44677000  0.10235000  0.51130000  1.0
  C  C70  1  0.65991000  0.10262000  0.51487000  1.0
  C  C71  1  0.37213000  0.09016000  0.51017000  1.0
  C  C72  1  0.52628000  0.46029000  0.03823000  1.0
  C  C73  1  0.50219000  0.58303000  0.03851000  1.0
  C  C74  1  0.51112000  0.51634000  0.97619000  1.0
  C  C75  1  0.51586000  0.52600000  0.10135000  1.0
  C  C76  1  0.69888000  0.70794000  0.82951000  1.0
  C  C77  1  0.33230000  0.31502000  0.21926000  1.0
  C  C78  1  0.58778000  0.52840000  0.03335000  1.0
  C  C79  1  0.43996000  0.51487000  0.04357000  1.0
  C  C80  1  0.57622000  0.58766000  0.96754000  1.0
  C  C81  1  0.45124000  0.45489000  0.10905000  1.0
  C  C82  1  0.64068000  0.65442000  0.89427000  1.0
  C  C83  1  0.38774000  0.38143000  0.17498000  1.0
  C  C84  1  0.98323000  0.53110000  0.43512000  1.0
  C  C85  1  0.82192000  0.42573000  0.54625000  1.0
  C  C86  1  0.95182000  0.46585000  0.52259000  1.0
  C  C87  1  0.85325000  0.49267000  0.45879000  1.0
  C  C88  1  0.92694000  0.28544000  0.52362000  1.0
  C  C89  1  0.96212000  0.69565000  0.44502000  1.0
  C  C90  1  0.92644000  0.47306000  0.42529000  1.0
  C  C91  1  0.87767000  0.48395000  0.55653000  1.0
  C  C92  1  0.89494000  0.40369000  0.51303000  1.0
  C  C93  1  0.91198000  0.55466000  0.46849000  1.0
  C  C94  1  0.89994000  0.33287000  0.52642000  1.0
  C  C95  1  0.93150000  0.63232000  0.45169000  1.0
  C  C96  1  0.00665000  0.06576000  0.94158000  1.0
  C  C97  1  0.12225000  0.04725000  0.97892000  1.0
  C  C98  1  0.98777000  0.99468000  0.01846000  1.0
  C  C99  1  0.14118000  0.11799000  0.90147000  1.0
  C  C100  1  0.01679000  0.04472000  0.16737000  1.0
  C  C101  1  0.07827000  0.03289000  0.77937000  1.0
  C  C102  1  0.06386000  0.12466000  0.95067000  1.0
  C  C103  1  0.06522000  0.98801000  0.97005000  1.0
  C  C104  1  0.04294000  0.05293000  0.03208000  1.0
  C  C105  1  0.08582000  0.05940000  0.88839000  1.0
  C  C106  1  0.02543000  0.04977000  0.10479000  1.0
  C  C107  1  0.09677000  0.05306000  0.82122000  1.0
  N  N108  1  0.00836000  0.06544000  0.33321000  1.0
  N  N109  1  0.98125000  0.91958000  0.71373000  1.0
  N  N110  1  0.90109000  0.82880000  0.65689000  1.0
  N  N111  1  0.13910000  0.14093000  0.35447000  1.0
  N  N112  1  0.08015000  0.88108000  0.41698000  1.0
  N  N113  1  0.00130000  0.13787000  0.52984000  1.0
  N  N114  1  0.85658000  0.02417000  0.56913000  1.0
  N  N115  1  0.15851000  0.00100000  0.45612000  1.0
  N  N116  1  0.01819000  0.84158000  0.49542000  1.0
  N  N117  1  0.00955000  0.17074000  0.45538000  1.0
  N  N118  1  0.88507000  0.03311000  0.49492000  1.0
  N  N119  1  0.11642000  0.95021000  0.53704000  1.0
  N  N120  1  0.87059000  0.88297000  0.64825000  1.0
  N  N121  1  0.18432000  0.11644000  0.30935000  1.0
  N  N122  1  0.03265000  0.00669000  0.34298000  1.0
  N  N123  1  0.98958000  0.99270000  0.66762000  1.0
  N  N124  1  0.53250000  0.38865000  0.04575000  1.0
  N  N125  1  0.49472000  0.65398000  0.03299000  1.0
  N  N126  1  0.85461000  0.49485000  0.62427000  1.0
  N  N127  1  0.94911000  0.46142000  0.35794000  1.0
  N  N128  1  0.95060000  0.07959000  0.91246000  1.0
  N  N129  1  0.17920000  0.03427000  0.00735000  1.0
  N  N130  1  0.07127000  0.91779000  0.97169000  1.0
  N  N131  1  0.05873000  0.19609000  0.94695000  1.0
  O  O132  1  0.48588000  0.34827000  0.03345000  1.0
  O  O133  1  0.58007000  0.37139000  0.06806000  1.0
  O  O134  1  0.45991000  0.67902000  0.99680000  1.0
  O  O135  1  0.52694000  0.68537000  0.06166000  1.0
  O  O136  1  0.99769000  0.45059000  0.55757000  1.0
  O  O137  1  0.80553000  0.50561000  0.42550000  1.0
  O  O138  1  0.78326000  0.48443000  0.66236000  1.0
  O  O139  1  0.91137000  0.51700000  0.63762000  1.0
  O  O140  1  0.01233000  0.45260000  0.33296000  1.0
  O  O141  1  0.90036000  0.45795000  0.33166000  1.0
  O  O142  1  0.88233000  0.02463000  0.94583000  1.0
  O  O143  1  0.97939000  0.14503000  0.85305000  1.0
  O  O144  1  0.24921000  0.08782000  0.97026000  1.0
  O  O145  1  0.14966000  0.97079000  0.06943000  1.0
  O  O146  1  0.14170000  0.92252000  0.94299000  1.0
  O  O147  1  0.00668000  0.86206000  0.99691000  1.0
  O  O148  1  0.98828000  0.18960000  0.98167000  1.0
  O  O149  1  0.12413000  0.25474000  0.91305000  1.0
