# generated using pymatgen
data_CuH6C6SN
_symmetry_space_group_name_H-M   'P 1'
_cell_length_a   6.09895000
_cell_length_b   7.00153000
_cell_length_c   13.66520000
_cell_angle_alpha   89.99610000
_cell_angle_beta   95.55560000
_cell_angle_gamma   89.99960000
_symmetry_Int_Tables_number   1
_chemical_formula_structural   CuH6C6SN
_chemical_formula_sum   'Cu4 H24 C24 S4 N4'
_cell_volume   580.79010610
_cell_formula_units_Z   4
loop_
 _symmetry_equiv_pos_site_id
 _symmetry_equiv_pos_as_xyz
  1  'x, y, z'
loop_
 _atom_site_type_symbol
 _atom_site_label
 _atom_site_symmetry_multiplicity
 _atom_site_fract_x
 _atom_site_fract_y
 _atom_site_fract_z
 _atom_site_occupancy
  Cu  Cu0  1  0.78357000  0.12022000  0.94386000  1.0
  Cu  Cu1  1  0.71643000  0.62021000  0.05614000  1.0
  Cu  Cu2  1  0.21644000  0.87977000  0.05614000  1.0
  Cu  Cu3  1  0.28356000  0.37978000  0.94386000  1.0
  H  H4  1  0.09424000  0.85267000  0.26485000  1.0
  H  H5  1  0.40577000  0.35273000  0.73516000  1.0
  H  H6  1  0.90578000  0.14732000  0.73515000  1.0
  H  H7  1  0.59423000  0.64727000  0.26485000  1.0
  H  H8  1  0.37886000  0.14139000  0.33039000  1.0
  H  H9  1  0.12111000  0.64149000  0.66960000  1.0
  H  H10  1  0.62114000  0.85861000  0.66961000  1.0
  H  H11  1  0.87888000  0.35854000  0.33040000  1.0
  H  H12  1  0.00756000  0.89822000  0.43684000  1.0
  H  H13  1  0.49242000  0.39832000  0.56316000  1.0
  H  H14  1  0.99243000  0.10177000  0.56315000  1.0
  H  H15  1  0.50757000  0.60171000  0.43685000  1.0
  H  H16  1  0.64957000  0.04949000  0.47004000  1.0
  H  H17  1  0.85040000  0.54963000  0.52996000  1.0
  H  H18  1  0.35042000  0.95050000  0.52995000  1.0
  H  H19  1  0.14959000  0.45041000  0.47005000  1.0
  H  H20  1  0.31521000  0.19205000  0.16134000  1.0
  H  H21  1  0.18478000  0.69207000  0.83864000  1.0
  H  H22  1  0.68481000  0.80796000  0.83865000  1.0
  H  H23  1  0.81521000  0.30793000  0.16136000  1.0
  H  H24  1  0.49182000  0.13905000  0.07992000  1.0
  H  H25  1  0.00819000  0.63907000  0.92007000  1.0
  H  H26  1  0.50819000  0.86094000  0.92006000  1.0
  H  H27  1  0.99184000  0.36091000  0.07994000  1.0
  C  C28  1  0.78482000  0.96387000  0.20040000  1.0
  C  C29  1  0.71515000  0.46391000  0.79961000  1.0
  C  C30  1  0.21517000  0.03612000  0.79961000  1.0
  C  C31  1  0.28484000  0.53608000  0.20039000  1.0
  C  C32  1  0.93729000  0.91514000  0.27998000  1.0
  C  C33  1  0.56269000  0.41521000  0.72003000  1.0
  C  C34  1  0.06269000  0.08486000  0.72002000  1.0
  C  C35  1  0.43730000  0.58482000  0.27998000  1.0
  C  C36  1  0.58070000  0.04485000  0.21926000  1.0
  C  C37  1  0.91932000  0.54492000  0.78073000  1.0
  C  C38  1  0.41933000  0.95512000  0.78073000  1.0
  C  C39  1  0.08069000  0.45508000  0.21928000  1.0
  C  C40  1  0.53540000  0.07610000  0.31666000  1.0
  C  C41  1  0.96457000  0.57621000  0.68333000  1.0
  C  C42  1  0.46460000  0.92388000  0.68333000  1.0
  C  C43  1  0.03538000  0.42380000  0.31667000  1.0
  C  C44  1  0.88839000  0.94172000  0.37650000  1.0
  C  C45  1  0.61161000  0.44180000  0.62351000  1.0
  C  C46  1  0.11161000  0.05827000  0.62350000  1.0
  C  C47  1  0.38839000  0.55821000  0.37650000  1.0
  C  C48  1  0.68745000  0.02394000  0.39479000  1.0
  C  C49  1  0.81255000  0.52405000  0.60521000  1.0
  C  C50  1  0.31255000  0.97606000  0.60521000  1.0
  C  C51  1  0.18746000  0.47599000  0.39479000  1.0
  S  S52  1  0.84772000  0.91733000  0.07849000  1.0
  S  S53  1  0.65228000  0.41735000  0.92151000  1.0
  S  S54  1  0.15226000  0.08265000  0.92151000  1.0
  S  S55  1  0.34775000  0.58264000  0.07849000  1.0
  N  N56  1  0.42085000  0.08989000  0.14048000  1.0
  N  N57  1  0.07914000  0.58993000  0.85953000  1.0
  N  N58  1  0.57914000  0.91010000  0.85952000  1.0
  N  N59  1  0.92087000  0.41007000  0.14050000  1.0
