# generated using pymatgen
data_ZnH15C18N3O5
_symmetry_space_group_name_H-M   'P 1'
_cell_length_a   11.06390000
_cell_length_b   13.95654114
_cell_length_c   14.92670000
_cell_angle_alpha   62.12908872
_cell_angle_beta   86.62690000
_cell_angle_gamma   82.76945016
_symmetry_Int_Tables_number   1
_chemical_formula_structural   ZnH15C18N3O5
_chemical_formula_sum   'Zn4 H60 C72 N12 O20'
_cell_volume   2021.32521676
_cell_formula_units_Z   4
loop_
 _symmetry_equiv_pos_site_id
 _symmetry_equiv_pos_as_xyz
  1  'x, y, z'
loop_
 _atom_site_type_symbol
 _atom_site_label
 _atom_site_symmetry_multiplicity
 _atom_site_fract_x
 _atom_site_fract_y
 _atom_site_fract_z
 _atom_site_occupancy
  Zn  Zn0  1  0.41196000  0.17257000  0.55415000  1.0
  Zn  Zn1  1  0.08798000  0.27326000  0.55416000  1.0
  Zn  Zn2  1  0.58802000  0.82743000  0.44584000  1.0
  Zn  Zn3  1  0.91200000  0.72672000  0.44586000  1.0
  H  H4  1  0.40949000  0.45919000  0.23383000  1.0
  H  H5  1  0.09046000  0.30700000  0.23384000  1.0
  H  H6  1  0.59051000  0.54084000  0.76616000  1.0
  H  H7  1  0.90946000  0.69301000  0.76618000  1.0
  H  H8  1  0.38662000  0.54915000  0.04464000  1.0
  H  H9  1  0.11337000  0.40623000  0.04464000  1.0
  H  H10  1  0.61339000  0.45087000  0.95534000  1.0
  H  H11  1  0.88661000  0.59379000  0.95538000  1.0
  H  H12  1  0.37836000  0.23548000  0.05758000  1.0
  H  H13  1  0.12163000  0.70694000  0.05760000  1.0
  H  H14  1  0.62162000  0.76453000  0.94242000  1.0
  H  H15  1  0.87833000  0.29307000  0.94242000  1.0
  H  H16  1  0.40877000  0.14640000  0.24482000  1.0
  H  H17  1  0.09119000  0.60880000  0.24484000  1.0
  H  H18  1  0.59120000  0.85363000  0.75517000  1.0
  H  H19  1  0.90875000  0.39122000  0.75518000  1.0
  H  H20  1  0.48627000  0.24430000  0.78540000  1.0
  H  H21  1  0.01375000  0.97025000  0.78542000  1.0
  H  H22  1  0.51375000  0.75568000  0.21458000  1.0
  H  H23  1  0.98625000  0.02972000  0.21459000  1.0
  H  H24  1  0.51688000  0.31091000  0.91204000  1.0
  H  H25  1  0.98318000  0.77700000  0.91209000  1.0
  H  H26  1  0.48316000  0.68907000  0.08794000  1.0
  H  H27  1  0.01687000  0.22298000  0.08793000  1.0
  H  H28  1  0.16827000  0.50485000  0.82867000  1.0
  H  H29  1  0.33176000  0.66647000  0.82866000  1.0
  H  H30  1  0.83178000  0.49512000  0.17135000  1.0
  H  H31  1  0.66824000  0.33353000  0.17134000  1.0
  H  H32  1  0.13988000  0.43965000  0.70107000  1.0
  H  H33  1  0.36011000  0.85927000  0.70103000  1.0
  H  H34  1  0.86012000  0.56032000  0.29896000  1.0
  H  H35  1  0.63988000  0.14071000  0.29894000  1.0
  H  H36  1  0.63162000  0.04032000  0.49584000  1.0
  H  H37  1  0.86842000  0.46380000  0.49583000  1.0
  H  H38  1  0.36840000  0.95967000  0.50415000  1.0
  H  H39  1  0.13158000  0.53619000  0.50417000  1.0
  H  H40  1  0.61799000  0.14180000  0.72065000  1.0
  H  H41  1  0.88203000  0.13754000  0.72062000  1.0
  H  H42  1  0.38198000  0.85814000  0.27939000  1.0
  H  H43  1  0.11795000  0.86247000  0.27933000  1.0
  H  H44  1  0.83170000  0.89570000  0.56033000  1.0
  H  H45  1  0.66829000  0.54396000  0.56034000  1.0
  H  H46  1  0.16829000  0.10430000  0.43965000  1.0
  H  H47  1  0.33168000  0.45604000  0.43967000  1.0
  H  H48  1  0.91401000  0.89026000  0.66020000  1.0
  H  H49  1  0.58599000  0.44955000  0.66020000  1.0
  H  H50  1  0.08600000  0.10974000  0.33979000  1.0
  H  H51  1  0.41404000  0.55047000  0.33980000  1.0
  H  H52  1  0.97454000  0.07844000  0.54673000  1.0
  H  H53  1  0.52547000  0.37480000  0.54677000  1.0
  H  H54  1  0.02548000  0.92156000  0.45324000  1.0
  H  H55  1  0.47452000  0.62517000  0.45329000  1.0
  H  H56  1  0.89071000  0.08490000  0.44626000  1.0
  H  H57  1  0.60932000  0.46882000  0.44626000  1.0
  H  H58  1  0.10932000  0.91508000  0.55374000  1.0
  H  H59  1  0.39069000  0.53117000  0.55374000  1.0
  H  H60  1  0.78381000  0.96719000  0.76148000  1.0
  H  H61  1  0.71626000  0.27140000  0.76154000  1.0
  H  H62  1  0.21627000  0.03288000  0.23849000  1.0
  H  H63  1  0.28384000  0.72867000  0.23851000  1.0
  C  C64  1  0.40968000  0.29715000  0.25104000  1.0
  C  C65  1  0.09029000  0.45183000  0.25104000  1.0
  C  C66  1  0.59030000  0.70287000  0.74895000  1.0
  C  C67  1  0.90966000  0.54819000  0.74896000  1.0
  C  C68  1  0.40447000  0.41087000  0.19448000  1.0
  C  C69  1  0.09549000  0.39466000  0.19449000  1.0
  C  C70  1  0.59552000  0.58915000  0.80550000  1.0
  C  C71  1  0.90444000  0.60535000  0.80553000  1.0
  C  C72  1  0.39211000  0.46094000  0.09003000  1.0
  C  C73  1  0.10788000  0.44903000  0.09005000  1.0
  C  C74  1  0.60789000  0.53908000  0.90994000  1.0
  C  C75  1  0.89210000  0.55097000  0.90998000  1.0
  C  C76  1  0.38098000  0.39806000  0.04090000  1.0
  C  C77  1  0.11904000  0.56102000  0.04093000  1.0
  C  C78  1  0.61903000  0.60194000  0.95908000  1.0
  C  C79  1  0.88096000  0.43897000  0.95911000  1.0
  C  C80  1  0.38698000  0.28439000  0.09575000  1.0
  C  C81  1  0.11300000  0.61986000  0.09576000  1.0
  C  C82  1  0.61301000  0.71562000  0.90425000  1.0
  C  C83  1  0.88696000  0.38015000  0.90425000  1.0
  C  C84  1  0.40257000  0.23495000  0.20046000  1.0
  C  C85  1  0.09739000  0.56461000  0.20046000  1.0
  C  C86  1  0.59740000  0.76507000  0.79953000  1.0
  C  C87  1  0.90255000  0.43542000  0.79954000  1.0
  C  C88  1  0.42109000  0.24088000  0.36324000  1.0
  C  C89  1  0.07887000  0.39588000  0.36326000  1.0
  C  C90  1  0.57889000  0.75914000  0.63675000  1.0
  C  C91  1  0.92106000  0.60413000  0.63675000  1.0
  C  C92  1  0.31228000  0.33847000  0.73561000  1.0
  C  C93  1  0.18771000  0.92589000  0.73560000  1.0
  C  C94  1  0.68772000  0.66151000  0.26440000  1.0
  C  C95  1  0.81228000  0.07410000  0.26438000  1.0
  C  C96  1  0.41781000  0.30174000  0.79561000  1.0
  C  C97  1  0.08219000  0.90260000  0.79564000  1.0
  C  C98  1  0.58219000  0.69824000  0.20438000  1.0
  C  C99  1  0.91781000  0.09738000  0.20437000  1.0
  C  C100  1  0.43460000  0.33809000  0.86593000  1.0
  C  C101  1  0.06544000  0.79594000  0.86596000  1.0
  C  C102  1  0.56543000  0.66189000  0.13406000  1.0
  C  C103  1  0.93460000  0.20404000  0.13406000  1.0
  C  C104  1  0.34346000  0.41138000  0.87662000  1.0
  C  C105  1  0.15659000  0.71197000  0.87664000  1.0
  C  C106  1  0.65659000  0.58861000  0.12336000  1.0
  C  C107  1  0.84343000  0.28801000  0.12336000  1.0
  C  C108  1  0.23743000  0.44827000  0.81790000  1.0
  C  C109  1  0.26261000  0.73382000  0.81789000  1.0
  C  C110  1  0.76261000  0.55171000  0.18210000  1.0
  C  C111  1  0.73741000  0.26618000  0.18209000  1.0
  C  C112  1  0.22214000  0.41194000  0.74735000  1.0
  C  C113  1  0.27786000  0.84070000  0.74733000  1.0
  C  C114  1  0.77787000  0.58804000  0.25267000  1.0
  C  C115  1  0.72213000  0.15929000  0.25265000  1.0
  C  C116  1  0.29611000  0.29957000  0.65972000  1.0
  C  C117  1  0.20383000  0.04068000  0.65973000  1.0
  C  C118  1  0.70387000  0.70042000  0.34027000  1.0
  C  C119  1  0.79616000  0.95930000  0.34028000  1.0
  C  C120  1  0.65288000  0.04764000  0.56217000  1.0
  C  C121  1  0.84710000  0.39016000  0.56215000  1.0
  C  C122  1  0.34712000  0.95235000  0.43782000  1.0
  C  C123  1  0.15289000  0.60983000  0.43785000  1.0
  C  C124  1  0.63671000  0.08402000  0.69023000  1.0
  C  C125  1  0.86330000  0.22574000  0.69026000  1.0
  C  C126  1  0.36331000  0.91600000  0.30973000  1.0
  C  C127  1  0.13671000  0.77427000  0.30978000  1.0
  C  C128  1  0.86331000  0.94655000  0.59035000  1.0
  C  C129  1  0.63668000  0.46308000  0.59040000  1.0
  C  C130  1  0.13669000  0.05346000  0.40962000  1.0
  C  C131  1  0.36331000  0.53692000  0.40964000  1.0
  C  C132  1  0.94482000  0.02882000  0.51436000  1.0
  C  C133  1  0.55521000  0.45679000  0.51438000  1.0
  C  C134  1  0.05522000  0.97116000  0.48563000  1.0
  C  C135  1  0.44481000  0.54317000  0.48565000  1.0
  N  N136  1  0.58187000  0.10029000  0.60351000  1.0
  N  N137  1  0.91807000  0.29618000  0.60348000  1.0
  N  N138  1  0.41812000  0.89969000  0.39650000  1.0
  N  N139  1  0.08191000  0.70382000  0.39650000  1.0
  N  N140  1  0.75702000  0.03227000  0.69334000  1.0
  N  N141  1  0.74301000  0.27439000  0.69342000  1.0
  N  N142  1  0.24300000  0.96777000  0.30661000  1.0
  N  N143  1  0.25700000  0.72562000  0.30664000  1.0
  N  N144  1  0.75433000  0.99549000  0.61889000  1.0
  N  N145  1  0.74568000  0.38561000  0.61891000  1.0
  N  N146  1  0.24569000  0.00453000  0.38108000  1.0
  N  N147  1  0.25433000  0.61441000  0.38111000  1.0
  O  O148  1  0.45271000  0.13940000  0.40902000  1.0
  O  O149  1  0.04723000  0.45160000  0.40902000  1.0
  O  O150  1  0.54723000  0.86062000  0.59097000  1.0
  O  O151  1  0.95273000  0.54844000  0.59096000  1.0
  O  O152  1  0.39663000  0.29749000  0.41197000  1.0
  O  O153  1  0.10339000  0.29056000  0.41199000  1.0
  O  O154  1  0.60338000  0.70256000  0.58800000  1.0
  O  O155  1  0.89660000  0.70946000  0.58802000  1.0
  O  O156  1  0.35694000  0.45774000  0.93879000  1.0
  O  O157  1  0.14316000  0.60342000  0.93883000  1.0
  O  O158  1  0.64314000  0.54225000  0.06118000  1.0
  O  O159  1  0.85689000  0.39655000  0.06120000  1.0
  O  O160  1  0.38114000  0.23191000  0.65399000  1.0
  O  O161  1  0.11883000  0.11407000  0.65396000  1.0
  O  O162  1  0.61886000  0.76807000  0.34601000  1.0
  O  O163  1  0.88117000  0.88592000  0.34601000  1.0
  O  O164  1  0.19994000  0.33830000  0.60552000  1.0
  O  O165  1  0.30004000  0.05615000  0.60553000  1.0
  O  O166  1  0.80005000  0.66170000  0.39448000  1.0
  O  O167  1  0.69998000  0.94383000  0.39449000  1.0
