# generated using pymatgen
data_Zn4H5C24S4N2ClO17
_symmetry_space_group_name_H-M   'P 1'
_cell_length_a   19.60440000
_cell_length_b   19.61440000
_cell_length_c   33.31090000
_cell_angle_alpha   79.15840000
_cell_angle_beta   79.15300000
_cell_angle_gamma   63.96240000
_symmetry_Int_Tables_number   1
_chemical_formula_structural   Zn4H5C24S4N2ClO17
_chemical_formula_sum   'Zn16 H20 C96 S16 N8 Cl4 O68'
_cell_volume   11222.27936404
_cell_formula_units_Z   4
loop_
 _symmetry_equiv_pos_site_id
 _symmetry_equiv_pos_as_xyz
  1  'x, y, z'
loop_
 _atom_site_type_symbol
 _atom_site_label
 _atom_site_symmetry_multiplicity
 _atom_site_fract_x
 _atom_site_fract_y
 _atom_site_fract_z
 _atom_site_occupancy
  Zn  Zn0  1  0.59918000  0.94589000  0.52297000  1.0
  Zn  Zn1  1  0.51697000  0.01127000  0.43967000  1.0
  Zn  Zn2  1  0.43821000  0.94157000  0.51894000  1.0
  Zn  Zn3  1  0.44640000  0.10034000  0.51953000  1.0
  Zn  Zn4  1  0.65064000  0.30681000  0.72869000  1.0
  Zn  Zn5  1  0.81081000  0.31082000  0.73500000  1.0
  Zn  Zn6  1  0.73493000  0.22799000  0.80980000  1.0
  Zn  Zn7  1  0.80447000  0.15299000  0.72571000  1.0
  Zn  Zn8  1  0.23444000  0.73030000  0.31107000  1.0
  Zn  Zn9  1  0.30395000  0.65021000  0.22836000  1.0
  Zn  Zn10  1  0.15184000  0.80589000  0.22981000  1.0
  Zn  Zn11  1  0.31361000  0.80804000  0.23521000  1.0
  Zn  Zn12  1  0.94071000  0.43827000  0.01821000  1.0
  Zn  Zn13  1  0.94527000  0.59889000  0.02161000  1.0
  Zn  Zn14  1  0.09983000  0.44440000  0.02260000  1.0
  Zn  Zn15  1  0.01713000  0.51432000  0.94003000  1.0
  H  H16  1  0.75274000  0.05669000  0.64257000  1.0
  H  H17  1  0.53471000  0.24939000  0.65648000  1.0
  H  H18  1  0.70192000  0.00978000  0.59503000  1.0
  H  H19  1  0.41062000  0.89467000  0.30306000  1.0
  H  H20  1  0.29545000  0.79717000  0.40356000  1.0
  H  H21  1  0.45180000  0.94448000  0.35372000  1.0
  H  H22  1  0.76341000  0.53761000  0.65802000  1.0
  H  H23  1  0.29855000  0.51512000  0.39813000  1.0
  H  H24  1  0.02096000  0.79553000  0.40003000  1.0
  H  H25  1  0.03611000  0.04859000  0.65608000  1.0
  H  H26  1  0.94627000  0.44889000  0.84853000  1.0
  H  H27  1  0.84171000  0.35036000  0.95399000  1.0
  H  H28  1  0.89398000  0.40065000  0.80258000  1.0
  H  H29  1  0.23137000  0.45431000  0.85150000  1.0
  H  H30  1  0.85855000  0.83769000  0.95743000  1.0
  H  H31  1  0.20689000  0.50025000  0.10142000  1.0
  H  H32  1  0.99920000  0.70649000  0.09765000  1.0
  H  H33  1  0.25043000  0.55271000  0.14966000  1.0
  H  H34  1  0.71771000  0.70192000  0.09695000  1.0
  H  H35  1  0.99088000  0.21254000  0.09372000  1.0
  C  C36  1  0.68278000  0.93581000  0.44047000  1.0
  C  C37  1  0.42908000  0.92755000  0.43432000  1.0
  C  C38  1  0.55998000  0.82011000  0.56302000  1.0
  C  C39  1  0.31854000  0.06483000  0.56137000  1.0
  C  C40  1  0.56802000  0.07264000  0.56777000  1.0
  C  C41  1  0.44054000  0.17728000  0.43633000  1.0
  C  C42  1  0.69210000  0.43400000  0.68844000  1.0
  C  C43  1  0.81094000  0.32231000  0.82134000  1.0
  C  C44  1  0.56910000  0.30460000  0.81124000  1.0
  C  C45  1  0.81706000  0.06426000  0.80778000  1.0
  C  C46  1  0.67668000  0.18535000  0.67996000  1.0
  C  C47  1  0.93603000  0.18783000  0.69055000  1.0
  C  C48  1  0.30815000  0.56337000  0.31121000  1.0
  C  C49  1  0.18014000  0.68264000  0.18138000  1.0
  C  C50  1  0.06708000  0.81426000  0.31307000  1.0
  C  C51  1  0.19133000  0.93130000  0.19071000  1.0
  C  C52  1  0.32481000  0.81247000  0.32106000  1.0
  C  C53  1  0.43138000  0.68989000  0.18871000  1.0
  C  C54  1  0.81591000  0.56284000  0.06167000  1.0
  C  C55  1  0.07174000  0.57037000  0.06846000  1.0
  C  C56  1  0.06241000  0.31512000  0.06299000  1.0
  C  C57  1  0.18450000  0.43726000  0.93854000  1.0
  C  C58  1  0.92869000  0.42939000  0.93229000  1.0
  C  C59  1  0.93816000  0.68290000  0.93807000  1.0
  C  C60  1  0.59125000  0.10351000  0.59807000  1.0
  C  C61  1  0.64691000  0.15647000  0.65185000  1.0
  C  C62  1  0.54348000  0.17127000  0.61604000  1.0
  C  C63  1  0.69444000  0.08838000  0.63485000  1.0
  C  C64  1  0.57160000  0.19717000  0.64269000  1.0
  C  C65  1  0.66622000  0.06263000  0.60855000  1.0
  C  C66  1  0.39909000  0.89747000  0.40692000  1.0
  C  C67  1  0.35108000  0.84229000  0.35045000  1.0
  C  C68  1  0.35411000  0.85577000  0.42096000  1.0
  C  C69  1  0.39516000  0.88402000  0.33603000  1.0
  C  C70  1  0.33040000  0.82890000  0.39268000  1.0
  C  C71  1  0.41807000  0.91134000  0.36416000  1.0
  C  C72  1  0.54704000  0.69420000  0.59791000  1.0
  C  C73  1  0.70630000  0.55402000  0.65035000  1.0
  C  C74  1  0.58496000  0.74176000  0.58507000  1.0
  C  C75  1  0.66666667  0.50877000  0.66303000  1.0
  C  C76  1  0.66195000  0.62211000  0.62685000  1.0
  C  C77  1  0.58992000  0.62665000  0.62238000  1.0
  C  C78  1  0.42015000  0.26926000  0.36709000  1.0
  C  C79  1  0.32636000  0.47104000  0.37756000  1.0
  C  C80  1  0.41275000  0.25110000  0.40973000  1.0
  C  C81  1  0.33446000  0.48724000  0.33515000  1.0
  C  C82  1  0.35859000  0.39124000  0.38906000  1.0
  C  C83  1  0.39056000  0.34903000  0.35507000  1.0
  C  C84  1  0.77401000  0.92950000  0.37166000  1.0
  C  C85  1  0.97632000  0.82651000  0.37996000  1.0
  C  C86  1  0.75691000  0.91746000  0.41419000  1.0
  C  C87  1  0.99143000  0.83926000  0.33765000  1.0
  C  C88  1  0.89668000  0.85913000  0.39213000  1.0
  C  C89  1  0.85345000  0.89539000  0.35874000  1.0
  C  C90  1  0.19751000  0.16284000  0.60148000  1.0
  C  C91  1  0.05450000  0.09475000  0.65059000  1.0
  C  C92  1  0.24190000  0.09375000  0.58538000  1.0
  C  C93  1  0.01152000  0.16408000  0.66587000  1.0
  C  C94  1  0.12309000  0.09422000  0.62769000  1.0
  C  C95  1  0.13038000  0.16306000  0.62626000  1.0
  C  C96  1  0.83815000  0.34917000  0.85184000  1.0
  C  C97  1  0.89721000  0.40223000  0.90412000  1.0
  C  C98  1  0.82317000  0.33528000  0.89515000  1.0
  C  C99  1  0.91195000  0.41703000  0.86128000  1.0
  C  C100  1  0.85300000  0.36166000  0.92073000  1.0
  C  C101  1  0.88277000  0.39042000  0.83593000  1.0
  C  C102  1  0.47803000  0.32309000  0.88090000  1.0
  C  C103  1  0.27580000  0.42347000  0.87171000  1.0
  C  C104  1  0.49565000  0.33303000  0.83826000  1.0
  C  C105  1  0.26029000  0.41184000  0.91406000  1.0
  C  C106  1  0.35552000  0.39004000  0.85975000  1.0
  C  C107  1  0.39829000  0.35406000  0.89333000  1.0
  C  C108  1  0.88602000  0.91468000  0.81953000  1.0
  C  C109  1  0.87636000  0.82885000  0.92517000  1.0
  C  C110  1  0.84691000  0.98771000  0.83179000  1.0
  C  C111  1  0.91475000  0.75715000  0.91208000  1.0
  C  C112  1  0.86488000  0.88614000  0.89111000  1.0
  C  C113  1  0.89505000  0.85646000  0.85306000  1.0
  C  C114  1  0.14973000  0.65794000  0.15143000  1.0
  C  C115  1  0.09991000  0.60018000  0.09695000  1.0
  C  C116  1  0.07844000  0.70180000  0.13612000  1.0
  C  C117  1  0.17127000  0.55644000  0.11132000  1.0
  C  C118  1  0.05420000  0.67257000  0.10924000  1.0
  C  C119  1  0.19521000  0.58557000  0.13809000  1.0
  C  C120  1  0.54649000  0.59671000  0.14342000  1.0
  C  C121  1  0.69765000  0.65714000  0.10122000  1.0
  C  C122  1  0.50363000  0.66501000  0.16054000  1.0
  C  C123  1  0.73968000  0.58797000  0.08558000  1.0
  C  C124  1  0.62754000  0.65952000  0.12289000  1.0
  C  C125  1  0.61801000  0.59232000  0.12282000  1.0
  C  C126  1  0.21058000  0.05003000  0.14914000  1.0
  C  C127  1  0.04856000  0.19517000  0.10081000  1.0
  C  C128  1  0.17101000  0.00429000  0.16322000  1.0
  C  C129  1  0.08893000  0.23970000  0.08772000  1.0
  C  C130  1  0.09286000  0.12654000  0.12390000  1.0
  C  C131  1  0.16585000  0.12060000  0.12755000  1.0
  S  S132  1  0.67431000  0.70195000  0.60189000  1.0
  S  S133  1  0.57587000  0.54817000  0.64710000  1.0
  S  S134  1  0.36732000  0.33209000  0.43493000  1.0
  S  S135  1  0.38178000  0.40671000  0.30903000  1.0
  S  S136  1  0.83866000  0.86635000  0.43839000  1.0
  S  S137  1  0.91004000  0.88943000  0.31238000  1.0
  S  S138  1  0.19992000  0.03011000  0.59971000  1.0
  S  S139  1  0.05401000  0.22820000  0.65340000  1.0
  S  S140  1  0.41415000  0.38298000  0.81372000  1.0
  S  S141  1  0.34130000  0.36013000  0.93953000  1.0
  S  S142  1  0.82373000  0.98462000  0.88466000  1.0
  S  S143  1  0.93626000  0.75847000  0.85879000  1.0
  S  S144  1  0.54985000  0.72510000  0.14968000  1.0
  S  S145  1  0.69525000  0.52551000  0.09709000  1.0
  S  S146  1  0.07988000  0.04683000  0.14851000  1.0
  S  S147  1  0.17989000  0.19953000  0.10350000  1.0
  N  N148  1  0.47402000  0.70524000  0.58695000  1.0
  N  N149  1  0.44868000  0.21661000  0.33601000  1.0
  N  N150  1  0.72028000  0.97566000  0.34193000  1.0
  N  N151  1  0.21115000  0.23168000  0.59310000  1.0
  N  N152  1  0.53138000  0.29004000  0.91166000  1.0
  N  N153  1  0.92030000  0.89528000  0.77815000  1.0
  N  N154  1  0.52327000  0.53583000  0.14270000  1.0
  N  N155  1  0.29050000  0.02988000  0.15226000  1.0
  Cl  Cl156  1  0.44868000  0.22411000  0.60824000  1.0
  Cl  Cl157  1  0.32378000  0.83648000  0.47220000  1.0
  Cl  Cl158  1  0.76962000  0.28606000  0.91978000  1.0
  Cl  Cl159  1  0.01749000  0.79311000  0.14761000  1.0
  O  O160  1  0.50117000  0.99910000  0.50032000  1.0
  O  O161  1  0.68467000  0.93648000  0.47863000  1.0
  O  O162  1  0.45301000  0.97838000  0.41704000  1.0
  O  O163  1  0.48875000  0.86006000  0.56220000  1.0
  O  O164  1  0.62553000  0.94638000  0.42354000  1.0
  O  O165  1  0.61396000  0.84095000  0.54794000  1.0
  O  O166  1  0.43003000  0.90006000  0.47213000  1.0
  O  O167  1  0.33500000  0.00612000  0.54354000  1.0
  O  O168  1  0.51583000  0.11991000  0.54616000  1.0
  O  O169  1  0.36139000  0.09796000  0.56151000  1.0
  O  O170  1  0.60437000  0.00083000  0.56529000  1.0
  O  O171  1  0.49398000  0.11966000  0.42106000  1.0
  O  O172  1  0.40840000  0.18001000  0.47366000  1.0
  O  O173  1  0.75050000  0.25016000  0.74942000  1.0
  O  O174  1  0.64597000  0.40188000  0.69480000  1.0
  O  O175  1  0.83810000  0.33149000  0.78367000  1.0
  O  O176  1  0.62606000  0.24871000  0.82583000  1.0
  O  O177  1  0.75695000  0.40842000  0.70165000  1.0
  O  O178  1  0.56704000  0.33859000  0.77438000  1.0
  O  O179  1  0.76339000  0.29286000  0.83461000  1.0
  O  O180  1  0.79738000  0.12016000  0.82855000  1.0
  O  O181  1  0.74654000  0.14617000  0.68598000  1.0
  O  O182  1  0.81092000  0.06840000  0.77007000  1.0
  O  O183  1  0.63030000  0.24651000  0.69548000  1.0
  O  O184  1  0.90738000  0.25490000  0.70152000  1.0
  O  O185  1  0.90623000  0.13976000  0.69839000  1.0
  O  O186  1  0.25140000  0.74897000  0.25088000  1.0
  O  O187  1  0.27792000  0.62089000  0.33155000  1.0
  O  O188  1  0.25117000  0.64426000  0.18561000  1.0
  O  O189  1  0.06731000  0.83662000  0.27441000  1.0
  O  O190  1  0.31790000  0.56454000  0.27206000  1.0
  O  O191  1  0.12495000  0.77302000  0.33237000  1.0
  O  O192  1  0.13358000  0.73841000  0.20083000  1.0
  O  O193  1  0.14945000  0.89609000  0.19100000  1.0
  O  O194  1  0.34851000  0.82261000  0.28294000  1.0
  O  O195  1  0.24533000  0.91160000  0.21227000  1.0
  O  O196  1  0.28077000  0.77948000  0.33654000  1.0
  O  O197  1  0.40876000  0.63922000  0.20674000  1.0
  O  O198  1  0.39990000  0.76112000  0.19330000  1.0
  O  O199  1  0.00079000  0.49916000  0.00047000  1.0
  O  O200  1  0.84425000  0.49536000  0.05118000  1.0
  O  O201  1  0.00574000  0.61341000  0.05725000  1.0
  O  O202  1  0.10854000  0.34733000  0.05558000  1.0
  O  O203  1  0.84657000  0.61018000  0.05358000  1.0
  O  O204  1  0.99630000  0.34124000  0.05115000  1.0
  O  O205  1  0.11595000  0.50434000  0.05775000  1.0
  O  O206  1  0.18439000  0.42030000  0.97753000  1.0
  O  O207  1  0.96901000  0.46581000  0.91529000  1.0
  O  O208  1  0.12644000  0.47363000  0.91877000  1.0
  O  O209  1  0.91283000  0.41384000  0.97087000  1.0
  O  O210  1  0.92263000  0.68446000  0.97693000  1.0
  O  O211  1  0.97238000  0.62372000  0.91895000  1.0
  O  O212  1  0.43951000  0.67173000  0.61197000  1.0
  O  O213  1  0.45263000  0.74299000  0.55400000  1.0
  O  O214  1  0.47393000  0.24066000  0.30187000  1.0
  O  O215  1  0.44315000  0.15507000  0.34446000  1.0
  O  O216  1  0.74075000  0.95712000  0.30635000  1.0
  O  O217  1  0.66126000  0.03034000  0.35299000  1.0
  O  O218  1  0.18149000  0.27570000  0.62026000  1.0
  O  O219  1  0.24726000  0.24380000  0.56007000  1.0
  O  O220  1  0.50688000  0.26368000  0.94536000  1.0
  O  O221  1  0.59437000  0.29263000  0.90355000  1.0
  O  O222  1  0.92734000  0.83223000  0.77096000  1.0
  O  O223  1  0.94265000  0.93932000  0.75394000  1.0
  O  O224  1  0.57666000  0.47118000  0.13999000  1.0
  O  O225  1  0.45491000  0.55176000  0.14284000  1.0
  O  O226  1  0.30637000  0.08481000  0.15230000  1.0
  O  O227  1  0.33685000  0.96223000  0.15277000  1.0
