# generated using pymatgen
data_MnH22C25(NO)4
_symmetry_space_group_name_H-M   'P 1'
_cell_length_a   12.49720000
_cell_length_b   12.49720000
_cell_length_c   27.93770000
_cell_angle_alpha   97.09920000
_cell_angle_beta   97.09930000
_cell_angle_gamma   95.56490000
_symmetry_Int_Tables_number   1
_chemical_formula_structural   MnH22C25(NO)4
_chemical_formula_sum   'Mn6 H132 C150 N24 O24'
_cell_volume   4268.65920403
_cell_formula_units_Z   6
loop_
 _symmetry_equiv_pos_site_id
 _symmetry_equiv_pos_as_xyz
  1  'x, y, z'
loop_
 _atom_site_type_symbol
 _atom_site_label
 _atom_site_symmetry_multiplicity
 _atom_site_fract_x
 _atom_site_fract_y
 _atom_site_fract_z
 _atom_site_occupancy
  Mn  Mn0  1  0.40270000  0.16452000  0.91054000  1.0
  Mn  Mn1  1  0.83545000  0.59732000  0.58944000  1.0
  Mn  Mn2  1  0.59738000  0.83543000  0.08945000  1.0
  Mn  Mn3  1  0.16454000  0.40265000  0.41055000  1.0
  Mn  Mn4  1  0.50008000  0.00004000  1.00000000  1.0
  Mn  Mn5  1  0.99998000  0.50002000  0.50001000  1.0
  H  H6  1  0.11398000  0.96122000  0.94013000  1.0
  H  H7  1  0.11910000  0.09187000  0.97366000  1.0
  H  H8  1  0.24085000  0.03965000  0.95837000  1.0
  H  H9  1  0.41893000  0.45353000  0.96808000  1.0
  H  H10  1  0.51166000  0.53299000  0.93960000  1.0
  H  H11  1  0.52952000  0.39467000  0.94620000  1.0
  H  H12  1  0.24578000  0.81438000  0.22632000  1.0
  H  H13  1  0.76174000  0.99319000  0.94907000  1.0
  H  H14  1  0.74459000  0.30149000  0.89805000  1.0
  H  H15  1  0.34698000  0.81477000  0.94657000  1.0
  H  H16  1  0.23063000  0.20231000  0.76922000  1.0
  H  H17  1  0.33296000  0.14170000  0.80449000  1.0
  H  H18  1  0.41248000  0.61190000  0.79047000  1.0
  H  H19  1  0.93745000  0.97674000  0.91654000  1.0
  H  H20  1  0.36682000  0.17809000  0.11188000  1.0
  H  H21  1  0.32325000  0.61442000  0.93467000  1.0
  H  H22  1  0.43021000  0.81482000  0.80206000  1.0
  H  H23  1  0.27363000  0.38921000  0.00814000  1.0
  H  H24  1  0.30818000  0.30400000  0.17791000  1.0
  H  H25  1  0.38937000  0.73830000  0.17365000  1.0
  H  H26  1  0.41164000  0.61137000  0.14313000  1.0
  H  H27  1  0.45811000  0.64660000  0.20634000  1.0
  H  H28  1  0.92390000  0.29193000  0.86915000  1.0
  H  H29  1  0.21575000  0.51629000  0.07390000  1.0
  H  H30  1  0.99873000  0.40981000  0.21843000  1.0
  H  H31  1  0.08462000  0.31859000  0.19294000  1.0
  H  H32  1  0.00102000  0.38676000  0.15419000  1.0
  H  H33  1  0.93447000  0.17130000  0.78894000  1.0
  H  H34  1  0.04774000  0.18347000  0.75668000  1.0
  H  H35  1  0.01811000  0.29561000  0.79672000  1.0
  H  H36  1  0.27688000  0.40809000  0.73952000  1.0
  H  H37  1  0.22267000  0.51094000  0.77533000  1.0
  H  H38  1  0.15611000  0.37691000  0.76502000  1.0
  H  H39  1  0.03877000  0.88602000  0.55987000  1.0
  H  H40  1  0.90813000  0.88090000  0.52633000  1.0
  H  H41  1  0.96034000  0.75915000  0.54162000  1.0
  H  H42  1  0.54644000  0.58107000  0.53191000  1.0
  H  H43  1  0.46698000  0.48835000  0.56040000  1.0
  H  H44  1  0.60529000  0.47048000  0.55380000  1.0
  H  H45  1  0.18562000  0.75422000  0.27367000  1.0
  H  H46  1  0.00679000  0.23828000  0.55093000  1.0
  H  H47  1  0.69848000  0.25540000  0.60196000  1.0
  H  H48  1  0.18520000  0.65307000  0.55345000  1.0
  H  H49  1  0.79767000  0.76935000  0.73077000  1.0
  H  H50  1  0.85829000  0.66703000  0.69551000  1.0
  H  H51  1  0.38811000  0.58750000  0.70954000  1.0
  H  H52  1  0.02325000  0.06256000  0.58345000  1.0
  H  H53  1  0.82193000  0.63318000  0.38809000  1.0
  H  H54  1  0.38556000  0.67676000  0.56534000  1.0
  H  H55  1  0.18519000  0.56980000  0.69796000  1.0
  H  H56  1  0.61082000  0.72634000  0.49184000  1.0
  H  H57  1  0.69601000  0.69183000  0.32207000  1.0
  H  H58  1  0.26170000  0.61065000  0.32634000  1.0
  H  H59  1  0.38862000  0.58837000  0.35687000  1.0
  H  H60  1  0.35338000  0.54190000  0.29366000  1.0
  H  H61  1  0.70806000  0.07609000  0.63085000  1.0
  H  H62  1  0.48372000  0.78423000  0.42608000  1.0
  H  H63  1  0.59019000  0.00128000  0.28156000  1.0
  H  H64  1  0.68141000  0.91538000  0.30705000  1.0
  H  H65  1  0.61323000  0.99898000  0.34580000  1.0
  H  H66  1  0.82870000  0.06551000  0.71106000  1.0
  H  H67  1  0.81653000  0.95225000  0.74333000  1.0
  H  H68  1  0.70439000  0.98188000  0.70328000  1.0
  H  H69  1  0.59190000  0.72310000  0.76048000  1.0
  H  H70  1  0.48905000  0.77730000  0.72467000  1.0
  H  H71  1  0.62308000  0.84387000  0.73498000  1.0
  H  H72  1  0.88602000  0.03878000  0.05987000  1.0
  H  H73  1  0.88092000  0.90815000  0.02633000  1.0
  H  H74  1  0.75916000  0.96035000  0.04161000  1.0
  H  H75  1  0.58107000  0.54644000  0.03191000  1.0
  H  H76  1  0.48834000  0.46697000  0.06040000  1.0
  H  H77  1  0.47048000  0.60528000  0.05380000  1.0
  H  H78  1  0.75421000  0.18562000  0.77368000  1.0
  H  H79  1  0.23830000  0.00681000  0.05093000  1.0
  H  H80  1  0.25541000  0.69849000  0.10196000  1.0
  H  H81  1  0.65315000  0.18515000  0.05349000  1.0
  H  H82  1  0.76936000  0.79767000  0.23077000  1.0
  H  H83  1  0.66703000  0.85828000  0.19550000  1.0
  H  H84  1  0.58750000  0.38813000  0.20956000  1.0
  H  H85  1  0.06258000  0.02327000  0.08344000  1.0
  H  H86  1  0.63318000  0.82197000  0.88807000  1.0
  H  H87  1  0.67678000  0.38551000  0.06536000  1.0
  H  H88  1  0.56985000  0.18521000  0.19800000  1.0
  H  H89  1  0.72632000  0.61088000  0.99183000  1.0
  H  H90  1  0.69182000  0.69602000  0.82206000  1.0
  H  H91  1  0.61063000  0.26171000  0.82635000  1.0
  H  H92  1  0.58836000  0.38864000  0.85687000  1.0
  H  H93  1  0.54188000  0.35340000  0.79366000  1.0
  H  H94  1  0.07610000  0.70808000  0.13085000  1.0
  H  H95  1  0.78422000  0.48376000  0.92608000  1.0
  H  H96  1  0.00126000  0.59019000  0.78156000  1.0
  H  H97  1  0.91537000  0.68141000  0.80705000  1.0
  H  H98  1  0.99896000  0.61323000  0.84579000  1.0
  H  H99  1  0.06552000  0.82872000  0.21105000  1.0
  H  H100  1  0.95226000  0.81654000  0.24332000  1.0
  H  H101  1  0.98189000  0.70440000  0.20328000  1.0
  H  H102  1  0.72310000  0.59191000  0.26048000  1.0
  H  H103  1  0.77730000  0.48906000  0.22467000  1.0
  H  H104  1  0.84387000  0.62309000  0.23498000  1.0
  H  H105  1  0.96122000  0.11400000  0.44013000  1.0
  H  H106  1  0.09187000  0.11910000  0.47367000  1.0
  H  H107  1  0.03965000  0.24086000  0.45838000  1.0
  H  H108  1  0.45352000  0.41893000  0.46808000  1.0
  H  H109  1  0.53300000  0.51167000  0.43960000  1.0
  H  H110  1  0.39468000  0.52953000  0.44619000  1.0
  H  H111  1  0.81436000  0.24579000  0.72632000  1.0
  H  H112  1  0.99319000  0.76175000  0.44908000  1.0
  H  H113  1  0.30148000  0.74459000  0.39805000  1.0
  H  H114  1  0.81481000  0.34691000  0.44654000  1.0
  H  H115  1  0.20232000  0.23063000  0.26923000  1.0
  H  H116  1  0.14170000  0.33296000  0.30449000  1.0
  H  H117  1  0.61189000  0.41250000  0.29046000  1.0
  H  H118  1  0.97674000  0.93746000  0.41655000  1.0
  H  H119  1  0.17806000  0.36682000  0.61189000  1.0
  H  H120  1  0.61445000  0.32322000  0.43466000  1.0
  H  H121  1  0.81482000  0.43019000  0.30204000  1.0
  H  H122  1  0.38919000  0.27365000  0.50814000  1.0
  H  H123  1  0.30397000  0.30818000  0.67791000  1.0
  H  H124  1  0.73828000  0.38938000  0.67366000  1.0
  H  H125  1  0.61134000  0.41164000  0.64313000  1.0
  H  H126  1  0.64658000  0.45812000  0.70634000  1.0
  H  H127  1  0.29192000  0.92389000  0.36915000  1.0
  H  H128  1  0.51627000  0.21575000  0.57390000  1.0
  H  H129  1  0.40979000  0.99873000  0.71843000  1.0
  H  H130  1  0.31859000  0.08463000  0.69294000  1.0
  H  H131  1  0.38675000  0.00103000  0.65419000  1.0
  H  H132  1  0.17128000  0.93447000  0.28895000  1.0
  H  H133  1  0.18345000  0.04773000  0.25668000  1.0
  H  H134  1  0.29559000  0.01810000  0.29672000  1.0
  H  H135  1  0.40808000  0.27688000  0.23952000  1.0
  H  H136  1  0.51093000  0.22267000  0.27532000  1.0
  H  H137  1  0.37690000  0.15611000  0.26502000  1.0
  C  C138  1  0.14399000  0.09335000  0.89921000  1.0
  C  C139  1  0.15542000  0.04440000  0.94536000  1.0
  C  C140  1  0.46982000  0.45141000  0.93868000  1.0
  C  C141  1  0.36718000  0.20526000  0.01742000  1.0
  C  C142  1  0.40913000  0.94887000  0.88245000  1.0
  C  C143  1  0.36622000  0.59819000  0.86168000  1.0
  C  C144  1  0.35692000  0.47911000  0.85633000  1.0
  C  C145  1  0.79841000  0.05745000  0.93122000  1.0
  C  C146  1  0.05015000  0.12861000  0.87417000  1.0
  C  C147  1  0.28674000  0.59907000  0.18782000  1.0
  C  C148  1  0.63684000  0.15611000  0.94369000  1.0
  C  C149  1  0.78817000  0.23115000  0.90208000  1.0
  C  C150  1  0.30239000  0.40497000  0.81725000  1.0
  C  C151  1  0.36030000  0.77050000  0.91213000  1.0
  C  C152  1  0.26962000  0.19682000  0.80599000  1.0
  C  C153  1  0.23048000  0.49739000  0.16962000  1.0
  C  C154  1  0.94342000  0.13273000  0.89028000  1.0
  C  C155  1  0.39542000  0.65633000  0.82429000  1.0
  C  C156  1  0.40272000  0.41500000  0.89060000  1.0
  C  C157  1  0.89644000  0.04903000  0.91310000  1.0
  C  C158  1  0.33271000  0.25195000  0.10397000  1.0
  C  C159  1  0.25952000  0.41946000  0.13060000  1.0
  C  C160  1  0.74343000  0.14855000  0.92562000  1.0
  C  C161  1  0.32520000  0.27701000  0.05623000  1.0
  C  C162  1  0.13928000  0.48822000  0.19546000  1.0
  C  C163  1  0.34787000  0.65765000  0.90548000  1.0
  C  C164  1  0.40685000  0.76932000  0.83072000  1.0
  C  C165  1  0.39120000  0.82770000  0.87497000  1.0
  C  C166  1  0.08340000  0.16648000  0.83274000  1.0
  C  C167  1  0.28109000  0.37165000  0.04558000  1.0
  C  C168  1  0.29990000  0.32235000  0.14054000  1.0
  C  C169  1  0.39145000  0.65202000  0.17730000  1.0
  C  C170  1  0.88764000  0.22435000  0.88523000  1.0
  C  C171  1  0.24903000  0.44217000  0.08231000  1.0
  C  C172  1  0.05117000  0.39614000  0.19005000  1.0
  C  C173  1  0.01904000  0.20695000  0.79169000  1.0
  C  C174  1  0.23612000  0.42508000  0.77190000  1.0
  C  C175  1  0.90664000  0.85601000  0.60079000  1.0
  C  C176  1  0.95559000  0.84458000  0.55464000  1.0
  C  C177  1  0.54857000  0.53018000  0.56131000  1.0
  C  C178  1  0.79473000  0.63282000  0.48257000  1.0
  C  C179  1  0.05112000  0.59091000  0.61760000  1.0
  C  C180  1  0.40180000  0.63379000  0.63833000  1.0
  C  C181  1  0.52088000  0.64307000  0.64367000  1.0
  C  C182  1  0.94253000  0.20160000  0.56878000  1.0
  C  C183  1  0.87138000  0.94985000  0.62583000  1.0
  C  C184  1  0.40093000  0.71325000  0.31217000  1.0
  C  C185  1  0.84389000  0.36317000  0.55632000  1.0
  C  C186  1  0.76883000  0.21183000  0.59792000  1.0
  C  C187  1  0.59502000  0.69760000  0.68275000  1.0
  C  C188  1  0.22947000  0.63972000  0.58789000  1.0
  C  C189  1  0.80317000  0.73037000  0.69400000  1.0
  C  C190  1  0.50261000  0.76952000  0.33037000  1.0
  C  C191  1  0.86726000  0.05658000  0.60972000  1.0
  C  C192  1  0.34368000  0.60457000  0.67572000  1.0
  C  C193  1  0.58498000  0.59729000  0.60939000  1.0
  C  C194  1  0.95096000  0.10357000  0.58690000  1.0
  C  C195  1  0.74807000  0.66729000  0.39601000  1.0
  C  C196  1  0.58056000  0.74048000  0.36937000  1.0
  C  C197  1  0.85144000  0.25658000  0.57439000  1.0
  C  C198  1  0.72301000  0.67479000  0.44374000  1.0
  C  C199  1  0.51178000  0.86073000  0.30452000  1.0
  C  C200  1  0.34233000  0.65214000  0.59453000  1.0
  C  C201  1  0.23068000  0.59315000  0.66931000  1.0
  C  C202  1  0.17230000  0.60883000  0.62506000  1.0
  C  C203  1  0.83352000  0.91659000  0.66725000  1.0
  C  C204  1  0.62837000  0.71889000  0.45439000  1.0
  C  C205  1  0.67766000  0.70009000  0.35944000  1.0
  C  C206  1  0.34798000  0.60856000  0.32270000  1.0
  C  C207  1  0.77564000  0.11236000  0.61477000  1.0
  C  C208  1  0.55784000  0.75095000  0.41767000  1.0
  C  C209  1  0.60386000  0.94883000  0.30994000  1.0
  C  C210  1  0.79306000  0.98095000  0.70831000  1.0
  C  C211  1  0.57491000  0.76386000  0.72810000  1.0
  C  C212  1  0.85601000  0.90663000  0.10078000  1.0
  C  C213  1  0.84458000  0.95560000  0.05463000  1.0
  C  C214  1  0.53018000  0.54855000  0.06131000  1.0
  C  C215  1  0.63283000  0.79474000  0.98257000  1.0
  C  C216  1  0.59099000  0.05111000  0.11766000  1.0
  C  C217  1  0.63379000  0.40179000  0.13834000  1.0
  C  C218  1  0.64306000  0.52087000  0.14368000  1.0
  C  C219  1  0.20162000  0.94255000  0.06878000  1.0
  C  C220  1  0.94986000  0.87140000  0.12582000  1.0
  C  C221  1  0.71324000  0.40094000  0.81217000  1.0
  C  C222  1  0.36321000  0.84393000  0.05634000  1.0
  C  C223  1  0.21184000  0.76884000  0.09792000  1.0
  C  C224  1  0.69760000  0.59502000  0.18275000  1.0
  C  C225  1  0.63976000  0.22944000  0.08792000  1.0
  C  C226  1  0.73037000  0.80317000  0.19399000  1.0
  C  C227  1  0.76950000  0.50263000  0.83036000  1.0
  C  C228  1  0.05659000  0.86728000  0.10971000  1.0
  C  C229  1  0.60458000  0.34369000  0.17574000  1.0
  C  C230  1  0.59728000  0.58497000  0.10939000  1.0
  C  C231  1  0.10358000  0.95097000  0.08689000  1.0
  C  C232  1  0.66728000  0.74811000  0.89599000  1.0
  C  C233  1  0.74046000  0.58058000  0.86937000  1.0
  C  C234  1  0.25659000  0.85146000  0.07440000  1.0
  C  C235  1  0.67479000  0.72305000  0.94372000  1.0
  C  C236  1  0.86071000  0.51179000  0.80452000  1.0
  C  C237  1  0.65216000  0.34230000  0.09455000  1.0
  C  C238  1  0.59319000  0.23069000  0.16934000  1.0
  C  C239  1  0.60890000  0.17230000  0.12510000  1.0
  C  C240  1  0.91660000  0.83353000  0.16725000  1.0
  C  C241  1  0.71888000  0.62841000  0.95438000  1.0
  C  C242  1  0.70008000  0.67768000  0.85942000  1.0
  C  C243  1  0.60854000  0.34799000  0.82270000  1.0
  C  C244  1  0.11237000  0.77566000  0.11476000  1.0
  C  C245  1  0.75094000  0.55787000  0.91766000  1.0
  C  C246  1  0.94882000  0.60386000  0.80994000  1.0
  C  C247  1  0.98096000  0.79307000  0.20830000  1.0
  C  C248  1  0.76385000  0.57492000  0.22811000  1.0
  C  C249  1  0.09337000  0.14400000  0.39922000  1.0
  C  C250  1  0.04441000  0.15543000  0.44536000  1.0
  C  C251  1  0.45141000  0.46983000  0.43868000  1.0
  C  C252  1  0.20527000  0.36718000  0.51742000  1.0
  C  C253  1  0.94888000  0.40906000  0.38239000  1.0
  C  C254  1  0.59820000  0.36621000  0.36167000  1.0
  C  C255  1  0.47912000  0.35693000  0.35632000  1.0
  C  C256  1  0.05745000  0.79841000  0.43124000  1.0
  C  C257  1  0.12862000  0.05015000  0.37418000  1.0
  C  C258  1  0.59905000  0.28676000  0.68783000  1.0
  C  C259  1  0.15608000  0.63682000  0.44368000  1.0
  C  C260  1  0.23114000  0.78817000  0.40209000  1.0
  C  C261  1  0.40497000  0.30239000  0.31725000  1.0
  C  C262  1  0.77053000  0.36025000  0.41210000  1.0
  C  C263  1  0.19683000  0.26962000  0.30600000  1.0
  C  C264  1  0.49737000  0.23049000  0.66962000  1.0
  C  C265  1  0.13273000  0.94343000  0.39030000  1.0
  C  C266  1  0.65633000  0.39543000  0.32428000  1.0
  C  C267  1  0.41501000  0.40272000  0.39060000  1.0
  C  C268  1  0.04904000  0.89645000  0.41311000  1.0
  C  C269  1  0.25193000  0.33272000  0.60397000  1.0
  C  C270  1  0.41943000  0.25953000  0.63061000  1.0
  C  C271  1  0.14854000  0.74343000  0.42562000  1.0
  C  C272  1  0.27699000  0.32520000  0.55624000  1.0
  C  C273  1  0.48821000  0.13928000  0.69547000  1.0
  C  C274  1  0.65767000  0.34784000  0.40547000  1.0
  C  C275  1  0.76932000  0.40683000  0.33069000  1.0
  C  C276  1  0.82770000  0.39114000  0.37494000  1.0
  C  C277  1  0.16648000  0.08340000  0.33275000  1.0
  C  C278  1  0.37163000  0.28110000  0.54559000  1.0
  C  C279  1  0.32233000  0.29991000  0.64055000  1.0
  C  C280  1  0.65200000  0.39146000  0.67730000  1.0
  C  C281  1  0.22435000  0.88764000  0.38524000  1.0
  C  C282  1  0.44215000  0.24904000  0.58232000  1.0
  C  C283  1  0.39613000  0.05117000  0.69005000  1.0
  C  C284  1  0.20693000  0.01903000  0.29170000  1.0
  C  C285  1  0.42508000  0.23613000  0.27189000  1.0
  C  C286  1  0.24950000  0.75049000  0.25000000  1.0
  C  C287  1  0.75048000  0.24951000  0.75000000  1.0
  N  N288  1  0.31917000  0.30403000  0.82870000  1.0
  N  N289  1  0.22840000  0.64384000  0.22184000  1.0
  N  N290  1  0.19093000  0.15278000  0.83434000  1.0
  N  N291  1  0.22919000  0.11095000  0.87525000  1.0
  N  N292  1  0.37963000  0.30936000  0.87313000  1.0
  N  N293  1  0.13829000  0.57797000  0.22701000  1.0
  N  N294  1  0.69596000  0.68083000  0.67129000  1.0
  N  N295  1  0.35615000  0.77161000  0.27816000  1.0
  N  N296  1  0.84722000  0.80907000  0.66566000  1.0
  N  N297  1  0.88904000  0.77081000  0.62475000  1.0
  N  N298  1  0.69063000  0.62038000  0.62687000  1.0
  N  N299  1  0.42202000  0.86171000  0.27298000  1.0
  N  N300  1  0.68082000  0.69595000  0.17129000  1.0
  N  N301  1  0.77160000  0.35616000  0.77816000  1.0
  N  N302  1  0.80907000  0.84720000  0.16565000  1.0
  N  N303  1  0.77081000  0.88902000  0.12474000  1.0
  N  N304  1  0.62037000  0.69062000  0.12686000  1.0
  N  N305  1  0.86170000  0.42203000  0.77298000  1.0
  N  N306  1  0.30404000  0.31918000  0.32870000  1.0
  N  N307  1  0.64383000  0.22840000  0.72184000  1.0
  N  N308  1  0.15280000  0.19093000  0.33435000  1.0
  N  N309  1  0.11098000  0.22919000  0.37526000  1.0
  N  N310  1  0.30936000  0.37964000  0.37313000  1.0
  N  N311  1  0.57796000  0.13829000  0.72701000  1.0
  O  O312  1  0.40811000  0.99838000  0.92644000  1.0
  O  O313  1  0.42262000  0.00175000  0.84775000  1.0
  O  O314  1  0.56930000  0.20839000  0.92041000  1.0
  O  O315  1  0.62031000  0.10999000  0.98053000  1.0
  O  O316  1  0.36067000  0.23563000  0.97515000  1.0
  O  O317  1  0.40557000  0.12045000  0.02902000  1.0
  O  O318  1  0.00159000  0.59192000  0.57361000  1.0
  O  O319  1  0.99829000  0.57742000  0.65231000  1.0
  O  O320  1  0.79159000  0.43070000  0.57960000  1.0
  O  O321  1  0.89005000  0.37972000  0.51950000  1.0
  O  O322  1  0.76435000  0.63932000  0.52484000  1.0
  O  O323  1  0.87954000  0.59442000  0.47098000  1.0
  O  O324  1  0.59198000  0.00157000  0.07367000  1.0
  O  O325  1  0.57750000  0.99832000  0.15238000  1.0
  O  O326  1  0.43072000  0.79160000  0.07962000  1.0
  O  O327  1  0.37979000  0.89011000  0.01954000  1.0
  O  O328  1  0.63933000  0.76433000  0.02482000  1.0
  O  O329  1  0.59448000  0.87958000  0.97099000  1.0
  O  O330  1  0.99843000  0.40804000  0.42638000  1.0
  O  O331  1  0.00169000  0.42257000  0.34768000  1.0
  O  O332  1  0.20841000  0.56930000  0.42040000  1.0
  O  O333  1  0.10991000  0.62025000  0.48049000  1.0
  O  O334  1  0.23568000  0.36068000  0.47516000  1.0
  O  O335  1  0.12043000  0.40553000  0.52901000  1.0
