# generated using pymatgen
data_ZnH9C14(NO2)2
_symmetry_space_group_name_H-M   'P 1'
_cell_length_a   6.98935000
_cell_length_b   8.08098000
_cell_length_c   11.71190000
_cell_angle_alpha   101.92400000
_cell_angle_beta   98.50190000
_cell_angle_gamma   96.34680000
_symmetry_Int_Tables_number   1
_chemical_formula_structural   ZnH9C14(NO2)2
_chemical_formula_sum   'Zn2 H18 C28 N4 O8'
_cell_volume   633.27086950
_cell_formula_units_Z   2
loop_
 _symmetry_equiv_pos_site_id
 _symmetry_equiv_pos_as_xyz
  1  'x, y, z'
loop_
 _atom_site_type_symbol
 _atom_site_label
 _atom_site_symmetry_multiplicity
 _atom_site_fract_x
 _atom_site_fract_y
 _atom_site_fract_z
 _atom_site_occupancy
  Zn  Zn0  1  0.84517000  0.99393000  0.35595000  1.0
  Zn  Zn1  1  0.15482000  0.00607000  0.64405000  1.0
  H  H2  1  0.16327000  0.49801000  0.39474000  1.0
  H  H3  1  0.83672000  0.50199000  0.60526000  1.0
  H  H4  1  0.28808000  0.85909000  0.95671000  1.0
  H  H5  1  0.71192000  0.14092000  0.04328000  1.0
  H  H6  1  0.21612000  0.66436000  0.18565000  1.0
  H  H7  1  0.78389000  0.33565000  0.81436000  1.0
  H  H8  1  0.58258000  0.24557000  0.57562000  1.0
  H  H9  1  0.41742000  0.75443000  0.42438000  1.0
  H  H10  1  0.74701000  0.36063000  0.31459000  1.0
  H  H11  1  0.25299000  0.63937000  0.68541000  1.0
  H  H12  1  0.40577000  0.38282000  0.16820000  1.0
  H  H13  1  0.59423000  0.61718000  0.83180000  1.0
  H  H14  1  0.03260000  0.23805000  0.17794000  1.0
  H  H15  1  0.96740000  0.76195000  0.82205000  1.0
  H  H16  1  0.63995000  0.48967000  0.98102000  1.0
  H  H17  1  0.36006000  0.51034000  0.01899000  1.0
  H  H18  1  0.43527000  0.86371000  0.18091000  1.0
  H  H19  1  0.56473000  0.13629000  0.81909000  1.0
  C  C20  1  0.35823000  0.35738000  0.48387000  1.0
  C  C21  1  0.64177000  0.64262000  0.51613000  1.0
  C  C22  1  0.17873000  0.05494000  0.07446000  1.0
  C  C23  1  0.82127000  0.94506000  0.92554000  1.0
  C  C24  1  0.31135000  0.49989000  0.44038000  1.0
  C  C25  1  0.68865000  0.50011000  0.55962000  1.0
  C  C26  1  0.83148000  0.69494000  0.18779000  1.0
  C  C27  1  0.16853000  0.30506000  0.81221000  1.0
  C  C28  1  0.20790000  0.20416000  0.46589000  1.0
  C  C29  1  0.79209000  0.79584000  0.53411000  1.0
  C  C30  1  0.91918000  0.58862000  0.09342000  1.0
  C  C31  1  0.08084000  0.41139000  0.90659000  1.0
  C  C32  1  0.16132000  0.91983000  0.97581000  1.0
  C  C33  1  0.83868000  0.08018000  0.02418000  1.0
  C  C34  1  0.12209000  0.59237000  0.10388000  1.0
  C  C35  1  0.87792000  0.40763000  0.89612000  1.0
  C  C36  1  0.54766000  0.35800000  0.54375000  1.0
  C  C37  1  0.45233000  0.64200000  0.45625000  1.0
  C  C38  1  0.63036000  0.26105000  0.26507000  1.0
  C  C39  1  0.36964000  0.73894000  0.73493000  1.0
  C  C40  1  0.46136000  0.27369000  0.19361000  1.0
  C  C41  1  0.53864000  0.72631000  0.80639000  1.0
  C  C42  1  0.01829000  0.13564000  0.09920000  1.0
  C  C43  1  0.98172000  0.86436000  0.90079000  1.0
  C  C44  1  0.79783000  0.49423000  0.98898000  1.0
  C  C45  1  0.20219000  0.50578000  0.01102000  1.0
  C  C46  1  0.47268000  0.00129000  0.19877000  1.0
  C  C47  1  0.52732000  0.99870000  0.80122000  1.0
  N  N48  1  0.63470000  0.09111000  0.26796000  1.0
  N  N49  1  0.36530000  0.90889000  0.73203000  1.0
  N  N50  1  0.36272000  0.10798000  0.15207000  1.0
  N  N51  1  0.63728000  0.89202000  0.84793000  1.0
  O  O52  1  0.04057000  0.20596000  0.40519000  1.0
  O  O53  1  0.95941000  0.79405000  0.59482000  1.0
  O  O54  1  0.25384000  0.07916000  0.50995000  1.0
  O  O55  1  0.74614000  0.92084000  0.49006000  1.0
  O  O56  1  0.95748000  0.80994000  0.26547000  1.0
  O  O57  1  0.04251000  0.19006000  0.73454000  1.0
  O  O58  1  0.65068000  0.67406000  0.18544000  1.0
  O  O59  1  0.34933000  0.32593000  0.81456000  1.0
