# generated using pymatgen
data_AgH8C5N2Cl
_symmetry_space_group_name_H-M   'P 1'
_cell_length_a   6.19541000
_cell_length_b   7.99472000
_cell_length_c   8.33675000
_cell_angle_alpha   109.57600000
_cell_angle_beta   111.76700000
_cell_angle_gamma   90.00920000
_symmetry_Int_Tables_number   1
_chemical_formula_structural   AgH8C5N2Cl
_chemical_formula_sum   'Ag2 H16 C10 N4 Cl2'
_cell_volume   357.64550711
_cell_formula_units_Z   2
loop_
 _symmetry_equiv_pos_site_id
 _symmetry_equiv_pos_as_xyz
  1  'x, y, z'
loop_
 _atom_site_type_symbol
 _atom_site_label
 _atom_site_symmetry_multiplicity
 _atom_site_fract_x
 _atom_site_fract_y
 _atom_site_fract_z
 _atom_site_occupancy
  Ag  Ag0  1  0.50000000  0.00000000  0.00000000  1.0
  Ag  Ag1  1  0.99999000  0.00000000  0.00000000  1.0
  H  H2  1  0.20653000  0.18354000  0.41325000  1.0
  H  H3  1  0.79347000  0.81646000  0.58674000  1.0
  H  H4  1  0.13859000  0.81121000  0.27701000  1.0
  H  H5  1  0.86142000  0.18879000  0.72299000  1.0
  H  H6  1  0.35019000  0.67006000  0.70166000  1.0
  H  H7  1  0.64982000  0.32994000  0.29835000  1.0
  H  H8  1  0.38555000  0.60000000  0.48594000  1.0
  H  H9  1  0.09959000  0.60040000  0.48594000  1.0
  H  H10  1  0.61446000  0.40000000  0.51407000  1.0
  H  H11  1  0.90042000  0.39961000  0.51406000  1.0
  H  H12  1  0.47248000  0.32637000  0.94522000  1.0
  H  H13  1  0.52750000  0.67363000  0.05478000  1.0
  H  H14  1  0.24799000  0.39923000  0.78695000  1.0
  H  H15  1  0.53871000  0.39912000  0.78671000  1.0
  H  H16  1  0.75199000  0.60077000  0.21304000  1.0
  H  H17  1  0.46128000  0.60088000  0.21329000  1.0
  C  C18  1  0.36598000  0.99987000  0.73219000  1.0
  C  C19  1  0.63402000  0.00013000  0.26781000  1.0
  C  C20  1  0.24286000  0.08990000  0.48590000  1.0
  C  C21  1  0.75715000  0.91011000  0.51410000  1.0
  C  C22  1  0.20934000  0.90690000  0.41849000  1.0
  C  C23  1  0.79067000  0.09310000  0.58151000  1.0
  C  C24  1  0.27994000  0.67057000  0.56059000  1.0
  C  C25  1  0.72007000  0.32943000  0.43942000  1.0
  C  C26  1  0.40232000  0.32853000  0.80480000  1.0
  C  C27  1  0.59767000  0.67147000  0.19519000  1.0
  N  N28  1  0.33841000  0.14349000  0.67713000  1.0
  N  N29  1  0.66159000  0.85651000  0.32287000  1.0
  N  N30  1  0.28552000  0.85536000  0.57107000  1.0
  N  N31  1  0.71448000  0.14464000  0.42893000  1.0
  Cl  Cl32  1  0.06269000  0.31628000  0.12521000  1.0
  Cl  Cl33  1  0.93731000  0.68372000  0.87479000  1.0
