# generated using pymatgen
data_CsH7(C3O)3
_symmetry_space_group_name_H-M   'P 1'
_cell_length_a   6.68186000
_cell_length_b   8.55067000
_cell_length_c   17.09340000
_cell_angle_alpha   90.00010000
_cell_angle_beta   90.00010000
_cell_angle_gamma   107.93200000
_symmetry_Int_Tables_number   1
_chemical_formula_structural   CsH7(C3O)3
_chemical_formula_sum   'Cs4 H28 C36 O12'
_cell_volume   929.17910407
_cell_formula_units_Z   4
loop_
 _symmetry_equiv_pos_site_id
 _symmetry_equiv_pos_as_xyz
  1  'x, y, z'
loop_
 _atom_site_type_symbol
 _atom_site_label
 _atom_site_symmetry_multiplicity
 _atom_site_fract_x
 _atom_site_fract_y
 _atom_site_fract_z
 _atom_site_occupancy
  Cs  Cs0  1  0.21979000  0.04475000  0.59227000  1.0
  Cs  Cs1  1  0.28021000  0.45525000  0.09227000  1.0
  Cs  Cs2  1  0.78021000  0.95525000  0.40773000  1.0
  Cs  Cs3  1  0.71979000  0.54475000  0.90773000  1.0
  H  H4  1  0.81332000  0.27167000  0.69256000  1.0
  H  H5  1  0.68668000  0.22833000  0.19256000  1.0
  H  H6  1  0.18668000  0.72833000  0.30744000  1.0
  H  H7  1  0.31332000  0.77167000  0.80744000  1.0
  H  H8  1  0.53827000  0.20357000  0.79477000  1.0
  H  H9  1  0.96173000  0.29643000  0.29477000  1.0
  H  H10  1  0.46173000  0.79643000  0.20523000  1.0
  H  H11  1  0.03827000  0.70358000  0.70523000  1.0
  H  H12  1  0.23796000  0.31960000  0.78847000  1.0
  H  H13  1  0.26204000  0.18040000  0.28847000  1.0
  H  H14  1  0.76204000  0.68040000  0.21153000  1.0
  H  H15  1  0.73796000  0.81960000  0.71153000  1.0
  H  H16  1  0.21296000  0.49773000  0.67579000  1.0
  H  H17  1  0.28704000  0.00227000  0.17579000  1.0
  H  H18  1  0.78703000  0.50226000  0.32421000  1.0
  H  H19  1  0.71296000  0.99773000  0.82421000  1.0
  H  H20  1  0.47919000  0.55722000  0.57112000  1.0
  H  H21  1  0.02081000  0.94279000  0.07112000  1.0
  H  H22  1  0.52080000  0.44278000  0.42888000  1.0
  H  H23  1  0.97919000  0.05722000  0.92888000  1.0
  H  H24  1  0.66903000  0.00715000  0.59027000  1.0
  H  H25  1  0.83097000  0.49285000  0.09027000  1.0
  H  H26  1  0.33097000  0.99285000  0.40973000  1.0
  H  H27  1  0.16904000  0.50715000  0.90973000  1.0
  H  H28  1  0.64850000  0.82076000  0.58687000  1.0
  H  H29  1  0.85150000  0.67924000  0.08687000  1.0
  H  H30  1  0.35150000  0.17924000  0.41313000  1.0
  H  H31  1  0.14850000  0.32076000  0.91313000  1.0
  C  C32  1  0.91788000  0.33804000  0.53382000  1.0
  C  C33  1  0.58213000  0.16196000  0.03382000  1.0
  C  C34  1  0.08212000  0.66196000  0.46618000  1.0
  C  C35  1  0.41788000  0.83804000  0.96618000  1.0
  C  C36  1  0.83272000  0.46028000  0.56208000  1.0
  C  C37  1  0.66728000  0.03972000  0.06208000  1.0
  C  C38  1  0.16727000  0.53972000  0.43792000  1.0
  C  C39  1  0.33272000  0.96028000  0.93792000  1.0
  C  C40  1  0.90872000  0.62057000  0.52981000  1.0
  C  C41  1  0.59127000  0.87943000  0.02981000  1.0
  C  C42  1  0.09127000  0.37943000  0.47019000  1.0
  C  C43  1  0.40872000  0.12057000  0.97019000  1.0
  C  C44  1  0.66987000  0.42149000  0.62392000  1.0
  C  C45  1  0.83013000  0.07851000  0.12392000  1.0
  C  C46  1  0.33012000  0.57851000  0.37608000  1.0
  C  C47  1  0.16988000  0.92149000  0.87608000  1.0
  C  C48  1  0.68194000  0.32131000  0.68829000  1.0
  C  C49  1  0.81806000  0.17869000  0.18829000  1.0
  C  C50  1  0.31806000  0.67869000  0.31171000  1.0
  C  C51  1  0.18194000  0.82131000  0.81171000  1.0
  C  C52  1  0.52746000  0.28393000  0.74638000  1.0
  C  C53  1  0.97254000  0.21606000  0.24638000  1.0
  C  C54  1  0.47254000  0.71606000  0.25362000  1.0
  C  C55  1  0.02746000  0.78394000  0.75362000  1.0
  C  C56  1  0.35807000  0.34762000  0.74292000  1.0
  C  C57  1  0.14193000  0.15237000  0.24292000  1.0
  C  C58  1  0.64192000  0.65237000  0.25708000  1.0
  C  C59  1  0.85808000  0.84763000  0.75708000  1.0
  C  C60  1  0.34471000  0.44797000  0.67979000  1.0
  C  C61  1  0.15529000  0.05203000  0.17979000  1.0
  C  C62  1  0.65528000  0.55203000  0.32021000  1.0
  C  C63  1  0.84471000  0.94797000  0.82021000  1.0
  C  C64  1  0.49687000  0.48306000  0.62086000  1.0
  C  C65  1  0.00313000  0.01694000  0.12085000  1.0
  C  C66  1  0.50312000  0.51694000  0.37915000  1.0
  C  C67  1  0.99687000  0.98307000  0.87915000  1.0
  O  O68  1  0.84737000  0.74058000  0.55069000  1.0
  O  O69  1  0.65263000  0.75942000  0.05069000  1.0
  O  O70  1  0.15263000  0.25942000  0.44931000  1.0
  O  O71  1  0.34737000  0.24058000  0.94931000  1.0
  O  O72  1  0.86030000  0.18997000  0.55669000  1.0
  O  O73  1  0.63971000  0.31003000  0.05669000  1.0
  O  O74  1  0.13970000  0.81003000  0.44331000  1.0
  O  O75  1  0.36030000  0.68997000  0.94331000  1.0
  O  O76  1  0.56691000  0.89681000  0.59758000  1.0
  O  O77  1  0.93309000  0.60319000  0.09758000  1.0
  O  O78  1  0.43309000  0.10319000  0.40242000  1.0
  O  O79  1  0.06692000  0.39681000  0.90242000  1.0
