# generated using pymatgen
data_HgH14C10Se(N2Cl)2
_symmetry_space_group_name_H-M   'P 1'
_cell_length_a   8.59306000
_cell_length_b   10.04990000
_cell_length_c   18.82140000
_cell_angle_alpha   89.99700000
_cell_angle_beta   90.00360000
_cell_angle_gamma   89.99600000
_symmetry_Int_Tables_number   1
_chemical_formula_structural   HgH14C10Se(N2Cl)2
_chemical_formula_sum   'Hg4 H56 C40 Se4 N16 Cl8'
_cell_volume   1625.40468307
_cell_formula_units_Z   4
loop_
 _symmetry_equiv_pos_site_id
 _symmetry_equiv_pos_as_xyz
  1  'x, y, z'
loop_
 _atom_site_type_symbol
 _atom_site_label
 _atom_site_symmetry_multiplicity
 _atom_site_fract_x
 _atom_site_fract_y
 _atom_site_fract_z
 _atom_site_occupancy
  Hg  Hg0  1  0.71891000  0.75005000  0.31005000  1.0
  Hg  Hg1  1  0.21895000  0.25006000  0.18993000  1.0
  Hg  Hg2  1  0.78106000  0.74993000  0.81006000  1.0
  Hg  Hg3  1  0.28106000  0.24997000  0.68994000  1.0
  H  H4  1  0.04270000  0.61102000  0.31817000  1.0
  H  H5  1  0.54281000  0.38897000  0.18180000  1.0
  H  H6  1  0.45728000  0.88898000  0.81816000  1.0
  H  H7  1  0.95725000  0.11102000  0.68183000  1.0
  H  H8  1  0.95726000  0.38898000  0.68182000  1.0
  H  H9  1  0.45722000  0.61100000  0.81820000  1.0
  H  H10  1  0.54272000  0.11102000  0.18185000  1.0
  H  H11  1  0.04273000  0.88899000  0.31818000  1.0
  H  H12  1  0.26643000  0.36917000  0.35497000  1.0
  H  H13  1  0.76646000  0.63085000  0.14504000  1.0
  H  H14  1  0.23356000  0.13084000  0.85497000  1.0
  H  H15  1  0.73358000  0.86915000  0.64506000  1.0
  H  H16  1  0.73354000  0.63088000  0.64502000  1.0
  H  H17  1  0.23357000  0.36915000  0.85496000  1.0
  H  H18  1  0.76644000  0.86915000  0.14505000  1.0
  H  H19  1  0.26640000  0.13087000  0.35495000  1.0
  H  H20  1  0.25478000  0.37951000  0.44899000  1.0
  H  H21  1  0.75477000  0.62050000  0.05103000  1.0
  H  H22  1  0.24530000  0.12049000  0.94897000  1.0
  H  H23  1  0.74523000  0.87949000  0.55104000  1.0
  H  H24  1  0.74520000  0.62054000  0.55102000  1.0
  H  H25  1  0.24527000  0.37948000  0.94899000  1.0
  H  H26  1  0.75472000  0.87949000  0.05104000  1.0
  H  H27  1  0.25475000  0.12053000  0.44896000  1.0
  H  H28  1  0.28979000  0.52533000  0.39672000  1.0
  H  H29  1  0.78987000  0.47468000  0.10331000  1.0
  H  H30  1  0.21021000  0.97468000  0.89671000  1.0
  H  H31  1  0.71016000  0.02531000  0.60331000  1.0
  H  H32  1  0.71018000  0.47471000  0.60328000  1.0
  H  H33  1  0.21017000  0.52530000  0.89671000  1.0
  H  H34  1  0.78981000  0.02532000  0.10330000  1.0
  H  H35  1  0.28981000  0.97471000  0.39669000  1.0
  H  H36  1  0.57115000  0.37765000  0.38713000  1.0
  H  H37  1  0.07119000  0.62234000  0.11284000  1.0
  H  H38  1  0.92887000  0.12234000  0.88712000  1.0
  H  H39  1  0.42884000  0.87765000  0.61286000  1.0
  H  H40  1  0.42883000  0.62232000  0.61287000  1.0
  H  H41  1  0.92885000  0.37763000  0.88715000  1.0
  H  H42  1  0.07115000  0.87765000  0.11287000  1.0
  H  H43  1  0.57112000  0.12236000  0.38714000  1.0
  H  H44  1  0.56518000  0.53191000  0.43253000  1.0
  H  H45  1  0.06526000  0.46808000  0.06744000  1.0
  H  H46  1  0.93485000  0.96808000  0.93252000  1.0
  H  H47  1  0.43475000  0.03191000  0.56745000  1.0
  H  H48  1  0.43477000  0.46807000  0.56747000  1.0
  H  H49  1  0.93478000  0.53188000  0.93255000  1.0
  H  H50  1  0.06516000  0.03189000  0.06746000  1.0
  H  H51  1  0.56523000  0.96809000  0.43254000  1.0
  H  H52  1  0.62275000  0.38393000  0.47861000  1.0
  H  H53  1  0.12272000  0.61607000  0.02137000  1.0
  H  H54  1  0.87731000  0.11606000  0.97859000  1.0
  H  H55  1  0.37723000  0.88394000  0.52138000  1.0
  H  H56  1  0.37724000  0.61605000  0.52139000  1.0
  H  H57  1  0.87732000  0.38390000  0.97863000  1.0
  H  H58  1  0.12273000  0.88392000  0.02140000  1.0
  H  H59  1  0.62271000  0.11607000  0.47862000  1.0
  C  C60  1  0.05550000  0.45447000  0.39628000  1.0
  C  C61  1  0.55554000  0.54553000  0.10373000  1.0
  C  C62  1  0.44453000  0.04551000  0.89626000  1.0
  C  C63  1  0.94447000  0.95449000  0.60375000  1.0
  C  C64  1  0.94446000  0.54556000  0.60372000  1.0
  C  C65  1  0.44447000  0.45445000  0.89628000  1.0
  C  C66  1  0.55551000  0.95448000  0.10375000  1.0
  C  C67  1  0.05550000  0.04554000  0.39626000  1.0
  C  C68  1  0.22559000  0.43099000  0.39939000  1.0
  C  C69  1  0.72565000  0.56902000  0.10063000  1.0
  C  C70  1  0.27442000  0.06901000  0.89938000  1.0
  C  C71  1  0.77439000  0.93098000  0.60064000  1.0
  C  C72  1  0.77438000  0.56904000  0.60061000  1.0
  C  C73  1  0.27440000  0.43097000  0.89938000  1.0
  C  C74  1  0.72560000  0.93099000  0.10063000  1.0
  C  C75  1  0.22559000  0.06904000  0.39937000  1.0
  C  C76  1  0.93013000  0.39405000  0.43133000  1.0
  C  C77  1  0.43018000  0.60597000  0.06868000  1.0
  C  C78  1  0.56990000  0.10593000  0.93130000  1.0
  C  C79  1  0.06985000  0.89406000  0.56869000  1.0
  C  C80  1  0.06985000  0.60598000  0.56868000  1.0
  C  C81  1  0.56985000  0.39402000  0.93133000  1.0
  C  C82  1  0.43014000  0.89405000  0.06870000  1.0
  C  C83  1  0.93013000  0.10597000  0.43131000  1.0
  C  C84  1  0.79434000  0.46189000  0.40859000  1.0
  C  C85  1  0.29442000  0.53812000  0.09139000  1.0
  C  C86  1  0.70566000  0.03809000  0.90856000  1.0
  C  C87  1  0.20562000  0.96189000  0.59142000  1.0
  C  C88  1  0.20562000  0.53812000  0.59141000  1.0
  C  C89  1  0.70561000  0.46186000  0.90861000  1.0
  C  C90  1  0.29436000  0.96190000  0.09143000  1.0
  C  C91  1  0.79437000  0.03813000  0.40859000  1.0
  C  C92  1  0.62928000  0.43791000  0.42806000  1.0
  C  C93  1  0.12932000  0.56210000  0.07191000  1.0
  C  C94  1  0.87076000  0.06209000  0.92805000  1.0
  C  C95  1  0.37069000  0.93790000  0.57193000  1.0
  C  C96  1  0.37069000  0.56208000  0.57194000  1.0
  C  C97  1  0.87071000  0.43787000  0.92808000  1.0
  C  C98  1  0.12928000  0.93790000  0.07194000  1.0
  C  C99  1  0.62928000  0.06211000  0.42807000  1.0
  Se  Se100  1  0.94328000  0.24998000  0.49733000  1.0
  Se  Se101  1  0.44327000  0.75003000  0.00267000  1.0
  Se  Se102  1  0.55676000  0.24994000  0.99733000  1.0
  Se  Se103  1  0.05671000  0.75003000  0.50267000  1.0
  N  N104  1  0.83514000  0.55698000  0.36199000  1.0
  N  N105  1  0.33520000  0.44300000  0.13798000  1.0
  N  N106  1  0.66488000  0.94303000  0.86197000  1.0
  N  N107  1  0.16484000  0.05699000  0.63801000  1.0
  N  N108  1  0.16483000  0.44302000  0.63800000  1.0
  N  N109  1  0.66482000  0.55697000  0.86201000  1.0
  N  N110  1  0.33514000  0.05697000  0.13803000  1.0
  N  N111  1  0.83514000  0.94304000  0.36199000  1.0
  N  N112  1  0.99210000  0.55066000  0.35553000  1.0
  N  N113  1  0.49217000  0.44932000  0.14444000  1.0
  N  N114  1  0.50790000  0.94934000  0.85552000  1.0
  N  N115  1  0.00788000  0.05067000  0.64447000  1.0
  N  N116  1  0.00786000  0.44934000  0.64446000  1.0
  N  N117  1  0.50786000  0.55066000  0.85555000  1.0
  N  N118  1  0.49212000  0.05067000  0.14449000  1.0
  N  N119  1  0.99211000  0.94935000  0.35553000  1.0
  Cl  Cl120  1  0.44145000  0.75000000  0.31939000  1.0
  Cl  Cl121  1  0.94147000  0.25004000  0.18057000  1.0
  Cl  Cl122  1  0.05853000  0.74994000  0.81941000  1.0
  Cl  Cl123  1  0.55852000  0.24999000  0.68058000  1.0
  Cl  Cl124  1  0.96186000  0.75000000  0.23097000  1.0
  Cl  Cl125  1  0.46189000  0.25002000  0.26904000  1.0
  Cl  Cl126  1  0.53810000  0.74998000  0.73096000  1.0
  Cl  Cl127  1  0.03813000  0.25001000  0.76903000  1.0
