# generated using pymatgen
data_V2NiH21C15(NO)6
_symmetry_space_group_name_H-M   'P 1'
_cell_length_a   8.99086000
_cell_length_b   10.53660000
_cell_length_c   11.80670000
_cell_angle_alpha   87.50470000
_cell_angle_beta   81.64590000
_cell_angle_gamma   85.13550000
_symmetry_Int_Tables_number   1
_chemical_formula_structural   V2NiH21C15(NO)6
_chemical_formula_sum   'V4 Ni2 H42 C30 N12 O12'
_cell_volume   1102.07808479
_cell_formula_units_Z   2
loop_
 _symmetry_equiv_pos_site_id
 _symmetry_equiv_pos_as_xyz
  1  'x, y, z'
loop_
 _atom_site_type_symbol
 _atom_site_label
 _atom_site_symmetry_multiplicity
 _atom_site_fract_x
 _atom_site_fract_y
 _atom_site_fract_z
 _atom_site_occupancy
  V  V0  1  0.09190000  0.63690000  0.34958000  1.0
  V  V1  1  0.90811000  0.36309000  0.65042000  1.0
  V  V2  1  0.17434000  0.59827000  0.60178000  1.0
  V  V3  1  0.82565000  0.40174000  0.39822000  1.0
  Ni  Ni4  1  0.45993000  0.50334000  0.36783000  1.0
  Ni  Ni5  1  0.54007000  0.49666000  0.63217000  1.0
  H  H6  1  0.73703000  0.67871000  0.38976000  1.0
  H  H7  1  0.26297000  0.32129000  0.61024000  1.0
  H  H8  1  0.76055000  0.90634000  0.26322000  1.0
  H  H9  1  0.23945000  0.09366000  0.73678000  1.0
  H  H10  1  0.16887000  0.34838000  0.36005000  1.0
  H  H11  1  0.83113000  0.65162000  0.63996000  1.0
  H  H12  1  0.46650000  0.85993000  0.02465000  1.0
  H  H13  1  0.53350000  0.14007000  0.97535000  1.0
  H  H14  1  0.64719000  0.91798000  0.01326000  1.0
  H  H15  1  0.35281000  0.08202000  0.98674000  1.0
  H  H16  1  0.33089000  0.77129000  0.25389000  1.0
  H  H17  1  0.66911000  0.22871000  0.74611000  1.0
  H  H18  1  0.16116000  0.00904000  0.32072000  1.0
  H  H19  1  0.83884000  0.99096000  0.67928000  1.0
  H  H20  1  0.04438000  0.15135000  0.35355000  1.0
  H  H21  1  0.95562000  0.84865000  0.64645000  1.0
  H  H22  1  0.43241000  0.00609000  0.41809000  1.0
  H  H23  1  0.56759000  0.99391000  0.58191000  1.0
  H  H24  1  0.48902000  0.28704000  0.17056000  1.0
  H  H25  1  0.51098000  0.71296000  0.82944000  1.0
  H  H26  1  0.68791000  0.63591000  0.16062000  1.0
  H  H27  1  0.31209000  0.36409000  0.83938000  1.0
  H  H28  1  0.60846000  0.21229000  0.41330000  1.0
  H  H29  1  0.39154000  0.78771000  0.58670000  1.0
  H  H30  1  0.66680000  0.32083000  0.95733000  1.0
  H  H31  1  0.33320000  0.67917000  0.04267000  1.0
  H  H32  1  0.06286000  0.10191000  0.56470000  1.0
  H  H33  1  0.93714000  0.89809000  0.43530000  1.0
  H  H34  1  0.15766000  0.95142000  0.52534000  1.0
  H  H35  1  0.84234000  0.04858000  0.47466000  1.0
  H  H36  1  0.55866000  0.05745000  0.18030000  1.0
  H  H37  1  0.44134000  0.94255000  0.81970000  1.0
  H  H38  1  0.37454000  0.00753000  0.18716000  1.0
  H  H39  1  0.62546000  0.99247000  0.81284000  1.0
  H  H40  1  0.80308000  0.65289000  0.95630000  1.0
  H  H41  1  0.19693000  0.34711000  0.04370000  1.0
  H  H42  1  0.77105000  0.53578000  0.86012000  1.0
  H  H43  1  0.22895000  0.46422000  0.13988000  1.0
  H  H44  1  0.04122000  0.53585000  0.87149000  1.0
  H  H45  1  0.95878000  0.46415000  0.12851000  1.0
  H  H46  1  0.97451000  0.38896000  0.92552000  1.0
  H  H47  1  0.02549000  0.61104000  0.07448000  1.0
  C  C48  1  0.65534000  0.73244000  0.34414000  1.0
  C  C49  1  0.34466000  0.26755000  0.65586000  1.0
  C  C50  1  0.66881000  0.84474000  0.28122000  1.0
  C  C51  1  0.33119000  0.15526000  0.71878000  1.0
  C  C52  1  0.26560000  0.28488000  0.37517000  1.0
  C  C53  1  0.73441000  0.71512000  0.62483000  1.0
  C  C54  1  0.52578000  0.94420000  0.03758000  1.0
  C  C55  1  0.47423000  0.05580000  0.96242000  1.0
  C  C56  1  0.44357000  0.77558000  0.27609000  1.0
  C  C57  1  0.55644000  0.22442000  0.72391000  1.0
  C  C58  1  0.13216000  0.08472000  0.38350000  1.0
  C  C59  1  0.86784000  0.91528000  0.61650000  1.0
  C  C60  1  0.40555000  0.10734000  0.40544000  1.0
  C  C61  1  0.59445000  0.89266000  0.59456000  1.0
  C  C62  1  0.55553000  0.36475000  0.13706000  1.0
  C  C63  1  0.44447000  0.63525000  0.86294000  1.0
  C  C64  1  0.65310000  0.54625000  0.13624000  1.0
  C  C65  1  0.34690000  0.45375000  0.86376000  1.0
  C  C66  1  0.49082000  0.20993000  0.40370000  1.0
  C  C67  1  0.50918000  0.79007000  0.59630000  1.0
  C  C68  1  0.64228000  0.37944000  0.03193000  1.0
  C  C69  1  0.35772000  0.62057000  0.96807000  1.0
  C  C70  1  0.07543000  0.02743000  0.50082000  1.0
  C  C71  1  0.92457000  0.97257000  0.49918000  1.0
  C  C72  1  0.49477000  0.97766000  0.16347000  1.0
  C  C73  1  0.50523000  0.02234000  0.83653000  1.0
  C  C74  1  0.80950000  0.54988000  0.94252000  1.0
  C  C75  1  0.19050000  0.45012000  0.05748000  1.0
  C  C76  1  0.97041000  0.49108000  0.94367000  1.0
  C  C77  1  0.02959000  0.50892000  0.05633000  1.0
  N  N78  1  0.51504000  0.69003000  0.34003000  1.0
  N  N79  1  0.48496000  0.30997000  0.65997000  1.0
  N  N80  1  0.53319000  0.87122000  0.23933000  1.0
  N  N81  1  0.46681000  0.12878000  0.76067000  1.0
  N  N82  1  0.56306000  0.46957000  0.20147000  1.0
  N  N83  1  0.43694000  0.53043000  0.79853000  1.0
  N  N84  1  0.70260000  0.49527000  0.03294000  1.0
  N  N85  1  0.29740000  0.50472000  0.96706000  1.0
  N  N86  1  0.40183000  0.32004000  0.38550000  1.0
  N  N87  1  0.59817000  0.67996000  0.61450000  1.0
  N  N88  1  0.26369000  0.15631000  0.38607000  1.0
  N  N89  1  0.73631000  0.84369000  0.61393000  1.0
  O  O90  1  0.07279000  0.75954000  0.26039000  1.0
  O  O91  1  0.92721000  0.24045000  0.73961000  1.0
  O  O92  1  0.94120000  0.53242000  0.35904000  1.0
  O  O93  1  0.05880000  0.46758000  0.64096000  1.0
  O  O94  1  0.16613000  0.68878000  0.71123000  1.0
  O  O95  1  0.83387000  0.31122000  0.28878000  1.0
  O  O96  1  0.09779000  0.69468000  0.49098000  1.0
  O  O97  1  0.90220000  0.30532000  0.50901000  1.0
  O  O98  1  0.25888000  0.55469000  0.31258000  1.0
  O  O99  1  0.74112000  0.44531000  0.68741000  1.0
  O  O100  1  0.35611000  0.54143000  0.55244000  1.0
  O  O101  1  0.64389000  0.45857000  0.44756000  1.0
