# generated using pymatgen
data_Rb3H4C6N3O8
_symmetry_space_group_name_H-M   'P 1'
_cell_length_a   6.87995000
_cell_length_b   10.39940000
_cell_length_c   18.15960000
_cell_angle_alpha   92.69210000
_cell_angle_beta   90.00000000
_cell_angle_gamma   89.99990000
_symmetry_Int_Tables_number   1
_chemical_formula_structural   Rb3H4C6N3O8
_chemical_formula_sum   'Rb12 H16 C24 N12 O32'
_cell_volume   1297.83736687
_cell_formula_units_Z   4
loop_
 _symmetry_equiv_pos_site_id
 _symmetry_equiv_pos_as_xyz
  1  'x, y, z'
loop_
 _atom_site_type_symbol
 _atom_site_label
 _atom_site_symmetry_multiplicity
 _atom_site_fract_x
 _atom_site_fract_y
 _atom_site_fract_z
 _atom_site_occupancy
  Rb  Rb0  1  0.96480000  0.70737000  0.81993000  1.0
  Rb  Rb1  1  0.46480000  0.79263000  0.68006000  1.0
  Rb  Rb2  1  0.03521000  0.29263000  0.18007000  1.0
  Rb  Rb3  1  0.53520000  0.20737000  0.31994000  1.0
  Rb  Rb4  1  0.67917000  0.85696000  0.21293000  1.0
  Rb  Rb5  1  0.17918000  0.64303000  0.28707000  1.0
  Rb  Rb6  1  0.32083000  0.14304000  0.78707000  1.0
  Rb  Rb7  1  0.82082000  0.35696000  0.71293000  1.0
  Rb  Rb8  1  0.72709000  0.39649000  0.94895000  1.0
  Rb  Rb9  1  0.22709000  0.10352000  0.55105000  1.0
  Rb  Rb10  1  0.27291000  0.60352000  0.05105000  1.0
  Rb  Rb11  1  0.77291000  0.89648000  0.44895000  1.0
  H  H12  1  0.52242000  0.61963000  0.85640000  1.0
  H  H13  1  0.02242000  0.88037000  0.64360000  1.0
  H  H14  1  0.47758000  0.38037000  0.14360000  1.0
  H  H15  1  0.97758000  0.11962000  0.35640000  1.0
  H  H16  1  0.51678000  0.53959000  0.78124000  1.0
  H  H17  1  0.01678000  0.96041000  0.71876000  1.0
  H  H18  1  0.48322000  0.46041000  0.21876000  1.0
  H  H19  1  0.98322000  0.03959000  0.28124000  1.0
  H  H20  1  0.19174000  0.41082000  0.86269000  1.0
  H  H21  1  0.69174000  0.08918000  0.63731000  1.0
  H  H22  1  0.80826000  0.58918000  0.13731000  1.0
  H  H23  1  0.30826000  0.91082000  0.36269000  1.0
  H  H24  1  0.22343000  0.46588000  0.78391000  1.0
  H  H25  1  0.72343000  0.03413000  0.71609000  1.0
  H  H26  1  0.77656000  0.53412000  0.21609000  1.0
  H  H27  1  0.27657000  0.96588000  0.28391000  1.0
  C  C28  1  0.76890000  0.86388000  0.00386000  1.0
  C  C29  1  0.26890000  0.63613000  0.49614000  1.0
  C  C30  1  0.23110000  0.13613000  0.99614000  1.0
  C  C31  1  0.73110000  0.36387000  0.50386000  1.0
  C  C32  1  0.78558000  0.02419000  0.92381000  1.0
  C  C33  1  0.28557000  0.47581000  0.57619000  1.0
  C  C34  1  0.21442000  0.97581000  0.07619000  1.0
  C  C35  1  0.71442000  0.52418000  0.42381000  1.0
  C  C36  1  0.70198000  0.06968000  0.04282000  1.0
  C  C37  1  0.20198000  0.43032000  0.45718000  1.0
  C  C38  1  0.29802000  0.93032000  0.95718000  1.0
  C  C39  1  0.79802000  0.56968000  0.54282000  1.0
  C  C40  1  0.78852000  0.72070000  0.01965000  1.0
  C  C41  1  0.28852000  0.77930000  0.48035000  1.0
  C  C42  1  0.21148000  0.27930000  0.98035000  1.0
  C  C43  1  0.71148000  0.22069000  0.51965000  1.0
  C  C44  1  0.81808000  0.06936000  0.84525000  1.0
  C  C45  1  0.31808000  0.43064000  0.65475000  1.0
  C  C46  1  0.18192000  0.93064000  0.15475000  1.0
  C  C47  1  0.68192000  0.56936000  0.34525000  1.0
  C  C48  1  0.64290000  0.16777000  0.10505000  1.0
  C  C49  1  0.14290000  0.33223000  0.39495000  1.0
  C  C50  1  0.35710000  0.83223000  0.89495000  1.0
  C  C51  1  0.85710000  0.66777000  0.60505000  1.0
  N  N52  1  0.71525000  0.94565000  0.05947000  1.0
  N  N53  1  0.21525000  0.55435000  0.44053000  1.0
  N  N54  1  0.28476000  0.05436000  0.94053000  1.0
  N  N55  1  0.78475000  0.44564000  0.55947000  1.0
  N  N56  1  0.80905000  0.89894000  0.93534000  1.0
  N  N57  1  0.30905000  0.60106000  0.56466000  1.0
  N  N58  1  0.19095000  0.10106000  0.06466000  1.0
  N  N59  1  0.69095000  0.39894000  0.43534000  1.0
  N  N60  1  0.73370000  0.11347000  0.97568000  1.0
  N  N61  1  0.23369000  0.38653000  0.52432000  1.0
  N  N62  1  0.26631000  0.88653000  0.02432000  1.0
  N  N63  1  0.76631000  0.61346000  0.47568000  1.0
  O  O64  1  0.69159000  0.68294000  0.07422000  1.0
  O  O65  1  0.19158000  0.81705000  0.42578000  1.0
  O  O66  1  0.30842000  0.31706000  0.92578000  1.0
  O  O67  1  0.80842000  0.18294000  0.57422000  1.0
  O  O68  1  0.89988000  0.65501000  0.97775000  1.0
  O  O69  1  0.39987000  0.84500000  0.52225000  1.0
  O  O70  1  0.10013000  0.34499000  0.02225000  1.0
  O  O71  1  0.60013000  0.15500000  0.47775000  1.0
  O  O72  1  0.85803000  0.98134000  0.79634000  1.0
  O  O73  1  0.35803000  0.51867000  0.70366000  1.0
  O  O74  1  0.14197000  0.01867000  0.20366000  1.0
  O  O75  1  0.64197000  0.48133000  0.29634000  1.0
  O  O76  1  0.79914000  0.18766000  0.83565000  1.0
  O  O77  1  0.29914000  0.31235000  0.66435000  1.0
  O  O78  1  0.20085000  0.81235000  0.16435000  1.0
  O  O79  1  0.70085000  0.68765000  0.33565000  1.0
  O  O80  1  0.59819000  0.27902000  0.08476000  1.0
  O  O81  1  0.09819000  0.22098000  0.41524000  1.0
  O  O82  1  0.40181000  0.72099000  0.91524000  1.0
  O  O83  1  0.90181000  0.77901000  0.58475000  1.0
  O  O84  1  0.64758000  0.12894000  0.16975000  1.0
  O  O85  1  0.14759000  0.37106000  0.33025000  1.0
  O  O86  1  0.35242000  0.87106000  0.83025000  1.0
  O  O87  1  0.85241000  0.62894000  0.66975000  1.0
  O  O88  1  0.60113000  0.55803000  0.82431000  1.0
  O  O89  1  0.10113000  0.94197000  0.67569000  1.0
  O  O90  1  0.39887000  0.44197000  0.17569000  1.0
  O  O91  1  0.89887000  0.05803000  0.32431000  1.0
  O  O92  1  0.12148000  0.44357000  0.81949000  1.0
  O  O93  1  0.62148000  0.05642000  0.68051000  1.0
  O  O94  1  0.87852000  0.55643000  0.18051000  1.0
  O  O95  1  0.37852000  0.94357000  0.31949000  1.0
