# generated using pymatgen
data_CdPH8C9NO4
_symmetry_space_group_name_H-M   'P 1'
_cell_length_a   5.47746000
_cell_length_b   10.92220000
_cell_length_c   17.04750000
_cell_angle_alpha   102.44000000
_cell_angle_beta   89.99980000
_cell_angle_gamma   89.99870000
_symmetry_Int_Tables_number   1
_chemical_formula_structural   CdPH8C9NO4
_chemical_formula_sum   'Cd4 P4 H32 C36 N4 O16'
_cell_volume   995.93759557
_cell_formula_units_Z   4
loop_
 _symmetry_equiv_pos_site_id
 _symmetry_equiv_pos_as_xyz
  1  'x, y, z'
loop_
 _atom_site_type_symbol
 _atom_site_label
 _atom_site_symmetry_multiplicity
 _atom_site_fract_x
 _atom_site_fract_y
 _atom_site_fract_z
 _atom_site_occupancy
  Cd  Cd0  1  0.40973000  0.81781000  0.58564000  1.0
  Cd  Cd1  1  0.90973000  0.68216000  0.41436000  1.0
  Cd  Cd2  1  0.59027000  0.18217000  0.41436000  1.0
  Cd  Cd3  1  0.09026000  0.31782000  0.58564000  1.0
  P  P4  1  0.88958000  0.63123000  0.60105000  1.0
  P  P5  1  0.38957000  0.86875000  0.39896000  1.0
  P  P6  1  0.11045000  0.36875000  0.39895000  1.0
  P  P7  1  0.61039000  0.13124000  0.60106000  1.0
  H  H8  1  0.02398000  0.58651000  0.75451000  1.0
  H  H9  1  0.52393000  0.91349000  0.24550000  1.0
  H  H10  1  0.97610000  0.41351000  0.24549000  1.0
  H  H11  1  0.47601000  0.08654000  0.75452000  1.0
  H  H12  1  0.85843000  0.65818000  0.89289000  1.0
  H  H13  1  0.35846000  0.84182000  0.10712000  1.0
  H  H14  1  0.14159000  0.34182000  0.10710000  1.0
  H  H15  1  0.64154000  0.15816000  0.89289000  1.0
  H  H16  1  0.55216000  0.79110000  0.98366000  1.0
  H  H17  1  0.05214000  0.70891000  0.01634000  1.0
  H  H18  1  0.44785000  0.20892000  0.01633000  1.0
  H  H19  1  0.94791000  0.29111000  0.98368000  1.0
  H  H20  1  0.20476000  0.94156000  0.00052000  1.0
  H  H21  1  0.70473000  0.55845000  0.99950000  1.0
  H  H22  1  0.79526000  0.05845000  0.99947000  1.0
  H  H23  1  0.29528000  0.44157000  0.00051000  1.0
  H  H24  1  0.02911000  0.00740000  0.88082000  1.0
  H  H25  1  0.52910000  0.49261000  0.11920000  1.0
  H  H26  1  0.97090000  0.99259000  0.11917000  1.0
  H  H27  1  0.47086000  0.50743000  0.88080000  1.0
  H  H28  1  0.20105000  0.92746000  0.74558000  1.0
  H  H29  1  0.70112000  0.57255000  0.25442000  1.0
  H  H30  1  0.79891000  0.07253000  0.25440000  1.0
  H  H31  1  0.29889000  0.42744000  0.74559000  1.0
  H  H32  1  0.94534000  0.95737000  0.61228000  1.0
  H  H33  1  0.44534000  0.54257000  0.38770000  1.0
  H  H34  1  0.05467000  0.04259000  0.38770000  1.0
  H  H35  1  0.55466000  0.45738000  0.61228000  1.0
  H  H36  1  0.18520000  0.04209000  0.62336000  1.0
  H  H37  1  0.68523000  0.45788000  0.37663000  1.0
  H  H38  1  0.81478000  0.95791000  0.37663000  1.0
  H  H39  1  0.31480000  0.54210000  0.62335000  1.0
  C  C40  1  0.76530000  0.69581000  0.70158000  1.0
  C  C41  1  0.26525000  0.80418000  0.29842000  1.0
  C  C42  1  0.23474000  0.30418000  0.29841000  1.0
  C  C43  1  0.73473000  0.19581000  0.70159000  1.0
  C  C44  1  0.87054000  0.65120000  0.76637000  1.0
  C  C45  1  0.37053000  0.84881000  0.23364000  1.0
  C  C46  1  0.12947000  0.34881000  0.23364000  1.0
  C  C47  1  0.62946000  0.15121000  0.76636000  1.0
  C  C48  1  0.77839000  0.69058000  0.84233000  1.0
  C  C49  1  0.27840000  0.80942000  0.15768000  1.0
  C  C50  1  0.22163000  0.30941000  0.15766000  1.0
  C  C51  1  0.72159000  0.19057000  0.84234000  1.0
  C  C52  1  0.57877000  0.77529000  0.85523000  1.0
  C  C53  1  0.07876000  0.72473000  0.14477000  1.0
  C  C54  1  0.42124000  0.22472000  0.14477000  1.0
  C  C55  1  0.92122000  0.27528000  0.85524000  1.0
  C  C56  1  0.47416000  0.82121000  0.93196000  1.0
  C  C57  1  0.97415000  0.67881000  0.06805000  1.0
  C  C58  1  0.52585000  0.17881000  0.06804000  1.0
  C  C59  1  0.02585000  0.32122000  0.93197000  1.0
  C  C60  1  0.28107000  0.90437000  0.94110000  1.0
  C  C61  1  0.78105000  0.59565000  0.05891000  1.0
  C  C62  1  0.71892000  0.09566000  0.05889000  1.0
  C  C63  1  0.21892000  0.40437000  0.94110000  1.0
  C  C64  1  0.18357000  0.94293000  0.87362000  1.0
  C  C65  1  0.68354000  0.55708000  0.12638000  1.0
  C  C66  1  0.81646000  0.05708000  0.12636000  1.0
  C  C67  1  0.31641000  0.44294000  0.87363000  1.0
  C  C68  1  0.28024000  0.89951000  0.79793000  1.0
  C  C69  1  0.78021000  0.60050000  0.20209000  1.0
  C  C70  1  0.71978000  0.10049000  0.20207000  1.0
  C  C71  1  0.21973000  0.39950000  0.79792000  1.0
  C  C72  1  0.48198000  0.81632000  0.78704000  1.0
  C  C73  1  0.98196000  0.68371000  0.21297000  1.0
  C  C74  1  0.51806000  0.18369000  0.21295000  1.0
  C  C75  1  0.01801000  0.31631000  0.78705000  1.0
  N  N76  1  0.57991000  0.77621000  0.71164000  1.0
  N  N77  1  0.07988000  0.72380000  0.28836000  1.0
  N  N78  1  0.42012000  0.22379000  0.28835000  1.0
  N  N79  1  0.92013000  0.27620000  0.71165000  1.0
  O  O80  1  0.75300000  0.69706000  0.54281000  1.0
  O  O81  1  0.25299000  0.80294000  0.45719000  1.0
  O  O82  1  0.24700000  0.30293000  0.45719000  1.0
  O  O83  1  0.74696000  0.19704000  0.54281000  1.0
  O  O84  1  0.84040000  0.49002000  0.58783000  1.0
  O  O85  1  0.34041000  0.00997000  0.41215000  1.0
  O  O86  1  0.15961000  0.50996000  0.41215000  1.0
  O  O87  1  0.65956000  0.99002000  0.58785000  1.0
  O  O88  1  0.16369000  0.65962000  0.60617000  1.0
  O  O89  1  0.66369000  0.84035000  0.39382000  1.0
  O  O90  1  0.83633000  0.34037000  0.39382000  1.0
  O  O91  1  0.33628000  0.15963000  0.60621000  1.0
  O  O92  1  0.11342000  0.96352000  0.63594000  1.0
  O  O93  1  0.61344000  0.53644000  0.36405000  1.0
  O  O94  1  0.88657000  0.03646000  0.36405000  1.0
  O  O95  1  0.38658000  0.46355000  0.63595000  1.0
