# generated using pymatgen
data_ZnH16C18(N2O)4
_symmetry_space_group_name_H-M   'P 1'
_cell_length_a   8.56925000
_cell_length_b   8.56946000
_cell_length_c   16.06710000
_cell_angle_alpha   103.89400000
_cell_angle_beta   103.89300000
_cell_angle_gamma   95.43330000
_symmetry_Int_Tables_number   1
_chemical_formula_structural   ZnH16C18(N2O)4
_chemical_formula_sum   'Zn2 H32 C36 N16 O8'
_cell_volume   1097.21626221
_cell_formula_units_Z   2
loop_
 _symmetry_equiv_pos_site_id
 _symmetry_equiv_pos_as_xyz
  1  'x, y, z'
loop_
 _atom_site_type_symbol
 _atom_site_label
 _atom_site_symmetry_multiplicity
 _atom_site_fract_x
 _atom_site_fract_y
 _atom_site_fract_z
 _atom_site_occupancy
  Zn  Zn0  1  0.20787000  0.70773000  0.49999000  1.0
  Zn  Zn1  1  0.95775000  0.95788000  0.00000000  1.0
  H  H2  1  0.22691000  0.54443000  0.33124000  1.0
  H  H3  1  0.21309000  0.89535000  0.66879000  1.0
  H  H4  1  0.79443000  0.97692000  0.83124000  1.0
  H  H5  1  0.14536000  0.96311000  0.16879000  1.0
  H  H6  1  0.59993000  0.26919000  0.62467000  1.0
  H  H7  1  0.64504000  0.97556000  0.37470000  1.0
  H  H8  1  0.51921000  0.34993000  0.12466000  1.0
  H  H9  1  0.22556000  0.39504000  0.87470000  1.0
  H  H10  1  0.66377000  0.47132000  0.56083000  1.0
  H  H11  1  0.91123000  0.10284000  0.43910000  1.0
  H  H12  1  0.72134000  0.41377000  0.06082000  1.0
  H  H13  1  0.35285000  0.66123000  0.93910000  1.0
  H  H14  1  0.38219000  0.05212000  0.61788000  1.0
  H  H15  1  0.43446000  0.76468000  0.38138000  1.0
  H  H16  1  0.30214000  0.13220000  0.11789000  1.0
  H  H17  1  0.01468000  0.18447000  0.88139000  1.0
  H  H18  1  0.88696000  0.68069000  0.55887000  1.0
  H  H19  1  0.12299000  0.32809000  0.44147000  1.0
  H  H20  1  0.93071000  0.63697000  0.05886000  1.0
  H  H21  1  0.57808000  0.87299000  0.94148000  1.0
  H  H22  1  0.19572000  0.54293000  0.18781000  1.0
  H  H23  1  0.35610000  0.00779000  0.81209000  1.0
  H  H24  1  0.79293000  0.94572000  0.68782000  1.0
  H  H25  1  0.25778000  0.10611000  0.31209000  1.0
  H  H26  1  0.02424000  0.40160000  0.11008000  1.0
  H  H27  1  0.29276000  0.91444000  0.89030000  1.0
  H  H28  1  0.65159000  0.77425000  0.61008000  1.0
  H  H29  1  0.16443000  0.04276000  0.39030000  1.0
  H  H30  1  0.12048000  0.36002000  0.21199000  1.0
  H  H31  1  0.14914000  0.90906000  0.78861000  1.0
  H  H32  1  0.61001000  0.87050000  0.71199000  1.0
  H  H33  1  0.15906000  0.89914000  0.28861000  1.0
  C  C34  1  0.76989000  0.26954000  0.49988000  1.0
  C  C35  1  0.51955000  0.51988000  0.99988000  1.0
  C  C36  1  0.64193000  0.14176000  0.49970000  1.0
  C  C37  1  0.39178000  0.39192000  0.99970000  1.0
  C  C38  1  0.56525000  0.16086000  0.56859000  1.0
  C  C39  1  0.59244000  0.99668000  0.43075000  1.0
  C  C40  1  0.41089000  0.31525000  0.06859000  1.0
  C  C41  1  0.24669000  0.34243000  0.93076000  1.0
  C  C42  1  0.76430000  0.43466000  0.53444000  1.0
  C  C43  1  0.90089000  0.22960000  0.46556000  1.0
  C  C44  1  0.68468000  0.51430000  0.03444000  1.0
  C  C45  1  0.47961000  0.65089000  0.96557000  1.0
  C  C46  1  0.44431000  0.03805000  0.56542000  1.0
  C  C47  1  0.47263000  0.87894000  0.43387000  1.0
  C  C48  1  0.28807000  0.19432000  0.06543000  1.0
  C  C49  1  0.12895000  0.22263000  0.93388000  1.0
  C  C50  1  0.01336000  0.61140000  0.30677000  1.0
  C  C51  1  0.30479000  0.70643000  0.69344000  1.0
  C  C52  1  0.86139000  0.76336000  0.80677000  1.0
  C  C53  1  0.95642000  0.05479000  0.19344000  1.0
  C  C54  1  0.88737000  0.55086000  0.53310000  1.0
  C  C55  1  0.01866000  0.35404000  0.46713000  1.0
  C  C56  1  0.80088000  0.63738000  0.03310000  1.0
  C  C57  1  0.60405000  0.76866000  0.96713000  1.0
  C  C58  1  0.88716000  0.69902000  0.33428000  1.0
  C  C59  1  0.36491000  0.55278000  0.66595000  1.0
  C  C60  1  0.94901000  0.63717000  0.83429000  1.0
  C  C61  1  0.80275000  0.11490000  0.16594000  1.0
  C  C62  1  0.72849000  0.67186000  0.27413000  1.0
  C  C63  1  0.39800000  0.45413000  0.72617000  1.0
  C  C64  1  0.92184000  0.47851000  0.77414000  1.0
  C  C65  1  0.70410000  0.14796000  0.22616000  1.0
  C  C66  1  0.08623000  0.45703000  0.18057000  1.0
  C  C67  1  0.27750000  0.90587000  0.81972000  1.0
  C  C68  1  0.70702000  0.83624000  0.68057000  1.0
  C  C69  1  0.15587000  0.02750000  0.31972000  1.0
  N  N70  1  0.39806000  0.89808000  0.49965000  1.0
  N  N71  1  0.14810000  0.14806000  0.99965000  1.0
  N  N72  1  0.01303000  0.51244000  0.50016000  1.0
  N  N73  1  0.76245000  0.76303000  0.00016000  1.0
  N  N74  1  0.15120000  0.60903000  0.36094000  1.0
  N  N75  1  0.24788000  0.78991000  0.63912000  1.0
  N  N76  1  0.85903000  0.90122000  0.86095000  1.0
  N  N77  1  0.03992000  0.99789000  0.13912000  1.0
  N  N78  1  0.89933000  0.81518000  0.40935000  1.0
  N  N79  1  0.40610000  0.49006000  0.59080000  1.0
  N  N80  1  0.06518000  0.64934000  0.90935000  1.0
  N  N81  1  0.74005000  0.15608000  0.09080000  1.0
  N  N82  1  0.59476000  0.65502000  0.22975000  1.0
  N  N83  1  0.42584000  0.36464000  0.77055000  1.0
  N  N84  1  0.90499000  0.34477000  0.72976000  1.0
  N  N85  1  0.61458000  0.17578000  0.27054000  1.0
  O  O86  1  0.96931000  0.53956000  0.21777000  1.0
  O  O87  1  0.32246000  0.75159000  0.78253000  1.0
  O  O88  1  0.78954000  0.71932000  0.71777000  1.0
  O  O89  1  0.00158000  0.07245000  0.28253000  1.0
  O  O90  1  0.03168000  0.85665000  0.47400000  1.0
  O  O91  1  0.38303000  0.55795000  0.52609000  1.0
  O  O92  1  0.10667000  0.78170000  0.97400000  1.0
  O  O93  1  0.80795000  0.13303000  0.02609000  1.0
