# generated using pymatgen
data_CoH14C21(NO2)4
_symmetry_space_group_name_H-M   'P 1'
_cell_length_a   10.04110000
_cell_length_b   10.13580000
_cell_length_c   11.62126944
_cell_angle_alpha   65.20577847
_cell_angle_beta   81.98740497
_cell_angle_gamma   72.36200000
_symmetry_Int_Tables_number   1
_chemical_formula_structural   CoH14C21(NO2)4
_chemical_formula_sum   'Co2 H28 C42 N8 O16'
_cell_volume   1023.14403141
_cell_formula_units_Z   2
loop_
 _symmetry_equiv_pos_site_id
 _symmetry_equiv_pos_as_xyz
  1  'x, y, z'
loop_
 _atom_site_type_symbol
 _atom_site_label
 _atom_site_symmetry_multiplicity
 _atom_site_fract_x
 _atom_site_fract_y
 _atom_site_fract_z
 _atom_site_occupancy
  Co  Co0  1  0.85135000  0.90620000  0.96989000  1.0
  Co  Co1  1  0.14860000  0.09375000  0.03017000  1.0
  H  H2  1  0.95481000  0.64506000  0.21674000  1.0
  H  H3  1  0.04520000  0.35495000  0.78326000  1.0
  H  H4  1  0.40877000  0.01644000  0.25716000  1.0
  H  H5  1  0.59122000  0.98355000  0.74285000  1.0
  H  H6  1  0.87996000  0.55500000  0.44679000  1.0
  H  H7  1  0.12003000  0.44500000  0.55321000  1.0
  H  H8  1  0.26384000  0.89659000  0.63709000  1.0
  H  H9  1  0.73616000  0.10340000  0.36292000  1.0
  H  H10  1  0.64775000  0.69230000  0.50833000  1.0
  H  H11  1  0.35225000  0.30770000  0.49166000  1.0
  H  H12  1  0.75074000  0.49295000  0.24404000  1.0
  H  H13  1  0.24927000  0.50705000  0.75594000  1.0
  H  H14  1  0.58344000  0.98305000  0.11120000  1.0
  H  H15  1  0.41656000  0.01695000  0.88880000  1.0
  H  H16  1  0.09959000  0.87637000  0.79468000  1.0
  H  H17  1  0.90041000  0.12363000  0.20532000  1.0
  H  H18  1  0.71259000  0.18874000  0.74537000  1.0
  H  H19  1  0.28741000  0.81126000  0.25462000  1.0
  H  H20  1  0.76868000  0.33563000  0.51958000  1.0
  H  H21  1  0.23133000  0.66438000  0.48042000  1.0
  H  H22  1  0.00646000  0.24638000  0.42891000  1.0
  H  H23  1  0.99355000  0.75362000  0.57111000  1.0
  H  H24  1  0.43332000  0.68288000  0.13238000  1.0
  H  H25  1  0.56668000  0.31711000  0.86762000  1.0
  H  H26  1  0.50732000  0.22524000  0.17091000  1.0
  H  H27  1  0.49268000  0.77476000  0.82909000  1.0
  H  H28  1  0.10835000  0.54797000  0.04172000  1.0
  H  H29  1  0.89164000  0.45203000  0.95828000  1.0
  C  C30  1  0.85337000  0.69800000  0.24813000  1.0
  C  C31  1  0.14663000  0.30202000  0.75186000  1.0
  C  C32  1  0.81112000  0.65006000  0.37477000  1.0
  C  C33  1  0.18888000  0.34994000  0.62523000  1.0
  C  C34  1  0.68203000  0.72516000  0.40992000  1.0
  C  C35  1  0.31797000  0.27482000  0.59009000  1.0
  C  C36  1  0.59670000  0.84825000  0.31438000  1.0
  C  C37  1  0.40330000  0.15174000  0.68563000  1.0
  C  C38  1  0.64630000  0.88840000  0.18822000  1.0
  C  C39  1  0.35370000  0.11159000  0.81179000  1.0
  C  C40  1  0.40876000  0.92207000  0.45274000  1.0
  C  C41  1  0.59124000  0.07792000  0.54726000  1.0
  C  C42  1  0.26375000  0.03330000  0.45066000  1.0
  C  C43  1  0.73625000  0.96670000  0.54934000  1.0
  C  C44  1  0.07162000  0.05585000  0.60599000  1.0
  C  C45  1  0.92838000  0.94416000  0.39399000  1.0
  C  C46  1  0.02974000  0.97981000  0.73161000  1.0
  C  C47  1  0.97026000  0.02019000  0.26839000  1.0
  C  C48  1  0.81353000  0.15396000  0.70296000  1.0
  C  C49  1  0.18648000  0.84604000  0.29703000  1.0
  C  C50  1  0.84633000  0.23508000  0.57753000  1.0
  C  C51  1  0.15367000  0.76492000  0.42246000  1.0
  C  C52  1  0.97702000  0.18708000  0.52672000  1.0
  C  C53  1  0.02298000  0.81293000  0.47328000  1.0
  C  C54  1  0.26108000  0.63129000  0.08535000  1.0
  C  C55  1  0.73892000  0.36871000  0.91466000  1.0
  C  C56  1  0.39566000  0.59471000  0.12889000  1.0
  C  C57  1  0.60435000  0.40528000  0.87110000  1.0
  C  C58  1  0.48237000  0.44757000  0.16293000  1.0
  C  C59  1  0.51764000  0.55243000  0.83706000  1.0
  C  C60  1  0.43661000  0.33758000  0.14924000  1.0
  C  C61  1  0.56339000  0.66242000  0.85076000  1.0
  C  C62  1  0.30170000  0.37345000  0.10645000  1.0
  C  C63  1  0.69829000  0.62656000  0.89355000  1.0
  C  C64  1  0.21301000  0.51986000  0.07657000  1.0
  C  C65  1  0.78698000  0.48015000  0.92343000  1.0
  C  C66  1  0.17373000  0.79126000  0.04476000  1.0
  C  C67  1  0.82628000  0.20873000  0.95525000  1.0
  C  C68  1  0.62581000  0.40999000  0.20528000  1.0
  C  C69  1  0.37420000  0.59000000  0.79472000  1.0
  C  C70  1  0.25168000  0.25951000  0.08755000  1.0
  C  C71  1  0.74832000  0.74052000  0.91245000  1.0
  N  N72  1  0.77185000  0.81630000  0.15652000  1.0
  N  N73  1  0.22814000  0.18370000  0.84347000  1.0
  N  N74  1  0.46568000  0.93497000  0.33672000  1.0
  N  N75  1  0.53432000  0.06501000  0.66329000  1.0
  N  N76  1  0.20529000  0.99321000  0.56913000  1.0
  N  N77  1  0.79471000  0.00679000  0.43087000  1.0
  N  N78  1  0.90435000  0.02746000  0.77899000  1.0
  N  N79  1  0.09566000  0.97253000  0.22103000  1.0
  O  O80  1  0.46336000  0.83024000  0.55569000  1.0
  O  O81  1  0.53664000  0.16975000  0.44431000  1.0
  O  O82  1  0.21146000  0.14137000  0.35402000  1.0
  O  O83  1  0.78853000  0.85863000  0.64598000  1.0
  O  O84  1  0.04296000  0.81902000  0.03574000  1.0
  O  O85  1  0.95705000  0.18097000  0.96426000  1.0
  O  O86  1  0.23800000  0.89075000  0.02352000  1.0
  O  O87  1  0.76202000  0.10925000  0.97647000  1.0
  O  O88  1  0.65131000  0.52258000  0.22506000  1.0
  O  O89  1  0.34870000  0.47741000  0.77493000  1.0
  O  O90  1  0.71651000  0.29136000  0.22026000  1.0
  O  O91  1  0.28348000  0.70864000  0.77975000  1.0
  O  O92  1  0.33536000  0.13077000  0.09815000  1.0
  O  O93  1  0.66465000  0.86924000  0.90185000  1.0
  O  O94  1  0.12531000  0.29386000  0.05639000  1.0
  O  O95  1  0.87469000  0.70616000  0.94361000  1.0
