# generated using pymatgen
data_CuH5C5IN2
_symmetry_space_group_name_H-M   'P 1'
_cell_length_a   4.12397000
_cell_length_b   7.66396000
_cell_length_c   10.64950000
_cell_angle_alpha   88.02180000
_cell_angle_beta   87.83720000
_cell_angle_gamma   79.26020000
_symmetry_Int_Tables_number   1
_chemical_formula_structural   CuH5C5IN2
_chemical_formula_sum   'Cu2 H10 C10 I2 N4'
_cell_volume   330.32655738
_cell_formula_units_Z   2
loop_
 _symmetry_equiv_pos_site_id
 _symmetry_equiv_pos_as_xyz
  1  'x, y, z'
loop_
 _atom_site_type_symbol
 _atom_site_label
 _atom_site_symmetry_multiplicity
 _atom_site_fract_x
 _atom_site_fract_y
 _atom_site_fract_z
 _atom_site_occupancy
  Cu  Cu0  1  0.30590000  0.12359000  0.93932000  1.0
  Cu  Cu1  1  0.69408000  0.87640000  0.06068000  1.0
  H  H2  1  0.49759000  0.06306000  0.34820000  1.0
  H  H3  1  0.50239000  0.93694000  0.65180000  1.0
  H  H4  1  0.23655000  0.96749000  0.25425000  1.0
  H  H5  1  0.76345000  0.03251000  0.74577000  1.0
  H  H6  1  0.21738000  0.94047000  0.42324000  1.0
  H  H7  1  0.78263000  0.05951000  0.57678000  1.0
  H  H8  1  0.71166000  0.63835000  0.67780000  1.0
  H  H9  1  0.28838000  0.36165000  0.32220000  1.0
  H  H10  1  0.87549000  0.45543000  0.87340000  1.0
  H  H11  1  0.12447000  0.54456000  0.12661000  1.0
  C  C12  1  0.63780000  0.78221000  0.33460000  1.0
  C  C13  1  0.36219000  0.21780000  0.66539000  1.0
  C  C14  1  0.37970000  0.94656000  0.34006000  1.0
  C  C15  1  0.62030000  0.05345000  0.65993000  1.0
  C  C16  1  0.95409000  0.54600000  0.43949000  1.0
  C  C17  1  0.04595000  0.45401000  0.56052000  1.0
  C  C18  1  0.89660000  0.51733000  0.67412000  1.0
  C  C19  1  0.10340000  0.48268000  0.32588000  1.0
  C  C20  1  0.98946000  0.41730000  0.78190000  1.0
  C  C21  1  0.01056000  0.58269000  0.21808000  1.0
  I  I22  1  0.73561000  0.21663000  0.08285000  1.0
  I  I23  1  0.26436000  0.78337000  0.91714000  1.0
  N  N24  1  0.78140000  0.73374000  0.22036000  1.0
  N  N25  1  0.21859000  0.26626000  0.77964000  1.0
  N  N26  1  0.71954000  0.69437000  0.44264000  1.0
  N  N27  1  0.28049000  0.30563000  0.55736000  1.0
