# generated using pymatgen
data_CuH12C16(N5O)2
_symmetry_space_group_name_H-M   'P 1'
_cell_length_a   6.20289000
_cell_length_b   7.42199000
_cell_length_c   11.41310000
_cell_angle_alpha   99.42720000
_cell_angle_beta   91.28720000
_cell_angle_gamma   102.32000000
_symmetry_Int_Tables_number   1
_chemical_formula_structural   CuH12C16(N5O)2
_chemical_formula_sum   'Cu1 H12 C16 N10 O2'
_cell_volume   505.50158777
_cell_formula_units_Z   1
loop_
 _symmetry_equiv_pos_site_id
 _symmetry_equiv_pos_as_xyz
  1  'x, y, z'
loop_
 _atom_site_type_symbol
 _atom_site_label
 _atom_site_symmetry_multiplicity
 _atom_site_fract_x
 _atom_site_fract_y
 _atom_site_fract_z
 _atom_site_occupancy
  Cu  Cu0  1  0.99997000  0.00000000  0.99999000  1.0
  H  H1  1  0.04477000  0.70914000  0.40300000  1.0
  H  H2  1  0.95522000  0.29084000  0.59698000  1.0
  H  H3  1  0.25706000  0.65367000  0.31647000  1.0
  H  H4  1  0.74298000  0.34632000  0.68354000  1.0
  H  H5  1  0.78764000  0.81105000  0.76228000  1.0
  H  H6  1  0.21236000  0.18891000  0.23770000  1.0
  H  H7  1  0.89995000  0.71690000  0.56016000  1.0
  H  H8  1  0.10009000  0.28308000  0.43983000  1.0
  H  H9  1  0.57762000  0.95244000  0.69301000  1.0
  H  H10  1  0.42240000  0.04755000  0.30703000  1.0
  H  H11  1  0.43154000  0.03401000  0.89508000  1.0
  H  H12  1  0.56843000  0.96596000  0.10494000  1.0
  C  C13  1  0.20563000  0.70450000  0.09174000  1.0
  C  C14  1  0.79437000  0.29550000  0.90825000  1.0
  C  C15  1  0.30593000  0.42057000  0.08318000  1.0
  C  C16  1  0.69407000  0.57947000  0.91682000  1.0
  C  C17  1  0.96114000  0.83971000  0.74276000  1.0
  C  C18  1  0.03886000  0.16029000  0.25723000  1.0
  C  C19  1  0.02848000  0.78625000  0.62932000  1.0
  C  C20  1  0.97154000  0.21377000  0.37067000  1.0
  C  C21  1  0.25469000  0.82375000  0.61021000  1.0
  C  C22  1  0.74534000  0.17629000  0.38979000  1.0
  C  C23  1  0.40167000  0.91724000  0.70627000  1.0
  C  C24  1  0.59833000  0.08279000  0.29374000  1.0
  C  C25  1  0.32263000  0.96433000  0.81751000  1.0
  C  C26  1  0.67735000  0.03568000  0.18250000  1.0
  C  C27  1  0.35051000  0.76278000  0.49363000  1.0
  C  C28  1  0.64948000  0.23723000  0.50637000  1.0
  N  N29  1  0.16603000  0.83978000  0.06277000  1.0
  N  N30  1  0.83396000  0.16020000  0.93722000  1.0
  N  N31  1  0.25436000  0.57171000  0.13967000  1.0
  N  N32  1  0.74560000  0.42828000  0.86034000  1.0
  N  N33  1  0.34723000  0.27546000  0.04383000  1.0
  N  N34  1  0.65277000  0.72454000  0.95619000  1.0
  N  N35  1  0.10523000  0.92542000  0.83479000  1.0
  N  N36  1  0.89476000  0.07459000  0.16521000  1.0
  N  N37  1  0.20565000  0.70235000  0.39793000  1.0
  N  N38  1  0.79436000  0.29766000  0.60206000  1.0
  O  O39  1  0.55123000  0.76614000  0.48911000  1.0
  O  O40  1  0.44875000  0.23386000  0.51088000  1.0
