# generated using pymatgen
data_CuH15C23N3O4
_symmetry_space_group_name_H-M   'P 1'
_cell_length_a   10.28330000
_cell_length_b   14.38311775
_cell_length_c   17.20690000
_cell_angle_alpha   88.34373702
_cell_angle_beta   72.61890000
_cell_angle_gamma   69.07179637
_symmetry_Int_Tables_number   1
_chemical_formula_structural   CuH15C23N3O4
_chemical_formula_sum   'Cu4 H60 C92 N12 O16'
_cell_volume   2259.90656194
_cell_formula_units_Z   4
loop_
 _symmetry_equiv_pos_site_id
 _symmetry_equiv_pos_as_xyz
  1  'x, y, z'
loop_
 _atom_site_type_symbol
 _atom_site_label
 _atom_site_symmetry_multiplicity
 _atom_site_fract_x
 _atom_site_fract_y
 _atom_site_fract_z
 _atom_site_occupancy
  Cu  Cu0  1  0.84247000  0.05573000  0.73440000  1.0
  Cu  Cu1  1  0.13300000  0.44436000  0.76563000  1.0
  Cu  Cu2  1  0.15753000  0.94427000  0.26560000  1.0
  Cu  Cu3  1  0.86699000  0.55565000  0.23437000  1.0
  H  H4  1  0.62182000  0.03798000  0.88012000  1.0
  H  H5  1  0.04030000  0.46223000  0.62013000  1.0
  H  H6  1  0.37819000  0.96204000  0.11989000  1.0
  H  H7  1  0.95969000  0.53777000  0.37988000  1.0
  H  H8  1  0.61021000  0.92891000  0.99639000  1.0
  H  H9  1  0.03603000  0.57109000  0.50374000  1.0
  H  H10  1  0.38981000  0.07112000  0.00363000  1.0
  H  H11  1  0.96392000  0.42893000  0.49627000  1.0
  H  H12  1  0.06233000  0.74784000  0.87232000  1.0
  H  H13  1  0.18345000  0.75225000  0.62758000  1.0
  H  H14  1  0.93765000  0.25214000  0.12766000  1.0
  H  H15  1  0.81659000  0.24773000  0.37241000  1.0
  H  H16  1  0.05353000  0.86713000  0.76293000  1.0
  H  H17  1  0.18442000  0.63313000  0.73706000  1.0
  H  H18  1  0.94647000  0.13285000  0.23705000  1.0
  H  H19  1  0.81561000  0.36686000  0.26294000  1.0
  H  H20  1  0.67133000  0.88092000  0.10964000  1.0
  H  H21  1  0.16197000  0.61915000  0.39038000  1.0
  H  H22  1  0.32863000  0.11907000  0.89035000  1.0
  H  H23  1  0.83805000  0.38085000  0.60962000  1.0
  H  H24  1  0.68706000  0.77080000  0.21978000  1.0
  H  H25  1  0.17756000  0.72926000  0.28025000  1.0
  H  H26  1  0.31289000  0.22920000  0.78021000  1.0
  H  H27  1  0.82245000  0.27073000  0.71975000  1.0
  H  H28  1  0.01471000  0.53349000  0.06323000  1.0
  H  H29  1  0.11159000  0.96663000  0.43678000  1.0
  H  H30  1  0.98531000  0.46652000  0.93677000  1.0
  H  H31  1  0.88840000  0.03337000  0.56322000  1.0
  H  H32  1  0.00740000  0.63089000  0.94176000  1.0
  H  H33  1  0.08060000  0.86916000  0.55822000  1.0
  H  H34  1  0.99266000  0.36912000  0.05824000  1.0
  H  H35  1  0.91935000  0.13085000  0.44178000  1.0
  H  H36  1  0.91583000  0.72779000  0.30294000  1.0
  H  H37  1  0.44730000  0.77212000  0.19706000  1.0
  H  H38  1  0.08416000  0.27222000  0.69706000  1.0
  H  H39  1  0.55269000  0.22787000  0.80294000  1.0
  H  H40  1  0.57565000  0.62311000  0.36359000  1.0
  H  H41  1  0.06310000  0.87658000  0.13650000  1.0
  H  H42  1  0.42435000  0.37689000  0.63641000  1.0
  H  H43  1  0.93690000  0.12342000  0.86350000  1.0
  H  H44  1  0.33229000  0.05483000  0.74369000  1.0
  H  H45  1  0.63074000  0.44533000  0.75620000  1.0
  H  H46  1  0.66771000  0.94517000  0.25632000  1.0
  H  H47  1  0.36927000  0.55467000  0.24380000  1.0
  H  H48  1  0.32097000  0.88151000  0.54962000  1.0
  H  H49  1  0.25272000  0.61869000  0.95039000  1.0
  H  H50  1  0.67903000  0.11849000  0.45037000  1.0
  H  H51  1  0.74727000  0.38131000  0.04961000  1.0
  H  H52  1  0.73482000  0.88311000  0.56214000  1.0
  H  H53  1  0.68094000  0.61678000  0.93763000  1.0
  H  H54  1  0.26518000  0.11689000  0.43786000  1.0
  H  H55  1  0.31906000  0.38322000  0.06237000  1.0
  H  H56  1  0.44851000  0.73533000  0.49279000  1.0
  H  H57  1  0.17757000  0.76444000  0.00712000  1.0
  H  H58  1  0.55149000  0.26467000  0.50721000  1.0
  H  H59  1  0.82242000  0.23556000  0.99288000  1.0
  H  H60  1  0.80038000  0.84881000  0.42617000  1.0
  H  H61  1  0.57630000  0.65140000  0.07368000  1.0
  H  H62  1  0.19961000  0.15120000  0.57382000  1.0
  H  H63  1  0.42370000  0.34859000  0.92633000  1.0
  C  C64  1  0.71681000  0.97396000  0.88276000  1.0
  C  C65  1  0.07419000  0.52616000  0.61734000  1.0
  C  C66  1  0.28320000  0.02605000  0.11724000  1.0
  C  C67  1  0.92579000  0.47385000  0.38266000  1.0
  C  C68  1  0.71193000  0.91276000  0.94650000  1.0
  C  C69  1  0.07187000  0.58727000  0.55356000  1.0
  C  C70  1  0.28810000  0.08725000  0.05350000  1.0
  C  C71  1  0.92808000  0.41275000  0.44645000  1.0
  C  C72  1  0.83731000  0.83028000  0.94581000  1.0
  C  C73  1  0.11417000  0.66976000  0.55418000  1.0
  C  C74  1  0.16270000  0.16972000  0.05418000  1.0
  C  C75  1  0.88581000  0.33025000  0.44582000  1.0
  C  C76  1  0.96217000  0.81194000  0.87766000  1.0
  C  C77  1  0.15272000  0.68813000  0.62227000  1.0
  C  C78  1  0.03783000  0.18804000  0.12232000  1.0
  C  C79  1  0.84731000  0.31186000  0.37772000  1.0
  C  C80  1  0.95914000  0.87711000  0.81649000  1.0
  C  C81  1  0.15360000  0.62305000  0.68351000  1.0
  C  C82  1  0.04086000  0.12288000  0.18350000  1.0
  C  C83  1  0.84643000  0.37694000  0.31649000  1.0
  C  C84  1  0.83946000  0.76659000  0.01443000  1.0
  C  C85  1  0.12102000  0.73342000  0.48556000  1.0
  C  C86  1  0.16056000  0.23341000  0.98557000  1.0
  C  C87  1  0.87898000  0.26658000  0.51444000  1.0
  C  C88  1  0.74881000  0.80418000  0.09428000  1.0
  C  C89  1  0.14743000  0.69589000  0.40573000  1.0
  C  C90  1  0.25118000  0.19582000  0.90572000  1.0
  C  C91  1  0.85257000  0.30411000  0.59426000  1.0
  C  C92  1  0.75810000  0.74283000  0.15782000  1.0
  C  C93  1  0.15887000  0.75724000  0.34219000  1.0
  C  C94  1  0.24188000  0.25717000  0.84218000  1.0
  C  C95  1  0.84113000  0.24276000  0.65781000  1.0
  C  C96  1  0.93974000  0.61050000  0.06920000  1.0
  C  C97  1  0.11962000  0.88959000  0.43082000  1.0
  C  C98  1  0.06028000  0.38950000  0.93080000  1.0
  C  C99  1  0.88036000  0.11041000  0.56917000  1.0
  C  C100  1  0.93552000  0.66641000  0.00230000  1.0
  C  C101  1  0.10473000  0.83363000  0.49769000  1.0
  C  C102  1  0.06450000  0.33360000  0.99770000  1.0
  C  C103  1  0.89524000  0.16638000  0.50232000  1.0
  C  C104  1  0.14724000  0.00382000  0.68710000  1.0
  C  C105  1  0.33810000  0.49641000  0.81309000  1.0
  C  C106  1  0.85276000  0.99618000  0.31290000  1.0
  C  C107  1  0.66190000  0.50359000  0.18692000  1.0
  C  C108  1  0.81186000  0.73254000  0.34670000  1.0
  C  C109  1  0.39193000  0.76745000  0.15323000  1.0
  C  C110  1  0.18814000  0.26746000  0.65330000  1.0
  C  C111  1  0.60807000  0.23254000  0.84678000  1.0
  C  C112  1  0.62160000  0.67355000  0.38136000  1.0
  C  C113  1  0.17729000  0.82623000  0.11866000  1.0
  C  C114  1  0.37841000  0.32644000  0.61864000  1.0
  C  C115  1  0.82272000  0.17376000  0.88134000  1.0
  C  C116  1  0.62230000  0.01249000  0.69927000  1.0
  C  C117  1  0.83447000  0.48749000  0.80045000  1.0
  C  C118  1  0.37771000  0.98750000  0.30073000  1.0
  C  C119  1  0.16554000  0.51251000  0.19955000  1.0
  C  C120  1  0.54215000  0.97296000  0.65642000  1.0
  C  C121  1  0.67197000  0.52712000  0.84334000  1.0
  C  C122  1  0.45784000  0.02704000  0.34358000  1.0
  C  C123  1  0.32803000  0.47288000  0.15666000  1.0
  C  C124  1  0.39023000  0.00341000  0.68878000  1.0
  C  C125  1  0.58261000  0.49673000  0.81111000  1.0
  C  C126  1  0.60977000  0.99659000  0.31122000  1.0
  C  C127  1  0.41739000  0.50327000  0.18889000  1.0
  C  C128  1  0.31116000  0.96912000  0.65094000  1.0
  C  C129  1  0.43148000  0.53103000  0.84906000  1.0
  C  C130  1  0.68884000  0.03088000  0.34905000  1.0
  C  C131  1  0.56852000  0.46897000  0.15094000  1.0
  C  C132  1  0.38521000  0.90460000  0.57975000  1.0
  C  C133  1  0.37013000  0.59557000  0.92021000  1.0
  C  C134  1  0.61479000  0.09540000  0.42025000  1.0
  C  C135  1  0.62987000  0.40443000  0.07979000  1.0
  C  C136  1  0.53815000  0.87257000  0.54620000  1.0
  C  C137  1  0.45768000  0.62751000  0.95369000  1.0
  C  C138  1  0.46185000  0.12743000  0.45380000  1.0
  C  C139  1  0.54232000  0.37249000  0.04631000  1.0
  C  C140  1  0.61585000  0.90750000  0.58537000  1.0
  C  C141  1  0.60942000  0.59252000  0.91443000  1.0
  C  C142  1  0.38414000  0.09250000  0.41463000  1.0
  C  C143  1  0.39057000  0.40749000  0.08557000  1.0
  C  C144  1  0.55121000  0.73755000  0.45222000  1.0
  C  C145  1  0.24179000  0.76232000  0.04776000  1.0
  C  C146  1  0.44879000  0.26245000  0.54779000  1.0
  C  C147  1  0.75821000  0.23767000  0.95225000  1.0
  C  C148  1  0.61313000  0.80298000  0.47167000  1.0
  C  C149  1  0.38866000  0.69704000  0.02823000  1.0
  C  C150  1  0.38687000  0.19702000  0.52833000  1.0
  C  C151  1  0.61134000  0.30295000  0.97177000  1.0
  C  C152  1  0.74725000  0.79887000  0.41645000  1.0
  C  C153  1  0.46352000  0.70127000  0.08340000  1.0
  C  C154  1  0.25275000  0.20113000  0.58355000  1.0
  C  C155  1  0.53648000  0.29872000  0.91661000  1.0
  N  N156  1  0.83940000  0.95771000  0.81944000  1.0
  N  N157  1  0.11722000  0.54248000  0.68065000  1.0
  N  N158  1  0.16061000  0.04229000  0.18055000  1.0
  N  N159  1  0.88278000  0.45752000  0.31935000  1.0
  N  N160  1  0.75065000  0.67041000  0.32927000  1.0
  N  N161  1  0.25112000  0.82940000  0.17075000  1.0
  N  N162  1  0.24935000  0.32959000  0.67072000  1.0
  N  N163  1  0.74889000  0.17059000  0.82926000  1.0
  N  N164  1  0.85348000  0.64786000  0.14588000  1.0
  N  N165  1  0.14739000  0.85221000  0.35414000  1.0
  N  N166  1  0.14653000  0.35213000  0.85412000  1.0
  N  N167  1  0.85261000  0.14779000  0.64585000  1.0
  O  O168  1  0.76311000  0.97755000  0.67016000  1.0
  O  O169  1  0.91132000  0.52230000  0.82964000  1.0
  O  O170  1  0.23689000  0.02245000  0.32984000  1.0
  O  O171  1  0.08867000  0.47772000  0.17036000  1.0
  O  O172  1  0.54915000  0.07657000  0.75960000  1.0
  O  O173  1  0.88559000  0.42348000  0.74008000  1.0
  O  O174  1  0.45085000  0.92342000  0.24040000  1.0
  O  O175  1  0.11443000  0.57652000  0.25992000  1.0
  O  O176  1  0.08021000  0.95918000  0.65904000  1.0
  O  O177  1  0.19846000  0.54108000  0.84129000  1.0
  O  O178  1  0.91980000  0.04082000  0.34096000  1.0
  O  O179  1  0.80155000  0.45892000  0.15870000  1.0
  O  O180  1  0.08467000  0.07413000  0.74321000  1.0
  O  O181  1  0.40157000  0.42610000  0.75695000  1.0
  O  O182  1  0.91533000  0.92587000  0.25679000  1.0
  O  O183  1  0.59843000  0.57390000  0.24305000  1.0
