# generated using pymatgen
data_ZnH22C14(NO5)2
_symmetry_space_group_name_H-M   'P 1'
_cell_length_a   9.18099000
_cell_length_b   9.71729000
_cell_length_c   11.55590000
_cell_angle_alpha   78.12540000
_cell_angle_beta   74.78970000
_cell_angle_gamma   71.75540000
_symmetry_Int_Tables_number   1
_chemical_formula_structural   ZnH22C14(NO5)2
_chemical_formula_sum   'Zn2 H44 C28 N4 O20'
_cell_volume   936.18868798
_cell_formula_units_Z   2
loop_
 _symmetry_equiv_pos_site_id
 _symmetry_equiv_pos_as_xyz
  1  'x, y, z'
loop_
 _atom_site_type_symbol
 _atom_site_label
 _atom_site_symmetry_multiplicity
 _atom_site_fract_x
 _atom_site_fract_y
 _atom_site_fract_z
 _atom_site_occupancy
  Zn  Zn0  1  0.50000000  0.50000000  0.50000000  1.0
  Zn  Zn1  1  0.50000000  0.00000000  0.50000000  1.0
  H  H2  1  0.98710000  0.63848000  0.40572000  1.0
  H  H3  1  0.01290000  0.36152000  0.59428000  1.0
  H  H4  1  0.91598000  0.67240000  0.27236000  1.0
  H  H5  1  0.08402000  0.32759000  0.72764000  1.0
  H  H6  1  0.17246000  0.39875000  0.34493000  1.0
  H  H7  1  0.82754000  0.60124000  0.65507000  1.0
  H  H8  1  0.10141000  0.43422000  0.21024000  1.0
  H  H9  1  0.89859000  0.56578000  0.78975000  1.0
  H  H10  1  0.32357000  0.55881000  0.26224000  1.0
  H  H11  1  0.67642000  0.44119000  0.73776000  1.0
  H  H12  1  0.37921000  0.65267000  0.87048000  1.0
  H  H13  1  0.62079000  0.34734000  0.12953000  1.0
  H  H14  1  0.59014000  0.77088000  0.76109000  1.0
  H  H15  1  0.40986000  0.22913000  0.23891000  1.0
  H  H16  1  0.62952000  0.85533000  0.10270000  1.0
  H  H17  1  0.37048000  0.14467000  0.89731000  1.0
  H  H18  1  0.41906000  0.74023000  0.20883000  1.0
  H  H19  1  0.58094000  0.25978000  0.79118000  1.0
  H  H20  1  0.84270000  0.87384000  0.99853000  1.0
  H  H21  1  0.15730000  0.12617000  0.00146000  1.0
  H  H22  1  0.98712000  0.04686000  0.91110000  1.0
  H  H23  1  0.01288000  0.95316000  0.08888000  1.0
  H  H24  1  0.90993000  0.08096000  0.77966000  1.0
  H  H25  1  0.09007000  0.91904000  0.22033000  1.0
  H  H26  1  0.15129000  0.79888000  0.85446000  1.0
  H  H27  1  0.84870000  0.20113000  0.14554000  1.0
  H  H28  1  0.07986000  0.83864000  0.71932000  1.0
  H  H29  1  0.92014000  0.16136000  0.28067000  1.0
  H  H30  1  0.74066000  0.31020000  0.52783000  1.0
  H  H31  1  0.25934000  0.68980000  0.47217000  1.0
  H  H32  1  0.59939000  0.23208000  0.60148000  1.0
  H  H33  1  0.40061000  0.76791000  0.39852000  1.0
  H  H34  1  0.61025000  0.28307000  0.35358000  1.0
  H  H35  1  0.38975000  0.71691000  0.64643000  1.0
  H  H36  1  0.67090000  0.42082000  0.29523000  1.0
  H  H37  1  0.32909000  0.57916000  0.70478000  1.0
  H  H38  1  0.21835000  0.17700000  0.46158000  1.0
  H  H39  1  0.78165000  0.82300000  0.53841000  1.0
  H  H40  1  0.30123000  0.27322000  0.50918000  1.0
  H  H41  1  0.69877000  0.72677000  0.49082000  1.0
  H  H42  1  0.39230000  0.97929000  0.31480000  1.0
  H  H43  1  0.60771000  0.02071000  0.68520000  1.0
  H  H44  1  0.58318000  0.90781000  0.30495000  1.0
  H  H45  1  0.41683000  0.09219000  0.69505000  1.0
  C  C46  1  0.84587000  0.50220000  0.40402000  1.0
  C  C47  1  0.15413000  0.49780000  0.59598000  1.0
  C  C48  1  0.96680000  0.58423000  0.33876000  1.0
  C  C49  1  0.03319000  0.41576000  0.66124000  1.0
  C  C50  1  0.12193000  0.48586000  0.27838000  1.0
  C  C51  1  0.87807000  0.51413000  0.72162000  1.0
  C  C52  1  0.24692000  0.62835000  0.10239000  1.0
  C  C53  1  0.75308000  0.37166000  0.89761000  1.0
  C  C54  1  0.38320000  0.69092000  0.04565000  1.0
  C  C55  1  0.61679000  0.30908000  0.95435000  1.0
  C  C56  1  0.43370000  0.69922000  0.91994000  1.0
  C  C57  1  0.56630000  0.30079000  0.08006000  1.0
  C  C58  1  0.55244000  0.76398000  0.85917000  1.0
  C  C59  1  0.44756000  0.23603000  0.14083000  1.0
  C  C60  1  0.62451000  0.82104000  0.92389000  1.0
  C  C61  1  0.37550000  0.17896000  0.07611000  1.0
  C  C62  1  0.57739000  0.80931000  0.05049000  1.0
  C  C63  1  0.42262000  0.19069000  0.94951000  1.0
  C  C64  1  0.45765000  0.74465000  0.11095000  1.0
  C  C65  1  0.54234000  0.25535000  0.88905000  1.0
  C  C66  1  0.74483000  0.89631000  0.85315000  1.0
  C  C67  1  0.25517000  0.10369000  0.14685000  1.0
  C  C68  1  0.96092000  0.99433000  0.84678000  1.0
  C  C69  1  0.03907000  0.00568000  0.15321000  1.0
  C  C70  1  0.10866000  0.88806000  0.78474000  1.0
  C  C71  1  0.89134000  0.11195000  0.21525000  1.0
  C  C72  1  0.24049000  0.95719000  0.72165000  1.0
  C  C73  1  0.75952000  0.04281000  0.27835000  1.0
  N  N74  1  0.23829000  0.56452000  0.21882000  1.0
  N  N75  1  0.76171000  0.43548000  0.78118000  1.0
  N  N76  1  0.84232000  0.91961000  0.91115000  1.0
  N  N77  1  0.15769000  0.08040000  0.08885000  1.0
  O  O78  1  0.70421000  0.58316000  0.43954000  1.0
  O  O79  1  0.29579000  0.41684000  0.56046000  1.0
  O  O80  1  0.88467000  0.36430000  0.42124000  1.0
  O  O81  1  0.11533000  0.63569000  0.57876000  1.0
  O  O82  1  0.14863000  0.63450000  0.04326000  1.0
  O  O83  1  0.85136000  0.36550000  0.95674000  1.0
  O  O84  1  0.75497000  0.93937000  0.74132000  1.0
  O  O85  1  0.24503000  0.06062000  0.25868000  1.0
  O  O86  1  0.25223000  0.06476000  0.76087000  1.0
  O  O87  1  0.74779000  0.93524000  0.23913000  1.0
  O  O88  1  0.33667000  0.89881000  0.62953000  1.0
  O  O89  1  0.66334000  0.10119000  0.37048000  1.0
  O  O90  1  0.63788000  0.32127000  0.58845000  1.0
  O  O91  1  0.36213000  0.67872000  0.41156000  1.0
  O  O92  1  0.57504000  0.39336000  0.33685000  1.0
  O  O93  1  0.42495000  0.60663000  0.66316000  1.0
  O  O94  1  0.31898000  0.19023000  0.46190000  1.0
  O  O95  1  0.68102000  0.80977000  0.53811000  1.0
  O  O96  1  0.47468000  0.90863000  0.35897000  1.0
  O  O97  1  0.52533000  0.09137000  0.64103000  1.0
