# generated using pymatgen
data_TbH14C11NO8
_symmetry_space_group_name_H-M   'P 1'
_cell_length_a   8.37048000
_cell_length_b   11.88890000
_cell_length_c   13.27820000
_cell_angle_alpha   90.00000000
_cell_angle_beta   90.00000000
_cell_angle_gamma   96.36990000
_symmetry_Int_Tables_number   1
_chemical_formula_structural   TbH14C11NO8
_chemical_formula_sum   'Tb4 H56 C44 N4 O32'
_cell_volume   1313.23287643
_cell_formula_units_Z   4
loop_
 _symmetry_equiv_pos_site_id
 _symmetry_equiv_pos_as_xyz
  1  'x, y, z'
loop_
 _atom_site_type_symbol
 _atom_site_label
 _atom_site_symmetry_multiplicity
 _atom_site_fract_x
 _atom_site_fract_y
 _atom_site_fract_z
 _atom_site_occupancy
  Tb  Tb0  1  0.00555000  0.33509000  0.59522000  1.0
  Tb  Tb1  1  0.49445000  0.66491000  0.09522000  1.0
  Tb  Tb2  1  0.99445000  0.66491000  0.40478000  1.0
  Tb  Tb3  1  0.50555000  0.33509000  0.90478000  1.0
  H  H4  1  0.80213000  0.52193000  0.61416000  1.0
  H  H5  1  0.69788000  0.47807000  0.11416000  1.0
  H  H6  1  0.19788000  0.47807000  0.38584000  1.0
  H  H7  1  0.30213000  0.52193000  0.88584000  1.0
  H  H8  1  0.77916000  0.46850000  0.72554000  1.0
  H  H9  1  0.72085000  0.53150000  0.22554000  1.0
  H  H10  1  0.22085000  0.53150000  0.27446000  1.0
  H  H11  1  0.27916000  0.46850000  0.77446000  1.0
  H  H12  1  0.93635000  0.26331000  0.80793000  1.0
  H  H13  1  0.56365000  0.73669000  0.30793000  1.0
  H  H14  1  0.06365000  0.73669000  0.19207000  1.0
  H  H15  1  0.43635000  0.26331000  0.69207000  1.0
  H  H16  1  0.12569000  0.25356000  0.79851000  1.0
  H  H17  1  0.37431000  0.74644000  0.29851000  1.0
  H  H18  1  0.87431000  0.74644000  0.20149000  1.0
  H  H19  1  0.62569000  0.25356000  0.70149000  1.0
  H  H20  1  0.15632000  0.19881000  0.38015000  1.0
  H  H21  1  0.34368000  0.80119000  0.88015000  1.0
  H  H22  1  0.84368000  0.80119000  0.61985000  1.0
  H  H23  1  0.65632000  0.19881000  0.11985000  1.0
  H  H24  1  0.06190000  0.05084000  0.25246000  1.0
  H  H25  1  0.43809000  0.94915000  0.75247000  1.0
  H  H26  1  0.93809000  0.94915000  0.74753000  1.0
  H  H27  1  0.56190000  0.05084000  0.24754000  1.0
  H  H28  1  0.80756000  0.92637000  0.28457000  1.0
  H  H29  1  0.69244000  0.07362000  0.78456000  1.0
  H  H30  1  0.19244000  0.07362000  0.71544000  1.0
  H  H31  1  0.30756000  0.92637000  0.21543000  1.0
  H  H32  1  0.65110000  0.95860000  0.44344000  1.0
  H  H33  1  0.84890000  0.04140000  0.94344000  1.0
  H  H34  1  0.34890000  0.04140000  0.55656000  1.0
  H  H35  1  0.15110000  0.95860000  0.05656000  1.0
  H  H36  1  0.52047000  0.22688000  0.50105000  1.0
  H  H37  1  0.97953000  0.77312000  0.00105000  1.0
  H  H38  1  0.47953000  0.77312000  0.49895000  1.0
  H  H39  1  0.02047000  0.22688000  0.99895000  1.0
  H  H40  1  0.56941000  0.37139000  0.52540000  1.0
  H  H41  1  0.93059000  0.62861000  0.02540000  1.0
  H  H42  1  0.43059000  0.62861000  0.47460000  1.0
  H  H43  1  0.06941000  0.37139000  0.97460000  1.0
  H  H44  1  0.47751000  0.41603000  0.34729000  1.0
  H  H45  1  0.02249000  0.58397000  0.84729000  1.0
  H  H46  1  0.52248000  0.58397000  0.65271000  1.0
  H  H47  1  0.97752000  0.41603000  0.15271000  1.0
  H  H48  1  0.42934000  0.26942000  0.32614000  1.0
  H  H49  1  0.07066000  0.73058000  0.82614000  1.0
  H  H50  1  0.57066000  0.73058000  0.67386000  1.0
  H  H51  1  0.92934000  0.26942000  0.17386000  1.0
  H  H52  1  0.71939000  0.23913000  0.35596000  1.0
  H  H53  1  0.78061000  0.76087000  0.85596000  1.0
  H  H54  1  0.28061000  0.76087000  0.64404000  1.0
  H  H55  1  0.21939000  0.23913000  0.14404000  1.0
  H  H56  1  0.68786000  0.32745000  0.25082000  1.0
  H  H57  1  0.81214000  0.67255000  0.75082000  1.0
  H  H58  1  0.31214000  0.67255000  0.74918000  1.0
  H  H59  1  0.18786000  0.32745000  0.24918000  1.0
  C  C60  1  0.04497000  0.14367000  0.39148000  1.0
  C  C61  1  0.45503000  0.85633000  0.89149000  1.0
  C  C62  1  0.95503000  0.85633000  0.60851000  1.0
  C  C63  1  0.54497000  0.14367000  0.10852000  1.0
  C  C64  1  0.99283000  0.06110000  0.32068000  1.0
  C  C65  1  0.50717000  0.93890000  0.82068000  1.0
  C  C66  1  0.00717000  0.93890000  0.67932000  1.0
  C  C67  1  0.49283000  0.06110000  0.17932000  1.0
  C  C68  1  0.85012000  0.99178000  0.33851000  1.0
  C  C69  1  0.64988000  0.00822000  0.83851000  1.0
  C  C70  1  0.14988000  0.00822000  0.66149000  1.0
  C  C71  1  0.35012000  0.99178000  0.16149000  1.0
  C  C72  1  0.76481000  0.00824000  0.42626000  1.0
  C  C73  1  0.73518000  0.99176000  0.92626000  1.0
  C  C74  1  0.23518000  0.99176000  0.57374000  1.0
  C  C75  1  0.26482000  0.00824000  0.07374000  1.0
  C  C76  1  0.82408000  0.09397000  0.49240000  1.0
  C  C77  1  0.67592000  0.90604000  0.99240000  1.0
  C  C78  1  0.17591000  0.90604000  0.50760000  1.0
  C  C79  1  0.32408000  0.09397000  0.00760000  1.0
  C  C80  1  0.72865000  0.11759000  0.58471000  1.0
  C  C81  1  0.77135000  0.88242000  0.08471000  1.0
  C  C82  1  0.27135000  0.88242000  0.41529000  1.0
  C  C83  1  0.22865000  0.11759000  0.91529000  1.0
  C  C84  1  0.32039000  0.31787000  0.52005000  1.0
  C  C85  1  0.17961000  0.68213000  0.02005000  1.0
  C  C86  1  0.67961000  0.68213000  0.47995000  1.0
  C  C87  1  0.82039000  0.31787000  0.97995000  1.0
  C  C88  1  0.48802000  0.31106000  0.48095000  1.0
  C  C89  1  0.01198000  0.68894000  0.98095000  1.0
  C  C90  1  0.51198000  0.68894000  0.51905000  1.0
  C  C91  1  0.98802000  0.31106000  0.01905000  1.0
  C  C92  1  0.51014000  0.33201000  0.36814000  1.0
  C  C93  1  0.98986000  0.66799000  0.86814000  1.0
  C  C94  1  0.48986000  0.66799000  0.63186000  1.0
  C  C95  1  0.01014000  0.33201000  0.13186000  1.0
  C  C96  1  0.68325000  0.32142000  0.33327000  1.0
  C  C97  1  0.81675000  0.67857000  0.83327000  1.0
  C  C98  1  0.31675000  0.67858000  0.66666667  1.0
  C  C99  1  0.18325000  0.32142000  0.16673000  1.0
  C  C100  1  0.79975000  0.41537000  0.37700000  1.0
  C  C101  1  0.70025000  0.58463000  0.87700000  1.0
  C  C102  1  0.20025000  0.58463000  0.62300000  1.0
  C  C103  1  0.29975000  0.41537000  0.12300000  1.0
  N  N104  1  0.96240000  0.16153000  0.47586000  1.0
  N  N105  1  0.53760000  0.83847000  0.97587000  1.0
  N  N106  1  0.03760000  0.83847000  0.52413000  1.0
  N  N107  1  0.46240000  0.16153000  0.02414000  1.0
  O  O108  1  0.61020000  0.05097000  0.60915000  1.0
  O  O109  1  0.88980000  0.94904000  0.10915000  1.0
  O  O110  1  0.38980000  0.94904000  0.39085000  1.0
  O  O111  1  0.11020000  0.05097000  0.89085000  1.0
  O  O112  1  0.77729000  0.21157000  0.63163000  1.0
  O  O113  1  0.72271000  0.78843000  0.13163000  1.0
  O  O114  1  0.22271000  0.78843000  0.36837000  1.0
  O  O115  1  0.27729000  0.21157000  0.86837000  1.0
  O  O116  1  0.21935000  0.36982000  0.47057000  1.0
  O  O117  1  0.28065000  0.63018000  0.97057000  1.0
  O  O118  1  0.78065000  0.63018000  0.52943000  1.0
  O  O119  1  0.71935000  0.36982000  0.02943000  1.0
  O  O120  1  0.27721000  0.27032000  0.60368000  1.0
  O  O121  1  0.22279000  0.72968000  0.10368000  1.0
  O  O122  1  0.72279000  0.72968000  0.39632000  1.0
  O  O123  1  0.77721000  0.27032000  0.89632000  1.0
  O  O124  1  0.87828000  0.39857000  0.45612000  1.0
  O  O125  1  0.62172000  0.60143000  0.95612000  1.0
  O  O126  1  0.12172000  0.60143000  0.54388000  1.0
  O  O127  1  0.37828000  0.39857000  0.04388000  1.0
  O  O128  1  0.81132000  0.51211000  0.33368000  1.0
  O  O129  1  0.68868000  0.48788000  0.83368000  1.0
  O  O130  1  0.18868000  0.48789000  0.66632000  1.0
  O  O131  1  0.31132000  0.51211000  0.16632000  1.0
  O  O132  1  0.82962000  0.45942000  0.65793000  1.0
  O  O133  1  0.67038000  0.54058000  0.15793000  1.0
  O  O134  1  0.17038000  0.54058000  0.34207000  1.0
  O  O135  1  0.32962000  0.45942000  0.84207000  1.0
  O  O136  1  0.03010000  0.27763000  0.76210000  1.0
  O  O137  1  0.46990000  0.72237000  0.26210000  1.0
  O  O138  1  0.96990000  0.72237000  0.23790000  1.0
  O  O139  1  0.53010000  0.27763000  0.73790000  1.0
