# generated using pymatgen
data_Zn2H31C29(NO2)5
_symmetry_space_group_name_H-M   'P 1'
_cell_length_a   9.79087000
_cell_length_b   11.07730000
_cell_length_c   16.05660000
_cell_angle_alpha   89.65600000
_cell_angle_beta   88.20160000
_cell_angle_gamma   88.46500000
_symmetry_Int_Tables_number   1
_chemical_formula_structural   Zn2H31C29(NO2)5
_chemical_formula_sum   'Zn2 H31 C29 N5 O10'
_cell_volume   1739.93548686
_cell_formula_units_Z   1
loop_
 _symmetry_equiv_pos_site_id
 _symmetry_equiv_pos_as_xyz
  1  'x, y, z'
loop_
 _atom_site_type_symbol
 _atom_site_label
 _atom_site_symmetry_multiplicity
 _atom_site_fract_x
 _atom_site_fract_y
 _atom_site_fract_z
 _atom_site_occupancy
  Zn  Zn0  1  0.35444000  0.52926000  0.49850000  1.0
  Zn  Zn1  1  0.63656000  0.52341000  0.49994000  1.0
  H  H2  1  0.39330000  0.11973000  0.45882000  1.0
  H  H3  1  0.76953000  0.26522000  0.96912000  1.0
  H  H4  1  0.62434000  0.17457000  0.98968000  1.0
  H  H5  1  0.73065000  0.09718000  0.12168000  1.0
  H  H6  1  0.83885000  0.06542000  0.03255000  1.0
  H  H7  1  0.87634000  0.18651000  0.09998000  1.0
  H  H8  1  0.80566000  0.48588000  0.36741000  1.0
  H  H9  1  0.97591000  0.35880000  0.31900000  1.0
  H  H10  1  0.01115000  0.32082000  0.42564000  1.0
  H  H11  1  0.09967000  0.43898000  0.37488000  1.0
  H  H12  1  0.65302000  0.70400000  0.09411000  1.0
  H  H13  1  0.11940000  0.44080000  0.60677000  1.0
  H  H14  1  0.70322000  0.86744000  0.00328000  1.0
  H  H15  1  0.60033000  0.80480000  0.92631000  1.0
  H  H16  1  0.76102000  0.73448000  0.94840000  1.0
  H  H17  1  0.36968000  0.69300000  0.86739000  1.0
  H  H18  1  0.19035000  0.81112000  0.93620000  1.0
  H  H19  1  0.34058000  0.82448000  0.99630000  1.0
  H  H20  1  0.21219000  0.72167000  0.02748000  1.0
  H  H21  1  0.14850000  0.35227000  0.99932000  1.0
  H  H22  1  0.12968000  0.50399000  0.96241000  1.0
  H  H23  1  0.97672000  0.55563000  0.08618000  1.0
  H  H24  1  0.10000000  0.57977000  0.45217000  1.0
  H  H25  1  0.91100000  0.42977000  0.03351000  1.0
  H  H26  1  0.00106000  0.40716000  0.12694000  1.0
  H  H27  1  0.86592000  0.48023000  0.60904000  1.0
  H  H28  1  0.39874000  0.29338000  0.96519000  1.0
  H  H29  1  0.72862000  0.49684000  0.93551000  1.0
  H  H30  1  0.70244000  0.91309000  0.48717000  1.0
  H  H31  1  0.39546000  0.93123000  0.53455000  1.0
  H  H32  1  0.69387000  0.13739000  0.50717000  1.0
  C  C33  1  0.49025000  0.29302000  0.47826000  1.0
  C  C34  1  0.49553000  0.89098000  0.51808000  1.0
  C  C35  1  0.59974000  0.09047000  0.49485000  1.0
  C  C36  1  0.50792000  0.54699000  0.33384000  1.0
  C  C37  1  0.48935000  0.15942000  0.47568000  1.0
  C  C38  1  0.07046000  0.48085000  0.55227000  1.0
  C  C39  1  0.92366000  0.47894000  0.54968000  1.0
  C  C40  1  0.50284000  0.75745000  0.51626000  1.0
  C  C41  1  0.49623000  0.48752000  0.66035000  1.0
  C  C42  1  0.44045000  0.38080000  0.98045000  1.0
  C  C43  1  0.57272000  0.40164000  0.03147000  1.0
  C  C44  1  0.49679000  0.50613000  0.08250000  1.0
  C  C45  1  0.50672000  0.53918000  0.24427000  1.0
  C  C46  1  0.49126000  0.47359000  0.74995000  1.0
  C  C47  1  0.36502000  0.48590000  0.03085000  1.0
  C  C48  1  0.70722000  0.22281000  0.01930000  1.0
  C  C49  1  0.79330000  0.13799000  0.07163000  1.0
  C  C50  1  0.99995000  0.39497000  0.38002000  1.0
  C  C51  1  0.67033000  0.78226000  0.97669000  1.0
  C  C52  1  0.26579000  0.76097000  0.97308000  1.0
  C  C53  1  0.12974000  0.44690000  0.01886000  1.0
  C  C54  1  0.99703000  0.46076000  0.06923000  1.0
  C  C55  1  0.41497000  0.58124000  0.96334000  1.0
  C  C56  1  0.49345000  0.47555000  0.91373000  1.0
  C  C57  1  0.54992000  0.60057000  0.01532000  1.0
  C  C58  1  0.62613000  0.49473000  0.96446000  1.0
  C  C59  1  0.50156000  0.52358000  0.16935000  1.0
  C  C60  1  0.49067000  0.46884000  0.82584000  1.0
  C  C61  1  0.60388000  0.95969000  0.49891000  1.0
  N  N62  1  0.14962000  0.53583000  0.49912000  1.0
  N  N63  1  0.84647000  0.49264000  0.48454000  1.0
  N  N64  1  0.88717000  0.47429000  0.40603000  1.0
  N  N65  1  0.59871000  0.71292000  0.04111000  1.0
  N  N66  1  0.32698000  0.66315000  0.92226000  1.0
  O  O67  1  0.37564000  0.34837000  0.46884000  1.0
  O  O68  1  0.23899000  0.48212000  0.07136000  1.0
  O  O69  1  0.60368000  0.34294000  0.49090000  1.0
  O  O70  1  0.39414000  0.56738000  0.37207000  1.0
  O  O71  1  0.62361000  0.53100000  0.36797000  1.0
  O  O72  1  0.38923000  0.70472000  0.52738000  1.0
  O  O73  1  0.61911000  0.70489000  0.50274000  1.0
  O  O74  1  0.38457000  0.47826000  0.62268000  1.0
  O  O75  1  0.61336000  0.50993000  0.62735000  1.0
  O  O76  1  0.64853000  0.31524000  0.07310000  1.0
