# generated using pymatgen
data_H12PbC16(N5O2)2
_symmetry_space_group_name_H-M   'P 1'
_cell_length_a   4.95800000
_cell_length_b   13.01260000
_cell_length_c   15.41030000
_cell_angle_alpha   70.13600000
_cell_angle_beta   89.97620000
_cell_angle_gamma   89.93670000
_symmetry_Int_Tables_number   1
_chemical_formula_structural   H12PbC16(N5O2)2
_chemical_formula_sum   'H24 Pb2 C32 N20 O8'
_cell_volume   935.06341507
_cell_formula_units_Z   2
loop_
 _symmetry_equiv_pos_site_id
 _symmetry_equiv_pos_as_xyz
  1  'x, y, z'
loop_
 _atom_site_type_symbol
 _atom_site_label
 _atom_site_symmetry_multiplicity
 _atom_site_fract_x
 _atom_site_fract_y
 _atom_site_fract_z
 _atom_site_occupancy
  H  H0  1  0.42331000  0.09641000  0.48459000  1.0
  H  H1  1  0.92328000  0.40351000  0.01542000  1.0
  H  H2  1  0.57666000  0.90365000  0.51542000  1.0
  H  H3  1  0.07687000  0.59645000  0.98460000  1.0
  H  H4  1  0.75408000  0.22117000  0.29736000  1.0
  H  H5  1  0.25416000  0.27892000  0.20263000  1.0
  H  H6  1  0.24606000  0.77890000  0.70257000  1.0
  H  H7  1  0.74596000  0.72105000  0.79735000  1.0
  H  H8  1  0.41000000  0.26837000  0.52026000  1.0
  H  H9  1  0.91033000  0.23152000  0.97971000  1.0
  H  H10  1  0.58998000  0.73169000  0.47972000  1.0
  H  H11  1  0.08984000  0.76844000  0.02031000  1.0
  H  H12  1  0.65468000  0.89297000  0.23829000  1.0
  H  H13  1  0.15467000  0.60712000  0.26176000  1.0
  H  H14  1  0.34526000  0.10701000  0.76175000  1.0
  H  H15  1  0.84530000  0.39290000  0.73821000  1.0
  H  H16  1  0.88347000  0.78135000  0.28664000  1.0
  H  H17  1  0.38330000  0.71867000  0.21342000  1.0
  H  H18  1  0.11646000  0.21861000  0.71341000  1.0
  H  H19  1  0.61671000  0.28134000  0.78660000  1.0
  H  H20  1  0.77343000  0.39008000  0.34029000  1.0
  H  H21  1  0.27377000  0.11000000  0.15967000  1.0
  H  H22  1  0.22640000  0.60990000  0.65972000  1.0
  H  H23  1  0.72617000  0.89005000  0.84026000  1.0
  Pb  Pb24  1  0.49922000  0.99978000  0.00002000  1.0
  Pb  Pb25  1  0.99961000  0.50008000  0.50000000  1.0
  C  C26  1  0.08269000  0.04392000  0.36544000  1.0
  C  C27  1  0.58263000  0.45607000  0.13452000  1.0
  C  C28  1  0.91739000  0.95610000  0.63454000  1.0
  C  C29  1  0.41751000  0.54395000  0.86547000  1.0
  C  C30  1  0.27475000  0.15871000  0.45040000  1.0
  C  C31  1  0.77487000  0.34122000  0.04957000  1.0
  C  C32  1  0.72521000  0.84134000  0.54959000  1.0
  C  C33  1  0.22525000  0.65874000  0.95044000  1.0
  C  C34  1  0.90321000  0.22897000  0.34658000  1.0
  C  C35  1  0.40334000  0.27108000  0.15339000  1.0
  C  C36  1  0.09684000  0.77107000  0.65339000  1.0
  C  C37  1  0.59678000  0.72891000  0.84659000  1.0
  C  C38  1  0.26802000  0.25485000  0.47097000  1.0
  C  C39  1  0.76826000  0.24508000  0.02900000  1.0
  C  C40  1  0.73189000  0.74520000  0.52902000  1.0
  C  C41  1  0.23184000  0.75488000  0.97100000  1.0
  C  C42  1  0.86767000  0.86995000  0.25067000  1.0
  C  C43  1  0.36759000  0.63009000  0.24939000  1.0
  C  C44  1  0.13226000  0.13001000  0.74937000  1.0
  C  C45  1  0.63238000  0.36993000  0.75060000  1.0
  C  C46  1  0.02560000  0.89809000  0.15922000  1.0
  C  C47  1  0.52558000  0.60189000  0.34082000  1.0
  C  C48  1  0.97439000  0.10180000  0.84085000  1.0
  C  C49  1  0.47441000  0.39816000  0.65916000  1.0
  C  C50  1  0.08721000  0.14447000  0.38742000  1.0
  C  C51  1  0.58719000  0.35552000  0.11255000  1.0
  C  C52  1  0.91282000  0.85557000  0.61256000  1.0
  C  C53  1  0.41293000  0.64448000  0.88745000  1.0
  C  C54  1  0.91275000  0.32251000  0.37077000  1.0
  C  C55  1  0.41304000  0.17752000  0.12921000  1.0
  C  C56  1  0.08715000  0.67751000  0.62924000  1.0
  C  C57  1  0.58703000  0.82248000  0.87074000  1.0
  N  N58  1  0.91234000  0.02469000  0.30487000  1.0
  N  N59  1  0.41226000  0.47539000  0.19511000  1.0
  N  N60  1  0.08770000  0.97530000  0.69513000  1.0
  N  N61  1  0.58787000  0.52462000  0.80489000  1.0
  N  N62  1  0.09007000  0.33565000  0.43219000  1.0
  N  N63  1  0.59046000  0.16434000  0.06776000  1.0
  N  N64  1  0.90975000  0.66438000  0.56783000  1.0
  N  N65  1  0.40954000  0.83563000  0.93219000  1.0
  N  N66  1  0.98104000  0.92387000  0.31051000  1.0
  N  N67  1  0.48099000  0.57613000  0.18953000  1.0
  N  N68  1  0.01897000  0.07612000  0.68952000  1.0
  N  N69  1  0.51905000  0.42389000  0.81046000  1.0
  N  N70  1  0.24893000  0.95700000  0.40476000  1.0
  N  N71  1  0.74891000  0.54286000  0.09525000  1.0
  N  N72  1  0.75114000  0.04301000  0.59524000  1.0
  N  N73  1  0.25115000  0.45718000  0.90473000  1.0
  N  N74  1  0.18388000  0.88165000  0.36931000  1.0
  N  N75  1  0.68384000  0.61821000  0.13076000  1.0
  N  N76  1  0.81614000  0.11834000  0.63072000  1.0
  N  N77  1  0.31614000  0.38183000  0.86922000  1.0
  O  O78  1  0.90297000  0.88990000  0.08991000  1.0
  O  O79  1  0.40278000  0.61003000  0.41017000  1.0
  O  O80  1  0.09724000  0.11002000  0.91012000  1.0
  O  O81  1  0.59734000  0.39003000  0.58982000  1.0
  O  O82  1  0.27183000  0.92349000  0.16156000  1.0
  O  O83  1  0.77196000  0.57651000  0.33845000  1.0
  O  O84  1  0.72822000  0.07633000  0.83859000  1.0
  O  O85  1  0.22805000  0.42355000  0.66150000  1.0
