# generated using pymatgen
data_Zn4H18C32O13
_symmetry_space_group_name_H-M   'P 1'
_cell_length_a   13.06150000
_cell_length_b   13.25530000
_cell_length_c   18.12830000
_cell_angle_alpha   68.70930000
_cell_angle_beta   71.95820000
_cell_angle_gamma   88.55450000
_symmetry_Int_Tables_number   1
_chemical_formula_structural   Zn4H18C32O13
_chemical_formula_sum   'Zn4 H18 C32 O13'
_cell_volume   2767.11383379
_cell_formula_units_Z   1
loop_
 _symmetry_equiv_pos_site_id
 _symmetry_equiv_pos_as_xyz
  1  'x, y, z'
loop_
 _atom_site_type_symbol
 _atom_site_label
 _atom_site_symmetry_multiplicity
 _atom_site_fract_x
 _atom_site_fract_y
 _atom_site_fract_z
 _atom_site_occupancy
  Zn  Zn0  1  0.42640000  0.43904000  0.44582000  1.0
  Zn  Zn1  1  0.56361000  0.39003000  0.57134000  1.0
  Zn  Zn2  1  0.40362000  0.56632000  0.57414000  1.0
  Zn  Zn3  1  0.60562000  0.61932000  0.40508000  1.0
  H  H4  1  0.67434000  0.75600000  0.87900000  1.0
  H  H5  1  0.50786000  0.55726000  0.79360000  1.0
  H  H6  1  0.33927000  0.24430000  0.11527000  1.0
  H  H7  1  0.71205000  0.79176000  0.99158000  1.0
  H  H8  1  0.68355000  0.74256000  0.14378000  1.0
  H  H9  1  0.46873000  0.46499000  0.20435000  1.0
  H  H10  1  0.58768000  0.64248000  0.83069000  1.0
  H  H11  1  0.40911000  0.36731000  0.16526000  1.0
  H  H12  1  0.43884000  0.88901000  0.56910000  1.0
  H  H13  1  0.36474000  0.24041000  0.84758000  1.0
  H  H14  1  0.32631000  0.19507000  0.00037000  1.0
  H  H15  1  0.88523000  0.45070000  0.58227000  1.0
  H  H16  1  0.10849000  0.50402000  0.43978000  1.0
  H  H17  1  0.94846000  0.55000000  0.38960000  1.0
  H  H18  1  0.05153000  0.46809000  0.62663000  1.0
  H  H19  1  0.46821000  0.11942000  0.42857000  1.0
  H  H20  1  0.47123000  0.04594000  0.61017000  1.0
  H  H21  1  0.52154000  0.96227000  0.37667000  1.0
  C  C22  1  0.77907000  0.51137000  0.46940000  1.0
  C  C23  1  0.42491000  0.39062000  0.09833000  1.0
  C  C24  1  0.38537000  0.32151000  0.07071000  1.0
  C  C25  1  0.21887000  0.48968000  0.54313000  1.0
  C  C26  1  0.40386000  0.34766000  0.98390000  1.0
  C  C27  1  0.46064000  0.45039000  0.92526000  1.0
  C  C28  1  0.36852000  0.27354000  0.95476000  1.0
  C  C29  1  0.38842000  0.29858000  0.87051000  1.0
  C  C30  1  0.47132000  0.47751000  0.84013000  1.0
  C  C31  1  0.10012000  0.47876000  0.56286000  1.0
  C  C32  1  0.05464000  0.48834000  0.50334000  1.0
  C  C33  1  0.64334000  0.69336000  0.12213000  1.0
  C  C34  1  0.89697000  0.51385000  0.45483000  1.0
  C  C35  1  0.93986000  0.48155000  0.51771000  1.0
  C  C36  1  0.49158000  0.90816000  0.44236000  1.0
  C  C37  1  0.47954000  0.21808000  0.53201000  1.0
  C  C38  1  0.46221000  0.94721000  0.50440000  1.0
  C  C39  1  0.46807000  0.10026000  0.54915000  1.0
  C  C40  1  0.46479000  0.06148000  0.49048000  1.0
  C  C41  1  0.49553000  0.79023000  0.46023000  1.0
  C  C42  1  0.45534000  0.43247000  0.72201000  1.0
  C  C43  1  0.55297000  0.57256000  0.27281000  1.0
  C  C44  1  0.52185000  0.53540000  0.15591000  1.0
  C  C45  1  0.57304000  0.60060000  0.18176000  1.0
  C  C46  1  0.43763000  0.40297000  0.81292000  1.0
  C  C47  1  0.65877000  0.71987000  0.03832000  1.0
  C  C48  1  0.53772000  0.55928000  0.07047000  1.0
  C  C49  1  0.60661000  0.65498000  0.01069000  1.0
  C  C50  1  0.48850000  0.49052000  0.04156000  1.0
  C  C51  1  0.50620000  0.52098000  0.95464000  1.0
  C  C52  1  0.57296000  0.61888000  0.89752000  1.0
  C  C53  1  0.62188000  0.68274000  0.92417000  1.0
  O  O54  1  0.50129000  0.50422000  0.49852000  1.0
  O  O55  1  0.49194000  0.36080000  0.69151000  1.0
  O  O56  1  0.60730000  0.63060000  0.29328000  1.0
  O  O57  1  0.43298000  0.52668000  0.68147000  1.0
  O  O58  1  0.48247000  0.49249000  0.32365000  1.0
  O  O59  1  0.43647000  0.28122000  0.48021000  1.0
  O  O60  1  0.56687000  0.76411000  0.40532000  1.0
  O  O61  1  0.71724000  0.44112000  0.53788000  1.0
  O  O62  1  0.25386000  0.51320000  0.59428000  1.0
  O  O63  1  0.75040000  0.58146000  0.41101000  1.0
  O  O64  1  0.27637000  0.47572000  0.47692000  1.0
  O  O65  1  0.53330000  0.24580000  0.57098000  1.0
  O  O66  1  0.42888000  0.72534000  0.52868000  1.0
