# generated using pymatgen
data_RbH7C7SO7
_symmetry_space_group_name_H-M   'P 1'
_cell_length_a   7.24788000
_cell_length_b   11.93520000
_cell_length_c   12.04330000
_cell_angle_alpha   104.31400000
_cell_angle_beta   90.00000000
_cell_angle_gamma   89.99950000
_symmetry_Int_Tables_number   1
_chemical_formula_structural   RbH7C7SO7
_chemical_formula_sum   'Rb4 H28 C28 S4 O28'
_cell_volume   1009.46197582
_cell_formula_units_Z   4
loop_
 _symmetry_equiv_pos_site_id
 _symmetry_equiv_pos_as_xyz
  1  'x, y, z'
loop_
 _atom_site_type_symbol
 _atom_site_label
 _atom_site_symmetry_multiplicity
 _atom_site_fract_x
 _atom_site_fract_y
 _atom_site_fract_z
 _atom_site_occupancy
  Rb  Rb0  1  0.41729000  0.90887000  0.74901000  1.0
  Rb  Rb1  1  0.91729000  0.09113000  0.75099000  1.0
  Rb  Rb2  1  0.58271000  0.09113000  0.25099000  1.0
  Rb  Rb3  1  0.08271000  0.90887000  0.24901000  1.0
  H  H4  1  0.63087000  0.33244000  0.83998000  1.0
  H  H5  1  0.13086000  0.66756000  0.66002000  1.0
  H  H6  1  0.36913000  0.66756000  0.16001000  1.0
  H  H7  1  0.86914000  0.33244000  0.33998000  1.0
  H  H8  1  0.16218000  0.39718000  0.83637000  1.0
  H  H9  1  0.66217000  0.60282000  0.66363000  1.0
  H  H10  1  0.83782000  0.60282000  0.16363000  1.0
  H  H11  1  0.33783000  0.39718000  0.33637000  1.0
  H  H12  1  0.34966000  0.68113000  0.91555000  1.0
  H  H13  1  0.84967000  0.31886000  0.58444000  1.0
  H  H14  1  0.65034000  0.31886000  0.08444000  1.0
  H  H15  1  0.15034000  0.68114000  0.41555000  1.0
  H  H16  1  0.14126000  0.85247000  0.96256000  1.0
  H  H17  1  0.64127000  0.14753000  0.53744000  1.0
  H  H18  1  0.85873000  0.14753000  0.03744000  1.0
  H  H19  1  0.35874000  0.85247000  0.46256000  1.0
  H  H20  1  0.66788000  0.62624000  0.91312000  1.0
  H  H21  1  0.16789000  0.37377000  0.58688000  1.0
  H  H22  1  0.33211000  0.37376000  0.08687000  1.0
  H  H23  1  0.83212000  0.62623000  0.41313000  1.0
  H  H24  1  0.99853000  0.81119000  0.60703000  1.0
  H  H25  1  0.49853000  0.18881000  0.89297000  1.0
  H  H26  1  0.00147000  0.18881000  0.39297000  1.0
  H  H27  1  0.50146000  0.81119000  0.10703000  1.0
  H  H28  1  0.94641000  0.82111000  0.73805000  1.0
  H  H29  1  0.44640000  0.17890000  0.76195000  1.0
  H  H30  1  0.05359000  0.17890000  0.26195000  1.0
  H  H31  1  0.55359000  0.82111000  0.23805000  1.0
  C  C32  1  0.85708000  0.42389000  0.85257000  1.0
  C  C33  1  0.35708000  0.57611000  0.64743000  1.0
  C  C34  1  0.14292000  0.57611000  0.14743000  1.0
  C  C35  1  0.64292000  0.42389000  0.35257000  1.0
  C  C36  1  0.93252000  0.54177000  0.88512000  1.0
  C  C37  1  0.43252000  0.45823000  0.61488000  1.0
  C  C38  1  0.06748000  0.45823000  0.11488000  1.0
  C  C39  1  0.56748000  0.54177000  0.38513000  1.0
  C  C40  1  0.12668000  0.55756000  0.88526000  1.0
  C  C41  1  0.62668000  0.44244000  0.61474000  1.0
  C  C42  1  0.87332000  0.44244000  0.11474000  1.0
  C  C43  1  0.37332000  0.55756000  0.38526000  1.0
  C  C44  1  0.20067000  0.67013000  0.91541000  1.0
  C  C45  1  0.70067000  0.32987000  0.58459000  1.0
  C  C46  1  0.79933000  0.32988000  0.08459000  1.0
  C  C47  1  0.29933000  0.67013000  0.41541000  1.0
  C  C48  1  0.08474000  0.76490000  0.94198000  1.0
  C  C49  1  0.58475000  0.23510000  0.55802000  1.0
  C  C50  1  0.91525000  0.23510000  0.05802000  1.0
  C  C51  1  0.41526000  0.76491000  0.44198000  1.0
  C  C52  1  0.89194000  0.74897000  0.94086000  1.0
  C  C53  1  0.39195000  0.25103000  0.55913000  1.0
  C  C54  1  0.10805000  0.25102000  0.05913000  1.0
  C  C55  1  0.60806000  0.74898000  0.44087000  1.0
  C  C56  1  0.81655000  0.63879000  0.91374000  1.0
  C  C57  1  0.31655000  0.36120000  0.58626000  1.0
  C  C58  1  0.18345000  0.36120000  0.08626000  1.0
  C  C59  1  0.68345000  0.63879000  0.41374000  1.0
  S  S60  1  0.75011000  0.87317000  0.96492000  1.0
  S  S61  1  0.25012000  0.12683000  0.53508000  1.0
  S  S62  1  0.24989000  0.12682000  0.03508000  1.0
  S  S63  1  0.74989000  0.87317000  0.46492000  1.0
  O  O64  1  0.55797000  0.83512000  0.97574000  1.0
  O  O65  1  0.05797000  0.16488000  0.52425000  1.0
  O  O66  1  0.44203000  0.16487000  0.02425000  1.0
  O  O67  1  0.94203000  0.83512000  0.47574000  1.0
  O  O68  1  0.81677000  0.95367000  0.07005000  1.0
  O  O69  1  0.31678000  0.04632000  0.42995000  1.0
  O  O70  1  0.18323000  0.04632000  0.92995000  1.0
  O  O71  1  0.68323000  0.95368000  0.57005000  1.0
  O  O72  1  0.77384000  0.91699000  0.86087000  1.0
  O  O73  1  0.27384000  0.08302000  0.63914000  1.0
  O  O74  1  0.22616000  0.08302000  0.13914000  1.0
  O  O75  1  0.72616000  0.91698000  0.36086000  1.0
  O  O76  1  0.95979000  0.33736000  0.81857000  1.0
  O  O77  1  0.45979000  0.66264000  0.68142000  1.0
  O  O78  1  0.04021000  0.66264000  0.18143000  1.0
  O  O79  1  0.54021000  0.33736000  0.31858000  1.0
  O  O80  1  0.67626000  0.41592000  0.86140000  1.0
  O  O81  1  0.17626000  0.58408000  0.63859000  1.0
  O  O82  1  0.32374000  0.58408000  0.13859000  1.0
  O  O83  1  0.82375000  0.41592000  0.36141000  1.0
  O  O84  1  0.24366000  0.46800000  0.85801000  1.0
  O  O85  1  0.74365000  0.53200000  0.64199000  1.0
  O  O86  1  0.75634000  0.53200000  0.14199000  1.0
  O  O87  1  0.25634000  0.46801000  0.35801000  1.0
  O  O88  1  0.04531000  0.79854000  0.68103000  1.0
  O  O89  1  0.54530000  0.20147000  0.81897000  1.0
  O  O90  1  0.95469000  0.20146000  0.31897000  1.0
  O  O91  1  0.45469000  0.79854000  0.18103000  1.0
