# generated using pymatgen
data_NaCu2H31C29(N2O5)2
_symmetry_space_group_name_H-M   'P 1'
_cell_length_a   12.62860000
_cell_length_b   13.06020000
_cell_length_c   13.50070000
_cell_angle_alpha   117.73000000
_cell_angle_beta   116.03800000
_cell_angle_gamma   92.03250000
_symmetry_Int_Tables_number   1
_chemical_formula_structural   NaCu2H31C29(N2O5)2
_chemical_formula_sum   'Na2 Cu4 H62 C58 N8 O20'
_cell_volume   1688.55431782
_cell_formula_units_Z   2
loop_
 _symmetry_equiv_pos_site_id
 _symmetry_equiv_pos_as_xyz
  1  'x, y, z'
loop_
 _atom_site_type_symbol
 _atom_site_label
 _atom_site_symmetry_multiplicity
 _atom_site_fract_x
 _atom_site_fract_y
 _atom_site_fract_z
 _atom_site_occupancy
  Na  Na0  1  0.36068000  0.68609000  0.11087000  1.0
  Na  Na1  1  0.63932000  0.31391000  0.88913000  1.0
  Cu  Cu2  1  0.15778000  0.37904000  0.26398000  1.0
  Cu  Cu3  1  0.84222000  0.62095000  0.73602000  1.0
  Cu  Cu4  1  0.24120000  0.15593000  0.34666000  1.0
  Cu  Cu5  1  0.75880000  0.84407000  0.65335000  1.0
  H  H6  1  0.25148000  0.15661000  0.89220000  1.0
  H  H7  1  0.74852000  0.84339000  0.10780000  1.0
  H  H8  1  0.54621000  0.07373000  0.98616000  1.0
  H  H9  1  0.45380000  0.92627000  0.01384000  1.0
  H  H10  1  0.41332000  0.06344000  0.85389000  1.0
  H  H11  1  0.58669000  0.93656000  0.14612000  1.0
  H  H12  1  0.52954000  0.20308000  0.97757000  1.0
  H  H13  1  0.47046000  0.79692000  0.02243000  1.0
  H  H14  1  0.55853000  0.14956000  0.19845000  1.0
  H  H15  1  0.44147000  0.85044000  0.80155000  1.0
  H  H16  1  0.07642000  0.18531000  0.89920000  1.0
  H  H17  1  0.92359000  0.81469000  0.10080000  1.0
  H  H18  1  0.04480000  0.13766000  0.98895000  1.0
  H  H19  1  0.95521000  0.86234000  0.01105000  1.0
  H  H20  1  0.57441000  0.21480000  0.39538000  1.0
  H  H21  1  0.42560000  0.78520000  0.60463000  1.0
  H  H22  1  0.49640000  0.32231000  0.43923000  1.0
  H  H23  1  0.50361000  0.67769000  0.56077000  1.0
  H  H24  1  0.10454000  0.49034000  0.08293000  1.0
  H  H25  1  0.89546000  0.50966000  0.91707000  1.0
  H  H26  1  0.15808000  0.38993000  0.98653000  1.0
  H  H27  1  0.84193000  0.61007000  0.01348000  1.0
  H  H28  1  0.90575000  0.22291000  0.98231000  1.0
  H  H29  1  0.09425000  0.77709000  0.01768000  1.0
  H  H30  1  0.92142000  0.32420000  0.93377000  1.0
  H  H31  1  0.07859000  0.67580000  0.06623000  1.0
  H  H32  1  0.52307000  0.30663000  0.59712000  1.0
  H  H33  1  0.47694000  0.69337000  0.40289000  1.0
  H  H34  1  0.56642000  0.17417000  0.57483000  1.0
  H  H35  1  0.43358000  0.82583000  0.42517000  1.0
  H  H36  1  0.40537000  0.98701000  0.38543000  1.0
  H  H37  1  0.59465000  0.01299000  0.61458000  1.0
  H  H38  1  0.49653000  0.01439000  0.32626000  1.0
  H  H39  1  0.50347000  0.98561000  0.67373000  1.0
  H  H40  1  0.04962000  0.44355000  0.43207000  1.0
  H  H41  1  0.95037000  0.55644000  0.56792000  1.0
  H  H42  1  0.13492000  0.55095000  0.67550000  1.0
  H  H43  1  0.86507000  0.44905000  0.32449000  1.0
  H  H44  1  0.36433000  0.62216000  0.82438000  1.0
  H  H45  1  0.63566000  0.37784000  0.17561000  1.0
  H  H46  1  0.49906000  0.56791000  0.72568000  1.0
  H  H47  1  0.50093000  0.43210000  0.27432000  1.0
  H  H48  1  0.39800000  0.45724000  0.48300000  1.0
  H  H49  1  0.60199000  0.54275000  0.51700000  1.0
  H  H50  1  0.01591000  0.09409000  0.11185000  1.0
  H  H51  1  0.98410000  0.90592000  0.88815000  1.0
  H  H52  1  0.79967000  0.10378000  0.04637000  1.0
  H  H53  1  0.20033000  0.89622000  0.95364000  1.0
  H  H54  1  0.73634000  0.16842000  0.21388000  1.0
  H  H55  1  0.26367000  0.83158000  0.78613000  1.0
  H  H56  1  0.89312000  0.22049000  0.43984000  1.0
  H  H57  1  0.10689000  0.77950000  0.56017000  1.0
  H  H58  1  0.10667000  0.20616000  0.48787000  1.0
  H  H59  1  0.89334000  0.79384000  0.51213000  1.0
  H  H60  1  0.61754000  0.70949000  0.12077000  1.0
  H  H61  1  0.38244000  0.29050000  0.87921000  1.0
  H  H62  1  0.60646000  0.58692000  0.97481000  1.0
  H  H63  1  0.39352000  0.41307000  0.02517000  1.0
  H  H64  1  0.28458000  0.44772000  0.84447000  1.0
  H  H65  1  0.71540000  0.55227000  0.15552000  1.0
  H  H66  1  0.40877000  0.42924000  0.81166000  1.0
  H  H67  1  0.59121000  0.57075000  0.18832000  1.0
  C  C68  1  0.29503000  0.21458000  0.18371000  1.0
  C  C69  1  0.70498000  0.78543000  0.81630000  1.0
  C  C70  1  0.23745000  0.19921000  0.05889000  1.0
  C  C71  1  0.76255000  0.80079000  0.94111000  1.0
  C  C72  1  0.29792000  0.16866000  0.98863000  1.0
  C  C73  1  0.70209000  0.83134000  0.01138000  1.0
  C  C74  1  0.41379000  0.14962000  0.03556000  1.0
  C  C75  1  0.58621000  0.85039000  0.96444000  1.0
  C  C76  1  0.47859000  0.12050000  0.95973000  1.0
  C  C77  1  0.52141000  0.87950000  0.04027000  1.0
  C  C78  1  0.46803000  0.16319000  0.15807000  1.0
  C  C79  1  0.53197000  0.83681000  0.84194000  1.0
  C  C80  1  0.41262000  0.19698000  0.23344000  1.0
  C  C81  1  0.58739000  0.80302000  0.76657000  1.0
  C  C82  1  0.10824000  0.20630000  0.99882000  1.0
  C  C83  1  0.89177000  0.79370000  0.00119000  1.0
  C  C84  1  0.48181000  0.22657000  0.37107000  1.0
  C  C85  1  0.51819000  0.77343000  0.62893000  1.0
  C  C86  1  0.15686000  0.42428000  0.07742000  1.0
  C  C87  1  0.84314000  0.57573000  0.92258000  1.0
  C  C88  1  0.28867000  0.49688000  0.19571000  1.0
  C  C89  1  0.71134000  0.50313000  0.80429000  1.0
  C  C90  1  0.95787000  0.31401000  0.01824000  1.0
  C  C91  1  0.04214000  0.68599000  0.98176000  1.0
  C  C92  1  0.93190000  0.40427000  0.12112000  1.0
  C  C93  1  0.06810000  0.59573000  0.87888000  1.0
  C  C94  1  0.48624000  0.20730000  0.54386000  1.0
  C  C95  1  0.51376000  0.79270000  0.45614000  1.0
  C  C96  1  0.39983000  0.18176000  0.58633000  1.0
  C  C97  1  0.60017000  0.81824000  0.41367000  1.0
  C  C98  1  0.41216000  0.02527000  0.33026000  1.0
  C  C99  1  0.58785000  0.97473000  0.66974000  1.0
  C  C100  1  0.29729000  0.94828000  0.19267000  1.0
  C  C101  1  0.70271000  0.05173000  0.80734000  1.0
  C  C102  1  0.14807000  0.47355000  0.50222000  1.0
  C  C103  1  0.85192000  0.52645000  0.49777000  1.0
  C  C104  1  0.19608000  0.53471000  0.63619000  1.0
  C  C105  1  0.80390000  0.46530000  0.36381000  1.0
  C  C106  1  0.32385000  0.57278000  0.71902000  1.0
  C  C107  1  0.67613000  0.42723000  0.28097000  1.0
  C  C108  1  0.39919000  0.54351000  0.66547000  1.0
  C  C109  1  0.60079000  0.45649000  0.33452000  1.0
  C  C110  1  0.34433000  0.48105000  0.53076000  1.0
  C  C111  1  0.65565000  0.51895000  0.46924000  1.0
  C  C112  1  0.98398000  0.12194000  0.18075000  1.0
  C  C113  1  0.01603000  0.87806000  0.81925000  1.0
  C  C114  1  0.86362000  0.12626000  0.14499000  1.0
  C  C115  1  0.13638000  0.87374000  0.85501000  1.0
  C  C116  1  0.82950000  0.16253000  0.23864000  1.0
  C  C117  1  0.17051000  0.83747000  0.76137000  1.0
  C  C118  1  0.91596000  0.19134000  0.36371000  1.0
  C  C119  1  0.08405000  0.80866000  0.63630000  1.0
  C  C120  1  0.03478000  0.18471000  0.39216000  1.0
  C  C121  1  0.96523000  0.81529000  0.60784000  1.0
  C  C122  1  0.57767000  0.61180000  0.04710000  1.0
  C  C123  1  0.42232000  0.38819000  0.95289000  1.0
  C  C124  1  0.38410000  0.45890000  0.88753000  1.0
  C  C125  1  0.61588000  0.54110000  0.11245000  1.0
  N  N126  1  0.09104000  0.32491000  0.07363000  1.0
  N  N127  1  0.90896000  0.67510000  0.92637000  1.0
  N  N128  1  0.42038000  0.15517000  0.40150000  1.0
  N  N129  1  0.57962000  0.84483000  0.59850000  1.0
  N  N130  1  0.22117000  0.44873000  0.45088000  1.0
  N  N131  1  0.77882000  0.55127000  0.54911000  1.0
  N  N132  1  0.06830000  0.15149000  0.30220000  1.0
  N  N133  1  0.93170000  0.84851000  0.69780000  1.0
  O  O134  1  0.23930000  0.24504000  0.25349000  1.0
  O  O135  1  0.76071000  0.75496000  0.74652000  1.0
  O  O136  1  0.31863000  0.49193000  0.29631000  1.0
  O  O137  1  0.68137000  0.50808000  0.70370000  1.0
  O  O138  1  0.01373000  0.44342000  0.24141000  1.0
  O  O139  1  0.98627000  0.55657000  0.75858000  1.0
  O  O140  1  0.35573000  0.56038000  0.18546000  1.0
  O  O141  1  0.64428000  0.43963000  0.81455000  1.0
  O  O142  1  0.83441000  0.43219000  0.08659000  1.0
  O  O143  1  0.16558000  0.56780000  0.91341000  1.0
  O  O144  1  0.28284000  0.15531000  0.50665000  1.0
  O  O145  1  0.71717000  0.84469000  0.49335000  1.0
  O  O146  1  0.20122000  0.98407000  0.17129000  1.0
  O  O147  1  0.79878000  0.01593000  0.82871000  1.0
  O  O148  1  0.44373000  0.19118000  0.69387000  1.0
  O  O149  1  0.55628000  0.80881000  0.30613000  1.0
  O  O150  1  0.30408000  0.85197000  0.11254000  1.0
  O  O151  1  0.69592000  0.14803000  0.88747000  1.0
  O  O152  1  0.44517000  0.58732000  0.98230000  1.0
  O  O153  1  0.55482000  0.41267000  0.01769000  1.0
