# generated using pymatgen
data_H14Pb(C4O)4
_symmetry_space_group_name_H-M   'P 1'
_cell_length_a   8.04721000
_cell_length_b   10.13700000
_cell_length_c   10.13790000
_cell_angle_alpha   61.35200000
_cell_angle_beta   76.72500000
_cell_angle_gamma   76.72610000
_symmetry_Int_Tables_number   1
_chemical_formula_structural   H14Pb(C4O)4
_chemical_formula_sum   'H28 Pb2 C32 O8'
_cell_volume   699.41313728
_cell_formula_units_Z   2
loop_
 _symmetry_equiv_pos_site_id
 _symmetry_equiv_pos_as_xyz
  1  'x, y, z'
loop_
 _atom_site_type_symbol
 _atom_site_label
 _atom_site_symmetry_multiplicity
 _atom_site_fract_x
 _atom_site_fract_y
 _atom_site_fract_z
 _atom_site_occupancy
  H  H0  1  0.39724000  0.39876000  0.04747000  1.0
  H  H1  1  0.10277000  0.95249000  0.60126000  1.0
  H  H2  1  0.60276000  0.60125000  0.95251000  1.0
  H  H3  1  0.89723000  0.04751000  0.39874000  1.0
  H  H4  1  0.19598000  0.61412000  0.54682000  1.0
  H  H5  1  0.30400000  0.45321000  0.38587000  1.0
  H  H6  1  0.80400000  0.38587000  0.45317000  1.0
  H  H7  1  0.69599000  0.54680000  0.61412000  1.0
  H  H8  1  0.43898000  0.39946000  0.61651000  1.0
  H  H9  1  0.06102000  0.38352000  0.60053000  1.0
  H  H10  1  0.56102000  0.60054000  0.38348000  1.0
  H  H11  1  0.93897000  0.61649000  0.39946000  1.0
  H  H12  1  0.15402000  0.54872000  0.12539000  1.0
  H  H13  1  0.34602000  0.87457000  0.45131000  1.0
  H  H14  1  0.84598000  0.45128000  0.87460000  1.0
  H  H15  1  0.65402000  0.12541000  0.54874000  1.0
  H  H16  1  0.99169000  0.65470000  0.00916000  1.0
  H  H17  1  0.50832000  0.99082000  0.34533000  1.0
  H  H18  1  0.00831000  0.34532000  0.99083000  1.0
  H  H19  1  0.49169000  0.00917000  0.65469000  1.0
  H  H20  1  0.53860000  0.29370000  0.86728000  1.0
  H  H21  1  0.96143000  0.13270000  0.70631000  1.0
  H  H22  1  0.46142000  0.70632000  0.13270000  1.0
  H  H23  1  0.03856000  0.86732000  0.29368000  1.0
  H  H24  1  0.05258000  0.71703000  0.72924000  1.0
  H  H25  1  0.44740000  0.27077000  0.28297000  1.0
  H  H26  1  0.94741000  0.28297000  0.27074000  1.0
  H  H27  1  0.55260000  0.72923000  0.71703000  1.0
  Pb  Pb28  1  0.25003000  0.07988000  0.92014000  1.0
  Pb  Pb29  1  0.74999000  0.92011000  0.07987000  1.0
  C  C30  1  0.35403000  0.44766000  0.93710000  1.0
  C  C31  1  0.14599000  0.06287000  0.55237000  1.0
  C  C32  1  0.64598000  0.55237000  0.06287000  1.0
  C  C33  1  0.85401000  0.93714000  0.44763000  1.0
  C  C34  1  0.24201000  0.56741000  0.65584000  1.0
  C  C35  1  0.25798000  0.34418000  0.43259000  1.0
  C  C36  1  0.75799000  0.43260000  0.34414000  1.0
  C  C37  1  0.74201000  0.65583000  0.56740000  1.0
  C  C38  1  0.37770000  0.44739000  0.69484000  1.0
  C  C39  1  0.12230000  0.30516000  0.55262000  1.0
  C  C40  1  0.62229000  0.55262000  0.30515000  1.0
  C  C41  1  0.87769000  0.69484000  0.44737000  1.0
  C  C42  1  0.13205000  0.63153000  0.00855000  1.0
  C  C43  1  0.36797000  0.99142000  0.36850000  1.0
  C  C44  1  0.86795000  0.36847000  0.99144000  1.0
  C  C45  1  0.63205000  0.00856000  0.63153000  1.0
  C  C46  1  0.21826000  0.56781000  0.89910000  1.0
  C  C47  1  0.28175000  0.10087000  0.43222000  1.0
  C  C48  1  0.78174000  0.43220000  0.10089000  1.0
  C  C49  1  0.71826000  0.89912000  0.56779000  1.0
  C  C50  1  0.18971000  0.77782000  0.97742000  1.0
  C  C51  1  0.31029000  0.02255000  0.22223000  1.0
  C  C52  1  0.81028000  0.22218000  0.02260000  1.0
  C  C53  1  0.68972000  0.97741000  0.77781000  1.0
  C  C54  1  0.43357000  0.38765000  0.83588000  1.0
  C  C55  1  0.06643000  0.16411000  0.61236000  1.0
  C  C56  1  0.56642000  0.61237000  0.16411000  1.0
  C  C57  1  0.93357000  0.83590000  0.38763000  1.0
  C  C58  1  0.16222000  0.62667000  0.75754000  1.0
  C  C59  1  0.33776000  0.24246000  0.37333000  1.0
  C  C60  1  0.83777000  0.37333000  0.24245000  1.0
  C  C61  1  0.66223000  0.75753000  0.62666000  1.0
  O  O62  1  0.32224000  0.82624000  0.88570000  1.0
  O  O63  1  0.17777000  0.11429000  0.17383000  1.0
  O  O64  1  0.67774000  0.17378000  0.11430000  1.0
  O  O65  1  0.82225000  0.88568000  0.82621000  1.0
  O  O66  1  0.09696000  0.84927000  0.05250000  1.0
  O  O67  1  0.40304000  0.94748000  0.15075000  1.0
  O  O68  1  0.90305000  0.15070000  0.94755000  1.0
  O  O69  1  0.59697000  0.05248000  0.84928000  1.0
