# generated using pymatgen
data_CuH12C16S(NO2)2
_symmetry_space_group_name_H-M   'P 1'
_cell_length_a   9.21613000
_cell_length_b   9.40489000
_cell_length_c   9.86971000
_cell_angle_alpha   75.00560000
_cell_angle_beta   66.89210000
_cell_angle_gamma   82.92150000
_symmetry_Int_Tables_number   1
_chemical_formula_structural   CuH12C16S(NO2)2
_chemical_formula_sum   'Cu2 H24 C32 S2 N4 O8'
_cell_volume   759.81946447
_cell_formula_units_Z   2
loop_
 _symmetry_equiv_pos_site_id
 _symmetry_equiv_pos_as_xyz
  1  'x, y, z'
loop_
 _atom_site_type_symbol
 _atom_site_label
 _atom_site_symmetry_multiplicity
 _atom_site_fract_x
 _atom_site_fract_y
 _atom_site_fract_z
 _atom_site_occupancy
  Cu  Cu0  1  0.83926000  0.20352000  0.55949000  1.0
  Cu  Cu1  1  0.16074000  0.79648000  0.44051000  1.0
  H  H2  1  0.86809000  0.97036000  0.40337000  1.0
  H  H3  1  0.13190000  0.02964000  0.59664000  1.0
  H  H4  1  0.72137000  0.89198000  0.26813000  1.0
  H  H5  1  0.27862000  0.10801000  0.73188000  1.0
  H  H6  1  0.49304000  0.04859000  0.23170000  1.0
  H  H7  1  0.50695000  0.95141000  0.76830000  1.0
  H  H8  1  0.42525000  0.28409000  0.32815000  1.0
  H  H9  1  0.57475000  0.71590000  0.67185000  1.0
  H  H10  1  0.58074000  0.34288000  0.46100000  1.0
  H  H11  1  0.41926000  0.65712000  0.53900000  1.0
  H  H12  1  0.79540000  0.11947000  0.87845000  1.0
  H  H13  1  0.20460000  0.88053000  0.12155000  1.0
  H  H14  1  0.90641000  0.18256000  0.05025000  1.0
  H  H15  1  0.09360000  0.81743000  0.94974000  1.0
  H  H16  1  0.12265000  0.36730000  0.93771000  1.0
  H  H17  1  0.87735000  0.63271000  0.06229000  1.0
  H  H18  1  0.22572000  0.47207000  0.65455000  1.0
  H  H19  1  0.77427000  0.52794000  0.34545000  1.0
  H  H20  1  0.10454000  0.39444000  0.50158000  1.0
  H  H21  1  0.89547000  0.60556000  0.49842000  1.0
  H  H22  1  0.40464000  0.57063000  0.88852000  1.0
  H  H23  1  0.59535000  0.42938000  0.11149000  1.0
  H  H24  1  0.18725000  0.49284000  0.16636000  1.0
  H  H25  1  0.81275000  0.50715000  0.83365000  1.0
  C  C26  1  0.76885000  0.03477000  0.38358000  1.0
  C  C27  1  0.23115000  0.96522000  0.61642000  1.0
  C  C28  1  0.68714000  0.99332000  0.30804000  1.0
  C  C29  1  0.31286000  0.00667000  0.69196000  1.0
  C  C30  1  0.56082000  0.08133000  0.28718000  1.0
  C  C31  1  0.43918000  0.91867000  0.71283000  1.0
  C  C32  1  0.52191000  0.20978000  0.34111000  1.0
  C  C33  1  0.47808000  0.79022000  0.65889000  1.0
  C  C34  1  0.60880000  0.24457000  0.41544000  1.0
  C  C35  1  0.39121000  0.75543000  0.58456000  1.0
  C  C36  1  0.89056000  0.19682000  0.83570000  1.0
  C  C37  1  0.10944000  0.80318000  0.16430000  1.0
  C  C38  1  0.95323000  0.23297000  0.92944000  1.0
  C  C39  1  0.04677000  0.76703000  0.07056000  1.0
  C  C40  1  0.07404000  0.33449000  0.86639000  1.0
  C  C41  1  0.92596000  0.66552000  0.13361000  1.0
  C  C42  1  0.13065000  0.39378000  0.71074000  1.0
  C  C43  1  0.86934000  0.60623000  0.28926000  1.0
  C  C44  1  0.06299000  0.35194000  0.62370000  1.0
  C  C45  1  0.93701000  0.64807000  0.37631000  1.0
  C  C46  1  0.57502000  0.33657000  0.74269000  1.0
  C  C47  1  0.42498000  0.66343000  0.25731000  1.0
  C  C48  1  0.44263000  0.33792000  0.88942000  1.0
  C  C49  1  0.55738000  0.66208000  0.11058000  1.0
  C  C50  1  0.37163000  0.45821000  0.94954000  1.0
  C  C51  1  0.62838000  0.54179000  0.05046000  1.0
  C  C52  1  0.25623000  0.41720000  0.09692000  1.0
  C  C53  1  0.74377000  0.58280000  0.90308000  1.0
  C  C54  1  0.23877000  0.26611000  0.14685000  1.0
  C  C55  1  0.76123000  0.73389000  0.85315000  1.0
  C  C56  1  0.12532000  0.18215000  0.29135000  1.0
  C  C57  1  0.87468000  0.81785000  0.70865000  1.0
  S  S58  1  0.36646000  0.17469000  0.01397000  1.0
  S  S59  1  0.63355000  0.82531000  0.98603000  1.0
  N  N60  1  0.72949000  0.15809000  0.43679000  1.0
  N  N61  1  0.27051000  0.84191000  0.56320000  1.0
  N  N62  1  0.94399000  0.25652000  0.68540000  1.0
  N  N63  1  0.05601000  0.74348000  0.31460000  1.0
  O  O64  1  0.63173000  0.20509000  0.72859000  1.0
  O  O65  1  0.36827000  0.79492000  0.27140000  1.0
  O  O66  1  0.62455000  0.45411000  0.64697000  1.0
  O  O67  1  0.37545000  0.54590000  0.35302000  1.0
  O  O68  1  0.12875000  0.04409000  0.31712000  1.0
  O  O69  1  0.87126000  0.95591000  0.68288000  1.0
  O  O70  1  0.03027000  0.26368000  0.37754000  1.0
  O  O71  1  0.96973000  0.73631000  0.62246000  1.0
