# generated using pymatgen
data_ZnH4(C2O)4
_symmetry_space_group_name_H-M   'P 1'
_cell_length_a   5.22842000
_cell_length_b   10.55710000
_cell_length_c   14.03950000
_cell_angle_alpha   108.81100000
_cell_angle_beta   89.99980000
_cell_angle_gamma   89.99940000
_symmetry_Int_Tables_number   1
_chemical_formula_structural   ZnH4(C2O)4
_chemical_formula_sum   'Zn4 H16 C32 O16'
_cell_volume   733.54616385
_cell_formula_units_Z   4
loop_
 _symmetry_equiv_pos_site_id
 _symmetry_equiv_pos_as_xyz
  1  'x, y, z'
loop_
 _atom_site_type_symbol
 _atom_site_label
 _atom_site_symmetry_multiplicity
 _atom_site_fract_x
 _atom_site_fract_y
 _atom_site_fract_z
 _atom_site_occupancy
  Zn  Zn0  1  0.46609000  0.55855000  0.88340000  1.0
  Zn  Zn1  1  0.96607000  0.44144000  0.61659000  1.0
  Zn  Zn2  1  0.53393000  0.44144000  0.11659000  1.0
  Zn  Zn3  1  0.03394000  0.55856000  0.38342000  1.0
  H  H4  1  0.54187000  0.82298000  0.47681000  1.0
  H  H5  1  0.04187000  0.17702000  0.02318000  1.0
  H  H6  1  0.45815000  0.17703000  0.52320000  1.0
  H  H7  1  0.95811000  0.82296000  0.97681000  1.0
  H  H8  1  0.20090000  0.99802000  0.52499000  1.0
  H  H9  1  0.70090000  0.00199000  0.97499000  1.0
  H  H10  1  0.79910000  0.00199000  0.47501000  1.0
  H  H11  1  0.29907000  0.99800000  0.02500000  1.0
  H  H12  1  0.91257000  0.01075000  0.66895000  1.0
  H  H13  1  0.41256000  0.98925000  0.83103000  1.0
  H  H14  1  0.08741000  0.98923000  0.33104000  1.0
  H  H15  1  0.58741000  0.01075000  0.16896000  1.0
  H  H16  1  0.96687000  0.85191000  0.76447000  1.0
  H  H17  1  0.46687000  0.14811000  0.73552000  1.0
  H  H18  1  0.03312000  0.14809000  0.23553000  1.0
  H  H19  1  0.53313000  0.85190000  0.26447000  1.0
  C  C20  1  0.28937000  0.75056000  0.67649000  1.0
  C  C21  1  0.78938000  0.24944000  0.82351000  1.0
  C  C22  1  0.71060000  0.24944000  0.32351000  1.0
  C  C23  1  0.21061000  0.75055000  0.17649000  1.0
  C  C24  1  0.45148000  0.74196000  0.59439000  1.0
  C  C25  1  0.95149000  0.25805000  0.90561000  1.0
  C  C26  1  0.54851000  0.25806000  0.40562000  1.0
  C  C27  1  0.04849000  0.74194000  0.09439000  1.0
  C  C28  1  0.41562000  0.83152000  0.54024000  1.0
  C  C29  1  0.91560000  0.16848000  0.95976000  1.0
  C  C30  1  0.58441000  0.16848000  0.45977000  1.0
  C  C31  1  0.08438000  0.83150000  0.04023000  1.0
  C  C32  1  0.22505000  0.92843000  0.56709000  1.0
  C  C33  1  0.72506000  0.07158000  0.93290000  1.0
  C  C34  1  0.77493000  0.07157000  0.43291000  1.0
  C  C35  1  0.27494000  0.92842000  0.06709000  1.0
  C  C36  1  0.06325000  0.93569000  0.64775000  1.0
  C  C37  1  0.56323000  0.06432000  0.85223000  1.0
  C  C38  1  0.93675000  0.06431000  0.35224000  1.0
  C  C39  1  0.43673000  0.93568000  0.14776000  1.0
  C  C40  1  0.09450000  0.84681000  0.70184000  1.0
  C  C41  1  0.59448000  0.15320000  0.79815000  1.0
  C  C42  1  0.90550000  0.15319000  0.29816000  1.0
  C  C43  1  0.40550000  0.84680000  0.20184000  1.0
  C  C44  1  0.31498000  0.66388000  0.74202000  1.0
  C  C45  1  0.81496000  0.33613000  0.75797000  1.0
  C  C46  1  0.68505000  0.33613000  0.25798000  1.0
  C  C47  1  0.18503000  0.66388000  0.24203000  1.0
  C  C48  1  0.66361000  0.64184000  0.56254000  1.0
  C  C49  1  0.16360000  0.35816000  0.93746000  1.0
  C  C50  1  0.33642000  0.35817000  0.43747000  1.0
  C  C51  1  0.83638000  0.64183000  0.06255000  1.0
  O  O52  1  0.44477000  0.70843000  0.82294000  1.0
  O  O53  1  0.94477000  0.29157000  0.67706000  1.0
  O  O54  1  0.55530000  0.29156000  0.17706000  1.0
  O  O55  1  0.05529000  0.70844000  0.32295000  1.0
  O  O56  1  0.19415000  0.55419000  0.72188000  1.0
  O  O57  1  0.69418000  0.44582000  0.77811000  1.0
  O  O58  1  0.80583000  0.44582000  0.27813000  1.0
  O  O59  1  0.30583000  0.55417000  0.22188000  1.0
  O  O60  1  0.67349000  0.55047000  0.60403000  1.0
  O  O61  1  0.17351000  0.44953000  0.89596000  1.0
  O  O62  1  0.32652000  0.44954000  0.39597000  1.0
  O  O63  1  0.82648000  0.55046000  0.10404000  1.0
  O  O64  1  0.81851000  0.65657000  0.49747000  1.0
  O  O65  1  0.31854000  0.34345000  0.00255000  1.0
  O  O66  1  0.18149000  0.34345000  0.50255000  1.0
  O  O67  1  0.68148000  0.65654000  0.99746000  1.0
