# generated using pymatgen
data_ZnH11C14N2O7
_symmetry_space_group_name_H-M   'P 1'
_cell_length_a   7.20572000
_cell_length_b   9.50914000
_cell_length_c   12.30740000
_cell_angle_alpha   68.35930000
_cell_angle_beta   80.74660000
_cell_angle_gamma   73.83600000
_symmetry_Int_Tables_number   1
_chemical_formula_structural   ZnH11C14N2O7
_chemical_formula_sum   'Zn2 H22 C28 N4 O14'
_cell_volume   751.27982831
_cell_formula_units_Z   2
loop_
 _symmetry_equiv_pos_site_id
 _symmetry_equiv_pos_as_xyz
  1  'x, y, z'
loop_
 _atom_site_type_symbol
 _atom_site_label
 _atom_site_symmetry_multiplicity
 _atom_site_fract_x
 _atom_site_fract_y
 _atom_site_fract_z
 _atom_site_occupancy
  Zn  Zn0  1  0.11372000  0.12655000  0.11556000  1.0
  Zn  Zn1  1  0.88629000  0.87345000  0.88444000  1.0
  H  H2  1  0.35310000  0.15000000  0.92520000  1.0
  H  H3  1  0.64690000  0.85001000  0.07480000  1.0
  H  H4  1  0.47130000  0.15700000  0.02109000  1.0
  H  H5  1  0.52870000  0.84299000  0.97892000  1.0
  H  H6  1  0.50279000  0.57232000  0.37735000  1.0
  H  H7  1  0.49723000  0.42767000  0.62264000  1.0
  H  H8  1  0.53325000  0.22663000  0.22165000  1.0
  H  H9  1  0.46674000  0.77337000  0.77835000  1.0
  H  H10  1  0.35201000  0.43338000  0.05459000  1.0
  H  H11  1  0.64798000  0.56663000  0.94540000  1.0
  H  H12  1  0.94361000  0.44006000  0.13658000  1.0
  H  H13  1  0.05639000  0.55995000  0.86342000  1.0
  H  H14  1  0.91473000  0.56563000  0.28392000  1.0
  H  H15  1  0.08527000  0.43437000  0.71608000  1.0
  H  H16  1  0.20869000  0.11924000  0.51764000  1.0
  H  H17  1  0.79130000  0.88076000  0.48236000  1.0
  H  H18  1  0.23025000  0.01147000  0.35945000  1.0
  H  H19  1  0.76973000  0.98853000  0.64055000  1.0
  H  H20  1  0.98899000  0.33923000  0.59186000  1.0
  H  H21  1  0.01101000  0.66078000  0.40814000  1.0
  H  H22  1  0.20413000  0.39824000  0.53194000  1.0
  H  H23  1  0.79587000  0.60175000  0.46806000  1.0
  C  C24  1  0.33198000  0.61871000  0.12021000  1.0
  C  C25  1  0.66803000  0.38129000  0.87978000  1.0
  C  C26  1  0.37533000  0.65889000  0.21079000  1.0
  C  C27  1  0.62468000  0.34110000  0.78920000  1.0
  C  C28  1  0.47031000  0.54310000  0.30611000  1.0
  C  C29  1  0.52971000  0.45689000  0.69389000  1.0
  C  C30  1  0.52260000  0.38960000  0.30828000  1.0
  C  C31  1  0.47740000  0.61040000  0.69172000  1.0
  C  C32  1  0.48614000  0.34730000  0.21798000  1.0
  C  C33  1  0.51385000  0.65270000  0.78202000  1.0
  C  C34  1  0.38713000  0.46321000  0.12497000  1.0
  C  C35  1  0.61285000  0.53679000  0.87503000  1.0
  C  C36  1  0.23373000  0.74258000  0.01524000  1.0
  C  C37  1  0.76627000  0.25742000  0.98475000  1.0
  C  C38  1  0.32596000  0.82719000  0.20230000  1.0
  C  C39  1  0.67406000  0.17281000  0.79770000  1.0
  C  C40  1  0.00019000  0.37262000  0.22250000  1.0
  C  C41  1  0.99981000  0.62739000  0.77750000  1.0
  C  C42  1  0.98464000  0.44208000  0.30628000  1.0
  C  C43  1  0.01536000  0.55792000  0.69373000  1.0
  C  C44  1  0.06054000  0.35282000  0.41537000  1.0
  C  C45  1  0.93945000  0.64719000  0.58464000  1.0
  C  C46  1  0.14857000  0.19509000  0.43430000  1.0
  C  C47  1  0.85142000  0.80491000  0.56570000  1.0
  C  C48  1  0.16023000  0.13338000  0.34688000  1.0
  C  C49  1  0.83976000  0.86662000  0.65312000  1.0
  C  C50  1  0.05362000  0.41525000  0.51231000  1.0
  C  C51  1  0.94638000  0.58475000  0.48769000  1.0
  N  N52  1  0.61936000  0.26727000  0.40864000  1.0
  N  N53  1  0.38064000  0.73272000  0.59136000  1.0
  N  N54  1  0.08725000  0.22120000  0.24165000  1.0
  N  N55  1  0.91274000  0.77881000  0.75835000  1.0
  O  O56  1  0.07497000  0.72139000  0.99677000  1.0
  O  O57  1  0.92504000  0.27862000  0.00322000  1.0
  O  O58  1  0.31115000  0.85201000  0.95301000  1.0
  O  O59  1  0.68885000  0.14800000  0.04698000  1.0
  O  O60  1  0.14653000  0.90009000  0.18345000  1.0
  O  O61  1  0.85348000  0.09991000  0.81656000  1.0
  O  O62  1  0.45733000  0.88527000  0.20940000  1.0
  O  O63  1  0.54269000  0.11472000  0.79060000  1.0
  O  O64  1  0.62941000  0.30021000  0.49620000  1.0
  O  O65  1  0.37059000  0.69978000  0.50380000  1.0
  O  O66  1  0.68739000  0.13572000  0.40139000  1.0
  O  O67  1  0.31261000  0.86428000  0.59861000  1.0
  O  O68  1  0.33575000  0.17907000  0.99576000  1.0
  O  O69  1  0.66425000  0.82093000  0.00424000  1.0
