# generated using pymatgen
data_MnH11C11NO7F4
_symmetry_space_group_name_H-M   'P 1'
_cell_length_a   6.16576000
_cell_length_b   7.40760000
_cell_length_c   15.64130000
_cell_angle_alpha   82.84670000
_cell_angle_beta   89.75200000
_cell_angle_gamma   82.14590000
_symmetry_Int_Tables_number   1
_chemical_formula_structural   MnH11C11NO7F4
_chemical_formula_sum   'Mn2 H22 C22 N2 O14 F8'
_cell_volume   702.12432450
_cell_formula_units_Z   2
loop_
 _symmetry_equiv_pos_site_id
 _symmetry_equiv_pos_as_xyz
  1  'x, y, z'
loop_
 _atom_site_type_symbol
 _atom_site_label
 _atom_site_symmetry_multiplicity
 _atom_site_fract_x
 _atom_site_fract_y
 _atom_site_fract_z
 _atom_site_occupancy
  Mn  Mn0  1  0.07988000  0.72890000  0.10283000  1.0
  Mn  Mn1  1  0.92011000  0.27111000  0.89717000  1.0
  H  H2  1  0.65178000  0.78030000  0.21508000  1.0
  H  H3  1  0.34822000  0.21969000  0.78492000  1.0
  H  H4  1  0.02116000  0.61428000  0.39455000  1.0
  H  H5  1  0.97885000  0.38572000  0.60545000  1.0
  H  H6  1  0.79664000  0.59614000  0.46754000  1.0
  H  H7  1  0.20337000  0.40387000  0.53246000  1.0
  H  H8  1  0.90373000  0.80804000  0.44494000  1.0
  H  H9  1  0.09627000  0.19196000  0.55506000  1.0
  H  H10  1  0.39253000  0.81912000  0.30199000  1.0
  H  H11  1  0.60748000  0.18089000  0.69801000  1.0
  H  H12  1  0.46714000  0.91664000  0.39488000  1.0
  H  H13  1  0.53288000  0.08338000  0.60511000  1.0
  H  H14  1  0.42159000  0.68249000  0.40467000  1.0
  H  H15  1  0.57840000  0.31753000  0.59533000  1.0
  H  H16  1  0.72934000  0.70197000  0.00556000  1.0
  H  H17  1  0.27065000  0.29802000  0.99444000  1.0
  H  H18  1  0.78721000  0.50464000  0.06033000  1.0
  H  H19  1  0.21279000  0.49536000  0.93967000  1.0
  H  H20  1  0.39458000  0.96789000  0.10294000  1.0
  H  H21  1  0.60541000  0.03212000  0.89705000  1.0
  H  H22  1  0.51405000  0.76203000  0.09769000  1.0
  H  H23  1  0.48594000  0.23798000  0.90231000  1.0
  C  C24  1  0.38486000  0.31894000  0.13585000  1.0
  C  C25  1  0.61514000  0.68108000  0.86416000  1.0
  C  C26  1  0.56064000  0.27863000  0.20544000  1.0
  C  C27  1  0.43936000  0.72138000  0.79456000  1.0
  C  C28  1  0.51491000  0.31512000  0.28962000  1.0
  C  C29  1  0.48510000  0.68488000  0.71038000  1.0
  C  C30  1  0.67284000  0.26928000  0.35514000  1.0
  C  C31  1  0.32718000  0.73071000  0.64486000  1.0
  C  C32  1  0.88176000  0.18839000  0.33663000  1.0
  C  C33  1  0.11825000  0.81159000  0.66337000  1.0
  C  C34  1  0.92979000  0.15453000  0.25252000  1.0
  C  C35  1  0.07020000  0.84546000  0.74748000  1.0
  C  C36  1  0.77317000  0.19712000  0.18675000  1.0
  C  C37  1  0.22683000  0.80288000  0.81325000  1.0
  C  C38  1  0.83450000  0.15320000  0.09656000  1.0
  C  C39  1  0.16549000  0.84679000  0.90344000  1.0
  C  C40  1  0.78504000  0.73920000  0.26310000  1.0
  C  C41  1  0.21496000  0.26080000  0.73690000  1.0
  C  C42  1  0.86840000  0.68574000  0.41715000  1.0
  C  C43  1  0.13160000  0.31426000  0.58285000  1.0
  C  C44  1  0.48669000  0.79177000  0.36252000  1.0
  C  C45  1  0.51332000  0.20825000  0.63748000  1.0
  N  N46  1  0.71612000  0.73556000  0.34478000  1.0
  N  N47  1  0.28388000  0.26444000  0.65522000  1.0
  O  O48  1  0.25401000  0.46559000  0.13413000  1.0
  O  O49  1  0.74599000  0.53443000  0.86588000  1.0
  O  O50  1  0.38309000  0.20080000  0.08349000  1.0
  O  O51  1  0.61690000  0.79923000  0.91651000  1.0
  O  O52  1  0.83574000  0.28899000  0.03819000  1.0
  O  O53  1  0.16426000  0.71100000  0.96181000  1.0
  O  O54  1  0.88042000  0.98669000  0.08674000  1.0
  O  O55  1  0.11957000  0.01329000  0.91327000  1.0
  O  O56  1  0.98061000  0.69995000  0.24229000  1.0
  O  O57  1  0.01939000  0.30003000  0.75771000  1.0
  O  O58  1  0.76781000  0.63946000  0.06619000  1.0
  O  O59  1  0.23218000  0.36053000  0.93381000  1.0
  O  O60  1  0.38307000  0.83519000  0.11953000  1.0
  O  O61  1  0.61692000  0.16482000  0.88046000  1.0
  F  F62  1  0.31428000  0.39046000  0.31254000  1.0
  F  F63  1  0.68574000  0.60956000  0.68747000  1.0
  F  F64  1  0.62303000  0.30098000  0.43698000  1.0
  F  F65  1  0.37699000  0.69901000  0.56303000  1.0
  F  F66  1  0.03470000  0.14133000  0.40017000  1.0
  F  F67  1  0.96531000  0.85863000  0.59983000  1.0
  F  F68  1  0.13564000  0.07688000  0.23727000  1.0
  F  F69  1  0.86435000  0.92309000  0.76272000  1.0
