# generated using pymatgen
data_ZnH5C12NO7
_symmetry_space_group_name_H-M   'P 1'
_cell_length_a   8.07773000
_cell_length_b   9.25585000
_cell_length_c   17.05600000
_cell_angle_alpha   89.91980000
_cell_angle_beta   84.78700000
_cell_angle_gamma   89.98740000
_symmetry_Int_Tables_number   1
_chemical_formula_structural   ZnH5C12NO7
_chemical_formula_sum   'Zn2 H10 C24 N2 O14'
_cell_volume   1269.93750797
_cell_formula_units_Z   2
loop_
 _symmetry_equiv_pos_site_id
 _symmetry_equiv_pos_as_xyz
  1  'x, y, z'
loop_
 _atom_site_type_symbol
 _atom_site_label
 _atom_site_symmetry_multiplicity
 _atom_site_fract_x
 _atom_site_fract_y
 _atom_site_fract_z
 _atom_site_occupancy
  Zn  Zn0  1  0.66080000  0.49687000  0.50544000  1.0
  Zn  Zn1  1  0.33866000  0.49711000  0.49430000  1.0
  H  H2  1  0.76095000  0.22090000  0.12497000  1.0
  H  H3  1  0.84557000  0.34311000  0.00970000  1.0
  H  H4  1  0.24068000  0.21711000  0.87590000  1.0
  H  H5  1  0.59715000  0.55804000  0.89868000  1.0
  H  H6  1  0.40119000  0.55861000  0.10011000  1.0
  H  H7  1  0.39799000  0.61019000  0.24281000  1.0
  H  H8  1  0.59809000  0.60843000  0.75591000  1.0
  H  H9  1  0.08784000  0.07391000  0.72227000  1.0
  H  H10  1  0.91210000  0.07992000  0.27998000  1.0
  H  H11  1  0.15497000  0.34143000  0.99046000  1.0
  C  C12  1  0.50116000  0.77531000  0.50056000  1.0
  C  C13  1  0.51685000  0.52523000  0.78341000  1.0
  C  C14  1  0.47975000  0.49657000  0.13651000  1.0
  C  C15  1  0.51884000  0.49499000  0.86274000  1.0
  C  C16  1  0.57802000  0.38346000  0.10224000  1.0
  C  C17  1  0.42195000  0.38152000  0.89765000  1.0
  C  C18  1  0.68471000  0.31008000  0.14930000  1.0
  C  C19  1  0.31579000  0.30665000  0.85107000  1.0
  C  C20  1  0.69231000  0.34517000  0.22891000  1.0
  C  C21  1  0.30730000  0.34059000  0.77130000  1.0
  C  C22  1  0.57342000  0.35229000  0.01815000  1.0
  C  C23  1  0.50116000  0.21842000  0.49957000  1.0
  C  C24  1  0.42704000  0.35153000  0.98187000  1.0
  C  C25  1  0.18676000  0.25810000  0.72674000  1.0
  C  C26  1  0.81410000  0.26432000  0.27374000  1.0
  C  C27  1  0.26213000  0.31979000  0.02587000  1.0
  C  C28  1  0.73854000  0.32084000  0.97432000  1.0
  C  C29  1  0.50141000  0.93131000  0.50042000  1.0
  C  C30  1  0.50139000  0.06244000  0.50008000  1.0
  C  C31  1  0.56000000  0.48344000  0.34984000  1.0
  C  C32  1  0.43694000  0.48010000  0.64974000  1.0
  C  C33  1  0.58548000  0.45303000  0.26305000  1.0
  C  C34  1  0.41238000  0.44925000  0.73659000  1.0
  C  C35  1  0.48053000  0.52759000  0.21574000  1.0
  N  N36  1  0.06826000  0.48493000  0.49328000  1.0
  N  N37  1  0.93142000  0.48487000  0.50587000  1.0
  O  O38  1  0.63072000  0.71364000  0.52225000  1.0
  O  O39  1  0.17369000  0.11777000  0.75169000  1.0
  O  O40  1  0.89813000  0.31450000  0.32290000  1.0
  O  O41  1  0.82524000  0.12293000  0.25078000  1.0
  O  O42  1  0.23879000  0.26758000  0.09191000  1.0
  O  O43  1  0.76223000  0.26840000  0.90841000  1.0
  O  O44  1  0.36027000  0.27968000  0.51314000  1.0
  O  O45  1  0.37136000  0.71422000  0.47887000  1.0
  O  O46  1  0.64197000  0.27984000  0.48561000  1.0
  O  O47  1  0.67902000  0.52902000  0.38662000  1.0
  O  O48  1  0.31776000  0.52656000  0.61328000  1.0
  O  O49  1  0.41101000  0.46088000  0.37928000  1.0
  O  O50  1  0.58562000  0.45744000  0.62001000  1.0
  O  O51  1  0.10513000  0.30627000  0.67602000  1.0
