# generated using pymatgen
data_Mn2H14C12N4O13
_symmetry_space_group_name_H-M   'P 1'
_cell_length_a   7.15386000
_cell_length_b   10.37000000
_cell_length_c   13.40600000
_cell_angle_alpha   102.55500000
_cell_angle_beta   100.91200000
_cell_angle_gamma   102.29500000
_symmetry_Int_Tables_number   1
_chemical_formula_structural   Mn2H14C12N4O13
_chemical_formula_sum   'Mn4 H28 C24 N8 O26'
_cell_volume   919.08975160
_cell_formula_units_Z   2
loop_
 _symmetry_equiv_pos_site_id
 _symmetry_equiv_pos_as_xyz
  1  'x, y, z'
loop_
 _atom_site_type_symbol
 _atom_site_label
 _atom_site_symmetry_multiplicity
 _atom_site_fract_x
 _atom_site_fract_y
 _atom_site_fract_z
 _atom_site_occupancy
  Mn  Mn0  1  0.21317000  0.99413000  0.80427000  1.0
  Mn  Mn1  1  0.78683000  0.00587000  0.19574000  1.0
  Mn  Mn2  1  0.83224000  0.48735000  0.69194000  1.0
  Mn  Mn3  1  0.16777000  0.51265000  0.30806000  1.0
  H  H4  1  0.39442000  0.80811000  0.72352000  1.0
  H  H5  1  0.60557000  0.19189000  0.27648000  1.0
  H  H6  1  0.41864000  0.79368000  0.84230000  1.0
  H  H7  1  0.58135000  0.20632000  0.15770000  1.0
  H  H8  1  0.87869000  0.92730000  0.89155000  1.0
  H  H9  1  0.12117000  0.07262000  0.10834000  1.0
  H  H10  1  0.97517000  0.79888000  0.87074000  1.0
  H  H11  1  0.02485000  0.20113000  0.12927000  1.0
  H  H12  1  0.89415000  0.74491000  0.63513000  1.0
  H  H13  1  0.10585000  0.25509000  0.36487000  1.0
  H  H14  1  0.67767000  0.69948000  0.64689000  1.0
  H  H15  1  0.32232000  0.30051000  0.35310000  1.0
  H  H16  1  0.56718000  0.58883000  0.81150000  1.0
  H  H17  1  0.43282000  0.41117000  0.18850000  1.0
  H  H18  1  0.41246000  0.50420000  0.70629000  1.0
  H  H19  1  0.58754000  0.49580000  0.29371000  1.0
  H  H20  1  0.16239000  0.56057000  0.59191000  1.0
  H  H21  1  0.83761000  0.43943000  0.40808000  1.0
  H  H22  1  0.19477000  0.64471000  0.70922000  1.0
  H  H23  1  0.80523000  0.35529000  0.29077000  1.0
  H  H24  1  0.95276000  0.19329000  0.69374000  1.0
  H  H25  1  0.04725000  0.80671000  0.30626000  1.0
  H  H26  1  0.33481000  0.49077000  0.03815000  1.0
  H  H27  1  0.66520000  0.50923000  0.96185000  1.0
  H  H28  1  0.62381000  0.24828000  0.80902000  1.0
  H  H29  1  0.37620000  0.75172000  0.19098000  1.0
  H  H30  1  0.28643000  0.05725000  0.43656000  1.0
  H  H31  1  0.71358000  0.94275000  0.56345000  1.0
  C  C32  1  0.03336000  0.25823000  0.77236000  1.0
  C  C33  1  0.96664000  0.74177000  0.22764000  1.0
  C  C34  1  0.12407000  0.46929000  0.89295000  1.0
  C  C35  1  0.87593000  0.53071000  0.10705000  1.0
  C  C36  1  0.24920000  0.42323000  0.96177000  1.0
  C  C37  1  0.75081000  0.57677000  0.03822000  1.0
  C  C38  1  0.25313000  0.28731000  0.93000000  1.0
  C  C39  1  0.74688000  0.71269000  0.06999000  1.0
  C  C40  1  0.09462000  0.61212000  0.92376000  1.0
  C  C41  1  0.90539000  0.38788000  0.07625000  1.0
  C  C42  1  0.37849000  0.22103000  0.99580000  1.0
  C  C43  1  0.62153000  0.77898000  0.00420000  1.0
  C  C44  1  0.54797000  0.20560000  0.72545000  1.0
  C  C45  1  0.45203000  0.79440000  0.27456000  1.0
  C  C46  1  0.29877000  0.04280000  0.59642000  1.0
  C  C47  1  0.70123000  0.95720000  0.40358000  1.0
  C  C48  1  0.36203000  0.09880000  0.51951000  1.0
  C  C49  1  0.63797000  0.90120000  0.48050000  1.0
  C  C50  1  0.52408000  0.21279000  0.55369000  1.0
  C  C51  1  0.47592000  0.78722000  0.44632000  1.0
  C  C52  1  0.11999000  0.92101000  0.56790000  1.0
  C  C53  1  0.88002000  0.07899000  0.43210000  1.0
  C  C54  1  0.60630000  0.28018000  0.47647000  1.0
  C  C55  1  0.39370000  0.71982000  0.52354000  1.0
  N  N56  1  0.14296000  0.20438000  0.83555000  1.0
  N  N57  1  0.85704000  0.79562000  0.16445000  1.0
  N  N58  1  0.01839000  0.38713000  0.79794000  1.0
  N  N59  1  0.98161000  0.61287000  0.20206000  1.0
  N  N60  1  0.61591000  0.26697000  0.65633000  1.0
  N  N61  1  0.38409000  0.73303000  0.34368000  1.0
  N  N62  1  0.39359000  0.09506000  0.69922000  1.0
  N  N63  1  0.60641000  0.90494000  0.30078000  1.0
  O  O64  1  0.33073000  0.81802000  0.78454000  1.0
  O  O65  1  0.66927000  0.18198000  0.21546000  1.0
  O  O66  1  0.99438000  0.90045000  0.87613000  1.0
  O  O67  1  0.00563000  0.09957000  0.12390000  1.0
  O  O68  1  0.79217000  0.66418000  0.63766000  1.0
  O  O69  1  0.20783000  0.33582000  0.36234000  1.0
  O  O70  1  0.54503000  0.51145000  0.74809000  1.0
  O  O71  1  0.45496000  0.48855000  0.25192000  1.0
  O  O72  1  0.14446000  0.55004000  0.66196000  1.0
  O  O73  1  0.85553000  0.44996000  0.33803000  1.0
  O  O74  1  0.18103000  0.68695000  0.01375000  1.0
  O  O75  1  0.81898000  0.31305000  0.98626000  1.0
  O  O76  1  0.97387000  0.64001000  0.85169000  1.0
  O  O77  1  0.02616000  0.35999000  0.14831000  1.0
  O  O78  1  0.40489000  0.10906000  0.94907000  1.0
  O  O79  1  0.59511000  0.89094000  0.05094000  1.0
  O  O80  1  0.44823000  0.28075000  0.09329000  1.0
  O  O81  1  0.55179000  0.71926000  0.90670000  1.0
  O  O82  1  0.04722000  0.90008000  0.64618000  1.0
  O  O83  1  0.95278000  0.09992000  0.35382000  1.0
  O  O84  1  0.05645000  0.85214000  0.47441000  1.0
  O  O85  1  0.94355000  0.14786000  0.52559000  1.0
  O  O86  1  0.74695000  0.38829000  0.51382000  1.0
  O  O87  1  0.25305000  0.61172000  0.48618000  1.0
  O  O88  1  0.52437000  0.22113000  0.37971000  1.0
  O  O89  1  0.47564000  0.77887000  0.62030000  1.0
