# generated using pymatgen
data_PrH15C22S2(NO4)2
_symmetry_space_group_name_H-M   'P 1'
_cell_length_a   8.89588000
_cell_length_b   11.93470000
_cell_length_c   12.78880000
_cell_angle_alpha   104.92800000
_cell_angle_beta   108.58100000
_cell_angle_gamma   100.91800000
_symmetry_Int_Tables_number   1
_chemical_formula_structural   PrH15C22S2(NO4)2
_chemical_formula_sum   'Pr2 H30 C44 S4 N4 O16'
_cell_volume   1187.68095055
_cell_formula_units_Z   2
loop_
 _symmetry_equiv_pos_site_id
 _symmetry_equiv_pos_as_xyz
  1  'x, y, z'
loop_
 _atom_site_type_symbol
 _atom_site_label
 _atom_site_symmetry_multiplicity
 _atom_site_fract_x
 _atom_site_fract_y
 _atom_site_fract_z
 _atom_site_occupancy
  Pr  Pr0  1  0.54645000  0.42640000  0.35879000  1.0
  Pr  Pr1  1  0.45355000  0.57361000  0.64121000  1.0
  H  H2  1  0.88500000  0.30229000  0.77556000  1.0
  H  H3  1  0.11500000  0.69771000  0.22444000  1.0
  H  H4  1  0.81331000  0.11897000  0.84148000  1.0
  H  H5  1  0.18669000  0.88104000  0.15853000  1.0
  H  H6  1  0.33012000  0.85743000  0.65016000  1.0
  H  H7  1  0.66988000  0.14257000  0.34984000  1.0
  H  H8  1  0.24872000  0.98117000  0.52238000  1.0
  H  H9  1  0.75129000  0.01883000  0.47762000  1.0
  H  H10  1  0.30234000  0.16696000  0.47952000  1.0
  H  H11  1  0.69766000  0.83304000  0.52048000  1.0
  H  H12  1  0.93185000  0.63230000  0.50203000  1.0
  H  H13  1  0.06814000  0.36770000  0.49797000  1.0
  H  H14  1  0.10589000  0.82943000  0.51831000  1.0
  H  H15  1  0.89411000  0.17057000  0.48170000  1.0
  H  H16  1  0.00738000  0.92009000  0.36004000  1.0
  H  H17  1  0.99262000  0.07990000  0.63996000  1.0
  H  H18  1  0.78440000  0.90452000  0.17222000  1.0
  H  H19  1  0.21561000  0.09547000  0.82777000  1.0
  H  H20  1  0.50587000  0.79888000  0.01862000  1.0
  H  H21  1  0.49413000  0.20112000  0.98138000  1.0
  H  H22  1  0.24435000  0.62138000  0.92909000  1.0
  H  H23  1  0.75565000  0.37862000  0.07090000  1.0
  H  H24  1  0.09287000  0.42409000  0.92983000  1.0
  H  H25  1  0.90713000  0.57592000  0.07017000  1.0
  H  H26  1  0.22726000  0.34392000  0.08821000  1.0
  H  H27  1  0.77274000  0.65609000  0.91179000  1.0
  H  H28  1  0.83138000  0.38742000  0.26871000  1.0
  H  H29  1  0.16861000  0.61258000  0.73129000  1.0
  H  H30  1  0.67636000  0.26047000  0.21149000  1.0
  H  H31  1  0.32363000  0.73952000  0.78851000  1.0
  C  C32  1  0.70074000  0.34328000  0.64832000  1.0
  C  C33  1  0.29926000  0.65673000  0.35168000  1.0
  C  C34  1  0.75644000  0.27270000  0.71337000  1.0
  C  C35  1  0.24355000  0.72729000  0.28662000  1.0
  C  C36  1  0.64667000  0.16151000  0.69925000  1.0
  C  C37  1  0.35332000  0.83849000  0.30074000  1.0
  C  C38  1  0.69083000  0.08964000  0.77071000  1.0
  C  C39  1  0.30917000  0.91036000  0.22930000  1.0
  C  C40  1  0.57603000  0.98392000  0.75305000  1.0
  C  C41  1  0.42397000  0.01608000  0.24695000  1.0
  C  C42  1  0.41608000  0.94234000  0.66194000  1.0
  C  C43  1  0.58392000  0.05765000  0.33806000  1.0
  C  C44  1  0.37123000  0.01011000  0.59225000  1.0
  C  C45  1  0.62877000  0.98989000  0.40775000  1.0
  C  C46  1  0.48202000  0.12195000  0.61008000  1.0
  C  C47  1  0.51799000  0.87805000  0.38991000  1.0
  C  C48  1  0.42890000  0.19554000  0.54469000  1.0
  C  C49  1  0.57110000  0.80446000  0.45530000  1.0
  C  C50  1  0.53187000  0.30865000  0.56653000  1.0
  C  C51  1  0.46814000  0.69134000  0.43347000  1.0
  C  C52  1  0.89046000  0.67362000  0.43550000  1.0
  C  C53  1  0.10954000  0.32637000  0.56450000  1.0
  C  C54  1  0.98861000  0.78486000  0.44356000  1.0
  C  C55  1  0.01138000  0.21514000  0.55644000  1.0
  C  C56  1  0.93419000  0.83386000  0.35683000  1.0
  C  C57  1  0.06581000  0.16614000  0.64317000  1.0
  C  C58  1  0.77976000  0.77205000  0.26221000  1.0
  C  C59  1  0.22024000  0.22795000  0.73779000  1.0
  C  C60  1  0.71190000  0.81941000  0.17158000  1.0
  C  C61  1  0.28810000  0.18058000  0.82842000  1.0
  C  C62  1  0.55707000  0.76056000  0.08598000  1.0
  C  C63  1  0.44293000  0.23944000  0.91402000  1.0
  C  C64  1  0.46119000  0.64799000  0.08272000  1.0
  C  C65  1  0.53881000  0.35202000  0.91728000  1.0
  C  C66  1  0.30071000  0.58416000  0.99593000  1.0
  C  C67  1  0.69928000  0.41584000  0.00408000  1.0
  C  C68  1  0.21630000  0.47460000  0.99639000  1.0
  C  C69  1  0.78370000  0.52540000  0.00361000  1.0
  C  C70  1  0.29122000  0.42945000  0.08447000  1.0
  C  C71  1  0.70878000  0.57056000  0.91553000  1.0
  C  C72  1  0.52657000  0.59617000  0.16923000  1.0
  C  C73  1  0.47343000  0.40383000  0.83077000  1.0
  C  C74  1  0.68766000  0.66039000  0.26193000  1.0
  C  C75  1  0.31233000  0.33961000  0.73807000  1.0
  S  S76  1  0.82774000  0.48187000  0.65644000  1.0
  S  S77  1  0.17226000  0.51813000  0.34355000  1.0
  S  S78  1  0.61683000  0.89400000  0.84428000  1.0
  S  S79  1  0.38317000  0.10600000  0.15572000  1.0
  N  N80  1  0.74424000  0.61298000  0.34768000  1.0
  N  N81  1  0.25576000  0.38702000  0.65232000  1.0
  N  N82  1  0.44097000  0.48896000  0.16950000  1.0
  N  N83  1  0.55903000  0.51104000  0.83051000  1.0
  O  O84  1  0.99822000  0.50222000  0.73538000  1.0
  O  O85  1  0.00178000  0.49778000  0.26461000  1.0
  O  O86  1  0.75635000  0.57787000  0.69813000  1.0
  O  O87  1  0.24365000  0.42213000  0.30187000  1.0
  O  O88  1  0.81087000  0.46292000  0.53296000  1.0
  O  O89  1  0.18912000  0.53707000  0.46703000  1.0
  O  O90  1  0.47098000  0.87185000  0.87634000  1.0
  O  O91  1  0.52902000  0.12815000  0.12367000  1.0
  O  O92  1  0.61450000  0.77722000  0.76214000  1.0
  O  O93  1  0.38550000  0.22277000  0.23786000  1.0
  O  O94  1  0.77523000  0.95579000  0.94074000  1.0
  O  O95  1  0.22477000  0.04422000  0.05927000  1.0
  O  O96  1  0.47645000  0.38593000  0.51582000  1.0
  O  O97  1  0.52355000  0.61407000  0.48418000  1.0
  O  O98  1  0.73308000  0.34111000  0.27606000  1.0
  O  O99  1  0.26691000  0.65889000  0.72394000  1.0
