# generated using pymatgen
data_CdH9C4NCl2O3
_symmetry_space_group_name_H-M   'P 1'
_cell_length_a   7.24684000
_cell_length_b   8.74918000
_cell_length_c   14.29990000
_cell_angle_alpha   89.99990000
_cell_angle_beta   89.99980000
_cell_angle_gamma   69.21000000
_symmetry_Int_Tables_number   1
_chemical_formula_structural   CdH9C4NCl2O3
_chemical_formula_sum   'Cd4 H36 C16 N4 Cl8 O12'
_cell_volume   847.63414480
_cell_formula_units_Z   4
loop_
 _symmetry_equiv_pos_site_id
 _symmetry_equiv_pos_as_xyz
  1  'x, y, z'
loop_
 _atom_site_type_symbol
 _atom_site_label
 _atom_site_symmetry_multiplicity
 _atom_site_fract_x
 _atom_site_fract_y
 _atom_site_fract_z
 _atom_site_occupancy
  Cd  Cd0  1  0.04277000  0.14152000  0.75083000  1.0
  Cd  Cd1  1  0.45723000  0.85848000  0.25083000  1.0
  Cd  Cd2  1  0.95723000  0.85848000  0.24917000  1.0
  Cd  Cd3  1  0.54277000  0.14152000  0.74917000  1.0
  H  H4  1  0.86682000  0.18380000  0.10842000  1.0
  H  H5  1  0.63318000  0.81620000  0.60842000  1.0
  H  H6  1  0.13318000  0.81620000  0.89158000  1.0
  H  H7  1  0.36682000  0.18379000  0.39158000  1.0
  H  H8  1  0.92113000  0.36533000  0.09775000  1.0
  H  H9  1  0.57887000  0.63467000  0.59776000  1.0
  H  H10  1  0.07887000  0.63467000  0.90224000  1.0
  H  H11  1  0.42114000  0.36533000  0.40225000  1.0
  H  H12  1  0.78891000  0.46010000  0.90189000  1.0
  H  H13  1  0.71109000  0.53990000  0.40189000  1.0
  H  H14  1  0.21109000  0.53990000  0.09811000  1.0
  H  H15  1  0.28891000  0.46010000  0.59811000  1.0
  H  H16  1  0.71932000  0.58552000  0.00435000  1.0
  H  H17  1  0.78068000  0.41449000  0.50435000  1.0
  H  H18  1  0.28068000  0.41449000  0.99565000  1.0
  H  H19  1  0.21932000  0.58551000  0.49565000  1.0
  H  H20  1  0.55922000  0.49326000  0.13623000  1.0
  H  H21  1  0.94078000  0.50675000  0.63623000  1.0
  H  H22  1  0.44078000  0.50674000  0.86377000  1.0
  H  H23  1  0.05922000  0.49326000  0.36377000  1.0
  H  H24  1  0.52132000  0.30419000  0.12548000  1.0
  H  H25  1  0.97868000  0.69581000  0.62548000  1.0
  H  H26  1  0.47868000  0.69581000  0.87452000  1.0
  H  H27  1  0.02132000  0.30419000  0.37452000  1.0
  H  H28  1  0.65182000  0.27258000  0.97061000  1.0
  H  H29  1  0.84818000  0.72743000  0.47061000  1.0
  H  H30  1  0.34818000  0.72743000  0.02939000  1.0
  H  H31  1  0.15181000  0.27258000  0.52940000  1.0
  H  H32  1  0.92160000  0.13713000  0.55876000  1.0
  H  H33  1  0.57840000  0.86287000  0.05876000  1.0
  H  H34  1  0.07840000  0.86287000  0.44124000  1.0
  H  H35  1  0.42160000  0.13713000  0.94124000  1.0
  H  H36  1  0.14950000  0.02457000  0.56178000  1.0
  H  H37  1  0.35050000  0.97543000  0.06178000  1.0
  H  H38  1  0.85050000  0.97543000  0.43822000  1.0
  H  H39  1  0.64950000  0.02457000  0.93822000  1.0
  C  C40  1  0.03348000  0.18713000  0.98423000  1.0
  C  C41  1  0.46652000  0.81287000  0.48423000  1.0
  C  C42  1  0.96652000  0.81288000  0.01576000  1.0
  C  C43  1  0.53346000  0.18713000  0.51578000  1.0
  C  C44  1  0.87988000  0.27479000  0.05839000  1.0
  C  C45  1  0.62012000  0.72521000  0.55839000  1.0
  C  C46  1  0.12013000  0.72521000  0.94161000  1.0
  C  C47  1  0.37987000  0.27479000  0.44161000  1.0
  C  C48  1  0.67847000  0.50322000  0.95752000  1.0
  C  C49  1  0.82153000  0.49678000  0.45752000  1.0
  C  C50  1  0.32153000  0.49678000  0.04248000  1.0
  C  C51  1  0.17847000  0.50322000  0.54248000  1.0
  C  C52  1  0.52151000  0.41269000  0.08697000  1.0
  C  C53  1  0.97849000  0.58731000  0.58697000  1.0
  C  C54  1  0.47849000  0.58731000  0.91303000  1.0
  C  C55  1  0.02151000  0.41269000  0.41303000  1.0
  N  N56  1  0.68161000  0.35856000  0.01463000  1.0
  N  N57  1  0.81839000  0.64143000  0.51463000  1.0
  N  N58  1  0.31839000  0.64144000  0.98537000  1.0
  N  N59  1  0.18160000  0.35856000  0.48537000  1.0
  Cl  Cl60  1  0.19368000  0.36888000  0.78101000  1.0
  Cl  Cl61  1  0.30633000  0.63112000  0.28100000  1.0
  Cl  Cl62  1  0.80632000  0.63112000  0.21899000  1.0
  Cl  Cl63  1  0.69368000  0.36888000  0.71900000  1.0
  Cl  Cl64  1  0.38417000  0.91668000  0.76114000  1.0
  Cl  Cl65  1  0.11583000  0.08332000  0.26114000  1.0
  Cl  Cl66  1  0.61583000  0.08332000  0.23886000  1.0
  Cl  Cl67  1  0.88417000  0.91668000  0.73886000  1.0
  O  O68  1  0.96436000  0.15092000  0.90973000  1.0
  O  O69  1  0.53563000  0.84909000  0.40973000  1.0
  O  O70  1  0.03563000  0.84909000  0.09027000  1.0
  O  O71  1  0.46436000  0.15092000  0.59027000  1.0
  O  O72  1  0.21305000  0.15671000  0.00536000  1.0
  O  O73  1  0.28695000  0.84329000  0.50536000  1.0
  O  O74  1  0.78696000  0.84329000  0.99464000  1.0
  O  O75  1  0.71305000  0.15671000  0.49464000  1.0
  O  O76  1  0.05433000  0.13369000  0.58092000  1.0
  O  O77  1  0.44566000  0.86631000  0.08092000  1.0
  O  O78  1  0.94567000  0.86631000  0.41908000  1.0
  O  O79  1  0.55434000  0.13369000  0.91908000  1.0
