# generated using pymatgen
data_ZnH14C18Br3N3O4
_symmetry_space_group_name_H-M   'P 1'
_cell_length_a   8.78033000
_cell_length_b   16.45710000
_cell_length_c   16.89590000
_cell_angle_alpha   85.94680000
_cell_angle_beta   89.83140000
_cell_angle_gamma   77.41760000
_symmetry_Int_Tables_number   1
_chemical_formula_structural   ZnH14C18Br3N3O4
_chemical_formula_sum   'Zn2 H28 C36 Br6 N6 O8'
_cell_volume   2376.64826047
_cell_formula_units_Z   2
loop_
 _symmetry_equiv_pos_site_id
 _symmetry_equiv_pos_as_xyz
  1  'x, y, z'
loop_
 _atom_site_type_symbol
 _atom_site_label
 _atom_site_symmetry_multiplicity
 _atom_site_fract_x
 _atom_site_fract_y
 _atom_site_fract_z
 _atom_site_occupancy
  Zn  Zn0  1  0.47481000  0.59664000  0.50381000  1.0
  Zn  Zn1  1  0.52110000  0.40327000  0.50144000  1.0
  H  H2  1  0.69872000  0.45512000  0.11823000  1.0
  H  H3  1  0.01742000  0.43402000  0.77259000  1.0
  H  H4  1  0.05709000  0.37736000  0.68619000  1.0
  H  H5  1  0.88956000  0.31169000  0.78234000  1.0
  H  H6  1  0.79549000  0.34432000  0.68936000  1.0
  H  H7  1  0.00948000  0.53688000  0.18686000  1.0
  H  H8  1  0.08801000  0.48212000  0.27734000  1.0
  H  H9  1  0.92963000  0.56948000  0.27921000  1.0
  H  H10  1  0.17342000  0.61256000  0.31585000  1.0
  H  H11  1  0.10403000  0.66281000  0.22293000  1.0
  H  H12  1  0.79725000  0.78457000  0.35738000  1.0
  H  H13  1  0.34137000  0.55233000  0.88853000  1.0
  H  H14  1  0.83697000  0.68102000  0.40279000  1.0
  H  H15  1  0.79667000  0.69918000  0.29902000  1.0
  H  H16  1  0.56342000  0.66802000  0.37169000  1.0
  H  H17  1  0.52319000  0.76865000  0.32324000  1.0
  H  H18  1  0.50197000  0.26601000  0.69970000  1.0
  H  H19  1  0.30599000  0.28319000  0.73237000  1.0
  H  H20  1  0.39980000  0.18300000  0.70326000  1.0
  H  H21  1  0.31554000  0.34579000  0.59385000  1.0
  H  H22  1  0.21314000  0.26486000  0.59691000  1.0
  H  H23  1  0.67335000  0.44851000  0.26671000  1.0
  H  H24  1  0.34096000  0.54415000  0.74034000  1.0
  H  H25  1  0.58717000  0.88700000  0.40215000  1.0
  H  H26  1  0.36613000  0.11703000  0.57879000  1.0
  H  H27  1  0.69852000  0.11011000  0.39017000  1.0
  H  H28  1  0.40462000  0.87839000  0.63845000  1.0
  H  H29  1  0.91471000  0.47240000  0.68241000  1.0
  C  C30  1  0.43744000  0.51350000  0.35290000  1.0
  C  C31  1  0.44314000  0.84880000  0.58419000  1.0
  C  C32  1  0.61663000  0.22758000  0.44334000  1.0
  C  C33  1  0.43888000  0.76580000  0.57532000  1.0
  C  C34  1  0.78797000  0.49027000  0.48358000  1.0
  C  C35  1  0.20326000  0.53521000  0.52709000  1.0
  C  C36  1  0.96108000  0.48613000  0.48681000  1.0
  C  C37  1  0.03095000  0.53807000  0.52470000  1.0
  C  C38  1  0.43707000  0.52067000  0.26353000  1.0
  C  C39  1  0.57012000  0.46377000  0.73960000  1.0
  C  C40  1  0.30840000  0.56519000  0.21701000  1.0
  C  C41  1  0.55894000  0.46326000  0.65087000  1.0
  C  C42  1  0.70147000  0.41853000  0.78359000  1.0
  C  C43  1  0.32768000  0.56855000  0.13425000  1.0
  C  C44  1  0.69927000  0.42635000  0.86593000  1.0
  C  C45  1  0.46571000  0.52774000  0.09829000  1.0
  C  C46  1  0.57123000  0.47481000  0.90393000  1.0
  C  C47  1  0.59174000  0.48504000  0.14684000  1.0
  C  C48  1  0.44091000  0.51702000  0.85790000  1.0
  C  C49  1  0.57682000  0.48172000  0.22837000  1.0
  C  C50  1  0.44158000  0.51202000  0.77664000  1.0
  C  C51  1  0.83842000  0.36675000  0.74282000  1.0
  C  C52  1  0.43398000  0.23258000  0.54418000  1.0
  C  C53  1  0.96432000  0.41556000  0.71984000  1.0
  C  C54  1  0.15406000  0.60173000  0.25377000  1.0
  C  C55  1  0.03847000  0.54416000  0.24873000  1.0
  C  C56  1  0.59144000  0.72950000  0.37212000  1.0
  C  C57  1  0.76617000  0.72336000  0.35723000  1.0
  C  C58  1  0.32951000  0.27832000  0.60480000  1.0
  C  C59  1  0.38849000  0.25046000  0.69010000  1.0
  C  C60  1  0.53879000  0.76962000  0.44765000  1.0
  C  C61  1  0.43827000  0.14780000  0.53971000  1.0
  C  C62  1  0.54545000  0.85308000  0.45229000  1.0
  C  C63  1  0.53400000  0.10259000  0.48461000  1.0
  C  C64  1  0.49681000  0.89335000  0.52086000  1.0
  C  C65  1  0.62392000  0.14337000  0.43425000  1.0
  Br  Br66  1  0.07451000  0.39632000  0.43064000  1.0
  Br  Br67  1  0.91131000  0.62496000  0.58238000  1.0
  Br  Br68  1  0.87651000  0.37203000  0.92964000  1.0
  Br  Br69  1  0.15939000  0.62692000  0.06634000  1.0
  Br  Br70  1  0.75016000  0.27860000  0.37855000  1.0
  Br  Br71  1  0.36288000  0.70910000  0.66251000  1.0
  N  N72  1  0.47044000  0.53137000  0.01497000  1.0
  N  N73  1  0.57356000  0.47442000  0.98720000  1.0
  N  N74  1  0.52425000  0.27249000  0.49574000  1.0
  N  N75  1  0.48470000  0.72586000  0.50953000  1.0
  N  N76  1  0.54430000  0.01681000  0.47405000  1.0
  N  N77  1  0.49333000  0.97846000  0.53209000  1.0
  O  O78  1  0.40773000  0.58067000  0.38829000  1.0
  O  O79  1  0.55672000  0.39427000  0.62187000  1.0
  O  O80  1  0.47604000  0.43953000  0.38524000  1.0
  O  O81  1  0.54759000  0.53353000  0.61245000  1.0
  O  O82  1  0.70140000  0.56188000  0.46710000  1.0
  O  O83  1  0.29208000  0.46356000  0.52694000  1.0
  O  O84  1  0.74681000  0.42176000  0.49710000  1.0
  O  O85  1  0.24434000  0.60448000  0.52838000  1.0
