# generated using pymatgen
data_CsH2C6(NO3)3
_symmetry_space_group_name_H-M   'P 1'
_cell_length_a   4.73995000
_cell_length_b   9.81337000
_cell_length_c   11.24250000
_cell_angle_alpha   89.99990000
_cell_angle_beta   89.99990000
_cell_angle_gamma   77.19200000
_symmetry_Int_Tables_number   1
_chemical_formula_structural   CsH2C6(NO3)3
_chemical_formula_sum   'Cs2 H4 C12 N6 O18'
_cell_volume   509.93190643
_cell_formula_units_Z   2
loop_
 _symmetry_equiv_pos_site_id
 _symmetry_equiv_pos_as_xyz
  1  'x, y, z'
loop_
 _atom_site_type_symbol
 _atom_site_label
 _atom_site_symmetry_multiplicity
 _atom_site_fract_x
 _atom_site_fract_y
 _atom_site_fract_z
 _atom_site_occupancy
  Cs  Cs0  1  0.58415000  0.38981000  0.09263000  1.0
  Cs  Cs1  1  0.58415000  0.88981000  0.90737000  1.0
  H  H2  1  0.35813000  0.53586000  0.44854000  1.0
  H  H3  1  0.35813000  0.03586000  0.55145000  1.0
  H  H4  1  0.81629000  0.24296000  0.44760000  1.0
  H  H5  1  0.81630000  0.74296000  0.55240000  1.0
  C  C6  1  0.22491000  0.48216000  0.72039000  1.0
  C  C7  1  0.22490000  0.98217000  0.27960000  1.0
  C  C8  1  0.24311000  0.47696000  0.59645000  1.0
  C  C9  1  0.24311000  0.97696000  0.40355000  1.0
  C  C10  1  0.08633000  0.38954000  0.53256000  1.0
  C  C11  1  0.08633000  0.88954000  0.46744000  1.0
  C  C12  1  0.92864000  0.30210000  0.59587000  1.0
  C  C13  1  0.92864000  0.80210000  0.40414000  1.0
  C  C14  1  0.94472000  0.29688000  0.71985000  1.0
  C  C15  1  0.94472000  0.79688000  0.28015000  1.0
  C  C16  1  0.08439000  0.38948000  0.79003000  1.0
  C  C17  1  0.08439000  0.88948000  0.20997000  1.0
  N  N18  1  0.34227000  0.58495000  0.78241000  1.0
  N  N19  1  0.34227000  0.08495000  0.21758000  1.0
  N  N20  1  0.08722000  0.38957000  0.40967000  1.0
  N  N21  1  0.08722000  0.88957000  0.59033000  1.0
  N  N22  1  0.82606000  0.19424000  0.78142000  1.0
  N  N23  1  0.82607000  0.69424000  0.21858000  1.0
  O  O24  1  0.38774000  0.55578000  0.53672000  1.0
  O  O25  1  0.38775000  0.05578000  0.46328000  1.0
  O  O26  1  0.78504000  0.22324000  0.53565000  1.0
  O  O27  1  0.78505000  0.72324000  0.46435000  1.0
  O  O28  1  0.08378000  0.38941000  0.90091000  1.0
  O  O29  1  0.08378000  0.88941000  0.09909000  1.0
  O  O30  1  0.21811000  0.63836000  0.87470000  1.0
  O  O31  1  0.21812000  0.13836000  0.12529000  1.0
  O  O32  1  0.56356000  0.61861000  0.74219000  1.0
  O  O33  1  0.56357000  0.11861000  0.25781000  1.0
  O  O34  1  0.23446000  0.46132000  0.35095000  1.0
  O  O35  1  0.23446000  0.96132000  0.64905000  1.0
  O  O36  1  0.94086000  0.31789000  0.35042000  1.0
  O  O37  1  0.94086000  0.81789000  0.64958000  1.0
  O  O38  1  0.60529000  0.16065000  0.74055000  1.0
  O  O39  1  0.60529000  0.66065000  0.25945000  1.0
  O  O40  1  0.94851000  0.14092000  0.87408000  1.0
  O  O41  1  0.94851000  0.64092000  0.12592000  1.0
