# generated using pymatgen
data_LiH2C5O4
_symmetry_space_group_name_H-M   'P 1'
_cell_length_a   5.07743000
_cell_length_b   7.15688000
_cell_length_c   7.19254000
_cell_angle_alpha   83.87750000
_cell_angle_beta   76.55300000
_cell_angle_gamma   81.85760000
_symmetry_Int_Tables_number   1
_chemical_formula_structural   LiH2C5O4
_chemical_formula_sum   'Li2 H4 C10 O8'
_cell_volume   250.89998673
_cell_formula_units_Z   2
loop_
 _symmetry_equiv_pos_site_id
 _symmetry_equiv_pos_as_xyz
  1  'x, y, z'
loop_
 _atom_site_type_symbol
 _atom_site_label
 _atom_site_symmetry_multiplicity
 _atom_site_fract_x
 _atom_site_fract_y
 _atom_site_fract_z
 _atom_site_occupancy
  Li  Li0  1  0.74553000  0.53507000  0.38691000  1.0
  Li  Li1  1  0.25446000  0.46493000  0.61309000  1.0
  H  H2  1  0.84956000  0.93898000  0.32943000  1.0
  H  H3  1  0.15043000  0.06102000  0.67058000  1.0
  H  H4  1  0.32653000  0.33656000  0.95819000  1.0
  H  H5  1  0.67347000  0.66344000  0.04181000  1.0
  C  C6  1  0.99082000  0.17973000  0.22838000  1.0
  C  C7  1  0.00918000  0.82026000  0.77162000  1.0
  C  C8  1  0.24913000  0.07413000  0.11780000  1.0
  C  C9  1  0.75088000  0.92587000  0.88220000  1.0
  C  C10  1  0.40386000  0.18738000  0.97489000  1.0
  C  C11  1  0.59614000  0.81261000  0.02511000  1.0
  C  C12  1  0.64992000  0.11965000  0.85526000  1.0
  C  C13  1  0.35008000  0.88035000  0.14474000  1.0
  C  C14  1  0.77973000  0.26506000  0.70768000  1.0
  C  C15  1  0.22026000  0.73494000  0.29232000  1.0
  O  O16  1  0.96469000  0.35521000  0.21753000  1.0
  O  O17  1  0.03532000  0.64480000  0.78247000  1.0
  O  O18  1  0.79430000  0.08661000  0.33135000  1.0
  O  O19  1  0.20571000  0.91339000  0.66865000  1.0
  O  O20  1  0.62636000  0.39670000  0.64172000  1.0
  O  O21  1  0.37363000  0.60330000  0.35828000  1.0
  O  O22  1  0.04109000  0.25316000  0.65833000  1.0
  O  O23  1  0.95891000  0.74684000  0.34166000  1.0
