# generated using pymatgen
data_UH2C(OF)3
_symmetry_space_group_name_H-M   'P 1'
_cell_length_a   5.99593000
_cell_length_b   8.61323000
_cell_length_c   9.22866000
_cell_angle_alpha   95.63710000
_cell_angle_beta   108.94800000
_cell_angle_gamma   90.00260000
_symmetry_Int_Tables_number   1
_chemical_formula_structural   UH2C(OF)3
_chemical_formula_sum   'U4 H8 C4 O12 F12'
_cell_volume   448.34391798
_cell_formula_units_Z   4
loop_
 _symmetry_equiv_pos_site_id
 _symmetry_equiv_pos_as_xyz
  1  'x, y, z'
loop_
 _atom_site_type_symbol
 _atom_site_label
 _atom_site_symmetry_multiplicity
 _atom_site_fract_x
 _atom_site_fract_y
 _atom_site_fract_z
 _atom_site_occupancy
  U  U0  1  0.29136000  0.63157000  0.34406000  1.0
  U  U1  1  0.94722000  0.86840000  0.65593000  1.0
  U  U2  1  0.70865000  0.36843000  0.65595000  1.0
  U  U3  1  0.05277000  0.13159000  0.34407000  1.0
  H  H4  1  0.64408000  0.69326000  0.17117000  1.0
  H  H5  1  0.47273000  0.80666000  0.82886000  1.0
  H  H6  1  0.35595000  0.30673000  0.82882000  1.0
  H  H7  1  0.52726000  0.19334000  0.17114000  1.0
  H  H8  1  0.61715000  0.84801000  0.26987000  1.0
  H  H9  1  0.34710000  0.65194000  0.73012000  1.0
  H  H10  1  0.38287000  0.15200000  0.73013000  1.0
  H  H11  1  0.65289000  0.34805000  0.26988000  1.0
  C  C12  1  0.11155000  0.46056000  0.99266000  1.0
  C  C13  1  0.11884000  0.03945000  0.00727000  1.0
  C  C14  1  0.88846000  0.53944000  0.00733000  1.0
  C  C15  1  0.88114000  0.96055000  0.99274000  1.0
  O  O16  1  0.29926000  0.48618000  0.10426000  1.0
  O  O17  1  0.19484000  0.01380000  0.89560000  1.0
  O  O18  1  0.70075000  0.51381000  0.89574000  1.0
  O  O19  1  0.80515000  0.98619000  0.10440000  1.0
  O  O20  1  0.08765000  0.37431000  0.86767000  1.0
  O  O21  1  0.21996000  0.12575000  0.13221000  1.0
  O  O22  1  0.91237000  0.62569000  0.13233000  1.0
  O  O23  1  0.78002000  0.87424000  0.86778000  1.0
  O  O24  1  0.53319000  0.74930000  0.21578000  1.0
  O  O25  1  0.31728000  0.75063000  0.78423000  1.0
  O  O26  1  0.46678000  0.25069000  0.78421000  1.0
  O  O27  1  0.68273000  0.24937000  0.21577000  1.0
  F  F28  1  0.02801000  0.70933000  0.46558000  1.0
  F  F29  1  0.56240000  0.79055000  0.53454000  1.0
  F  F30  1  0.97200000  0.29067000  0.53442000  1.0
  F  F31  1  0.43760000  0.20946000  0.46546000  1.0
  F  F32  1  0.61270000  0.48143000  0.40436000  1.0
  F  F33  1  0.20825000  0.01865000  0.59560000  1.0
  F  F34  1  0.38731000  0.51857000  0.59564000  1.0
  F  F35  1  0.79175000  0.98136000  0.40440000  1.0
  F  F36  1  0.10802000  0.39211000  0.30976000  1.0
  F  F37  1  0.79818000  0.10791000  0.69020000  1.0
  F  F38  1  0.89198000  0.60789000  0.69024000  1.0
  F  F39  1  0.20182000  0.89210000  0.30980000  1.0
