# generated using pymatgen
data_Cu3H22C12S2(N8O3)4
_symmetry_space_group_name_H-M   'P 1'
_cell_length_a   6.67111000
_cell_length_b   10.82240000
_cell_length_c   12.15550000
_cell_angle_alpha   99.91490000
_cell_angle_beta   104.83800000
_cell_angle_gamma   90.11860000
_symmetry_Int_Tables_number   1
_chemical_formula_structural   Cu3H22C12S2(N8O3)4
_chemical_formula_sum   'Cu3 H22 C12 S2 N32 O12'
_cell_volume   834.67839976
_cell_formula_units_Z   1
loop_
 _symmetry_equiv_pos_site_id
 _symmetry_equiv_pos_as_xyz
  1  'x, y, z'
loop_
 _atom_site_type_symbol
 _atom_site_label
 _atom_site_symmetry_multiplicity
 _atom_site_fract_x
 _atom_site_fract_y
 _atom_site_fract_z
 _atom_site_occupancy
  Cu  Cu0  1  0.00000000  0.00000000  0.00000000  1.0
  Cu  Cu1  1  0.50000000  0.50000000  0.00000000  1.0
  Cu  Cu2  1  0.50000000  0.50000000  0.50000000  1.0
  H  H3  1  0.98095000  0.23605000  0.25233000  1.0
  H  H4  1  0.01905000  0.76395000  0.74767000  1.0
  H  H5  1  0.57670000  0.13546000  0.35962000  1.0
  H  H6  1  0.42331000  0.86454000  0.64038000  1.0
  H  H7  1  0.95749000  0.83293000  0.36335000  1.0
  H  H8  1  0.04251000  0.16707000  0.63665000  1.0
  H  H9  1  0.83216000  0.44266000  0.35390000  1.0
  H  H10  1  0.16784000  0.55734000  0.64610000  1.0
  H  H11  1  0.87046000  0.55964000  0.27735000  1.0
  H  H12  1  0.12954000  0.44036000  0.72265000  1.0
  H  H13  1  0.34251000  0.91922000  0.34515000  1.0
  H  H14  1  0.65749000  0.08078000  0.65485000  1.0
  H  H15  1  0.33230000  0.83590000  0.20456000  1.0
  H  H16  1  0.66769000  0.16410000  0.79543000  1.0
  H  H17  1  0.52891000  0.27590000  0.49959000  1.0
  H  H18  1  0.47109000  0.72410000  0.50042000  1.0
  H  H19  1  0.20529000  0.30036000  0.99118000  1.0
  H  H20  1  0.79471000  0.69964000  0.00882000  1.0
  H  H21  1  0.04005000  0.38136000  0.91977000  1.0
  H  H22  1  0.95995000  0.61864000  0.08023000  1.0
  H  H23  1  0.76871000  0.31480000  0.50947000  1.0
  H  H24  1  0.23130000  0.68520000  0.49053000  1.0
  C  C25  1  0.55097000  0.50890000  0.25546000  1.0
  C  C26  1  0.44903000  0.49110000  0.74454000  1.0
  C  C27  1  0.77194000  0.47581000  0.27212000  1.0
  C  C28  1  0.22806000  0.52419000  0.72788000  1.0
  C  C29  1  0.79268000  0.37959000  0.17284000  1.0
  C  C30  1  0.20731000  0.62040000  0.82716000  1.0
  C  C31  1  0.04306000  0.90817000  0.22312000  1.0
  C  C32  1  0.95694000  0.09182000  0.77688000  1.0
  C  C33  1  0.27444000  0.91793000  0.25279000  1.0
  C  C34  1  0.72556000  0.08207000  0.74721000  1.0
  C  C35  1  0.34097000  0.03325000  0.21736000  1.0
  C  C36  1  0.65904000  0.96675000  0.78264000  1.0
  S  S37  1  0.14424000  0.24324000  0.46435000  1.0
  S  S38  1  0.85576000  0.75676000  0.53565000  1.0
  N  N39  1  0.42976000  0.53056000  0.15475000  1.0
  N  N40  1  0.57024000  0.46944000  0.84525000  1.0
  N  N41  1  0.24044000  0.55661000  0.17225000  1.0
  N  N42  1  0.75956000  0.44340000  0.82775000  1.0
  N  N43  1  0.24656000  0.55139000  0.27950000  1.0
  N  N44  1  0.75344000  0.44861000  0.72050000  1.0
  N  N45  1  0.43933000  0.52045000  0.33370000  1.0
  N  N46  1  0.56067000  0.47955000  0.66630000  1.0
  N  N47  1  0.69384000  0.37675000  0.06153000  1.0
  N  N48  1  0.30616000  0.62325000  0.93847000  1.0
  N  N49  1  0.74332000  0.27130000  0.99893000  1.0
  N  N50  1  0.25668000  0.72870000  0.00107000  1.0
  N  N51  1  0.86944000  0.21061000  0.06842000  1.0
  N  N52  1  0.13056000  0.78939000  0.93158000  1.0
  N  N53  1  0.90380000  0.27727000  0.17675000  1.0
  N  N54  1  0.09620000  0.72273000  0.82325000  1.0
  N  N55  1  0.25797000  0.06911000  0.11656000  1.0
  N  N56  1  0.74203000  0.93089000  0.88344000  1.0
  N  N57  1  0.34928000  0.18142000  0.11771000  1.0
  N  N58  1  0.65072000  0.81858000  0.88229000  1.0
  N  N59  1  0.48720000  0.21489000  0.21507000  1.0
  N  N60  1  0.51280000  0.78511000  0.78493000  1.0
  N  N61  1  0.48431000  0.12341000  0.27717000  1.0
  N  N62  1  0.51569000  0.87658000  0.72283000  1.0
  N  N63  1  0.91746000  0.94067000  0.12890000  1.0
  N  N64  1  0.08254000  0.05933000  0.87110000  1.0
  N  N65  1  0.71959000  0.92587000  0.13534000  1.0
  N  N66  1  0.28041000  0.07413000  0.86465000  1.0
  N  N67  1  0.72173000  0.88361000  0.22915000  1.0
  N  N68  1  0.27827000  0.11639000  0.77085000  1.0
  N  N69  1  0.92143000  0.87219000  0.28465000  1.0
  N  N70  1  0.07857000  0.12781000  0.71535000  1.0
  O  O71  1  0.34340000  0.19050000  0.51983000  1.0
  O  O72  1  0.65660000  0.80950000  0.48017000  1.0
  O  O73  1  0.99160000  0.23353000  0.53612000  1.0
  O  O74  1  0.00840000  0.76647000  0.46388000  1.0
  O  O75  1  0.05377000  0.16524000  0.34669000  1.0
  O  O76  1  0.94623000  0.83477000  0.65331000  1.0
  O  O77  1  0.17113000  0.37568000  0.45416000  1.0
  O  O78  1  0.82887000  0.62433000  0.54583000  1.0
  O  O79  1  0.62167000  0.32818000  0.46939000  1.0
  O  O80  1  0.37833000  0.67182000  0.53061000  1.0
  O  O81  1  0.18155000  0.35128000  0.93027000  1.0
  O  O82  1  0.81845000  0.64872000  0.06973000  1.0
