# generated using pymatgen
data_CdH12(CN)12
_symmetry_space_group_name_H-M   'P 1'
_cell_length_a   6.34388000
_cell_length_b   7.74567000
_cell_length_c   9.74295000
_cell_angle_alpha   104.37500000
_cell_angle_beta   96.75400000
_cell_angle_gamma   110.57600000
_symmetry_Int_Tables_number   1
_chemical_formula_structural   CdH12(CN)12
_chemical_formula_sum   'Cd1 H12 C12 N12'
_cell_volume   422.94965764
_cell_formula_units_Z   1
loop_
 _symmetry_equiv_pos_site_id
 _symmetry_equiv_pos_as_xyz
  1  'x, y, z'
loop_
 _atom_site_type_symbol
 _atom_site_label
 _atom_site_symmetry_multiplicity
 _atom_site_fract_x
 _atom_site_fract_y
 _atom_site_fract_z
 _atom_site_occupancy
  Cd  Cd0  1  0.00000000  0.00000000  0.00000000  1.0
  H  H1  1  0.45867000  0.18167000  0.50032000  1.0
  H  H2  1  0.54131000  0.81833000  0.49968000  1.0
  H  H3  1  0.35625000  0.19478000  0.32659000  1.0
  H  H4  1  0.64375000  0.80522000  0.67341000  1.0
  H  H5  1  0.65893000  0.53528000  0.39314000  1.0
  H  H6  1  0.34106000  0.46472000  0.60685000  1.0
  H  H7  1  0.74407000  0.52461000  0.56985000  1.0
  H  H8  1  0.25591000  0.47539000  0.43015000  1.0
  H  H9  1  0.02025000  0.96974000  0.36271000  1.0
  H  H10  1  0.97973000  0.03026000  0.63729000  1.0
  H  H11  1  0.64288000  0.21488000  0.14634000  1.0
  H  H12  1  0.35715000  0.78511000  0.85367000  1.0
  C  C13  1  0.50769000  0.24994000  0.41659000  1.0
  C  C14  1  0.49230000  0.75005000  0.58341000  1.0
  C  C15  1  0.59655000  0.47013000  0.47667000  1.0
  C  C16  1  0.40345000  0.52987000  0.52333000  1.0
  C  C17  1  0.90864000  0.04254000  0.33883000  1.0
  C  C18  1  0.09135000  0.95745000  0.66118000  1.0
  C  C19  1  0.72258000  0.16761000  0.22664000  1.0
  C  C20  1  0.27742000  0.83241000  0.77336000  1.0
  C  C21  1  0.73860000  0.26667000  0.85786000  1.0
  C  C22  1  0.26140000  0.73333000  0.14212000  1.0
  C  C23  1  0.66973000  0.54354000  0.86897000  1.0
  C  C24  1  0.33025000  0.45646000  0.13102000  1.0
  N  N25  1  0.67446000  0.17989000  0.35849000  1.0
  N  N26  1  0.32553000  0.82011000  0.64152000  1.0
  N  N27  1  0.79230000  0.10106000  0.43219000  1.0
  N  N28  1  0.20769000  0.89894000  0.56782000  1.0
  N  N29  1  0.87197000  0.08185000  0.21109000  1.0
  N  N30  1  0.12804000  0.91815000  0.78892000  1.0
  N  N31  1  0.66322000  0.37498000  0.80303000  1.0
  N  N32  1  0.33682000  0.62500000  0.19697000  1.0
  N  N33  1  0.79986000  0.15397000  0.89348000  1.0
  N  N34  1  0.20013000  0.84604000  0.10652000  1.0
  N  N35  1  0.66500000  0.69855000  0.91505000  1.0
  N  N36  1  0.33503000  0.30148000  0.08495000  1.0
