# generated using pymatgen
data_MnH22C38(NO)4
_symmetry_space_group_name_H-M   'P 1'
_cell_length_a   10.68470000
_cell_length_b   13.36670000
_cell_length_c   13.36680000
_cell_angle_alpha   79.47270000
_cell_angle_beta   66.43900000
_cell_angle_gamma   66.43910000
_symmetry_Int_Tables_number   1
_chemical_formula_structural   MnH22C38(NO)4
_chemical_formula_sum   'Mn2 H44 C76 N8 O8'
_cell_volume   1603.41338619
_cell_formula_units_Z   2
loop_
 _symmetry_equiv_pos_site_id
 _symmetry_equiv_pos_as_xyz
  1  'x, y, z'
loop_
 _atom_site_type_symbol
 _atom_site_label
 _atom_site_symmetry_multiplicity
 _atom_site_fract_x
 _atom_site_fract_y
 _atom_site_fract_z
 _atom_site_occupancy
  Mn  Mn0  1  0.37797000  0.12204000  0.12200000  1.0
  Mn  Mn1  1  0.87796000  0.62201000  0.62204000  1.0
  H  H2  1  0.26028000  0.12606000  0.94041000  1.0
  H  H3  1  0.67327000  0.94062000  0.12607000  1.0
  H  H4  1  0.76029000  0.44041000  0.62606000  1.0
  H  H5  1  0.17327000  0.62607000  0.44063000  1.0
  H  H6  1  0.19212000  0.26449000  0.79901000  1.0
  H  H7  1  0.74453000  0.79924000  0.26445000  1.0
  H  H8  1  0.69211000  0.29902000  0.76449000  1.0
  H  H9  1  0.24453000  0.76444000  0.29924000  1.0
  H  H10  1  0.19606000  0.45243000  0.79488000  1.0
  H  H11  1  0.55675000  0.79501000  0.45239000  1.0
  H  H12  1  0.69605000  0.29488000  0.95243000  1.0
  H  H13  1  0.05676000  0.95238000  0.29501000  1.0
  H  H14  1  0.23294000  0.58476000  0.88777000  1.0
  H  H15  1  0.29456000  0.88782000  0.58475000  1.0
  H  H16  1  0.73294000  0.38777000  0.08476000  1.0
  H  H17  1  0.79456000  0.08475000  0.38782000  1.0
  H  H18  1  0.36523000  0.54535000  0.20729000  1.0
  H  H19  1  0.88208000  0.20731000  0.54546000  1.0
  H  H20  1  0.86523000  0.70729000  0.04535000  1.0
  H  H21  1  0.38208000  0.04546000  0.70730000  1.0
  H  H22  1  0.44407000  0.38105000  0.32482000  1.0
  H  H23  1  0.84992000  0.32486000  0.38119000  1.0
  H  H24  1  0.94407000  0.82482000  0.88105000  1.0
  H  H25  1  0.34992000  0.88119000  0.82486000  1.0
  H  H26  1  0.46234000  0.20047000  0.28396000  1.0
  H  H27  1  0.05300000  0.28402000  0.20055000  1.0
  H  H28  1  0.96234000  0.78397000  0.70047000  1.0
  H  H29  1  0.55300000  0.70055000  0.78402000  1.0
  H  H30  1  0.06081000  0.72207000  0.05253000  1.0
  H  H31  1  0.16455000  0.05255000  0.72214000  1.0
  H  H32  1  0.56082000  0.55253000  0.22206000  1.0
  H  H33  1  0.66454000  0.22213000  0.55255000  1.0
  H  H34  1  0.03301000  0.91203000  0.08065000  1.0
  H  H35  1  0.97418000  0.08059000  0.91212000  1.0
  H  H36  1  0.53302000  0.58066000  0.41202000  1.0
  H  H37  1  0.47417000  0.41211000  0.58059000  1.0
  H  H38  1  0.48346000  0.79532000  0.04863000  1.0
  H  H39  1  0.67262000  0.04852000  0.79527000  1.0
  H  H40  1  0.98347000  0.54863000  0.29532000  1.0
  H  H41  1  0.17262000  0.29527000  0.54852000  1.0
  H  H42  1  0.51134000  0.60545000  0.02457000  1.0
  H  H43  1  0.85868000  0.02468000  0.60539000  1.0
  H  H44  1  0.01135000  0.52457000  0.10545000  1.0
  H  H45  1  0.35868000  0.10538000  0.52468000  1.0
  C  C46  1  0.26075000  0.20787000  0.93664000  1.0
  C  C47  1  0.59473000  0.93682000  0.20787000  1.0
  C  C48  1  0.76075000  0.43665000  0.70787000  1.0
  C  C49  1  0.09474000  0.70786000  0.43683000  1.0
  C  C50  1  0.22209000  0.28648000  0.85856000  1.0
  C  C51  1  0.63297000  0.85874000  0.28645000  1.0
  C  C52  1  0.72209000  0.35857000  0.78648000  1.0
  C  C53  1  0.13297000  0.78645000  0.35874000  1.0
  C  C54  1  0.22300000  0.39066000  0.85639000  1.0
  C  C55  1  0.53007000  0.85650000  0.39061000  1.0
  C  C56  1  0.72300000  0.35639000  0.89066000  1.0
  C  C57  1  0.03007000  0.89061000  0.35650000  1.0
  C  C58  1  0.26318000  0.51944000  0.94556000  1.0
  C  C59  1  0.27181000  0.94563000  0.51944000  1.0
  C  C60  1  0.76318000  0.44557000  0.01944000  1.0
  C  C61  1  0.77182000  0.01943000  0.44563000  1.0
  C  C62  1  0.29878000  0.53997000  0.02611000  1.0
  C  C63  1  0.13514000  0.02620000  0.53996000  1.0
  C  C64  1  0.79878000  0.52611000  0.03997000  1.0
  C  C65  1  0.63514000  0.03996000  0.52620000  1.0
  C  C66  1  0.37502000  0.46533000  0.19049000  1.0
  C  C67  1  0.96907000  0.19049000  0.46541000  1.0
  C  C68  1  0.87503000  0.69049000  0.96533000  1.0
  C  C69  1  0.46907000  0.96541000  0.69049000  1.0
  C  C70  1  0.41779000  0.37455000  0.25603000  1.0
  C  C71  1  0.95149000  0.25604000  0.37465000  1.0
  C  C72  1  0.91780000  0.75603000  0.87455000  1.0
  C  C73  1  0.45149000  0.87465000  0.75604000  1.0
  C  C74  1  0.42646000  0.27290000  0.23503000  1.0
  C  C75  1  0.06540000  0.23504000  0.27296000  1.0
  C  C76  1  0.92647000  0.73503000  0.77290000  1.0
  C  C77  1  0.56540000  0.77296000  0.73504000  1.0
  C  C78  1  0.34769000  0.34870000  0.08939000  1.0
  C  C79  1  0.21411000  0.08941000  0.34870000  1.0
  C  C80  1  0.84769000  0.58939000  0.84870000  1.0
  C  C81  1  0.71411000  0.84870000  0.58941000  1.0
  C  C82  1  0.30341000  0.33077000  0.00965000  1.0
  C  C83  1  0.35609000  0.00971000  0.33075000  1.0
  C  C84  1  0.80341000  0.50966000  0.83077000  1.0
  C  C85  1  0.85609000  0.83075000  0.50971000  1.0
  C  C86  1  0.26293000  0.41503000  0.93493000  1.0
  C  C87  1  0.38713000  0.93501000  0.41501000  1.0
  C  C88  1  0.76293000  0.43494000  0.91503000  1.0
  C  C89  1  0.88713000  0.91500000  0.43501000  1.0
  C  C90  1  0.34244000  0.45338000  0.10198000  1.0
  C  C91  1  0.10211000  0.10199000  0.45342000  1.0
  C  C92  1  0.84245000  0.60198000  0.95338000  1.0
  C  C93  1  0.60211000  0.95342000  0.60199000  1.0
  C  C94  1  0.28702000  0.65145000  0.03778000  1.0
  C  C95  1  0.02373000  0.03781000  0.65151000  1.0
  C  C96  1  0.78703000  0.53778000  0.15145000  1.0
  C  C97  1  0.52372000  0.15151000  0.53781000  1.0
  C  C98  1  0.15334000  0.73871000  0.05124000  1.0
  C  C99  1  0.05669000  0.05123000  0.73880000  1.0
  C  C100  1  0.65335000  0.55124000  0.23870000  1.0
  C  C101  1  0.55669000  0.23880000  0.55123000  1.0
  C  C102  1  0.13741000  0.84394000  0.06669000  1.0
  C  C103  1  0.95192000  0.06665000  0.84398000  1.0
  C  C104  1  0.63742000  0.56669000  0.34393000  1.0
  C  C105  1  0.45192000  0.34398000  0.56665000  1.0
  C  C106  1  0.25612000  0.86394000  0.06711000  1.0
  C  C107  1  0.81285000  0.06695000  0.86392000  1.0
  C  C108  1  0.75613000  0.56711000  0.36393000  1.0
  C  C109  1  0.31285000  0.36392000  0.56695000  1.0
  C  C110  1  0.39138000  0.77783000  0.05023000  1.0
  C  C111  1  0.78059000  0.05010000  0.77783000  1.0
  C  C112  1  0.89139000  0.55023000  0.27782000  1.0
  C  C113  1  0.28059000  0.27782000  0.55010000  1.0
  C  C114  1  0.40637000  0.67234000  0.03683000  1.0
  C  C115  1  0.88453000  0.03686000  0.67229000  1.0
  C  C116  1  0.90638000  0.53683000  0.17234000  1.0
  C  C117  1  0.38453000  0.17229000  0.53686000  1.0
  C  C118  1  0.23557000  0.97667000  0.09059000  1.0
  C  C119  1  0.69718000  0.09048000  0.97671000  1.0
  C  C120  1  0.73558000  0.59059000  0.47666000  1.0
  C  C121  1  0.19717000  0.47670000  0.59048000  1.0
  N  N122  1  0.30163000  0.22833000  0.01156000  1.0
  N  N123  1  0.45843000  0.01166000  0.22830000  1.0
  N  N124  1  0.80163000  0.51157000  0.72833000  1.0
  N  N125  1  0.95843000  0.72830000  0.51166000  1.0
  N  N126  1  0.39026000  0.25922000  0.15430000  1.0
  N  N127  1  0.19604000  0.15433000  0.25926000  1.0
  N  N128  1  0.89026000  0.65431000  0.75922000  1.0
  N  N129  1  0.69605000  0.75926000  0.65434000  1.0
  O  O130  1  0.10960000  0.04703000  0.12651000  1.0
  O  O131  1  0.71688000  0.12644000  0.04700000  1.0
  O  O132  1  0.60961000  0.62652000  0.54702000  1.0
  O  O133  1  0.21688000  0.54700000  0.62645000  1.0
  O  O134  1  0.35842000  0.98792000  0.07049000  1.0
  O  O135  1  0.58312000  0.07043000  0.98790000  1.0
  O  O136  1  0.85843000  0.57048000  0.48791000  1.0
  O  O137  1  0.08313000  0.48789000  0.57043000  1.0
