# generated using pymatgen
data_CdH8C11N3O4
_symmetry_space_group_name_H-M   'P 1'
_cell_length_a   7.58968000
_cell_length_b   8.55017000
_cell_length_c   9.86138788
_cell_angle_alpha   91.56509266
_cell_angle_beta   112.20419371
_cell_angle_gamma   97.16350000
_symmetry_Int_Tables_number   1
_chemical_formula_structural   CdH8C11N3O4
_chemical_formula_sum   'Cd2 H16 C22 N6 O8'
_cell_volume   585.92192261
_cell_formula_units_Z   2
loop_
 _symmetry_equiv_pos_site_id
 _symmetry_equiv_pos_as_xyz
  1  'x, y, z'
loop_
 _atom_site_type_symbol
 _atom_site_label
 _atom_site_symmetry_multiplicity
 _atom_site_fract_x
 _atom_site_fract_y
 _atom_site_fract_z
 _atom_site_occupancy
  Cd  Cd0  1  0.72471000  0.58543000  0.96513000  1.0
  Cd  Cd1  1  0.27527000  0.41457000  0.03486000  1.0
  H  H2  1  0.57312000  0.94309000  0.32875000  1.0
  H  H3  1  0.42688000  0.05691000  0.67125000  1.0
  H  H4  1  0.39519000  0.77860000  0.31181000  1.0
  H  H5  1  0.60481000  0.22140000  0.68819000  1.0
  H  H6  1  0.30889000  0.21531000  0.45913000  1.0
  H  H7  1  0.69112000  0.78469000  0.54088000  1.0
  H  H8  1  0.52314000  0.21221000  0.42469000  1.0
  H  H9  1  0.47687000  0.78779000  0.57532000  1.0
  H  H10  1  0.76335000  0.15136000  0.20951000  1.0
  H  H11  1  0.23665000  0.84865000  0.79049000  1.0
  H  H12  1  0.61121000  0.90212000  0.03767000  1.0
  H  H13  1  0.38879000  0.09788000  0.96233000  1.0
  H  H14  1  0.14819000  0.76247000  0.14594000  1.0
  H  H15  1  0.85180000  0.23753000  0.85405000  1.0
  H  H16  1  0.32461000  0.52010000  0.49442000  1.0
  H  H17  1  0.67539000  0.47990000  0.50558000  1.0
  C  C18  1  0.47027000  0.89078000  0.37545000  1.0
  C  C19  1  0.52974000  0.10922000  0.62456000  1.0
  C  C20  1  0.42244000  0.14509000  0.46571000  1.0
  C  C21  1  0.57756000  0.85491000  0.53429000  1.0
  C  C22  1  0.14769000  0.97913000  0.27489000  1.0
  C  C23  1  0.85231000  0.02087000  0.72511000  1.0
  C  C24  1  0.84984000  0.06188000  0.20014000  1.0
  C  C25  1  0.15017000  0.93813000  0.79987000  1.0
  C  C26  1  0.76478000  0.92779000  0.10332000  1.0
  C  C27  1  0.23523000  0.07221000  0.89669000  1.0
  C  C28  1  0.06479000  0.84748000  0.16767000  1.0
  C  C29  1  0.93522000  0.15252000  0.83233000  1.0
  C  C30  1  0.16317000  0.53023000  0.63281000  1.0
  C  C31  1  0.83683000  0.46976000  0.36719000  1.0
  C  C32  1  0.97758000  0.51808000  0.63458000  1.0
  C  C33  1  0.02242000  0.48191000  0.36542000  1.0
  C  C34  1  0.18228000  0.51225000  0.49825000  1.0
  C  C35  1  0.81772000  0.48774000  0.50175000  1.0
  C  C36  1  0.34732000  0.55854000  0.76674000  1.0
  C  C37  1  0.65268000  0.44146000  0.23326000  1.0
  C  C38  1  0.94404000  0.54089000  0.77349000  1.0
  C  C39  1  0.05596000  0.45910000  0.22651000  1.0
  N  N40  1  0.33505000  0.00005000  0.36956000  1.0
  N  N41  1  0.66495000  0.99995000  0.63044000  1.0
  N  N42  1  0.03708000  0.08808000  0.28475000  1.0
  N  N43  1  0.96292000  0.91191000  0.71525000  1.0
  N  N44  1  0.87647000  0.82340000  0.08760000  1.0
  N  N45  1  0.12352000  0.17660000  0.91239000  1.0
  O  O46  1  0.44957000  0.69287000  0.79305000  1.0
  O  O47  1  0.55043000  0.30712000  0.20695000  1.0
  O  O48  1  0.40321000  0.43985000  0.84127000  1.0
  O  O49  1  0.59679000  0.56015000  0.15873000  1.0
  O  O50  1  0.76976000  0.51207000  0.76250000  1.0
  O  O51  1  0.23024000  0.48793000  0.23750000  1.0
  O  O52  1  0.08652000  0.58813000  0.89326000  1.0
  O  O53  1  0.91348000  0.41187000  0.10674000  1.0
