# generated using pymatgen
data_AlH12(C4O3)6
_symmetry_space_group_name_H-M   'P 1'
_cell_length_a   4.03391000
_cell_length_b   28.95050000
_cell_length_c   28.95263790
_cell_angle_alpha   59.99732862
_cell_angle_beta   89.99960003
_cell_angle_gamma   89.99920000
_symmetry_Int_Tables_number   1
_chemical_formula_structural   AlH12(C4O3)6
_chemical_formula_sum   'Al2 H24 C48 O36'
_cell_volume   2928.12324689
_cell_formula_units_Z   2
loop_
 _symmetry_equiv_pos_site_id
 _symmetry_equiv_pos_as_xyz
  1  'x, y, z'
loop_
 _atom_site_type_symbol
 _atom_site_label
 _atom_site_symmetry_multiplicity
 _atom_site_fract_x
 _atom_site_fract_y
 _atom_site_fract_z
 _atom_site_occupancy
  Al  Al0  1  0.00034000  0.99998000  0.50001000  1.0
  Al  Al1  1  0.99885000  0.66668000  0.16666000  1.0
  H  H2  1  0.13586000  0.56014000  0.28002000  1.0
  H  H3  1  0.86258000  0.56021000  0.15975000  1.0
  H  H4  1  0.80448000  0.37720000  0.24724000  1.0
  H  H5  1  0.19584000  0.37715000  0.37559000  1.0
  H  H6  1  0.80415000  0.28948000  0.41944000  1.0
  H  H7  1  0.19594000  0.28948000  0.29107000  1.0
  H  H8  1  0.13691000  0.10648000  0.38663000  1.0
  H  H9  1  0.86354000  0.10649000  0.50687000  1.0
  H  H10  1  0.13583000  0.78005000  0.15983000  1.0
  H  H11  1  0.86257000  0.65977000  0.28003000  1.0
  H  H12  1  0.80446000  0.74725000  0.37554000  1.0
  H  H13  1  0.19586000  0.87562000  0.24724000  1.0
  H  H14  1  0.80410000  0.91945000  0.29107000  1.0
  H  H15  1  0.19594000  0.79106000  0.41945000  1.0
  H  H16  1  0.13691000  0.88660000  0.50689000  1.0
  H  H17  1  0.86353000  0.00686000  0.38664000  1.0
  H  H18  1  0.13586000  0.65985000  0.06013000  1.0
  H  H19  1  0.86255000  0.78006000  0.06019000  1.0
  H  H20  1  0.80446000  0.87558000  0.87719000  1.0
  H  H21  1  0.19591000  0.74725000  0.87716000  1.0
  H  H22  1  0.80415000  0.79107000  0.78950000  1.0
  H  H23  1  0.19596000  0.91946000  0.78947000  1.0
  H  H24  1  0.13693000  0.00688000  0.60649000  1.0
  H  H25  1  0.86356000  0.88661000  0.60652000  1.0
  C  C26  1  0.50031000  0.95832000  0.58336000  1.0
  C  C27  1  0.50031000  0.08334000  0.45831000  1.0
  C  C28  1  0.50031000  0.95829000  0.45834000  1.0
  C  C29  1  0.49896000  0.58332000  0.20830000  1.0
  C  C30  1  0.49895000  0.70833000  0.20837000  1.0
  C  C31  1  0.49894000  0.70841000  0.08330000  1.0
  C  C32  1  0.49931000  0.52562000  0.23716000  1.0
  C  C33  1  0.31165000  0.49733000  0.28537000  1.0
  C  C34  1  0.32053000  0.44164000  0.31363000  1.0
  C  C35  1  0.49994000  0.41414000  0.29292000  1.0
  C  C36  1  0.67914000  0.44167000  0.24470000  1.0
  C  C37  1  0.68739000  0.49736000  0.21725000  1.0
  C  C38  1  0.50008000  0.35786000  0.32106000  1.0
  C  C39  1  0.50006000  0.30880000  0.34559000  1.0
  C  C40  1  0.50008000  0.25252000  0.37373000  1.0
  C  C41  1  0.67936000  0.22501000  0.42195000  1.0
  C  C42  1  0.68802000  0.16932000  0.44938000  1.0
  C  C43  1  0.50024000  0.14104000  0.42946000  1.0
  C  C44  1  0.31234000  0.16931000  0.38128000  1.0
  C  C45  1  0.32084000  0.22500000  0.35303000  1.0
  C  C46  1  0.49930000  0.73718000  0.23721000  1.0
  C  C47  1  0.31163000  0.78540000  0.21729000  1.0
  C  C48  1  0.32053000  0.81367000  0.24471000  1.0
  C  C49  1  0.49994000  0.79294000  0.29292000  1.0
  C  C50  1  0.67911000  0.74471000  0.31362000  1.0
  C  C51  1  0.68736000  0.71726000  0.28538000  1.0
  C  C52  1  0.50009000  0.82108000  0.32106000  1.0
  C  C53  1  0.50008000  0.84560000  0.34560000  1.0
  C  C54  1  0.50008000  0.87373000  0.37374000  1.0
  C  C55  1  0.67934000  0.92195000  0.35303000  1.0
  C  C56  1  0.68799000  0.94938000  0.38129000  1.0
  C  C57  1  0.50021000  0.92945000  0.42949000  1.0
  C  C58  1  0.31232000  0.88127000  0.44940000  1.0
  C  C59  1  0.32085000  0.85301000  0.42197000  1.0
  C  C60  1  0.49928000  0.73724000  0.02561000  1.0
  C  C61  1  0.31163000  0.71732000  0.99732000  1.0
  C  C62  1  0.32054000  0.74474000  0.94163000  1.0
  C  C63  1  0.49994000  0.79295000  0.91413000  1.0
  C  C64  1  0.67911000  0.81365000  0.94166000  1.0
  C  C65  1  0.68735000  0.78541000  0.99735000  1.0
  C  C66  1  0.50011000  0.82108000  0.85786000  1.0
  C  C67  1  0.50010000  0.84560000  0.80881000  1.0
  C  C68  1  0.50010000  0.87374000  0.75253000  1.0
  C  C69  1  0.67937000  0.85302000  0.72503000  1.0
  C  C70  1  0.68803000  0.88127000  0.66934000  1.0
  C  C71  1  0.50025000  0.92947000  0.64106000  1.0
  C  C72  1  0.31236000  0.94940000  0.66932000  1.0
  C  C73  1  0.32087000  0.92197000  0.72501000  1.0
  O  O74  1  0.73150000  0.99326000  0.44886000  1.0
  O  O75  1  0.73147000  0.94883000  0.55788000  1.0
  O  O76  1  0.73147000  0.05785000  0.49329000  1.0
  O  O77  1  0.26922000  0.94880000  0.49333000  1.0
  O  O78  1  0.26921000  0.05784000  0.44883000  1.0
  O  O79  1  0.26919000  0.99330000  0.55786000  1.0
  O  O80  1  0.72995000  0.71788000  0.10882000  1.0
  O  O81  1  0.72995000  0.60885000  0.17330000  1.0
  O  O82  1  0.72995000  0.67332000  0.21785000  1.0
  O  O83  1  0.26766000  0.67344000  0.10877000  1.0
  O  O84  1  0.26766000  0.71783000  0.17341000  1.0
  O  O85  1  0.26768000  0.60879000  0.21779000  1.0
  O  O86  1  0.13352000  0.52163000  0.30667000  1.0
  O  O87  1  0.86538000  0.52170000  0.17163000  1.0
  O  O88  1  0.84920000  0.41527000  0.22426000  1.0
  O  O89  1  0.15076000  0.41522000  0.36049000  1.0
  O  O90  1  0.84918000  0.25142000  0.44240000  1.0
  O  O91  1  0.15094000  0.25141000  0.30617000  1.0
  O  O92  1  0.13433000  0.14499000  0.35998000  1.0
  O  O93  1  0.86605000  0.14500000  0.49500000  1.0
  O  O94  1  0.13350000  0.80671000  0.17168000  1.0
  O  O95  1  0.86533000  0.67164000  0.30666000  1.0
  O  O96  1  0.84914000  0.72426000  0.36046000  1.0
  O  O97  1  0.15077000  0.86052000  0.22427000  1.0
  O  O98  1  0.84914000  0.94241000  0.30617000  1.0
  O  O99  1  0.15096000  0.80616000  0.44242000  1.0
  O  O100  1  0.13431000  0.85997000  0.49502000  1.0
  O  O101  1  0.86601000  0.99501000  0.35999000  1.0
  O  O102  1  0.13351000  0.67171000  0.02163000  1.0
  O  O103  1  0.86532000  0.80670000  0.02168000  1.0
  O  O104  1  0.84917000  0.86050000  0.91526000  1.0
  O  O105  1  0.15081000  0.72429000  0.91522000  1.0
  O  O106  1  0.84918000  0.80616000  0.75144000  1.0
  O  O107  1  0.15098000  0.94243000  0.75140000  1.0
  O  O108  1  0.13436000  0.99502000  0.64499000  1.0
  O  O109  1  0.86606000  0.85997000  0.64503000  1.0
