# generated using pymatgen
data_UH15C17NO8
_symmetry_space_group_name_H-M   'P 1'
_cell_length_a   8.44335000
_cell_length_b   10.20840000
_cell_length_c   10.78240000
_cell_angle_alpha   80.66210000
_cell_angle_beta   86.62910000
_cell_angle_gamma   85.57610000
_symmetry_Int_Tables_number   1
_chemical_formula_structural   UH15C17NO8
_chemical_formula_sum   'U2 H30 C34 N2 O16'
_cell_volume   913.30839706
_cell_formula_units_Z   2
loop_
 _symmetry_equiv_pos_site_id
 _symmetry_equiv_pos_as_xyz
  1  'x, y, z'
loop_
 _atom_site_type_symbol
 _atom_site_label
 _atom_site_symmetry_multiplicity
 _atom_site_fract_x
 _atom_site_fract_y
 _atom_site_fract_z
 _atom_site_occupancy
  U  U0  1  0.08125000  0.75615000  0.09938000  1.0
  U  U1  1  0.91875000  0.24384000  0.90062000  1.0
  H  H2  1  0.21753000  0.44700000  0.99514000  1.0
  H  H3  1  0.78248000  0.55300000  0.00487000  1.0
  H  H4  1  0.46433000  0.60030000  0.68661000  1.0
  H  H5  1  0.53567000  0.39971000  0.31339000  1.0
  H  H6  1  0.62360000  0.54202000  0.78872000  1.0
  H  H7  1  0.37641000  0.45798000  0.21128000  1.0
  H  H8  1  0.48686000  0.67763000  0.82119000  1.0
  H  H9  1  0.51315000  0.32238000  0.17881000  1.0
  H  H10  1  0.32752000  0.29395000  0.89871000  1.0
  H  H11  1  0.67248000  0.70605000  0.10129000  1.0
  H  H12  1  0.53208000  0.31050000  0.84653000  1.0
  H  H13  1  0.46792000  0.68950000  0.15346000  1.0
  H  H14  1  0.37750000  0.35163000  0.73777000  1.0
  H  H15  1  0.62250000  0.64838000  0.26223000  1.0
  H  H16  1  0.49020000  0.89042000  0.91461000  1.0
  H  H17  1  0.50979000  0.10959000  0.08538000  1.0
  H  H18  1  0.74288000  0.92309000  0.78307000  1.0
  H  H19  1  0.25712000  0.07692000  0.21693000  1.0
  H  H20  1  0.95148000  0.06620000  0.36556000  1.0
  H  H21  1  0.04852000  0.93379000  0.63444000  1.0
  H  H22  1  0.04803000  0.26926000  0.22830000  1.0
  H  H23  1  0.95197000  0.73074000  0.77170000  1.0
  H  H24  1  0.77663000  0.51714000  0.46190000  1.0
  H  H25  1  0.22338000  0.48285000  0.53811000  1.0
  H  H26  1  0.67597000  0.31534000  0.59678000  1.0
  H  H27  1  0.32404000  0.68465000  0.40322000  1.0
  H  H28  1  0.48210000  0.18020000  0.49624000  1.0
  H  H29  1  0.51790000  0.81980000  0.50376000  1.0
  H  H30  1  0.23175000  0.15122000  0.62968000  1.0
  H  H31  1  0.76824000  0.84878000  0.37031000  1.0
  C  C32  1  0.28976000  0.52626000  0.94539000  1.0
  C  C33  1  0.71024000  0.47374000  0.05462000  1.0
  C  C34  1  0.49952000  0.58314000  0.78493000  1.0
  C  C35  1  0.50048000  0.41686000  0.21507000  1.0
  C  C36  1  0.40988000  0.35302000  0.83464000  1.0
  C  C37  1  0.59012000  0.64698000  0.16536000  1.0
  C  C38  1  0.19797000  0.00398000  0.86070000  1.0
  C  C39  1  0.80202000  0.99602000  0.13929000  1.0
  C  C40  1  0.34545000  0.01878000  0.78024000  1.0
  C  C41  1  0.65454000  0.98123000  0.21975000  1.0
  C  C42  1  0.48961000  0.95290000  0.82248000  1.0
  C  C43  1  0.51038000  0.04710000  0.17752000  1.0
  C  C44  1  0.62973000  0.97012000  0.74954000  1.0
  C  C45  1  0.37027000  0.02989000  0.25046000  1.0
  C  C46  1  0.62623000  0.05419000  0.63319000  1.0
  C  C47  1  0.37376000  0.94581000  0.36681000  1.0
  C  C48  1  0.80686000  0.17993000  0.48737000  1.0
  C  C49  1  0.19314000  0.82007000  0.51263000  1.0
  C  C50  1  0.91281000  0.16546000  0.38487000  1.0
  C  C51  1  0.08719000  0.83453000  0.61513000  1.0
  C  C52  1  0.96837000  0.27828000  0.31021000  1.0
  C  C53  1  0.03163000  0.72172000  0.68979000  1.0
  C  C54  1  0.91930000  0.40547000  0.33763000  1.0
  C  C55  1  0.08070000  0.59452000  0.66237000  1.0
  C  C56  1  0.81204000  0.41809000  0.44017000  1.0
  C  C57  1  0.18797000  0.58190000  0.55983000  1.0
  C  C58  1  0.75452000  0.30623000  0.51475000  1.0
  C  C59  1  0.24548000  0.69377000  0.48525000  1.0
  C  C60  1  0.97901000  0.52515000  0.25899000  1.0
  C  C61  1  0.02100000  0.47485000  0.74101000  1.0
  C  C62  1  0.48326000  0.11829000  0.58850000  1.0
  C  C63  1  0.51673000  0.88172000  0.41149000  1.0
  C  C64  1  0.34372000  0.10095000  0.66237000  1.0
  C  C65  1  0.65628000  0.89905000  0.33763000  1.0
  N  N66  1  0.39646000  0.48948000  0.86009000  1.0
  N  N67  1  0.60355000  0.51052000  0.13992000  1.0
  O  O68  1  0.27069000  0.64350000  0.97059000  1.0
  O  O69  1  0.72932000  0.35649000  0.02942000  1.0
  O  O70  1  0.20252000  0.92413000  0.96461000  1.0
  O  O71  1  0.79747000  0.07587000  0.03539000  1.0
  O  O72  1  0.08447000  0.51484000  0.16929000  1.0
  O  O73  1  0.91553000  0.48515000  0.83071000  1.0
  O  O74  1  0.23520000  0.76494000  0.20712000  1.0
  O  O75  1  0.76479000  0.23507000  0.79288000  1.0
  O  O76  1  0.92526000  0.64219000  0.27696000  1.0
  O  O77  1  0.07474000  0.35781000  0.72304000  1.0
  O  O78  1  0.07020000  0.07261000  0.82455000  1.0
  O  O79  1  0.92979000  0.92739000  0.17545000  1.0
  O  O80  1  0.76784000  0.06337000  0.56328000  1.0
  O  O81  1  0.23216000  0.93663000  0.43672000  1.0
  O  O82  1  0.92437000  0.74898000  0.99237000  1.0
  O  O83  1  0.07562000  0.25101000  0.00763000  1.0
