# generated using pymatgen
data_CdH20C17S(N2O3)2
_symmetry_space_group_name_H-M   'P 1'
_cell_length_a   8.62749000
_cell_length_b   8.62748000
_cell_length_c   14.21350000
_cell_angle_alpha   89.99990000
_cell_angle_beta   89.99990000
_cell_angle_gamma   114.30500000
_symmetry_Int_Tables_number   1
_chemical_formula_structural   CdH20C17S(N2O3)2
_chemical_formula_sum   'Cd2 H40 C34 S2 N8 O12'
_cell_volume   964.19068399
_cell_formula_units_Z   2
loop_
 _symmetry_equiv_pos_site_id
 _symmetry_equiv_pos_as_xyz
  1  'x, y, z'
loop_
 _atom_site_type_symbol
 _atom_site_label
 _atom_site_symmetry_multiplicity
 _atom_site_fract_x
 _atom_site_fract_y
 _atom_site_fract_z
 _atom_site_occupancy
  Cd  Cd0  1  0.56501000  0.56501000  0.45802000  1.0
  Cd  Cd1  1  0.43499000  0.43499000  0.95802000  1.0
  H  H2  1  0.44657000  0.27213000  0.29640000  1.0
  H  H3  1  0.55343000  0.72787000  0.79640000  1.0
  H  H4  1  0.27213000  0.44658000  0.29640000  1.0
  H  H5  1  0.72787000  0.55343000  0.79640000  1.0
  H  H6  1  0.44243000  0.44243000  0.66715000  1.0
  H  H7  1  0.55757000  0.55757000  0.16715000  1.0
  H  H8  1  0.88329000  0.37753000  0.54126000  1.0
  H  H9  1  0.11671000  0.62247000  0.04127000  1.0
  H  H10  1  0.37753000  0.88329000  0.54127000  1.0
  H  H11  1  0.62247000  0.11671000  0.04127000  1.0
  H  H12  1  0.77097000  0.16689000  0.58451000  1.0
  H  H13  1  0.22903000  0.83312000  0.08451000  1.0
  H  H14  1  0.16689000  0.77097000  0.58452000  1.0
  H  H15  1  0.83311000  0.22903000  0.08451000  1.0
  H  H16  1  0.69262000  0.32637000  0.60465000  1.0
  H  H17  1  0.30738000  0.67363000  0.10465000  1.0
  H  H18  1  0.32637000  0.69262000  0.60465000  1.0
  H  H19  1  0.67363000  0.30738000  0.10465000  1.0
  H  H20  1  0.66612000  0.97494000  0.43002000  1.0
  H  H21  1  0.33388000  0.02506000  0.93002000  1.0
  H  H22  1  0.97493000  0.66611000  0.43002000  1.0
  H  H23  1  0.02506000  0.33389000  0.93002000  1.0
  H  H24  1  0.36926000  0.99444000  0.21396000  1.0
  H  H25  1  0.63073000  0.00556000  0.71395000  1.0
  H  H26  1  0.99444000  0.36926000  0.21396000  1.0
  H  H27  1  0.00556000  0.63074000  0.71396000  1.0
  H  H28  1  0.39536000  0.83126000  0.28012000  1.0
  H  H29  1  0.60464000  0.16875000  0.78011000  1.0
  H  H30  1  0.83125000  0.39535000  0.28011000  1.0
  H  H31  1  0.16875000  0.60465000  0.78011000  1.0
  H  H32  1  0.56067000  0.96637000  0.20569000  1.0
  H  H33  1  0.43933000  0.03363000  0.70569000  1.0
  H  H34  1  0.96637000  0.56067000  0.20569000  1.0
  H  H35  1  0.03363000  0.43933000  0.70569000  1.0
  H  H36  1  0.23010000  0.23010000  0.45195000  1.0
  H  H37  1  0.76991000  0.76990000  0.95195000  1.0
  H  H38  1  0.96547000  0.96547000  0.46497000  1.0
  H  H39  1  0.03453000  0.03453000  0.96497000  1.0
  H  H40  1  0.99938000  0.99938000  0.76819000  1.0
  H  H41  1  0.00061000  0.00062000  0.26819000  1.0
  C  C42  1  0.75626000  0.27650000  0.55392000  1.0
  C  C43  1  0.24374000  0.72351000  0.05392000  1.0
  C  C44  1  0.27649000  0.75626000  0.55393000  1.0
  C  C45  1  0.72351000  0.24375000  0.05392000  1.0
  C  C46  1  0.65882000  0.22377000  0.46446000  1.0
  C  C47  1  0.34118000  0.77623000  0.96446000  1.0
  C  C48  1  0.22377000  0.65882000  0.46446000  1.0
  C  C49  1  0.77623000  0.34118000  0.96446000  1.0
  C  C50  1  0.62660000  0.07523000  0.41222000  1.0
  C  C51  1  0.37340000  0.92477000  0.91221000  1.0
  C  C52  1  0.07522000  0.62659000  0.41222000  1.0
  C  C53  1  0.92478000  0.37341000  0.91222000  1.0
  C  C54  1  0.53195000  0.08178000  0.33418000  1.0
  C  C55  1  0.46804000  0.91822000  0.83418000  1.0
  C  C56  1  0.08178000  0.53195000  0.33418000  1.0
  C  C57  1  0.91822000  0.46805000  0.83418000  1.0
  C  C58  1  0.45991000  0.96215000  0.25432000  1.0
  C  C59  1  0.54009000  0.03784000  0.75431000  1.0
  C  C60  1  0.96215000  0.45991000  0.25432000  1.0
  C  C61  1  0.03785000  0.54010000  0.75432000  1.0
  C  C62  1  0.29034000  0.29034000  0.77811000  1.0
  C  C63  1  0.70966000  0.70966000  0.27810000  1.0
  C  C64  1  0.19902000  0.19902000  0.69260000  1.0
  C  C65  1  0.80098000  0.80098000  0.19259000  1.0
  C  C66  1  0.26410000  0.26410000  0.60228000  1.0
  C  C67  1  0.73590000  0.73590000  0.10228000  1.0
  C  C68  1  0.17903000  0.17903000  0.52076000  1.0
  C  C69  1  0.82098000  0.82097000  0.02076000  1.0
  C  C70  1  0.03157000  0.03157000  0.52828000  1.0
  C  C71  1  0.96843000  0.96843000  0.02828000  1.0
  C  C72  1  0.96720000  0.96720000  0.61775000  1.0
  C  C73  1  0.03281000  0.03280000  0.11775000  1.0
  C  C74  1  0.04963000  0.04963000  0.69910000  1.0
  C  C75  1  0.95037000  0.95037000  0.19910000  1.0
  S  S76  1  0.77854000  0.77854000  0.62371000  1.0
  S  S77  1  0.22146000  0.22146000  0.12371000  1.0
  N  N78  1  0.58860000  0.31828000  0.42027000  1.0
  N  N79  1  0.41140000  0.68172000  0.92027000  1.0
  N  N80  1  0.31828000  0.58860000  0.42027000  1.0
  N  N81  1  0.68172000  0.41140000  0.92027000  1.0
  N  N82  1  0.51297000  0.22936000  0.34164000  1.0
  N  N83  1  0.48702000  0.77064000  0.84164000  1.0
  N  N84  1  0.22936000  0.51298000  0.34164000  1.0
  N  N85  1  0.77064000  0.48703000  0.84164000  1.0
  O  O86  1  0.23546000  0.23546000  0.85977000  1.0
  O  O87  1  0.76454000  0.76454000  0.35977000  1.0
  O  O88  1  0.42727000  0.42727000  0.76547000  1.0
  O  O89  1  0.57273000  0.57273000  0.26547000  1.0
  O  O90  1  0.40769000  0.40769000  0.59545000  1.0
  O  O91  1  0.59231000  0.59231000  0.09545000  1.0
  O  O92  1  0.81165000  0.64506000  0.57365000  1.0
  O  O93  1  0.18835000  0.35494000  0.07365000  1.0
  O  O94  1  0.64506000  0.81165000  0.57365000  1.0
  O  O95  1  0.35494000  0.18835000  0.07365000  1.0
  O  O96  1  0.74230000  0.74230000  0.72469000  1.0
  O  O97  1  0.25770000  0.25770000  0.22469000  1.0
