# generated using pymatgen
data_CuH9C4NO6
_symmetry_space_group_name_H-M   'P 1'
_cell_length_a   6.85948000
_cell_length_b   6.85949000
_cell_length_c   7.57611000
_cell_angle_alpha   92.92180000
_cell_angle_beta   92.92160000
_cell_angle_gamma   93.12630000
_symmetry_Int_Tables_number   1
_chemical_formula_structural   CuH9C4NO6
_chemical_formula_sum   'Cu2 H18 C8 N2 O12'
_cell_volume   354.96519260
_cell_formula_units_Z   2
loop_
 _symmetry_equiv_pos_site_id
 _symmetry_equiv_pos_as_xyz
  1  'x, y, z'
loop_
 _atom_site_type_symbol
 _atom_site_label
 _atom_site_symmetry_multiplicity
 _atom_site_fract_x
 _atom_site_fract_y
 _atom_site_fract_z
 _atom_site_occupancy
  Cu  Cu0  1  0.23299000  0.23786000  0.87400000  1.0
  Cu  Cu1  1  0.76214000  0.76701000  0.12600000  1.0
  H  H2  1  0.36262000  0.37167000  0.46294000  1.0
  H  H3  1  0.62833000  0.63739000  0.53706000  1.0
  H  H4  1  0.55835000  0.24034000  0.38554000  1.0
  H  H5  1  0.75965000  0.44165000  0.61446000  1.0
  H  H6  1  0.37796000  0.92853000  0.48543000  1.0
  H  H7  1  0.07146000  0.62204000  0.51457000  1.0
  H  H8  1  0.08855000  0.16886000  0.55721000  1.0
  H  H9  1  0.83113000  0.91145000  0.44279000  1.0
  H  H10  1  0.12058000  0.96604000  0.66839000  1.0
  H  H11  1  0.03396000  0.87942000  0.33161000  1.0
  H  H12  1  0.90456000  0.35944000  0.97964000  1.0
  H  H13  1  0.64056000  0.09544000  0.02036000  1.0
  H  H14  1  0.86236000  0.20181000  0.80720000  1.0
  H  H15  1  0.79819000  0.13764000  0.19279000  1.0
  H  H16  1  0.44104000  0.60928000  0.81371000  1.0
  H  H17  1  0.39072000  0.55896000  0.18629000  1.0
  H  H18  1  0.21029000  0.63426000  0.79543000  1.0
  H  H19  1  0.36574000  0.78971000  0.20457000  1.0
  C  C20  1  0.54242000  0.09938000  0.68954000  1.0
  C  C21  1  0.90062000  0.45758000  0.31047000  1.0
  C  C22  1  0.37269000  0.07573000  0.54994000  1.0
  C  C23  1  0.92427000  0.62732000  0.45006000  1.0
  C  C24  1  0.40224000  0.22730000  0.41138000  1.0
  C  C25  1  0.77270000  0.59776000  0.58862000  1.0
  C  C26  1  0.29733000  0.17455000  0.23228000  1.0
  C  C27  1  0.82544000  0.70267000  0.76773000  1.0
  N  N28  1  0.18585000  0.09762000  0.63536000  1.0
  N  N29  1  0.90238000  0.81415000  0.36464000  1.0
  O  O30  1  0.50161000  0.15357000  0.84878000  1.0
  O  O31  1  0.84643000  0.49839000  0.15122000  1.0
  O  O32  1  0.71361000  0.07141000  0.64748000  1.0
  O  O33  1  0.92859000  0.28639000  0.35252000  1.0
  O  O34  1  0.29663000  0.31620000  0.12556000  1.0
  O  O35  1  0.68380000  0.70338000  0.87444000  1.0
  O  O36  1  0.22637000  0.00473000  0.19128000  1.0
  O  O37  1  0.99527000  0.77363000  0.80872000  1.0
  O  O38  1  0.95695000  0.30172000  0.86903000  1.0
  O  O39  1  0.69828000  0.04305000  0.13097000  1.0
  O  O40  1  0.31461000  0.54658000  0.76532000  1.0
  O  O41  1  0.45342000  0.68539000  0.23468000  1.0
