# generated using pymatgen
data_UH14(C3O2)3
_symmetry_space_group_name_H-M   'P 1'
_cell_length_a   4.39311000
_cell_length_b   10.89120000
_cell_length_c   11.24310000
_cell_angle_alpha   85.05000000
_cell_angle_beta   89.99900000
_cell_angle_gamma   89.99870000
_symmetry_Int_Tables_number   1
_chemical_formula_structural   UH14(C3O2)3
_chemical_formula_sum   'U2 H28 C18 O12'
_cell_volume   535.93374272
_cell_formula_units_Z   2
loop_
 _symmetry_equiv_pos_site_id
 _symmetry_equiv_pos_as_xyz
  1  'x, y, z'
loop_
 _atom_site_type_symbol
 _atom_site_label
 _atom_site_symmetry_multiplicity
 _atom_site_fract_x
 _atom_site_fract_y
 _atom_site_fract_z
 _atom_site_occupancy
  U  U0  1  0.91940000  0.24999000  0.49999000  1.0
  U  U1  1  0.08060000  0.75000000  0.50001000  1.0
  H  H2  1  0.61283000  0.06848000  0.81631000  1.0
  H  H3  1  0.61283000  0.43153000  0.18369000  1.0
  H  H4  1  0.38717000  0.93152000  0.18369000  1.0
  H  H5  1  0.38717000  0.56847000  0.81631000  1.0
  H  H6  1  0.58883000  0.96526000  0.70737000  1.0
  H  H7  1  0.58882000  0.53474000  0.29263000  1.0
  H  H8  1  0.41116000  0.03474000  0.29263000  1.0
  H  H9  1  0.41119000  0.46526000  0.70736000  1.0
  H  H10  1  0.07689000  0.89049000  0.79094000  1.0
  H  H11  1  0.07688000  0.60952000  0.20907000  1.0
  H  H12  1  0.92311000  0.10951000  0.20906000  1.0
  H  H13  1  0.92312000  0.39048000  0.79094000  1.0
  H  H14  1  0.10683000  0.99322000  0.90327000  1.0
  H  H15  1  0.10682000  0.50680000  0.09673000  1.0
  H  H16  1  0.89317000  0.00679000  0.09673000  1.0
  H  H17  1  0.89318000  0.49320000  0.90327000  1.0
  H  H18  1  0.57111000  0.79023000  0.86259000  1.0
  H  H19  1  0.57109000  0.70978000  0.13741000  1.0
  H  H20  1  0.42890000  0.20978000  0.13741000  1.0
  H  H21  1  0.42890000  0.29022000  0.86259000  1.0
  H  H22  1  0.58647000  0.88854000  0.97804000  1.0
  H  H23  1  0.58647000  0.61146000  0.02197000  1.0
  H  H24  1  0.41353000  0.11146000  0.02197000  1.0
  H  H25  1  0.41352000  0.38854000  0.97803000  1.0
  H  H26  1  0.08294000  0.69984000  0.94269000  1.0
  H  H27  1  0.08294000  0.80017000  0.05731000  1.0
  H  H28  1  0.91706000  0.30016000  0.05731000  1.0
  H  H29  1  0.91706000  0.19983000  0.94268000  1.0
  C  C30  1  0.29009000  0.11512000  0.68263000  1.0
  C  C31  1  0.29008000  0.38487000  0.31737000  1.0
  C  C32  1  0.70990000  0.88488000  0.31738000  1.0
  C  C33  1  0.70992000  0.61513000  0.68263000  1.0
  C  C34  1  0.44730000  0.01964000  0.76411000  1.0
  C  C35  1  0.44729000  0.48036000  0.23588000  1.0
  C  C36  1  0.55270000  0.98037000  0.23589000  1.0
  C  C37  1  0.55271000  0.51963000  0.76412000  1.0
  C  C38  1  0.24092000  0.93710000  0.84535000  1.0
  C  C39  1  0.24091000  0.56291000  0.15465000  1.0
  C  C40  1  0.75909000  0.06290000  0.15465000  1.0
  C  C41  1  0.75909000  0.43709000  0.84535000  1.0
  C  C42  1  0.42653000  0.84141000  0.92157000  1.0
  C  C43  1  0.42653000  0.65860000  0.07844000  1.0
  C  C44  1  0.57347000  0.15859000  0.07844000  1.0
  C  C45  1  0.57347000  0.34141000  0.92157000  1.0
  C  C46  1  0.23421000  0.75000000  0.00000000  1.0
  C  C47  1  0.76579000  0.25000000  0.00000000  1.0
  O  O48  1  0.92364000  0.11175000  0.42352000  1.0
  O  O49  1  0.92361000  0.38823000  0.57646000  1.0
  O  O50  1  0.07637000  0.88825000  0.57648000  1.0
  O  O51  1  0.07639000  0.61177000  0.42355000  1.0
  O  O52  1  0.01038000  0.14049000  0.69493000  1.0
  O  O53  1  0.01038000  0.35951000  0.30506000  1.0
  O  O54  1  0.98962000  0.85951000  0.30507000  1.0
  O  O55  1  0.98962000  0.64049000  0.69494000  1.0
  O  O56  1  0.43010000  0.17524000  0.59407000  1.0
  O  O57  1  0.43013000  0.32474000  0.40592000  1.0
  O  O58  1  0.56989000  0.82475000  0.40593000  1.0
  O  O59  1  0.56988000  0.67526000  0.59408000  1.0
