# generated using pymatgen
data_CaH11PtC19N7
_symmetry_space_group_name_H-M   'P 1'
_cell_length_a   8.55602000
_cell_length_b   8.55602000
_cell_length_c   13.30850000
_cell_angle_alpha   79.89860000
_cell_angle_beta   79.89850000
_cell_angle_gamma   74.77380000
_symmetry_Int_Tables_number   1
_chemical_formula_structural   CaH11PtC19N7
_chemical_formula_sum   'Ca2 H22 Pt2 C38 N14'
_cell_volume   916.86619428
_cell_formula_units_Z   2
loop_
 _symmetry_equiv_pos_site_id
 _symmetry_equiv_pos_as_xyz
  1  'x, y, z'
loop_
 _atom_site_type_symbol
 _atom_site_label
 _atom_site_symmetry_multiplicity
 _atom_site_fract_x
 _atom_site_fract_y
 _atom_site_fract_z
 _atom_site_occupancy
  Ca  Ca0  1  0.39418000  0.60582000  0.25000000  1.0
  Ca  Ca1  1  0.60582000  0.39418000  0.75000000  1.0
  H  H2  1  0.55211000  0.81915000  0.82953000  1.0
  H  H3  1  0.18085000  0.44789000  0.67047000  1.0
  H  H4  1  0.44789000  0.18085000  0.17047000  1.0
  H  H5  1  0.81915000  0.55211000  0.32953000  1.0
  H  H6  1  0.55812000  0.63598000  0.99675000  1.0
  H  H7  1  0.36402000  0.44188000  0.50325000  1.0
  H  H8  1  0.44188000  0.36403000  0.00325000  1.0
  H  H9  1  0.63598000  0.55812000  0.49675000  1.0
  H  H10  1  0.14631000  0.15592000  0.97633000  1.0
  H  H11  1  0.84408000  0.85369000  0.52367000  1.0
  H  H12  1  0.85369000  0.84408000  0.02367000  1.0
  H  H13  1  0.15592000  0.14631000  0.47633000  1.0
  H  H14  1  0.34484000  0.09103000  0.82136000  1.0
  H  H15  1  0.90897000  0.65516000  0.67864000  1.0
  H  H16  1  0.65516000  0.90897000  0.17864000  1.0
  H  H17  1  0.09103000  0.34484000  0.32136000  1.0
  H  H18  1  0.97625000  0.18407000  0.09260000  1.0
  H  H19  1  0.81594000  0.02375000  0.40740000  1.0
  H  H20  1  0.02375000  0.81594000  0.90740000  1.0
  H  H21  1  0.18407000  0.97625000  0.59260000  1.0
  H  H22  1  0.77559000  0.22441000  0.25000000  1.0
  H  H23  1  0.22441000  0.77559000  0.75000000  1.0
  Pt  Pt24  1  0.00000000  0.50000000  0.00000000  1.0
  Pt  Pt25  1  0.50000000  0.00000000  0.50000000  1.0
  C  C26  1  0.80100000  0.51704000  0.10328000  1.0
  C  C27  1  0.48295000  0.19901000  0.39672000  1.0
  C  C28  1  0.19901000  0.48295000  0.89671000  1.0
  C  C29  1  0.51704000  0.80100000  0.60328000  1.0
  C  C30  1  0.86633000  0.50605000  0.89175000  1.0
  C  C31  1  0.49395000  0.13367000  0.60825000  1.0
  C  C32  1  0.13367000  0.49395000  0.10825000  1.0
  C  C33  1  0.50605000  0.86633000  0.39175000  1.0
  C  C34  1  0.46464000  0.85534000  0.89625000  1.0
  C  C35  1  0.14467000  0.53536000  0.60375000  1.0
  C  C36  1  0.53536000  0.14466000  0.10375000  1.0
  C  C37  1  0.85534000  0.46464000  0.39625000  1.0
  C  C38  1  0.46728000  0.75187000  0.98966000  1.0
  C  C39  1  0.24813000  0.53272000  0.51034000  1.0
  C  C40  1  0.53272000  0.24813000  0.01034000  1.0
  C  C41  1  0.75187000  0.46728000  0.48966000  1.0
  C  C42  1  0.23771000  0.04012000  0.97931000  1.0
  C  C43  1  0.95987000  0.76229000  0.52069000  1.0
  C  C44  1  0.76229000  0.95987000  0.02069000  1.0
  C  C45  1  0.04013000  0.23771000  0.47931000  1.0
  C  C46  1  0.34860000  0.00410000  0.89184000  1.0
  C  C47  1  0.99590000  0.65141000  0.60816000  1.0
  C  C48  1  0.65141000  0.99590000  0.10816000  1.0
  C  C49  1  0.00410000  0.34859000  0.39184000  1.0
  C  C50  1  0.99325000  0.09654000  0.16205000  1.0
  C  C51  1  0.90346000  0.00675000  0.33795000  1.0
  C  C52  1  0.00675000  0.90346000  0.83795000  1.0
  C  C53  1  0.09654000  0.99325000  0.66205000  1.0
  C  C54  1  0.88040000  0.11959000  0.25000000  1.0
  C  C55  1  0.11960000  0.88040000  0.75000000  1.0
  C  C56  1  0.12672000  0.96009000  0.16401000  1.0
  C  C57  1  0.03991000  0.87329000  0.33599000  1.0
  C  C58  1  0.87329000  0.03991000  0.83599000  1.0
  C  C59  1  0.96009000  0.12671000  0.66401000  1.0
  C  C60  1  0.24652000  0.92868000  0.07014000  1.0
  C  C61  1  0.07132000  0.75348000  0.42986000  1.0
  C  C62  1  0.75348000  0.07132000  0.92986000  1.0
  C  C63  1  0.92868000  0.24652000  0.57014000  1.0
  N  N64  1  0.68005000  0.52899000  0.16159000  1.0
  N  N65  1  0.47101000  0.31994000  0.33841000  1.0
  N  N66  1  0.31994000  0.47101000  0.83841000  1.0
  N  N67  1  0.52899000  0.68006000  0.66159000  1.0
  N  N68  1  0.14912000  0.85088000  0.25000000  1.0
  N  N69  1  0.85088000  0.14912000  0.75000000  1.0
  N  N70  1  0.36377000  0.78719000  0.07534000  1.0
  N  N71  1  0.21281000  0.63623000  0.42466000  1.0
  N  N72  1  0.63623000  0.21281000  0.92466000  1.0
  N  N73  1  0.78719000  0.36377000  0.57534000  1.0
  N  N74  1  0.78424000  0.50660000  0.82983000  1.0
  N  N75  1  0.49339000  0.21577000  0.67017000  1.0
  N  N76  1  0.21576000  0.49340000  0.17017000  1.0
  N  N77  1  0.50660000  0.78423000  0.32983000  1.0
