# generated using pymatgen
data_Zn2H15C30N2(ClO3)3
_symmetry_space_group_name_H-M   'P 1'
_cell_length_a   9.88168000
_cell_length_b   10.84080000
_cell_length_c   11.03440000
_cell_angle_alpha   94.32400000
_cell_angle_beta   90.57740000
_cell_angle_gamma   93.37990000
_symmetry_Int_Tables_number   1
_chemical_formula_structural   Zn2H15C30N2(ClO3)3
_chemical_formula_sum   'Zn2 H15 C30 N2 Cl3 O9'
_cell_volume   1176.52352120
_cell_formula_units_Z   1
loop_
 _symmetry_equiv_pos_site_id
 _symmetry_equiv_pos_as_xyz
  1  'x, y, z'
loop_
 _atom_site_type_symbol
 _atom_site_label
 _atom_site_symmetry_multiplicity
 _atom_site_fract_x
 _atom_site_fract_y
 _atom_site_fract_z
 _atom_site_occupancy
  Zn  Zn0  1  0.64651000  0.50746000  0.49913000  1.0
  Zn  Zn1  1  0.35802000  0.49288000  0.49687000  1.0
  H  H2  1  0.97613000  0.51089000  0.90355000  1.0
  H  H3  1  0.76197000  0.47636000  0.78458000  1.0
  H  H4  1  0.28905000  0.49361000  0.87960000  1.0
  H  H5  1  0.15280000  0.63960000  0.61499000  1.0
  H  H6  1  0.23845000  0.31236000  0.33887000  1.0
  H  H7  1  0.09660000  0.17142000  0.19463000  1.0
  H  H8  1  0.84568000  0.18643000  0.18821000  1.0
  H  H9  1  0.73561000  0.34117000  0.32300000  1.0
  H  H10  1  0.62411000  0.06255000  0.32734000  1.0
  H  H11  1  0.73537000  0.93177000  0.51656000  1.0
  H  H12  1  0.61911000  0.10272000  0.69029000  1.0
  H  H13  1  0.26977000  0.06772000  0.49639000  1.0
  H  H14  1  0.28417000  0.49473000  0.10682000  1.0
  H  H15  1  0.75029000  0.57640000  0.23046000  1.0
  H  H16  1  0.33468000  0.99415000  0.75615000  1.0
  C  C17  1  0.48764000  0.50378000  0.26299000  1.0
  C  C18  1  0.43566000  0.96691000  0.60822000  1.0
  C  C19  1  0.37299000  0.03730000  0.50288000  1.0
  C  C20  1  0.50395000  0.12517000  0.50487000  1.0
  C  C21  1  0.75184000  0.55273000  0.13329000  1.0
  C  C22  1  0.87335000  0.55161000  0.07356000  1.0
  C  C23  1  0.87857000  0.51818000  0.94782000  1.0
  C  C24  1  0.75913000  0.49819000  0.88204000  1.0
  C  C25  1  0.63029000  0.50724000  0.93764000  1.0
  C  C26  1  0.62737000  0.52385000  0.06850000  1.0
  C  C27  1  0.49929000  0.51303000  0.12841000  1.0
  C  C28  1  0.50984000  0.26202000  0.49891000  1.0
  C  C29  1  0.38042000  0.50133000  0.05969000  1.0
  C  C30  1  0.38319000  0.49803000  0.93242000  1.0
  C  C31  1  0.50451000  0.49929000  0.87025000  1.0
  C  C32  1  0.12902000  0.31773000  0.33466000  1.0
  C  C33  1  0.04928000  0.23963000  0.25544000  1.0
  C  C34  1  0.90728000  0.24814000  0.25220000  1.0
  C  C35  1  0.84451000  0.33371000  0.32789000  1.0
  C  C36  1  0.92332000  0.41595000  0.40950000  1.0
  C  C37  1  0.06781000  0.40741000  0.41213000  1.0
  C  C38  1  0.08833000  0.57414000  0.55691000  1.0
  C  C39  1  0.49598000  0.50044000  0.73386000  1.0
  C  C40  1  0.94539000  0.58201000  0.55408000  1.0
  C  C41  1  0.50281000  0.73748000  0.50953000  1.0
  C  C42  1  0.57185000  0.03390000  0.40835000  1.0
  C  C43  1  0.44021000  0.94651000  0.40831000  1.0
  C  C44  1  0.50354000  0.87502000  0.51352000  1.0
  C  C45  1  0.63305000  0.96461000  0.51343000  1.0
  C  C46  1  0.56808000  0.05606000  0.60957000  1.0
  N  N47  1  0.14640000  0.48783000  0.48869000  1.0
  N  N48  1  0.86398000  0.50457000  0.48444000  1.0
  Cl  Cl49  1  0.35868000  0.87327000  0.27860000  1.0
  Cl  Cl50  1  0.88024000  0.69651000  0.64664000  1.0
  Cl  Cl51  1  0.02412000  0.59033000  0.15395000  1.0
  O  O52  1  0.59202000  0.47230000  0.31985000  1.0
  O  O53  1  0.37400000  0.52187000  0.31202000  1.0
  O  O54  1  0.62406000  0.31966000  0.52328000  1.0
  O  O55  1  0.40099000  0.31035000  0.46887000  1.0
  O  O56  1  0.60286000  0.53540000  0.67880000  1.0
  O  O57  1  0.38149000  0.46993000  0.68253000  1.0
  O  O58  1  0.61340000  0.68967000  0.47877000  1.0
  O  O59  1  0.39157000  0.67958000  0.53331000  1.0
  O  O60  1  0.36863000  0.92370000  0.70800000  1.0
