# generated using pymatgen
data_Zn3H8C14(NO)6
_symmetry_space_group_name_H-M   'P 1'
_cell_length_a   11.04240000
_cell_length_b   11.04940000
_cell_length_c   11.04940000
_cell_angle_alpha   69.25190000
_cell_angle_beta   88.32390000
_cell_angle_gamma   88.32420000
_symmetry_Int_Tables_number   1
_chemical_formula_structural   Zn3H8C14(NO)6
_chemical_formula_sum   'Zn6 H16 C28 N12 O12'
_cell_volume   1259.92952309
_cell_formula_units_Z   2
loop_
 _symmetry_equiv_pos_site_id
 _symmetry_equiv_pos_as_xyz
  1  'x, y, z'
loop_
 _atom_site_type_symbol
 _atom_site_label
 _atom_site_symmetry_multiplicity
 _atom_site_fract_x
 _atom_site_fract_y
 _atom_site_fract_z
 _atom_site_occupancy
  Zn  Zn0  1  0.00019000  0.64029000  0.52489000  1.0
  Zn  Zn1  1  0.49982000  0.47511000  0.35971000  1.0
  Zn  Zn2  1  0.99981000  0.35971000  0.47511000  1.0
  Zn  Zn3  1  0.50018000  0.52489000  0.64029000  1.0
  Zn  Zn4  1  0.75000000  0.59795000  0.40205000  1.0
  Zn  Zn5  1  0.25000000  0.40205000  0.59795000  1.0
  H  H6  1  0.94273000  0.06412000  0.44434000  1.0
  H  H7  1  0.55727000  0.55567000  0.93587000  1.0
  H  H8  1  0.05727000  0.93587000  0.55566000  1.0
  H  H9  1  0.44273000  0.44434000  0.06412000  1.0
  H  H10  1  0.49504000  0.15306000  0.35874000  1.0
  H  H11  1  0.00496000  0.64127000  0.84693000  1.0
  H  H12  1  0.50496000  0.84693000  0.64127000  1.0
  H  H13  1  0.99504000  0.35873000  0.15307000  1.0
  H  H14  1  0.59585000  0.94680000  0.35810000  1.0
  H  H15  1  0.90415000  0.64190000  0.05320000  1.0
  H  H16  1  0.40415000  0.05320000  0.64190000  1.0
  H  H17  1  0.09585000  0.35809000  0.94680000  1.0
  H  H18  1  0.95921000  0.61842000  0.30566000  1.0
  H  H19  1  0.54080000  0.69434000  0.38158000  1.0
  H  H20  1  0.04080000  0.38158000  0.69434000  1.0
  H  H21  1  0.45921000  0.30566000  0.61842000  1.0
  C  C22  1  0.82373000  0.86409000  0.40634000  1.0
  C  C23  1  0.67627000  0.59366000  0.13591000  1.0
  C  C24  1  0.17627000  0.13591000  0.59365000  1.0
  C  C25  1  0.32373000  0.40634000  0.86409000  1.0
  C  C26  1  0.77332000  0.99406000  0.40159000  1.0
  C  C27  1  0.72668000  0.59841000  0.00594000  1.0
  C  C28  1  0.22668000  0.00594000  0.59841000  1.0
  C  C29  1  0.27332000  0.40159000  0.99406000  1.0
  C  C30  1  0.84674000  0.08305000  0.42538000  1.0
  C  C31  1  0.65326000  0.57462000  0.91695000  1.0
  C  C32  1  0.15326000  0.91695000  0.57462000  1.0
  C  C33  1  0.34674000  0.42538000  0.08305000  1.0
  C  C34  1  0.79084000  0.19881000  0.42528000  1.0
  C  C35  1  0.70916000  0.57473000  0.80118000  1.0
  C  C36  1  0.20916000  0.80118000  0.57472000  1.0
  C  C37  1  0.29084000  0.42528000  0.19882000  1.0
  C  C38  1  0.66540000  0.22348000  0.40135000  1.0
  C  C39  1  0.83460000  0.59866000  0.77652000  1.0
  C  C40  1  0.33460000  0.77652000  0.59866000  1.0
  C  C41  1  0.16540000  0.40135000  0.22348000  1.0
  C  C42  1  0.59151000  0.13399000  0.37645000  1.0
  C  C43  1  0.90849000  0.62356000  0.86601000  1.0
  C  C44  1  0.40848000  0.86601000  0.62356000  1.0
  C  C45  1  0.09151000  0.37645000  0.13399000  1.0
  C  C46  1  0.64753000  0.02057000  0.37664000  1.0
  C  C47  1  0.85247000  0.62337000  0.97942000  1.0
  C  C48  1  0.35247000  0.97943000  0.62336000  1.0
  C  C49  1  0.14753000  0.37663000  0.02057000  1.0
  N  N50  1  0.83426000  0.30577000  0.44476000  1.0
  N  N51  1  0.66573000  0.55524000  0.69422000  1.0
  N  N52  1  0.16574000  0.69423000  0.55524000  1.0
  N  N53  1  0.33426000  0.44476000  0.30577000  1.0
  N  N54  1  0.74157000  0.38844000  0.43405000  1.0
  N  N55  1  0.75843000  0.56595000  0.61156000  1.0
  N  N56  1  0.25843000  0.61156000  0.56595000  1.0
  N  N57  1  0.24157000  0.43405000  0.38844000  1.0
  N  N58  1  0.63982000  0.34245000  0.40786000  1.0
  N  N59  1  0.86018000  0.59215000  0.65755000  1.0
  N  N60  1  0.36017000  0.65755000  0.59215000  1.0
  N  N61  1  0.13983000  0.40786000  0.34245000  1.0
  O  O62  1  0.93173000  0.83310000  0.44594000  1.0
  O  O63  1  0.56828000  0.55406000  0.16690000  1.0
  O  O64  1  0.06827000  0.16690000  0.55406000  1.0
  O  O65  1  0.43173000  0.44594000  0.83311000  1.0
  O  O66  1  0.75197000  0.79446000  0.37245000  1.0
  O  O67  1  0.74803000  0.62754000  0.20554000  1.0
  O  O68  1  0.24803000  0.20554000  0.62754000  1.0
  O  O69  1  0.25197000  0.37246000  0.79446000  1.0
  O  O70  1  0.93752000  0.57116000  0.39568000  1.0
  O  O71  1  0.56248000  0.60432000  0.42884000  1.0
  O  O72  1  0.06248000  0.42884000  0.60432000  1.0
  O  O73  1  0.43752000  0.39568000  0.57116000  1.0
