# generated using pymatgen
data_CdH24C28(SN5)2
_symmetry_space_group_name_H-M   'P 1'
_cell_length_a   10.85230000
_cell_length_b   10.85230000
_cell_length_c   13.11720000
_cell_angle_alpha   72.95420000
_cell_angle_beta   72.95440000
_cell_angle_gamma   84.52610000
_symmetry_Int_Tables_number   1
_chemical_formula_structural   CdH24C28(SN5)2
_chemical_formula_sum   'Cd2 H48 C56 S4 N20'
_cell_volume   1412.02361229
_cell_formula_units_Z   2
loop_
 _symmetry_equiv_pos_site_id
 _symmetry_equiv_pos_as_xyz
  1  'x, y, z'
loop_
 _atom_site_type_symbol
 _atom_site_label
 _atom_site_symmetry_multiplicity
 _atom_site_fract_x
 _atom_site_fract_y
 _atom_site_fract_z
 _atom_site_occupancy
  Cd  Cd0  1  0.50000000  0.00001000  0.50000000  1.0
  Cd  Cd1  1  0.00000000  0.50000000  0.00000000  1.0
  H  H2  1  0.28867000  0.90305000  0.19271000  1.0
  H  H3  1  0.09695000  0.71133000  0.30729000  1.0
  H  H4  1  0.71133000  0.09695000  0.80729000  1.0
  H  H5  1  0.90305000  0.28867000  0.69271000  1.0
  H  H6  1  0.23156000  0.84671000  0.04501000  1.0
  H  H7  1  0.15329000  0.76844000  0.45500000  1.0
  H  H8  1  0.76844000  0.15329000  0.95499000  1.0
  H  H9  1  0.84671000  0.23156000  0.54501000  1.0
  H  H10  1  0.37827000  0.21096000  0.81566000  1.0
  H  H11  1  0.78904000  0.62173000  0.68434000  1.0
  H  H12  1  0.62173000  0.78904000  0.18434000  1.0
  H  H13  1  0.21096000  0.37827000  0.31566000  1.0
  H  H14  1  0.44167000  0.26557000  0.96218000  1.0
  H  H15  1  0.73443000  0.55834000  0.53781000  1.0
  H  H16  1  0.55834000  0.73443000  0.03782000  1.0
  H  H17  1  0.26557000  0.44166000  0.46218000  1.0
  H  H18  1  0.39544000  0.93596000  0.29405000  1.0
  H  H19  1  0.06404000  0.60456000  0.20595000  1.0
  H  H20  1  0.60456000  0.06403000  0.70595000  1.0
  H  H21  1  0.93597000  0.39544000  0.79405000  1.0
  H  H22  1  0.48080000  0.30182000  0.30516000  1.0
  H  H23  1  0.69819000  0.51919000  0.19484000  1.0
  H  H24  1  0.51919000  0.69818000  0.69484000  1.0
  H  H25  1  0.30181000  0.48081000  0.80516000  1.0
  H  H26  1  0.42781000  0.32925000  0.10496000  1.0
  H  H27  1  0.67075000  0.57219000  0.39503000  1.0
  H  H28  1  0.57219000  0.67075000  0.89504000  1.0
  H  H29  1  0.32925000  0.42781000  0.60497000  1.0
  H  H30  1  0.34827000  0.95336000  0.77630000  1.0
  H  H31  1  0.04664000  0.65173000  0.72370000  1.0
  H  H32  1  0.65173000  0.04664000  0.22370000  1.0
  H  H33  1  0.95336000  0.34827000  0.27630000  1.0
  H  H34  1  0.23793000  0.08219000  0.76955000  1.0
  H  H35  1  0.91782000  0.76207000  0.73045000  1.0
  H  H36  1  0.76207000  0.91781000  0.23045000  1.0
  H  H37  1  0.08218000  0.23793000  0.26955000  1.0
  H  H38  1  0.26562000  0.72279000  0.87616000  1.0
  H  H39  1  0.27721000  0.73437000  0.62384000  1.0
  H  H40  1  0.73437000  0.27721000  0.12384000  1.0
  H  H41  1  0.72279000  0.26563000  0.37616000  1.0
  H  H42  1  0.86506000  0.79597000  0.95312000  1.0
  H  H43  1  0.20403000  0.13494000  0.54688000  1.0
  H  H44  1  0.13493000  0.20403000  0.04688000  1.0
  H  H45  1  0.79596000  0.86506000  0.45312000  1.0
  H  H46  1  0.99531000  0.03012000  0.87953000  1.0
  H  H47  1  0.96988000  0.00469000  0.62047000  1.0
  H  H48  1  0.00469000  0.96988000  0.12047000  1.0
  H  H49  1  0.03012000  0.99530000  0.37954000  1.0
  C  C50  1  0.36644000  0.08973000  0.08798000  1.0
  C  C51  1  0.91027000  0.63356000  0.41202000  1.0
  C  C52  1  0.63356000  0.91027000  0.91202000  1.0
  C  C53  1  0.08973000  0.36644000  0.58798000  1.0
  C  C54  1  0.48572000  0.74424000  0.41762000  1.0
  C  C55  1  0.25577000  0.51429000  0.08239000  1.0
  C  C56  1  0.51429000  0.25577000  0.58240000  1.0
  C  C57  1  0.74423000  0.48571000  0.91761000  1.0
  C  C58  1  0.30768000  0.97171000  0.11047000  1.0
  C  C59  1  0.02829000  0.69232000  0.38952000  1.0
  C  C60  1  0.69232000  0.02828000  0.88953000  1.0
  C  C61  1  0.97172000  0.30768000  0.61048000  1.0
  C  C62  1  0.27451000  0.94041000  0.02636000  1.0
  C  C63  1  0.05959000  0.72549000  0.47363000  1.0
  C  C64  1  0.72549000  0.05959000  0.97363000  1.0
  C  C65  1  0.94041000  0.27451000  0.52637000  1.0
  C  C66  1  0.29749000  0.02622000  0.91998000  1.0
  C  C67  1  0.97378000  0.70250000  0.58002000  1.0
  C  C68  1  0.70250000  0.97378000  0.08002000  1.0
  C  C69  1  0.02622000  0.29749000  0.41998000  1.0
  C  C70  1  0.35737000  0.14330000  0.89843000  1.0
  C  C71  1  0.85670000  0.64263000  0.60156000  1.0
  C  C72  1  0.64263000  0.85669000  0.10157000  1.0
  C  C73  1  0.14330000  0.35737000  0.39843000  1.0
  C  C74  1  0.39277000  0.17506000  0.98129000  1.0
  C  C75  1  0.82494000  0.60723000  0.51871000  1.0
  C  C76  1  0.60723000  0.82494000  0.01871000  1.0
  C  C77  1  0.17506000  0.39277000  0.48129000  1.0
  C  C78  1  0.40943000  0.03920000  0.27212000  1.0
  C  C79  1  0.96080000  0.59057000  0.22788000  1.0
  C  C80  1  0.59057000  0.96080000  0.72788000  1.0
  C  C81  1  0.03920000  0.40943000  0.77212000  1.0
  C  C82  1  0.45671000  0.22948000  0.27218000  1.0
  C  C83  1  0.77052000  0.54329000  0.22782000  1.0
  C  C84  1  0.54329000  0.77052000  0.72782000  1.0
  C  C85  1  0.22948000  0.45671000  0.77218000  1.0
  C  C86  1  0.43036000  0.24457000  0.17294000  1.0
  C  C87  1  0.75544000  0.56964000  0.32705000  1.0
  C  C88  1  0.56964000  0.75543000  0.82706000  1.0
  C  C89  1  0.24457000  0.43037000  0.67294000  1.0
  C  C90  1  0.26428000  0.99432000  0.82654000  1.0
  C  C91  1  0.00568000  0.73572000  0.67346000  1.0
  C  C92  1  0.73572000  0.00568000  0.17346000  1.0
  C  C93  1  0.99432000  0.26428000  0.32654000  1.0
  C  C94  1  0.17293000  0.77219000  0.88627000  1.0
  C  C95  1  0.22781000  0.82707000  0.61372000  1.0
  C  C96  1  0.82707000  0.22781000  0.11372000  1.0
  C  C97  1  0.77218000  0.17293000  0.38628000  1.0
  C  C98  1  0.96732000  0.81593000  0.92563000  1.0
  C  C99  1  0.18407000  0.03268000  0.57437000  1.0
  C  C100  1  0.03268000  0.18407000  0.07437000  1.0
  C  C101  1  0.81593000  0.96732000  0.42563000  1.0
  C  C102  1  0.02993000  0.93165000  0.88943000  1.0
  C  C103  1  0.06835000  0.97007000  0.61057000  1.0
  C  C104  1  0.97007000  0.06835000  0.11057000  1.0
  C  C105  1  0.93165000  0.02993000  0.38943000  1.0
  S  S106  1  0.40924000  0.66806000  0.36533000  1.0
  S  S107  1  0.33196000  0.59076000  0.13469000  1.0
  S  S108  1  0.59077000  0.33197000  0.63468000  1.0
  S  S109  1  0.66804000  0.40924000  0.86531000  1.0
  N  N110  1  0.54336000  0.80148000  0.45377000  1.0
  N  N111  1  0.19853000  0.45666000  0.04622000  1.0
  N  N112  1  0.45666000  0.19853000  0.54623000  1.0
  N  N113  1  0.80147000  0.54334000  0.95377000  1.0
  N  N114  1  0.39985000  0.12279000  0.17372000  1.0
  N  N115  1  0.87722000  0.60015000  0.32628000  1.0
  N  N116  1  0.60015000  0.87721000  0.82628000  1.0
  N  N117  1  0.12279000  0.39985000  0.67372000  1.0
  N  N118  1  0.44411000  0.10127000  0.33264000  1.0
  N  N119  1  0.89873000  0.55588000  0.16736000  1.0
  N  N120  1  0.55588000  0.89873000  0.66737000  1.0
  N  N121  1  0.10127000  0.44412000  0.83264000  1.0
  N  N122  1  0.16011000  0.90252000  0.86400000  1.0
  N  N123  1  0.09748000  0.83989000  0.63600000  1.0
  N  N124  1  0.83989000  0.09748000  0.13600000  1.0
  N  N125  1  0.90252000  0.16011000  0.36400000  1.0
  N  N126  1  0.05773000  0.71744000  0.92315000  1.0
  N  N127  1  0.28256000  0.94226000  0.57685000  1.0
  N  N128  1  0.94226000  0.28256000  0.07685000  1.0
  N  N129  1  0.71744000  0.05774000  0.42315000  1.0
