# generated using pymatgen
data_MnCu2H44C46(NO2)4
_symmetry_space_group_name_H-M   'P 1'
_cell_length_a   10.77910000
_cell_length_b   10.77910000
_cell_length_c   11.54730000
_cell_angle_alpha   69.72040000
_cell_angle_beta   69.72080000
_cell_angle_gamma   79.50990000
_symmetry_Int_Tables_number   1
_chemical_formula_structural   MnCu2H44C46(NO2)4
_chemical_formula_sum   'Mn1 Cu2 H44 C46 N4 O8'
_cell_volume   1177.56558831
_cell_formula_units_Z   1
loop_
 _symmetry_equiv_pos_site_id
 _symmetry_equiv_pos_as_xyz
  1  'x, y, z'
loop_
 _atom_site_type_symbol
 _atom_site_label
 _atom_site_symmetry_multiplicity
 _atom_site_fract_x
 _atom_site_fract_y
 _atom_site_fract_z
 _atom_site_occupancy
  Mn  Mn0  1  0.00009000  0.00009000  0.49992000  1.0
  Cu  Cu1  1  0.21048000  0.21048000  0.43590000  1.0
  Cu  Cu2  1  0.78964000  0.78964000  0.56405000  1.0
  H  H3  1  0.83740000  0.83738000  0.15798000  1.0
  H  H4  1  0.16282000  0.16282000  0.84184000  1.0
  H  H5  1  0.88471000  0.88469000  0.91724000  1.0
  H  H6  1  0.11552000  0.11553000  0.08256000  1.0
  H  H7  1  0.51266000  0.20426000  0.52430000  1.0
  H  H8  1  0.79605000  0.48759000  0.47564000  1.0
  H  H9  1  0.48759000  0.79604000  0.47564000  1.0
  H  H10  1  0.20425000  0.51266000  0.52430000  1.0
  H  H11  1  0.52510000  0.33896000  0.38012000  1.0
  H  H12  1  0.66089000  0.47525000  0.61973000  1.0
  H  H13  1  0.47526000  0.66088000  0.61973000  1.0
  H  H14  1  0.33895000  0.52511000  0.38012000  1.0
  H  H15  1  0.19349000  0.84734000  0.33957000  1.0
  H  H16  1  0.15229000  0.80669000  0.66048000  1.0
  H  H17  1  0.80669000  0.15229000  0.66049000  1.0
  H  H18  1  0.84734000  0.19350000  0.33956000  1.0
  H  H19  1  0.64076000  0.01538000  0.15738000  1.0
  H  H20  1  0.98406000  0.35947000  0.84285000  1.0
  H  H21  1  0.35948000  0.98407000  0.84283000  1.0
  H  H22  1  0.01538000  0.64078000  0.15737000  1.0
  H  H23  1  0.39529000  0.39530000  0.58099000  1.0
  H  H24  1  0.60480000  0.60479000  0.41896000  1.0
  H  H25  1  0.27922000  0.27922000  0.62036000  1.0
  H  H26  1  0.72098000  0.72098000  0.37914000  1.0
  H  H27  1  0.68303000  0.17442000  0.22649000  1.0
  H  H28  1  0.82516000  0.31676000  0.77296000  1.0
  H  H29  1  0.31677000  0.82515000  0.77296000  1.0
  H  H30  1  0.17443000  0.68304000  0.22648000  1.0
  H  H31  1  0.68008000  0.00916000  0.33064000  1.0
  H  H32  1  0.99059000  0.32015000  0.66913000  1.0
  H  H33  1  0.32015000  0.99058000  0.66913000  1.0
  H  H34  1  0.00917000  0.68009000  0.33063000  1.0
  H  H35  1  0.65470000  0.14185000  0.39437000  1.0
  H  H36  1  0.85817000  0.34600000  0.60495000  1.0
  H  H37  1  0.34600000  0.85816000  0.60496000  1.0
  H  H38  1  0.14186000  0.65470000  0.39435000  1.0
  H  H39  1  0.36830000  0.76282000  0.17200000  1.0
  H  H40  1  0.23610000  0.63213000  0.82877000  1.0
  H  H41  1  0.63212000  0.23611000  0.82877000  1.0
  H  H42  1  0.76281000  0.36832000  0.17199000  1.0
  H  H43  1  0.59229000  0.85439000  0.07506000  1.0
  H  H44  1  0.14502000  0.40792000  0.92533000  1.0
  H  H45  1  0.40791000  0.14502000  0.92533000  1.0
  H  H46  1  0.85439000  0.59231000  0.07505000  1.0
  C  C47  1  0.02631000  0.02630000  0.86661000  1.0
  C  C48  1  0.97390000  0.97389000  0.13320000  1.0
  C  C49  1  0.90851000  0.90850000  0.08743000  1.0
  C  C50  1  0.09170000  0.09170000  0.91239000  1.0
  C  C51  1  0.05604000  0.05604000  0.72327000  1.0
  C  C52  1  0.94409000  0.94409000  0.27658000  1.0
  C  C53  1  0.93434000  0.93432000  0.95493000  1.0
  C  C54  1  0.06588000  0.06588000  0.04489000  1.0
  C  C55  1  0.31466000  0.98170000  0.34332000  1.0
  C  C56  1  0.01802000  0.68539000  0.65676000  1.0
  C  C57  1  0.68540000  0.01802000  0.65676000  1.0
  C  C58  1  0.98171000  0.31467000  0.34330000  1.0
  C  C59  1  0.44546000  0.02733000  0.29458000  1.0
  C  C60  1  0.97226000  0.55466000  0.70566000  1.0
  C  C61  1  0.55466000  0.97227000  0.70565000  1.0
  C  C62  1  0.02734000  0.44546000  0.29456000  1.0
  C  C63  1  0.48727000  0.11409000  0.34560000  1.0
  C  C64  1  0.88551000  0.51287000  0.65463000  1.0
  C  C65  1  0.51288000  0.88552000  0.65463000  1.0
  C  C66  1  0.11410000  0.48727000  0.34558000  1.0
  C  C67  1  0.45552000  0.27008000  0.46080000  1.0
  C  C68  1  0.72999000  0.54472000  0.53906000  1.0
  C  C69  1  0.54472000  0.72999000  0.53906000  1.0
  C  C70  1  0.27008000  0.45552000  0.46080000  1.0
  C  C71  1  0.29241000  0.88274000  0.29942000  1.0
  C  C72  1  0.11672000  0.70781000  0.70086000  1.0
  C  C73  1  0.70781000  0.11672000  0.70086000  1.0
  C  C74  1  0.88274000  0.29242000  0.29940000  1.0
  C  C75  1  0.54215000  0.97873000  0.19791000  1.0
  C  C76  1  0.02071000  0.45806000  0.80247000  1.0
  C  C77  1  0.45807000  0.02071000  0.80246000  1.0
  C  C78  1  0.97873000  0.54216000  0.19789000  1.0
  C  C79  1  0.34742000  0.34742000  0.53896000  1.0
  C  C80  1  0.65280000  0.65280000  0.46075000  1.0
  C  C81  1  0.63378000  0.10944000  0.32384000  1.0
  C  C82  1  0.89033000  0.36651000  0.67586000  1.0
  C  C83  1  0.36652000  0.89032000  0.67587000  1.0
  C  C84  1  0.10944000  0.63378000  0.32383000  1.0
  C  C85  1  0.39016000  0.83696000  0.20554000  1.0
  C  C86  1  0.16231000  0.61010000  0.79488000  1.0
  C  C87  1  0.61010000  0.16232000  0.79487000  1.0
  C  C88  1  0.83696000  0.39018000  0.20552000  1.0
  C  C89  1  0.51614000  0.88672000  0.15185000  1.0
  C  C90  1  0.11257000  0.48412000  0.84865000  1.0
  C  C91  1  0.48413000  0.11257000  0.84864000  1.0
  C  C92  1  0.88673000  0.51616000  0.15183000  1.0
  N  N93  1  0.40391000  0.19010000  0.40909000  1.0
  N  N94  1  0.80979000  0.59636000  0.59093000  1.0
  N  N95  1  0.59636000  0.80979000  0.59093000  1.0
  N  N96  1  0.19010000  0.40392000  0.40908000  1.0
  O  O97  1  0.99432000  0.99434000  0.68571000  1.0
  O  O98  1  0.00577000  0.00578000  0.31420000  1.0
  O  O99  1  0.21590000  0.02497000  0.43022000  1.0
  O  O100  1  0.97514000  0.78414000  0.56962000  1.0
  O  O101  1  0.78415000  0.97514000  0.56962000  1.0
  O  O102  1  0.02499000  0.21590000  0.43019000  1.0
  O  O103  1  0.14040000  0.14041000  0.65049000  1.0
  O  O104  1  0.85974000  0.85974000  0.34930000  1.0
