# generated using pymatgen
data_NiH28C35SN6O5
_symmetry_space_group_name_H-M   'P 1'
_cell_length_a   12.69770000
_cell_length_b   15.33240000
_cell_length_c   17.38900000
_cell_angle_alpha   90.00000000
_cell_angle_beta   104.27800000
_cell_angle_gamma   89.99990000
_symmetry_Int_Tables_number   1
_chemical_formula_structural   NiH28C35SN6O5
_chemical_formula_sum   'Ni4 H112 C140 S4 N24 O20'
_cell_volume   3280.82533354
_cell_formula_units_Z   4
loop_
 _symmetry_equiv_pos_site_id
 _symmetry_equiv_pos_as_xyz
  1  'x, y, z'
loop_
 _atom_site_type_symbol
 _atom_site_label
 _atom_site_symmetry_multiplicity
 _atom_site_fract_x
 _atom_site_fract_y
 _atom_site_fract_z
 _atom_site_occupancy
  Ni  Ni0  1  0.74301000  0.22084000  0.13462000  1.0
  Ni  Ni1  1  0.25699000  0.72084000  0.36538000  1.0
  Ni  Ni2  1  0.25699000  0.77916000  0.86538000  1.0
  Ni  Ni3  1  0.74301000  0.27916000  0.63462000  1.0
  H  H4  1  0.12874000  0.34216000  0.34612000  1.0
  H  H5  1  0.87126000  0.84216000  0.15388000  1.0
  H  H6  1  0.87127000  0.65784000  0.65388000  1.0
  H  H7  1  0.12873000  0.15785000  0.84612000  1.0
  H  H8  1  0.20700000  0.35146000  0.49119000  1.0
  H  H9  1  0.79300000  0.85146000  0.00881000  1.0
  H  H10  1  0.79300000  0.64854000  0.50882000  1.0
  H  H11  1  0.20700000  0.14855000  0.99118000  1.0
  H  H12  1  0.94149000  0.19527000  0.52847000  1.0
  H  H13  1  0.05851000  0.69527000  0.97154000  1.0
  H  H14  1  0.05851000  0.80473000  0.47153000  1.0
  H  H15  1  0.94149000  0.30473000  0.02847000  1.0
  H  H16  1  0.86738000  0.18394000  0.38413000  1.0
  H  H17  1  0.13261000  0.68394000  0.11588000  1.0
  H  H18  1  0.13262000  0.81606000  0.61587000  1.0
  H  H19  1  0.86738000  0.31606000  0.88413000  1.0
  H  H20  1  0.33221000  0.42171000  0.77850000  1.0
  H  H21  1  0.66779000  0.92171000  0.72150000  1.0
  H  H22  1  0.66779000  0.57829000  0.22150000  1.0
  H  H23  1  0.33221000  0.07829000  0.27850000  1.0
  H  H24  1  0.49321000  0.43251000  0.89432000  1.0
  H  H25  1  0.50680000  0.93251000  0.60568000  1.0
  H  H26  1  0.50680000  0.56749000  0.10568000  1.0
  H  H27  1  0.49321000  0.06749000  0.39432000  1.0
  H  H28  1  0.46236000  0.16100000  0.94383000  1.0
  H  H29  1  0.53764000  0.66100000  0.55616000  1.0
  H  H30  1  0.53764000  0.83900000  0.05616000  1.0
  H  H31  1  0.46236000  0.33900000  0.44383000  1.0
  H  H32  1  0.30256000  0.14924000  0.82846000  1.0
  H  H33  1  0.69744000  0.64924000  0.67154000  1.0
  H  H34  1  0.69744000  0.85076000  0.17154000  1.0
  H  H35  1  0.30256000  0.35075000  0.32846000  1.0
  H  H36  1  0.92401000  0.09911000  0.19308000  1.0
  H  H37  1  0.07599000  0.59911000  0.30692000  1.0
  H  H38  1  0.07600000  0.90089000  0.80692000  1.0
  H  H39  1  0.92401000  0.40088000  0.69308000  1.0
  H  H40  1  0.04431000  0.00339000  0.14253000  1.0
  H  H41  1  0.95569000  0.50339000  0.35747000  1.0
  H  H42  1  0.95569000  0.99661000  0.85746000  1.0
  H  H43  1  0.04432000  0.49661000  0.64254000  1.0
  H  H44  1  0.85615000  0.06699000  0.90510000  1.0
  H  H45  1  0.14385000  0.56699000  0.59490000  1.0
  H  H46  1  0.14385000  0.93301000  0.09490000  1.0
  H  H47  1  0.85615000  0.43302000  0.40510000  1.0
  H  H48  1  0.74246000  0.16162000  0.96806000  1.0
  H  H49  1  0.25754000  0.66162000  0.53194000  1.0
  H  H50  1  0.25754000  0.83838000  0.03194000  1.0
  H  H51  1  0.74246000  0.33838000  0.46806000  1.0
  H  H52  1  0.78767000  0.36255000  0.26253000  1.0
  H  H53  1  0.21234000  0.86256000  0.23747000  1.0
  H  H54  1  0.21233000  0.63745000  0.73747000  1.0
  H  H55  1  0.78767000  0.13744000  0.76253000  1.0
  H  H56  1  0.67961000  0.46867000  0.32174000  1.0
  H  H57  1  0.32039000  0.96867000  0.17826000  1.0
  H  H58  1  0.32039000  0.53133000  0.67826000  1.0
  H  H59  1  0.67961000  0.03133000  0.82174000  1.0
  H  H60  1  0.38969000  0.35117000  0.17432000  1.0
  H  H61  1  0.61031000  0.85117000  0.32568000  1.0
  H  H62  1  0.61030000  0.64883000  0.82568000  1.0
  H  H63  1  0.38969000  0.14883000  0.67432000  1.0
  H  H64  1  0.50835000  0.25159000  0.12214000  1.0
  H  H65  1  0.49165000  0.75159000  0.37786000  1.0
  H  H66  1  0.49165000  0.74841000  0.87786000  1.0
  H  H67  1  0.50835000  0.24841000  0.62214000  1.0
  H  H68  1  0.24806000  0.62641000  0.21505000  1.0
  H  H69  1  0.75194000  0.12641000  0.28496000  1.0
  H  H70  1  0.75194000  0.37359000  0.78495000  1.0
  H  H71  1  0.24806000  0.87359000  0.71505000  1.0
  H  H72  1  0.35191000  0.50947000  0.16427000  1.0
  H  H73  1  0.64809000  0.00948000  0.33573000  1.0
  H  H74  1  0.64808000  0.49053000  0.83573000  1.0
  H  H75  1  0.35191000  0.99053000  0.66428000  1.0
  H  H76  1  0.54840000  0.48086000  0.40412000  1.0
  H  H77  1  0.45161000  0.98086000  0.09588000  1.0
  H  H78  1  0.45160000  0.51914000  0.59588000  1.0
  H  H79  1  0.54840000  0.01914000  0.90412000  1.0
  H  H80  1  0.43430000  0.59858000  0.44403000  1.0
  H  H81  1  0.56570000  0.09857000  0.05597000  1.0
  H  H82  1  0.56570000  0.40142000  0.55596000  1.0
  H  H83  1  0.43430000  0.90143000  0.94403000  1.0
  H  H84  1  0.06082000  0.24757000  0.63114000  1.0
  H  H85  1  0.93919000  0.74757000  0.86886000  1.0
  H  H86  1  0.93918000  0.75243000  0.36886000  1.0
  H  H87  1  0.06082000  0.25243000  0.13114000  1.0
  H  H88  1  0.14976000  0.24272000  0.73949000  1.0
  H  H89  1  0.85025000  0.74272000  0.76051000  1.0
  H  H90  1  0.85024000  0.75729000  0.26051000  1.0
  H  H91  1  0.14976000  0.25728000  0.23949000  1.0
  H  H92  1  0.75157000  0.35964000  0.06281000  1.0
  H  H93  1  0.24843000  0.85964000  0.43720000  1.0
  H  H94  1  0.24843000  0.64036000  0.93719000  1.0
  H  H95  1  0.75157000  0.14036000  0.56281000  1.0
  H  H96  1  0.86372000  0.36041000  0.13687000  1.0
  H  H97  1  0.13629000  0.86041000  0.36313000  1.0
  H  H98  1  0.13628000  0.63959000  0.86313000  1.0
  H  H99  1  0.86372000  0.13959000  0.63687000  1.0
  H  H100  1  0.10771000  0.45231000  0.23394000  1.0
  H  H101  1  0.89229000  0.95231000  0.26605000  1.0
  H  H102  1  0.89229000  0.54769000  0.76605000  1.0
  H  H103  1  0.10771000  0.04769000  0.73395000  1.0
  H  H104  1  0.14549000  0.44408000  0.10198000  1.0
  H  H105  1  0.85451000  0.94408000  0.39802000  1.0
  H  H106  1  0.85450000  0.55591000  0.89802000  1.0
  H  H107  1  0.14549000  0.05592000  0.60198000  1.0
  H  H108  1  0.82930000  0.56091000  0.00713000  1.0
  H  H109  1  0.17070000  0.06090000  0.49287000  1.0
  H  H110  1  0.17070000  0.43909000  0.99287000  1.0
  H  H111  1  0.82930000  0.93909000  0.50713000  1.0
  H  H112  1  0.80646000  0.56476000  0.14305000  1.0
  H  H113  1  0.19355000  0.06476000  0.35696000  1.0
  H  H114  1  0.19354000  0.43524000  0.85695000  1.0
  H  H115  1  0.80646000  0.93524000  0.64304000  1.0
  C  C116  1  0.95060000  0.25397000  0.26650000  1.0
  C  C117  1  0.04940000  0.75398000  0.23350000  1.0
  C  C118  1  0.04941000  0.74603000  0.73350000  1.0
  C  C119  1  0.95059000  0.24603000  0.76650000  1.0
  C  C120  1  0.99467000  0.26044000  0.35435000  1.0
  C  C121  1  0.00532000  0.76044000  0.14565000  1.0
  C  C122  1  0.00533000  0.73956000  0.64565000  1.0
  C  C123  1  0.99467000  0.23956000  0.85435000  1.0
  C  C124  1  0.08948000  0.30794000  0.38637000  1.0
  C  C125  1  0.91051000  0.80794000  0.11363000  1.0
  C  C126  1  0.91052000  0.69206000  0.61364000  1.0
  C  C127  1  0.08948000  0.19206000  0.88637000  1.0
  C  C128  1  0.13347000  0.31416000  0.46770000  1.0
  C  C129  1  0.86652000  0.81415000  0.03230000  1.0
  C  C130  1  0.86653000  0.68585000  0.53231000  1.0
  C  C131  1  0.13347000  0.18584000  0.96769000  1.0
  C  C132  1  0.08157000  0.27198000  0.52004000  1.0
  C  C133  1  0.91843000  0.77198000  0.97996000  1.0
  C  C134  1  0.91843000  0.72802000  0.47996000  1.0
  C  C135  1  0.08157000  0.22802000  0.02004000  1.0
  C  C136  1  0.98475000  0.22555000  0.48845000  1.0
  C  C137  1  0.01525000  0.72555000  0.01155000  1.0
  C  C138  1  0.01525000  0.77445000  0.51155000  1.0
  C  C139  1  0.98475000  0.27445000  0.98845000  1.0
  C  C140  1  0.94227000  0.22019000  0.40723000  1.0
  C  C141  1  0.05773000  0.72019000  0.09277000  1.0
  C  C142  1  0.05773000  0.77981000  0.59277000  1.0
  C  C143  1  0.94227000  0.27981000  0.90723000  1.0
  C  C144  1  0.21300000  0.29802000  0.65302000  1.0
  C  C145  1  0.78700000  0.79802000  0.84698000  1.0
  C  C146  1  0.78699000  0.70197000  0.34698000  1.0
  C  C147  1  0.21300000  0.20197000  0.15302000  1.0
  C  C148  1  0.30775000  0.28464000  0.79532000  1.0
  C  C149  1  0.69225000  0.78464000  0.70468000  1.0
  C  C150  1  0.69225000  0.71536000  0.20468000  1.0
  C  C151  1  0.30775000  0.21535000  0.29532000  1.0
  C  C152  1  0.36139000  0.36464000  0.81447000  1.0
  C  C153  1  0.63862000  0.86464000  0.68553000  1.0
  C  C154  1  0.63861000  0.63536000  0.18553000  1.0
  C  C155  1  0.36139000  0.13536000  0.31447000  1.0
  C  C156  1  0.45144000  0.37054000  0.87868000  1.0
  C  C157  1  0.54856000  0.87054000  0.62132000  1.0
  C  C158  1  0.54856000  0.62946000  0.12132000  1.0
  C  C159  1  0.45144000  0.12946000  0.37868000  1.0
  C  C160  1  0.49007000  0.29696000  0.92499000  1.0
  C  C161  1  0.50993000  0.79696000  0.57501000  1.0
  C  C162  1  0.50993000  0.70304000  0.07501000  1.0
  C  C163  1  0.49007000  0.20304000  0.42499000  1.0
  C  C164  1  0.43375000  0.21801000  0.90738000  1.0
  C  C165  1  0.56625000  0.71801000  0.59262000  1.0
  C  C166  1  0.56625000  0.78199000  0.09262000  1.0
  C  C167  1  0.43375000  0.28198000  0.40737000  1.0
  C  C168  1  0.34372000  0.21169000  0.84318000  1.0
  C  C169  1  0.65628000  0.71169000  0.65682000  1.0
  C  C170  1  0.65628000  0.78831000  0.15682000  1.0
  C  C171  1  0.34372000  0.28831000  0.34317000  1.0
  C  C172  1  0.59118000  0.30285000  0.99109000  1.0
  C  C173  1  0.40883000  0.80285000  0.50891000  1.0
  C  C174  1  0.40883000  0.69715000  0.00891000  1.0
  C  C175  1  0.59117000  0.19715000  0.49109000  1.0
  C  C176  1  0.91151000  0.09008000  0.12946000  1.0
  C  C177  1  0.08849000  0.59008000  0.37054000  1.0
  C  C178  1  0.08849000  0.90992000  0.87054000  1.0
  C  C179  1  0.91151000  0.40992000  0.62946000  1.0
  C  C180  1  0.97946000  0.03618000  0.09966000  1.0
  C  C181  1  0.02054000  0.53618000  0.40034000  1.0
  C  C182  1  0.02054000  0.96382000  0.90034000  1.0
  C  C183  1  0.97946000  0.46382000  0.59966000  1.0
  C  C184  1  0.96345000  0.02679000  0.01730000  1.0
  C  C185  1  0.03656000  0.52679000  0.48270000  1.0
  C  C186  1  0.03655000  0.97321000  0.98270000  1.0
  C  C187  1  0.96345000  0.47321000  0.51730000  1.0
  C  C188  1  0.87449000  0.07121000  0.96943000  1.0
  C  C189  1  0.12552000  0.57121000  0.53057000  1.0
  C  C190  1  0.12552000  0.92879000  0.03057000  1.0
  C  C191  1  0.87449000  0.42879000  0.46943000  1.0
  C  C192  1  0.81041000  0.12454000  0.00372000  1.0
  C  C193  1  0.18959000  0.62454000  0.49628000  1.0
  C  C194  1  0.18959000  0.87546000  0.99628000  1.0
  C  C195  1  0.81041000  0.37546000  0.50372000  1.0
  C  C196  1  0.69915000  0.36259000  0.24484000  1.0
  C  C197  1  0.30085000  0.86260000  0.25516000  1.0
  C  C198  1  0.30084000  0.63741000  0.75516000  1.0
  C  C199  1  0.69915000  0.13740000  0.74484000  1.0
  C  C200  1  0.63889000  0.42051000  0.27822000  1.0
  C  C201  1  0.36111000  0.92051000  0.22178000  1.0
  C  C202  1  0.36110000  0.57949000  0.72178000  1.0
  C  C203  1  0.63889000  0.07949000  0.77822000  1.0
  C  C204  1  0.52519000  0.41983000  0.25181000  1.0
  C  C205  1  0.47482000  0.91983000  0.24819000  1.0
  C  C206  1  0.47481000  0.58017000  0.74819000  1.0
  C  C207  1  0.52518000  0.08017000  0.75181000  1.0
  C  C208  1  0.47760000  0.35756000  0.19498000  1.0
  C  C209  1  0.52240000  0.85756000  0.30502000  1.0
  C  C210  1  0.52240000  0.64244000  0.80502000  1.0
  C  C211  1  0.47760000  0.14244000  0.69498000  1.0
  C  C212  1  0.54371000  0.30101000  0.16581000  1.0
  C  C213  1  0.45629000  0.80101000  0.33419000  1.0
  C  C214  1  0.45629000  0.69899000  0.83419000  1.0
  C  C215  1  0.54370000  0.19899000  0.66581000  1.0
  C  C216  1  0.31428000  0.59092000  0.25438000  1.0
  C  C217  1  0.68572000  0.09092000  0.24562000  1.0
  C  C218  1  0.68572000  0.40909000  0.74561000  1.0
  C  C219  1  0.31428000  0.90909000  0.75438000  1.0
  C  C220  1  0.37154000  0.52546000  0.22730000  1.0
  C  C221  1  0.62846000  0.02546000  0.27270000  1.0
  C  C222  1  0.62846000  0.47455000  0.77270000  1.0
  C  C223  1  0.37154000  0.97455000  0.72731000  1.0
  C  C224  1  0.45856000  0.48465000  0.28058000  1.0
  C  C225  1  0.54144000  0.98465000  0.21943000  1.0
  C  C226  1  0.54143000  0.51535000  0.71942000  1.0
  C  C227  1  0.45857000  0.01535000  0.78058000  1.0
  C  C228  1  0.48159000  0.51050000  0.36029000  1.0
  C  C229  1  0.51841000  0.01050000  0.13971000  1.0
  C  C230  1  0.51841000  0.48950000  0.63971000  1.0
  C  C231  1  0.48159000  0.98950000  0.86029000  1.0
  C  C232  1  0.41892000  0.57521000  0.38305000  1.0
  C  C233  1  0.58109000  0.07521000  0.11695000  1.0
  C  C234  1  0.58108000  0.42479000  0.61695000  1.0
  C  C235  1  0.41892000  0.92479000  0.88305000  1.0
  C  C236  1  0.04758000  0.47634000  0.18203000  1.0
  C  C237  1  0.95243000  0.97634000  0.31797000  1.0
  C  C238  1  0.95242000  0.52366000  0.81796000  1.0
  C  C239  1  0.04757000  0.02366000  0.68204000  1.0
  C  C240  1  0.06862000  0.47181000  0.10724000  1.0
  C  C241  1  0.93138000  0.97181000  0.39276000  1.0
  C  C242  1  0.93137000  0.52818000  0.89276000  1.0
  C  C243  1  0.06862000  0.02819000  0.60724000  1.0
  C  C244  1  0.99068000  0.50182000  0.04042000  1.0
  C  C245  1  0.00932000  0.00182000  0.45958000  1.0
  C  C246  1  0.00932000  0.49818000  0.95958000  1.0
  C  C247  1  0.99069000  0.99818000  0.54042000  1.0
  C  C248  1  0.89454000  0.53569000  0.05481000  1.0
  C  C249  1  0.10546000  0.03569000  0.44519000  1.0
  C  C250  1  0.10545000  0.46431000  0.94519000  1.0
  C  C251  1  0.89455000  0.96431000  0.55481000  1.0
  C  C252  1  0.88105000  0.53802000  0.13190000  1.0
  C  C253  1  0.11895000  0.03803000  0.36810000  1.0
  C  C254  1  0.11895000  0.46198000  0.86810000  1.0
  C  C255  1  0.88105000  0.96198000  0.63190000  1.0
  S  S256  1  0.31671000  0.34731000  0.62647000  1.0
  S  S257  1  0.68329000  0.84731000  0.87353000  1.0
  S  S258  1  0.68329000  0.65269000  0.37353000  1.0
  S  S259  1  0.31671000  0.15268000  0.12647000  1.0
  N  N260  1  0.11663000  0.27284000  0.60290000  1.0
  N  N261  1  0.88337000  0.77284000  0.89710000  1.0
  N  N262  1  0.88337000  0.72716000  0.39710000  1.0
  N  N263  1  0.11663000  0.22716000  0.10290000  1.0
  N  N264  1  0.21708000  0.27530000  0.73000000  1.0
  N  N265  1  0.78293000  0.77530000  0.77000000  1.0
  N  N266  1  0.78292000  0.72470000  0.27000000  1.0
  N  N267  1  0.21708000  0.22470000  0.23000000  1.0
  N  N268  1  0.65285000  0.30419000  0.18887000  1.0
  N  N269  1  0.34715000  0.80419000  0.31113000  1.0
  N  N270  1  0.34715000  0.69581000  0.81113000  1.0
  N  N271  1  0.65285000  0.19581000  0.68887000  1.0
  N  N272  1  0.33760000  0.61584000  0.33094000  1.0
  N  N273  1  0.66240000  0.11584000  0.16906000  1.0
  N  N274  1  0.66240000  0.38416000  0.66906000  1.0
  N  N275  1  0.33760000  0.88416000  0.83094000  1.0
  N  N276  1  0.82921000  0.13520000  0.08273000  1.0
  N  N277  1  0.17079000  0.63520000  0.41727000  1.0
  N  N278  1  0.17079000  0.86480000  0.91727000  1.0
  N  N279  1  0.82921000  0.36480000  0.58273000  1.0
  N  N280  1  0.95539000  0.50847000  0.19561000  1.0
  N  N281  1  0.04461000  0.00847000  0.30439000  1.0
  N  N282  1  0.04461000  0.49154000  0.80439000  1.0
  N  N283  1  0.95539000  0.99154000  0.69561000  1.0
  O  O284  1  0.85669000  0.21832000  0.24320000  1.0
  O  O285  1  0.14331000  0.71832000  0.25680000  1.0
  O  O286  1  0.14331000  0.78168000  0.75680000  1.0
  O  O287  1  0.85669000  0.28168000  0.74319000  1.0
  O  O288  1  0.00635000  0.28429000  0.22094000  1.0
  O  O289  1  0.99364000  0.78429000  0.27906000  1.0
  O  O290  1  0.99365000  0.71571000  0.77906000  1.0
  O  O291  1  0.00635000  0.21572000  0.72094000  1.0
  O  O292  1  0.62272000  0.23131000  0.02873000  1.0
  O  O293  1  0.37729000  0.73132000  0.47127000  1.0
  O  O294  1  0.37728000  0.76868000  0.97127000  1.0
  O  O295  1  0.62272000  0.26869000  0.52873000  1.0
  O  O296  1  0.63910000  0.37581000  0.00512000  1.0
  O  O297  1  0.36090000  0.87581000  0.49488000  1.0
  O  O298  1  0.36090000  0.62418000  0.99488000  1.0
  O  O299  1  0.63910000  0.12419000  0.50512000  1.0
  O  O300  1  0.81879000  0.32618000  0.09396000  1.0
  O  O301  1  0.18121000  0.82618000  0.40604000  1.0
  O  O302  1  0.18121000  0.67382000  0.90604000  1.0
  O  O303  1  0.81879000  0.17382000  0.59396000  1.0
