# generated using pymatgen
data_ZnH8C12N4Cl2O
_symmetry_space_group_name_H-M   'P 1'
_cell_length_a   5.27830000
_cell_length_b   12.37210000
_cell_length_c   20.48000000
_cell_angle_alpha   90.00000000
_cell_angle_beta   90.00000000
_cell_angle_gamma   94.72500000
_symmetry_Int_Tables_number   1
_chemical_formula_structural   ZnH8C12N4Cl2O
_chemical_formula_sum   'Zn4 H32 C48 N16 Cl8 O4'
_cell_volume   1332.87369806
_cell_formula_units_Z   4
loop_
 _symmetry_equiv_pos_site_id
 _symmetry_equiv_pos_as_xyz
  1  'x, y, z'
loop_
 _atom_site_type_symbol
 _atom_site_label
 _atom_site_symmetry_multiplicity
 _atom_site_fract_x
 _atom_site_fract_y
 _atom_site_fract_z
 _atom_site_occupancy
  Zn  Zn0  1  0.89739000  0.40687000  0.66516000  1.0
  Zn  Zn1  1  0.10261000  0.09313000  0.16516000  1.0
  Zn  Zn2  1  0.10261000  0.59312000  0.33484000  1.0
  Zn  Zn3  1  0.89739000  0.90687000  0.83484000  1.0
  H  H4  1  0.81847000  0.19319000  0.61244000  1.0
  H  H5  1  0.18153000  0.30681000  0.11244000  1.0
  H  H6  1  0.18153000  0.80681000  0.38756000  1.0
  H  H7  1  0.81847000  0.69319000  0.88757000  1.0
  H  H8  1  0.53185000  0.08253000  0.53815000  1.0
  H  H9  1  0.46815000  0.41747000  0.03815000  1.0
  H  H10  1  0.46815000  0.91746000  0.46185000  1.0
  H  H11  1  0.53184000  0.58254000  0.96185000  1.0
  H  H12  1  0.16223000  0.37375000  0.49243000  1.0
  H  H13  1  0.83775000  0.12624000  0.99243000  1.0
  H  H14  1  0.83776000  0.62624000  0.50757000  1.0
  H  H15  1  0.16226000  0.87377000  0.00757000  1.0
  H  H16  1  0.46154000  0.47196000  0.57103000  1.0
  H  H17  1  0.53846000  0.02804000  0.07103000  1.0
  H  H18  1  0.53846000  0.52803000  0.42897000  1.0
  H  H19  1  0.46156000  0.97197000  0.92897000  1.0
  H  H20  1  0.43299000  0.93261000  0.22270000  1.0
  H  H21  1  0.56701000  0.56739000  0.72270000  1.0
  H  H22  1  0.56700000  0.06739000  0.77729000  1.0
  H  H23  1  0.43298000  0.43261000  0.27729000  1.0
  H  H24  1  0.76489000  0.93087000  0.30963000  1.0
  H  H25  1  0.23510000  0.56913000  0.80963000  1.0
  H  H26  1  0.23510000  0.06912000  0.69037000  1.0
  H  H27  1  0.76490000  0.43088000  0.19037000  1.0
  H  H28  1  0.56461000  0.25035000  0.36724000  1.0
  H  H29  1  0.43539000  0.24965000  0.86723000  1.0
  H  H30  1  0.43539000  0.74965000  0.63276000  1.0
  H  H31  1  0.56462000  0.75036000  0.13277000  1.0
  H  H32  1  0.23013000  0.23495000  0.27968000  1.0
  H  H33  1  0.76987000  0.26505000  0.77968000  1.0
  H  H34  1  0.76987000  0.76505000  0.72032000  1.0
  H  H35  1  0.23013000  0.73495000  0.22032000  1.0
  C  C36  1  0.66971000  0.22967000  0.58518000  1.0
  C  C37  1  0.33030000  0.27032000  0.08518000  1.0
  C  C38  1  0.33029000  0.77032000  0.41482000  1.0
  C  C39  1  0.66970000  0.72968000  0.91483000  1.0
  C  C40  1  0.50853000  0.16854000  0.54390000  1.0
  C  C41  1  0.49147000  0.33146000  0.04390000  1.0
  C  C42  1  0.49147000  0.83146000  0.45610000  1.0
  C  C43  1  0.50853000  0.66855000  0.95610000  1.0
  C  C44  1  0.32152000  0.21900000  0.50926000  1.0
  C  C45  1  0.67847000  0.28099000  0.00926000  1.0
  C  C46  1  0.67847000  0.78099000  0.49074000  1.0
  C  C47  1  0.32154000  0.71902000  0.99074000  1.0
  C  C48  1  0.30327000  0.33042000  0.51835000  1.0
  C  C49  1  0.69671000  0.16958000  0.01835000  1.0
  C  C50  1  0.69671000  0.66957000  0.48164000  1.0
  C  C51  1  0.30330000  0.83044000  0.98165000  1.0
  C  C52  1  0.47276000  0.38576000  0.56149000  1.0
  C  C53  1  0.52724000  0.11423000  0.06149000  1.0
  C  C54  1  0.52723000  0.61423000  0.43851000  1.0
  C  C55  1  0.47278000  0.88578000  0.93852000  1.0
  C  C56  1  0.16721000  0.14942000  0.46498000  1.0
  C  C57  1  0.83279000  0.35057000  0.96498000  1.0
  C  C58  1  0.83278000  0.85057000  0.53502000  1.0
  C  C59  1  0.16723000  0.64944000  0.03502000  1.0
  C  C60  1  0.89282000  0.09160000  0.39319000  1.0
  C  C61  1  0.10718000  0.40839000  0.89319000  1.0
  C  C62  1  0.10719000  0.90839000  0.60681000  1.0
  C  C63  1  0.89281000  0.59162000  0.10682000  1.0
  C  C64  1  0.46561000  0.00014000  0.25669000  1.0
  C  C65  1  0.53438000  0.49986000  0.75669000  1.0
  C  C66  1  0.53439000  0.99986000  0.74331000  1.0
  C  C67  1  0.46561000  0.50014000  0.24331000  1.0
  C  C68  1  0.65003000  0.99974000  0.30483000  1.0
  C  C69  1  0.34998000  0.50025000  0.80483000  1.0
  C  C70  1  0.34997000  0.00026000  0.69517000  1.0
  C  C71  1  0.65003000  0.49974000  0.19517000  1.0
  C  C72  1  0.68960000  0.09082000  0.34561000  1.0
  C  C73  1  0.31040000  0.40917000  0.84561000  1.0
  C  C74  1  0.31040000  0.90917000  0.65439000  1.0
  C  C75  1  0.68960000  0.59083000  0.15439000  1.0
  C  C76  1  0.53718000  0.17740000  0.33744000  1.0
  C  C77  1  0.46282000  0.32260000  0.83744000  1.0
  C  C78  1  0.46283000  0.82260000  0.66256000  1.0
  C  C79  1  0.53717000  0.67740000  0.16256000  1.0
  C  C80  1  0.35457000  0.17018000  0.28845000  1.0
  C  C81  1  0.64543000  0.32982000  0.78845000  1.0
  C  C82  1  0.64543000  0.82982000  0.71155000  1.0
  C  C83  1  0.35457000  0.67018000  0.21155000  1.0
  N  N84  1  0.65345000  0.33687000  0.59403000  1.0
  N  N85  1  0.34655000  0.16313000  0.09404000  1.0
  N  N86  1  0.34655000  0.66313000  0.40597000  1.0
  N  N87  1  0.65346000  0.83687000  0.90597000  1.0
  N  N88  1  0.20856000  0.04840000  0.45162000  1.0
  N  N89  1  0.79144000  0.45160000  0.95161000  1.0
  N  N90  1  0.79144000  0.95160000  0.54838000  1.0
  N  N91  1  0.20856000  0.54841000  0.04838000  1.0
  N  N92  1  0.03345000  0.01126000  0.40572000  1.0
  N  N93  1  0.96655000  0.48874000  0.90572000  1.0
  N  N94  1  0.96655000  0.98873000  0.59428000  1.0
  N  N95  1  0.03344000  0.51127000  0.09428000  1.0
  N  N96  1  0.32153000  0.08390000  0.24823000  1.0
  N  N97  1  0.67847000  0.41610000  0.74823000  1.0
  N  N98  1  0.67846000  0.91611000  0.75177000  1.0
  N  N99  1  0.32153000  0.58390000  0.25177000  1.0
  Cl  Cl100  1  0.14186000  0.27340000  0.69094000  1.0
  Cl  Cl101  1  0.85814000  0.22660000  0.19094000  1.0
  Cl  Cl102  1  0.85813000  0.72660000  0.30906000  1.0
  Cl  Cl103  1  0.14186000  0.77340000  0.80906000  1.0
  Cl  Cl104  1  0.03428000  0.57254000  0.63167000  1.0
  Cl  Cl105  1  0.96572000  0.92746000  0.13167000  1.0
  Cl  Cl106  1  0.96573000  0.42746000  0.36833000  1.0
  Cl  Cl107  1  0.03427000  0.07254000  0.86833000  1.0
  O  O108  1  0.96684000  0.18206000  0.42974000  1.0
  O  O109  1  0.03315000  0.31793000  0.92974000  1.0
  O  O110  1  0.03316000  0.81793000  0.57026000  1.0
  O  O111  1  0.96685000  0.68207000  0.07027000  1.0
