# generated using pymatgen
data_VCdPH18C15N3O10
_symmetry_space_group_name_H-M   'P 1'
_cell_length_a   10.00560000
_cell_length_b   11.71950000
_cell_length_c   12.30710000
_cell_angle_alpha   107.66800000
_cell_angle_beta   113.22100000
_cell_angle_gamma   101.36700000
_symmetry_Int_Tables_number   1
_chemical_formula_structural   VCdPH18C15N3O10
_chemical_formula_sum   'V2 Cd2 P2 H36 C30 N6 O20'
_cell_volume   1178.09602183
_cell_formula_units_Z   2
loop_
 _symmetry_equiv_pos_site_id
 _symmetry_equiv_pos_as_xyz
  1  'x, y, z'
loop_
 _atom_site_type_symbol
 _atom_site_label
 _atom_site_symmetry_multiplicity
 _atom_site_fract_x
 _atom_site_fract_y
 _atom_site_fract_z
 _atom_site_occupancy
  V  V0  1  0.54084000  0.16511000  0.22030000  1.0
  V  V1  1  0.45916000  0.83488000  0.77970000  1.0
  Cd  Cd2  1  0.05466000  0.29985000  0.24822000  1.0
  Cd  Cd3  1  0.94534000  0.70015000  0.75178000  1.0
  P  P4  1  0.67548000  0.12143000  0.02358000  1.0
  P  P5  1  0.32452000  0.87856000  0.97641000  1.0
  H  H6  1  0.37743000  0.35070000  0.39678000  1.0
  H  H7  1  0.62257000  0.64929000  0.60322000  1.0
  H  H8  1  0.33291000  0.39476000  0.50976000  1.0
  H  H9  1  0.66709000  0.60524000  0.49024000  1.0
  H  H10  1  0.07816000  0.38486000  0.50804000  1.0
  H  H11  1  0.92184000  0.61514000  0.49196000  1.0
  H  H12  1  0.89584000  0.34894000  0.40161000  1.0
  H  H13  1  0.10416000  0.65106000  0.59840000  1.0
  H  H14  1  0.99001000  0.91961000  0.40306000  1.0
  H  H15  1  0.00999000  0.08039000  0.59694000  1.0
  H  H16  1  0.98284000  0.12866000  0.38828000  1.0
  H  H17  1  0.01716000  0.87135000  0.61173000  1.0
  H  H18  1  0.12223000  0.05570000  0.10684000  1.0
  H  H19  1  0.87777000  0.94430000  0.89316000  1.0
  H  H20  1  0.12501000  0.84478000  0.10195000  1.0
  H  H21  1  0.87499000  0.15523000  0.89805000  1.0
  H  H22  1  0.21076000  0.81345000  0.46687000  1.0
  H  H23  1  0.78924000  0.18656000  0.53313000  1.0
  H  H24  1  0.20696000  0.59873000  0.45699000  1.0
  H  H25  1  0.79304000  0.40127000  0.54301000  1.0
  H  H26  1  0.92085000  0.42123000  0.05619000  1.0
  H  H27  1  0.07915000  0.57877000  0.94381000  1.0
  H  H28  1  0.92160000  0.63287000  0.04583000  1.0
  H  H29  1  0.07841000  0.36714000  0.95417000  1.0
  H  H30  1  0.25383000  0.15112000  0.94641000  1.0
  H  H31  1  0.74617000  0.84888000  0.05360000  1.0
  H  H32  1  0.30210000  0.31559000  0.97441000  1.0
  H  H33  1  0.69790000  0.68441000  0.02560000  1.0
  H  H34  1  0.54690000  0.45734000  0.10583000  1.0
  H  H35  1  0.45310000  0.54266000  0.89418000  1.0
  H  H36  1  0.69503000  0.39818000  0.10016000  1.0
  H  H37  1  0.30497000  0.60181000  0.89984000  1.0
  H  H38  1  0.53561000  0.22538000  0.89518000  1.0
  H  H39  1  0.46439000  0.77462000  0.10482000  1.0
  H  H40  1  0.40883000  0.08943000  0.88840000  1.0
  H  H41  1  0.59117000  0.91056000  0.11160000  1.0
  C  C42  1  0.02084000  0.94738000  0.33671000  1.0
  C  C43  1  0.97917000  0.05262000  0.66329000  1.0
  C  C44  1  0.01653000  0.06280000  0.32942000  1.0
  C  C45  1  0.98347000  0.93720000  0.67058000  1.0
  C  C46  1  0.09114000  0.02223000  0.17002000  1.0
  C  C47  1  0.90886000  0.97777000  0.82999000  1.0
  C  C48  1  0.09414000  0.90387000  0.16873000  1.0
  C  C49  1  0.90586000  0.09613000  0.83127000  1.0
  C  C50  1  0.05982000  0.86522000  0.25466000  1.0
  C  C51  1  0.94018000  0.13478000  0.74534000  1.0
  C  C52  1  0.06205000  0.74020000  0.25624000  1.0
  C  C53  1  0.93795000  0.25980000  0.74376000  1.0
  C  C54  1  0.14233000  0.72985000  0.37290000  1.0
  C  C55  1  0.85767000  0.27015000  0.62709000  1.0
  C  C56  1  0.14137000  0.60951000  0.36829000  1.0
  C  C57  1  0.85863000  0.39049000  0.63171000  1.0
  C  C58  1  0.98424000  0.51156000  0.14382000  1.0
  C  C59  1  0.01576000  0.48845000  0.85618000  1.0
  C  C60  1  0.98368000  0.62832000  0.13903000  1.0
  C  C61  1  0.01632000  0.37168000  0.86097000  1.0
  C  C62  1  0.29834000  0.27322000  0.13255000  1.0
  C  C63  1  0.70166000  0.72678000  0.86745000  1.0
  C  C64  1  0.33264000  0.24932000  0.01909000  1.0
  C  C65  1  0.66736000  0.75068000  0.98091000  1.0
  C  C66  1  0.60408000  0.39022000  0.12941000  1.0
  C  C67  1  0.39592000  0.60978000  0.87059000  1.0
  C  C68  1  0.69293000  0.43713000  0.27724000  1.0
  C  C69  1  0.30707000  0.56287000  0.72276000  1.0
  C  C70  1  0.51435000  0.17583000  0.95331000  1.0
  C  C71  1  0.48565000  0.82416000  0.04669000  1.0
  N  N72  1  0.05268000  0.10048000  0.24811000  1.0
  N  N73  1  0.94732000  0.89952000  0.75189000  1.0
  N  N74  1  0.06145000  0.50197000  0.25635000  1.0
  N  N75  1  0.93855000  0.49804000  0.74365000  1.0
  N  N76  1  0.49354000  0.25684000  0.05902000  1.0
  N  N77  1  0.50646000  0.74316000  0.94098000  1.0
  O  O78  1  0.38502000  0.25242000  0.22879000  1.0
  O  O79  1  0.61498000  0.74758000  0.77122000  1.0
  O  O80  1  0.18439000  0.30723000  0.12371000  1.0
  O  O81  1  0.81561000  0.69277000  0.87629000  1.0
  O  O82  1  0.70072000  0.35059000  0.32166000  1.0
  O  O83  1  0.29929000  0.64940000  0.67835000  1.0
  O  O84  1  0.76045000  0.55580000  0.34685000  1.0
  O  O85  1  0.23955000  0.44420000  0.65315000  1.0
  O  O86  1  0.67379000  0.11405000  0.14685000  1.0
  O  O87  1  0.32621000  0.88594000  0.85315000  1.0
  O  O88  1  0.82699000  0.22031000  0.05773000  1.0
  O  O89  1  0.17301000  0.77969000  0.94226000  1.0
  O  O90  1  0.64334000  0.98742000  0.92429000  1.0
  O  O91  1  0.35666000  0.01258000  0.07571000  1.0
  O  O92  1  0.58600000  0.12829000  0.34273000  1.0
  O  O93  1  0.41401000  0.87170000  0.65727000  1.0
  O  O94  1  0.32050000  0.39894000  0.42844000  1.0
  O  O95  1  0.67950000  0.60106000  0.57156000  1.0
  O  O96  1  0.99239000  0.33173000  0.41613000  1.0
  O  O97  1  0.00761000  0.66827000  0.58387000  1.0
