# generated using pymatgen
data_ZnH26C30(NO)4
_symmetry_space_group_name_H-M   'P 1'
_cell_length_a   9.86014000
_cell_length_b   12.28260000
_cell_length_c   12.49300000
_cell_angle_alpha   61.13360000
_cell_angle_beta   85.90800000
_cell_angle_gamma   88.80360000
_symmetry_Int_Tables_number   1
_chemical_formula_structural   ZnH26C30(NO)4
_chemical_formula_sum   'Zn2 H52 C60 N8 O8'
_cell_volume   1321.47281180
_cell_formula_units_Z   2
loop_
 _symmetry_equiv_pos_site_id
 _symmetry_equiv_pos_as_xyz
  1  'x, y, z'
loop_
 _atom_site_type_symbol
 _atom_site_label
 _atom_site_symmetry_multiplicity
 _atom_site_fract_x
 _atom_site_fract_y
 _atom_site_fract_z
 _atom_site_occupancy
  Zn  Zn0  1  0.67852000  0.29125000  0.00252000  1.0
  Zn  Zn1  1  0.32148000  0.70876000  0.99748000  1.0
  H  H2  1  0.17976000  0.46522000  0.87797000  1.0
  H  H3  1  0.82024000  0.53478000  0.12203000  1.0
  H  H4  1  0.92861000  0.42650000  0.80511000  1.0
  H  H5  1  0.07139000  0.57350000  0.19488000  1.0
  H  H6  1  0.94411000  0.34839000  0.28813000  1.0
  H  H7  1  0.05589000  0.65161000  0.71186000  1.0
  H  H8  1  0.87320000  0.20190000  0.50540000  1.0
  H  H9  1  0.12681000  0.79810000  0.49460000  1.0
  H  H10  1  0.79678000  0.98696000  0.56591000  1.0
  H  H11  1  0.20322000  0.01304000  0.43409000  1.0
  H  H12  1  0.79080000  0.91838000  0.40902000  1.0
  H  H13  1  0.20920000  0.08162000  0.59098000  1.0
  H  H14  1  0.86062000  0.06537000  0.19111000  1.0
  H  H15  1  0.13938000  0.93463000  0.80889000  1.0
  H  H16  1  0.44544000  0.98038000  0.81911000  1.0
  H  H17  1  0.55456000  0.01962000  0.18089000  1.0
  H  H18  1  0.37142000  0.18525000  0.85142000  1.0
  H  H19  1  0.62858000  0.81475000  0.14859000  1.0
  H  H20  1  0.97404000  0.92274000  0.10623000  1.0
  H  H21  1  0.02596000  0.07726000  0.89377000  1.0
  H  H22  1  0.83797000  0.78197000  0.29654000  1.0
  H  H23  1  0.16203000  0.21803000  0.70346000  1.0
  H  H24  1  0.95076000  0.61169000  0.47074000  1.0
  H  H25  1  0.04924000  0.38831000  0.52925000  1.0
  H  H26  1  0.20087000  0.58256000  0.45192000  1.0
  H  H27  1  0.79913000  0.41744000  0.54808000  1.0
  H  H28  1  0.33747000  0.72363000  0.25975000  1.0
  H  H29  1  0.66253000  0.27637000  0.74025000  1.0
  H  H30  1  0.16105000  0.37657000  0.19416000  1.0
  H  H31  1  0.83895000  0.62343000  0.80584000  1.0
  H  H32  1  0.27319000  0.40592000  0.06665000  1.0
  H  H33  1  0.72681000  0.59408000  0.93335000  1.0
  H  H34  1  0.15912000  0.14928000  0.26202000  1.0
  H  H35  1  0.84088000  0.85072000  0.73798000  1.0
  H  H36  1  0.32189000  0.21042000  0.25591000  1.0
  H  H37  1  0.67811000  0.78958000  0.74409000  1.0
  H  H38  1  0.37850000  0.21716000  0.05105000  1.0
  H  H39  1  0.62151000  0.78284000  0.94896000  1.0
  H  H40  1  0.35425000  0.06812000  0.18047000  1.0
  H  H41  1  0.64575000  0.93188000  0.81953000  1.0
  H  H42  1  0.11238000  0.06460000  0.12518000  1.0
  H  H43  1  0.88762000  0.93540000  0.87481000  1.0
  H  H44  1  0.15261000  0.20024000  0.98313000  1.0
  H  H45  1  0.84739000  0.79976000  0.01687000  1.0
  H  H46  1  0.44238000  0.87238000  0.60825000  1.0
  H  H47  1  0.55762000  0.12762000  0.39175000  1.0
  H  H48  1  0.51964000  0.91021000  0.39848000  1.0
  H  H49  1  0.48036000  0.08979000  0.60153000  1.0
  H  H50  1  0.59249000  0.72912000  0.36761000  1.0
  H  H51  1  0.40751000  0.27088000  0.63239000  1.0
  H  H52  1  0.59587000  0.51852000  0.54601000  1.0
  H  H53  1  0.40413000  0.48148000  0.45399000  1.0
  C  C54  1  0.95327000  0.29845000  0.09641000  1.0
  C  C55  1  0.04673000  0.70155000  0.90359000  1.0
  C  C56  1  0.08680000  0.41542000  0.92889000  1.0
  C  C57  1  0.91320000  0.58457000  0.07111000  1.0
  C  C58  1  0.96407000  0.39486000  0.89552000  1.0
  C  C59  1  0.03593000  0.60513000  0.10448000  1.0
  C  C60  1  0.90830000  0.21611000  0.22529000  1.0
  C  C61  1  0.09170000  0.78389000  0.77471000  1.0
  C  C62  1  0.91198000  0.25382000  0.31475000  1.0
  C  C63  1  0.08801000  0.74618000  0.68525000  1.0
  C  C64  1  0.87178000  0.17154000  0.43669000  1.0
  C  C65  1  0.12822000  0.82846000  0.56331000  1.0
  C  C66  1  0.82830000  0.05103000  0.47065000  1.0
  C  C67  1  0.17171000  0.94897000  0.52935000  1.0
  C  C68  1  0.82441000  0.01259000  0.38247000  1.0
  C  C69  1  0.17559000  0.98741000  0.61753000  1.0
  C  C70  1  0.86351000  0.09487000  0.26035000  1.0
  C  C71  1  0.13649000  0.90513000  0.73965000  1.0
  C  C72  1  0.24630000  0.91570000  0.05775000  1.0
  C  C73  1  0.75370000  0.08430000  0.94225000  1.0
  C  C74  1  0.38174000  0.98559000  0.89063000  1.0
  C  C75  1  0.61826000  0.01441000  0.10937000  1.0
  C  C76  1  0.34189000  0.08735000  0.90226000  1.0
  C  C77  1  0.65811000  0.91266000  0.09774000  1.0
  C  C78  1  0.16501000  0.83323000  0.17103000  1.0
  C  C79  1  0.83499000  0.16677000  0.82897000  1.0
  C  C80  1  0.02422000  0.84912000  0.18252000  1.0
  C  C81  1  0.97578000  0.15088000  0.81748000  1.0
  C  C82  1  0.94740000  0.76950000  0.28949000  1.0
  C  C83  1  0.05261000  0.23050000  0.71051000  1.0
  C  C84  1  0.01071000  0.67315000  0.38654000  1.0
  C  C85  1  0.98929000  0.32685000  0.61346000  1.0
  C  C86  1  0.15079000  0.65675000  0.37581000  1.0
  C  C87  1  0.84921000  0.34325000  0.62418000  1.0
  C  C88  1  0.22815000  0.73608000  0.26866000  1.0
  C  C89  1  0.77185000  0.26392000  0.73134000  1.0
  C  C90  1  0.19263000  0.34263000  0.12975000  1.0
  C  C91  1  0.80737000  0.65737000  0.87025000  1.0
  C  C92  1  0.24234000  0.20954000  0.19912000  1.0
  C  C93  1  0.75766000  0.79045000  0.80088000  1.0
  C  C94  1  0.30175000  0.15380000  0.12036000  1.0
  C  C95  1  0.69825000  0.84620000  0.87964000  1.0
  C  C96  1  0.19588000  0.11846000  0.05851000  1.0
  C  C97  1  0.80413000  0.88154000  0.94149000  1.0
  C  C98  1  0.52150000  0.57542000  0.67742000  1.0
  C  C99  1  0.47850000  0.42458000  0.32258000  1.0
  C  C100  1  0.47659000  0.67613000  0.69437000  1.0
  C  C101  1  0.52341000  0.32387000  0.30563000  1.0
  C  C102  1  0.47851000  0.79597000  0.59343000  1.0
  C  C103  1  0.52149000  0.20403000  0.40658000  1.0
  C  C104  1  0.52063000  0.81637000  0.47612000  1.0
  C  C105  1  0.47937000  0.18363000  0.52388000  1.0
  C  C106  1  0.56229000  0.71618000  0.45879000  1.0
  C  C107  1  0.43771000  0.28382000  0.54121000  1.0
  C  C108  1  0.56328000  0.59677000  0.55935000  1.0
  C  C109  1  0.43672000  0.40323000  0.44065000  1.0
  C  C110  1  0.53406000  0.44537000  0.78307000  1.0
  C  C111  1  0.46594000  0.55463000  0.21693000  1.0
  C  C112  1  0.41565000  0.65441000  0.81701000  1.0
  C  C113  1  0.58434000  0.34559000  0.18299000  1.0
  N  N114  1  0.88187000  0.32261000  0.99984000  1.0
  N  N115  1  0.11813000  0.67739000  0.00016000  1.0
  N  N116  1  0.07828000  0.35496000  0.05546000  1.0
  N  N117  1  0.92172000  0.64504000  0.94454000  1.0
  N  N118  1  0.25511000  0.04214000  0.00695000  1.0
  N  N119  1  0.74489000  0.95786000  0.99305000  1.0
  N  N120  1  0.32297000  0.87968000  0.98755000  1.0
  N  N121  1  0.67704000  0.12032000  0.01245000  1.0
  O  O122  1  0.62932000  0.43728000  0.85273000  1.0
  O  O123  1  0.37069000  0.56272000  0.14727000  1.0
  O  O124  1  0.46446000  0.35779000  0.79075000  1.0
  O  O125  1  0.53554000  0.64220000  0.20926000  1.0
  O  O126  1  0.42269000  0.74687000  0.83990000  1.0
  O  O127  1  0.57730000  0.25313000  0.16010000  1.0
  O  O128  1  0.35782000  0.55268000  0.88800000  1.0
  O  O129  1  0.64218000  0.44732000  0.11200000  1.0
