# generated using pymatgen
data_Zn3H22C28N3O13
_symmetry_space_group_name_H-M   'P 1'
_cell_length_a   11.51830000
_cell_length_b   11.69110000
_cell_length_c   14.12140000
_cell_angle_alpha   71.77030000
_cell_angle_beta   74.49770000
_cell_angle_gamma   70.93930000
_symmetry_Int_Tables_number   1
_chemical_formula_structural   Zn3H22C28N3O13
_chemical_formula_sum   'Zn6 H44 C56 N6 O26'
_cell_volume   1678.01812889
_cell_formula_units_Z   2
loop_
 _symmetry_equiv_pos_site_id
 _symmetry_equiv_pos_as_xyz
  1  'x, y, z'
loop_
 _atom_site_type_symbol
 _atom_site_label
 _atom_site_symmetry_multiplicity
 _atom_site_fract_x
 _atom_site_fract_y
 _atom_site_fract_z
 _atom_site_occupancy
  Zn  Zn0  1  0.29934000  0.10979000  0.23313000  1.0
  Zn  Zn1  1  0.70066000  0.89021000  0.76687000  1.0
  Zn  Zn2  1  0.05412000  0.98022000  0.38983000  1.0
  Zn  Zn3  1  0.94588000  0.01978000  0.61017000  1.0
  Zn  Zn4  1  0.20400000  0.11863000  0.46283000  1.0
  Zn  Zn5  1  0.79600000  0.88138000  0.53717000  1.0
  H  H6  1  0.46266000  0.79586000  0.56158000  1.0
  H  H7  1  0.53734000  0.20415000  0.43842000  1.0
  H  H8  1  0.51224000  0.72943000  0.26966000  1.0
  H  H9  1  0.48776000  0.27057000  0.73034000  1.0
  H  H10  1  0.56623000  0.56516000  0.78828000  1.0
  H  H11  1  0.43377000  0.43485000  0.21172000  1.0
  H  H12  1  0.45515000  0.67929000  0.71870000  1.0
  H  H13  1  0.54485000  0.32071000  0.28130000  1.0
  H  H14  1  0.86196000  0.47744000  0.50680000  1.0
  H  H15  1  0.13804000  0.52256000  0.49320000  1.0
  H  H16  1  0.85881000  0.44173000  0.39301000  1.0
  H  H17  1  0.14119000  0.55826000  0.60699000  1.0
  H  H18  1  0.68527000  0.62500000  0.18087000  1.0
  H  H19  1  0.31473000  0.37500000  0.81913000  1.0
  H  H20  1  0.56150000  0.55461000  0.20602000  1.0
  H  H21  1  0.43850000  0.44539000  0.79398000  1.0
  H  H22  1  0.17300000  0.30556000  0.06286000  1.0
  H  H23  1  0.82700000  0.69443000  0.93714000  1.0
  H  H24  1  0.14603000  0.31098000  0.89701000  1.0
  H  H25  1  0.85397000  0.68902000  0.10299000  1.0
  H  H26  1  0.38916000  0.93323000  0.93064000  1.0
  H  H27  1  0.61083000  0.06676000  0.06936000  1.0
  H  H28  1  0.39473000  0.93850000  0.10324000  1.0
  H  H29  1  0.60527000  0.06150000  0.89676000  1.0
  H  H30  1  0.15410000  0.31841000  0.75108000  1.0
  H  H31  1  0.84590000  0.68159000  0.24892000  1.0
  H  H32  1  0.14153000  0.30990000  0.58110000  1.0
  H  H33  1  0.85846000  0.69010000  0.41890000  1.0
  H  H34  1  0.34517000  0.94020000  0.62548000  1.0
  H  H35  1  0.65482000  0.05980000  0.37451000  1.0
  H  H36  1  0.36620000  0.92870000  0.79730000  1.0
  H  H37  1  0.63379000  0.07130000  0.20270000  1.0
  H  H38  1  0.90732000  0.16370000  0.22982000  1.0
  H  H39  1  0.09268000  0.83630000  0.77018000  1.0
  H  H40  1  0.88442000  0.18397000  0.06213000  1.0
  H  H41  1  0.11558000  0.81603000  0.93787000  1.0
  H  H42  1  0.12917000  0.80715000  0.07889000  1.0
  H  H43  1  0.87083000  0.19285000  0.92111000  1.0
  H  H44  1  0.14494000  0.80359000  0.25189000  1.0
  H  H45  1  0.85507000  0.19642000  0.74811000  1.0
  H  H46  1  0.07896000  0.20856000  0.32131000  1.0
  H  H47  1  0.92104000  0.79145000  0.67869000  1.0
  H  H48  1  0.82628000  0.10506000  0.45055000  1.0
  H  H49  1  0.17372000  0.89494000  0.54945000  1.0
  C  C50  1  0.40649000  0.90196000  0.37618000  1.0
  C  C51  1  0.59351000  0.09804000  0.62382000  1.0
  C  C52  1  0.48206000  0.77276000  0.41265000  1.0
  C  C53  1  0.51794000  0.22724000  0.58736000  1.0
  C  C54  1  0.50258000  0.73193000  0.51257000  1.0
  C  C55  1  0.49742000  0.26806000  0.48743000  1.0
  C  C56  1  0.57653000  0.61163000  0.54610000  1.0
  C  C57  1  0.42347000  0.38837000  0.45390000  1.0
  C  C58  1  0.63243000  0.53476000  0.47809000  1.0
  C  C59  1  0.36757000  0.46524000  0.52192000  1.0
  C  C60  1  0.61003000  0.57569000  0.37785000  1.0
  C  C61  1  0.38996000  0.42431000  0.62216000  1.0
  C  C62  1  0.53320000  0.69492000  0.34568000  1.0
  C  C63  1  0.46680000  0.30508000  0.65432000  1.0
  C  C64  1  0.55598000  0.63173000  0.71434000  1.0
  C  C65  1  0.44402000  0.36827000  0.28566000  1.0
  C  C66  1  0.63119000  0.72362000  0.69912000  1.0
  C  C67  1  0.36881000  0.27638000  0.30088000  1.0
  C  C68  1  0.83678000  0.41386000  0.47655000  1.0
  C  C69  1  0.16322000  0.58614000  0.52345000  1.0
  C  C70  1  0.91730000  0.28297000  0.51182000  1.0
  C  C71  1  0.08270000  0.71703000  0.48818000  1.0
  C  C72  1  0.65928000  0.53640000  0.21365000  1.0
  C  C73  1  0.34072000  0.46360000  0.78635000  1.0
  C  C74  1  0.74419000  0.43907000  0.15388000  1.0
  C  C75  1  0.25582000  0.56092000  0.84613000  1.0
  C  C76  1  0.21678000  0.22282000  0.03317000  1.0
  C  C77  1  0.78323000  0.77717000  0.96683000  1.0
  C  C78  1  0.20445000  0.22562000  0.93720000  1.0
  C  C79  1  0.79556000  0.77437000  0.06279000  1.0
  C  C80  1  0.26652000  0.12217000  0.89565000  1.0
  C  C81  1  0.73348000  0.87783000  0.10435000  1.0
  C  C82  1  0.33752000  0.01723000  0.95693000  1.0
  C  C83  1  0.66248000  0.98276000  0.04307000  1.0
  C  C84  1  0.34262000  0.01921000  0.05321000  1.0
  C  C85  1  0.65738000  0.98079000  0.94678000  1.0
  C  C86  1  0.25916000  0.12301000  0.79254000  1.0
  C  C87  1  0.74083000  0.87699000  0.20745000  1.0
  C  C88  1  0.19714000  0.23110000  0.72811000  1.0
  C  C89  1  0.80285000  0.76890000  0.27189000  1.0
  C  C90  1  0.19002000  0.22812000  0.63242000  1.0
  C  C91  1  0.80998000  0.77188000  0.36758000  1.0
  C  C92  1  0.30381000  0.02132000  0.65726000  1.0
  C  C93  1  0.69618000  0.97869000  0.34274000  1.0
  C  C94  1  0.31480000  0.01657000  0.75398000  1.0
  C  C95  1  0.68520000  0.98343000  0.24602000  1.0
  C  C96  1  0.95758000  0.08514000  0.19543000  1.0
  C  C97  1  0.04242000  0.91486000  0.80457000  1.0
  C  C98  1  0.94409000  0.09585000  0.09800000  1.0
  C  C99  1  0.05591000  0.90415000  0.90201000  1.0
  C  C100  1  0.00563000  0.99634000  0.05189000  1.0
  C  C101  1  0.99438000  0.00366000  0.94811000  1.0
  C  C102  1  0.07879000  0.88865000  0.10897000  1.0
  C  C103  1  0.92122000  0.11136000  0.89103000  1.0
  C  C104  1  0.08823000  0.88500000  0.20580000  1.0
  C  C105  1  0.91178000  0.11501000  0.79419000  1.0
  N  N106  1  0.28402000  0.12063000  0.09112000  1.0
  N  N107  1  0.71598000  0.87937000  0.90888000  1.0
  N  N108  1  0.24108000  0.12451000  0.59769000  1.0
  N  N109  1  0.75892000  0.87549000  0.40231000  1.0
  N  N110  1  0.02880000  0.98185000  0.24861000  1.0
  N  N111  1  0.97120000  0.01816000  0.75139000  1.0
  O  O112  1  0.38704000  0.93434000  0.28410000  1.0
  O  O113  1  0.61296000  0.06566000  0.71590000  1.0
  O  O114  1  0.36681000  0.97456000  0.43539000  1.0
  O  O115  1  0.63319000  0.02544000  0.56461000  1.0
  O  O116  1  0.60190000  0.55848000  0.64198000  1.0
  O  O117  1  0.39810000  0.44152000  0.35802000  1.0
  O  O118  1  0.71493000  0.73623000  0.62172000  1.0
  O  O119  1  0.28507000  0.26378000  0.37828000  1.0
  O  O120  1  0.60193000  0.77948000  0.77114000  1.0
  O  O121  1  0.39807000  0.22052000  0.22886000  1.0
  O  O122  1  0.70791000  0.41781000  0.51140000  1.0
  O  O123  1  0.29209000  0.58219000  0.48860000  1.0
  O  O124  1  0.86404000  0.20403000  0.57737000  1.0
  O  O125  1  0.13596000  0.79597000  0.42263000  1.0
  O  O126  1  0.03213000  0.26568000  0.47174000  1.0
  O  O127  1  0.96786000  0.73432000  0.52826000  1.0
  O  O128  1  0.66920000  0.49294000  0.31908000  1.0
  O  O129  1  0.33080000  0.50706000  0.68092000  1.0
  O  O130  1  0.78534000  0.48602000  0.06221000  1.0
  O  O131  1  0.21467000  0.51397000  0.93780000  1.0
  O  O132  1  0.76015000  0.32470000  0.20043000  1.0
  O  O133  1  0.23986000  0.67529000  0.79958000  1.0
  O  O134  1  0.13721000  0.12573000  0.32758000  1.0
  O  O135  1  0.86280000  0.87427000  0.67242000  1.0
  O  O136  1  0.88506000  0.02513000  0.47285000  1.0
  O  O137  1  0.11494000  0.97487000  0.52715000  1.0
