# generated using pymatgen
data_CdH22C26N2O7
_symmetry_space_group_name_H-M   'P 1'
_cell_length_a   6.76362000
_cell_length_b   11.85250000
_cell_length_c   15.88300000
_cell_angle_alpha   111.56400000
_cell_angle_beta   90.00000000
_cell_angle_gamma   90.00000000
_symmetry_Int_Tables_number   1
_chemical_formula_structural   CdH22C26N2O7
_chemical_formula_sum   'Cd2 H44 C52 N4 O14'
_cell_volume   1184.15403186
_cell_formula_units_Z   2
loop_
 _symmetry_equiv_pos_site_id
 _symmetry_equiv_pos_as_xyz
  1  'x, y, z'
loop_
 _atom_site_type_symbol
 _atom_site_label
 _atom_site_symmetry_multiplicity
 _atom_site_fract_x
 _atom_site_fract_y
 _atom_site_fract_z
 _atom_site_occupancy
  Cd  Cd0  1  0.64102000  0.25000000  0.75000000  1.0
  Cd  Cd1  1  0.35898000  0.75000000  0.25000000  1.0
  H  H2  1  0.69132000  0.31827000  0.96701000  1.0
  H  H3  1  0.69132000  0.18173000  0.53299000  1.0
  H  H4  1  0.30868000  0.68173000  0.03299000  1.0
  H  H5  1  0.30868000  0.81827000  0.46701000  1.0
  H  H6  1  0.75811000  0.50159000  0.10819000  1.0
  H  H7  1  0.75811000  0.99841000  0.39181000  1.0
  H  H8  1  0.24188000  0.49841000  0.89181000  1.0
  H  H9  1  0.24189000  0.00159000  0.60819000  1.0
  H  H10  1  0.82242000  0.70040000  0.09292000  1.0
  H  H11  1  0.82242000  0.79960000  0.40708000  1.0
  H  H12  1  0.17758000  0.29960000  0.90708000  1.0
  H  H13  1  0.17758000  0.20040000  0.59292000  1.0
  H  H14  1  0.72959000  0.52185000  0.80489000  1.0
  H  H15  1  0.72959000  0.97815000  0.69511000  1.0
  H  H16  1  0.27041000  0.47815000  0.19511000  1.0
  H  H17  1  0.27041000  0.02185000  0.30489000  1.0
  H  H18  1  0.77577000  0.73297000  0.86342000  1.0
  H  H19  1  0.77577000  0.76704000  0.63658000  1.0
  H  H20  1  0.22423000  0.26703000  0.13658000  1.0
  H  H21  1  0.22423000  0.23297000  0.36342000  1.0
  H  H22  1  0.77348000  0.82192000  0.98265000  1.0
  H  H23  1  0.77348000  0.67808000  0.51735000  1.0
  H  H24  1  0.22653000  0.17808000  0.01735000  1.0
  H  H25  1  0.22653000  0.32192000  0.48265000  1.0
  H  H26  1  0.04059000  0.04769000  0.81339000  1.0
  H  H27  1  0.04060000  0.45231000  0.68661000  1.0
  H  H28  1  0.95941000  0.95231000  0.18661000  1.0
  H  H29  1  0.95941000  0.54769000  0.31339000  1.0
  H  H30  1  0.86340000  0.90452000  0.86290000  1.0
  H  H31  1  0.86340000  0.59548000  0.63709000  1.0
  H  H32  1  0.13660000  0.09548000  0.13709000  1.0
  H  H33  1  0.13660000  0.40452000  0.36290000  1.0
  H  H34  1  0.41434000  0.78763000  0.94165000  1.0
  H  H35  1  0.41434000  0.71237000  0.55835000  1.0
  H  H36  1  0.58566000  0.21237000  0.05835000  1.0
  H  H37  1  0.58566000  0.28763000  0.44165000  1.0
  H  H38  1  0.59246000  0.94108000  0.89568000  1.0
  H  H39  1  0.59246000  0.55892000  0.60432000  1.0
  H  H40  1  0.40754000  0.05892000  0.10432000  1.0
  H  H41  1  0.40754000  0.44108000  0.39568000  1.0
  H  H42  1  0.10451000  0.18873000  0.75520000  1.0
  H  H43  1  0.10451000  0.31127000  0.74480000  1.0
  H  H44  1  0.89549000  0.81127000  0.24480000  1.0
  H  H45  1  0.89549000  0.68873000  0.25520000  1.0
  C  C46  1  0.71450000  0.40794000  0.96447000  1.0
  C  C47  1  0.71450000  0.09206000  0.53553000  1.0
  C  C48  1  0.28550000  0.59206000  0.03553000  1.0
  C  C49  1  0.28550000  0.90794000  0.46447000  1.0
  C  C50  1  0.75416000  0.50927000  0.04197000  1.0
  C  C51  1  0.75416000  0.99073000  0.45803000  1.0
  C  C52  1  0.24584000  0.49073000  0.95803000  1.0
  C  C53  1  0.24584000  0.00927000  0.54197000  1.0
  C  C54  1  0.78865000  0.62038000  0.03326000  1.0
  C  C55  1  0.78865000  0.87961000  0.46674000  1.0
  C  C56  1  0.21135000  0.37962000  0.96674000  1.0
  C  C57  1  0.21135000  0.12038000  0.53326000  1.0
  C  C58  1  0.78284000  0.62680000  0.94704000  1.0
  C  C59  1  0.78284000  0.87320000  0.55296000  1.0
  C  C60  1  0.21716000  0.37320000  0.05296000  1.0
  C  C61  1  0.21716000  0.12680000  0.44704000  1.0
  C  C62  1  0.73794000  0.52151000  0.87353000  1.0
  C  C63  1  0.73794000  0.97849000  0.62647000  1.0
  C  C64  1  0.26206000  0.47849000  0.12647000  1.0
  C  C65  1  0.26206000  0.02151000  0.37353000  1.0
  C  C66  1  0.83334000  0.73961000  0.92997000  1.0
  C  C67  1  0.83334000  0.76039000  0.57003000  1.0
  C  C68  1  0.16666000  0.26039000  0.07003000  1.0
  C  C69  1  0.16666000  0.23961000  0.42997000  1.0
  C  C70  1  0.12519000  0.99056000  0.84052000  1.0
  C  C71  1  0.12519000  0.50944000  0.65948000  1.0
  C  C72  1  0.87481000  0.00944000  0.15948000  1.0
  C  C73  1  0.87481000  0.49056000  0.34052000  1.0
  C  C74  1  0.02356000  0.90846000  0.86861000  1.0
  C  C75  1  0.02356000  0.59154000  0.63139000  1.0
  C  C76  1  0.97644000  0.09154000  0.13139000  1.0
  C  C77  1  0.97644000  0.40846000  0.36861000  1.0
  C  C78  1  0.12922000  0.83349000  0.90338000  1.0
  C  C79  1  0.12922000  0.66651000  0.59662000  1.0
  C  C80  1  0.87078000  0.16651000  0.09662000  1.0
  C  C81  1  0.87078000  0.33349000  0.40338000  1.0
  C  C82  1  0.33544000  0.84454000  0.91243000  1.0
  C  C83  1  0.33544000  0.65546000  0.58757000  1.0
  C  C84  1  0.66456000  0.15546000  0.08757000  1.0
  C  C85  1  0.66456000  0.34454000  0.41243000  1.0
  C  C86  1  0.43362000  0.92877000  0.88623000  1.0
  C  C87  1  0.43362000  0.57123000  0.61377000  1.0
  C  C88  1  0.56638000  0.07123000  0.11376000  1.0
  C  C89  1  0.56638000  0.42877000  0.38623000  1.0
  C  C90  1  0.33118000  0.00190000  0.84849000  1.0
  C  C91  1  0.33118000  0.49810000  0.65151000  1.0
  C  C92  1  0.66882000  0.99810000  0.15150000  1.0
  C  C93  1  0.66882000  0.50190000  0.34849000  1.0
  C  C94  1  0.44024000  0.08786000  0.81653000  1.0
  C  C95  1  0.44024000  0.41214000  0.68348000  1.0
  C  C96  1  0.55976000  0.91214000  0.18347000  1.0
  C  C97  1  0.55976000  0.58786000  0.31652000  1.0
  N  N98  1  0.70411000  0.41450000  0.88185000  1.0
  N  N99  1  0.70411000  0.08550000  0.61815000  1.0
  N  N100  1  0.29589000  0.58550000  0.11815000  1.0
  N  N101  1  0.29589000  0.91450000  0.38185000  1.0
  O  O102  1  0.04615000  0.74757000  0.93038000  1.0
  O  O103  1  0.04615000  0.75243000  0.56962000  1.0
  O  O104  1  0.95385000  0.25243000  0.06962000  1.0
  O  O105  1  0.95385000  0.24757000  0.43038000  1.0
  O  O106  1  0.62278000  0.10997000  0.83632000  1.0
  O  O107  1  0.62278000  0.39003000  0.66368000  1.0
  O  O108  1  0.37722000  0.89003000  0.16368000  1.0
  O  O109  1  0.37722000  0.60997000  0.33632000  1.0
  O  O110  1  0.34693000  0.13600000  0.76793000  1.0
  O  O111  1  0.34693000  0.36400000  0.73207000  1.0
  O  O112  1  0.65307000  0.86400000  0.23207000  1.0
  O  O113  1  0.65307000  0.63600000  0.26793000  1.0
  O  O114  1  0.01080000  0.25000000  0.75000000  1.0
  O  O115  1  0.98920000  0.75000000  0.25000000  1.0
