# generated using pymatgen
data_MnH5C4NO4
_symmetry_space_group_name_H-M   'P 1'
_cell_length_a   8.31827000
_cell_length_b   9.46898000
_cell_length_c   15.09090000
_cell_angle_alpha   90.00020000
_cell_angle_beta   89.99980000
_cell_angle_gamma   89.99990000
_symmetry_Int_Tables_number   1
_chemical_formula_structural   MnH5C4NO4
_chemical_formula_sum   'Mn8 H40 C32 N8 O32'
_cell_volume   1188.64277084
_cell_formula_units_Z   8
loop_
 _symmetry_equiv_pos_site_id
 _symmetry_equiv_pos_as_xyz
  1  'x, y, z'
loop_
 _atom_site_type_symbol
 _atom_site_label
 _atom_site_symmetry_multiplicity
 _atom_site_fract_x
 _atom_site_fract_y
 _atom_site_fract_z
 _atom_site_occupancy
  Mn  Mn0  1  0.89911000  0.44747000  0.60083000  1.0
  Mn  Mn1  1  0.60088000  0.55252000  0.10084000  1.0
  Mn  Mn2  1  0.10088000  0.94747000  0.89916000  1.0
  Mn  Mn3  1  0.39912000  0.05252000  0.39916000  1.0
  Mn  Mn4  1  0.10089000  0.55253000  0.39917000  1.0
  Mn  Mn5  1  0.39912000  0.44748000  0.89916000  1.0
  Mn  Mn6  1  0.89912000  0.05253000  0.10084000  1.0
  Mn  Mn7  1  0.60088000  0.94748000  0.60084000  1.0
  H  H8  1  0.97265000  0.19738000  0.69454000  1.0
  H  H9  1  0.52735000  0.80262000  0.19454000  1.0
  H  H10  1  0.02735000  0.69738000  0.80546000  1.0
  H  H11  1  0.47265000  0.30262000  0.30546000  1.0
  H  H12  1  0.02735000  0.80262000  0.30546000  1.0
  H  H13  1  0.47265000  0.19738000  0.80546000  1.0
  H  H14  1  0.97265000  0.30262000  0.19454000  1.0
  H  H15  1  0.52735000  0.69738000  0.69454000  1.0
  H  H16  1  0.28855000  0.31969000  0.68578000  1.0
  H  H17  1  0.21144000  0.68031000  0.18579000  1.0
  H  H18  1  0.71145000  0.81968000  0.81422000  1.0
  H  H19  1  0.78856000  0.18031000  0.31421000  1.0
  H  H20  1  0.71145000  0.68031000  0.31422000  1.0
  H  H21  1  0.78856000  0.31969000  0.81421000  1.0
  H  H22  1  0.28855000  0.18031000  0.18579000  1.0
  H  H23  1  0.21145000  0.81969000  0.68579000  1.0
  H  H24  1  0.18560000  0.24927000  0.77810000  1.0
  H  H25  1  0.31440000  0.75073000  0.27810000  1.0
  H  H26  1  0.81440000  0.74927000  0.72190000  1.0
  H  H27  1  0.68560000  0.25073000  0.22190000  1.0
  H  H28  1  0.81440000  0.75073000  0.22190000  1.0
  H  H29  1  0.68560000  0.24927000  0.72190000  1.0
  H  H30  1  0.18560000  0.25073000  0.27810000  1.0
  H  H31  1  0.31440000  0.74927000  0.77810000  1.0
  H  H32  1  0.01611000  0.10689000  0.56259000  1.0
  H  H33  1  0.48389000  0.89311000  0.06259000  1.0
  H  H34  1  0.98389000  0.60689000  0.93741000  1.0
  H  H35  1  0.51611000  0.39311000  0.43741000  1.0
  H  H36  1  0.98389000  0.89311000  0.43741000  1.0
  H  H37  1  0.51611000  0.10689000  0.93741000  1.0
  H  H38  1  0.01611000  0.39311000  0.06259000  1.0
  H  H39  1  0.48389000  0.60689000  0.56259000  1.0
  H  H40  1  0.21580000  0.11272000  0.60431000  1.0
  H  H41  1  0.28420000  0.88728000  0.10431000  1.0
  H  H42  1  0.78420000  0.61272000  0.89569000  1.0
  H  H43  1  0.71580000  0.38728000  0.39569000  1.0
  H  H44  1  0.78420000  0.88728000  0.39569000  1.0
  H  H45  1  0.71580000  0.11272000  0.89569000  1.0
  H  H46  1  0.21580000  0.38728000  0.10431000  1.0
  H  H47  1  0.28420000  0.61272000  0.60431000  1.0
  C  C48  1  0.13608000  0.46803000  0.74940000  1.0
  C  C49  1  0.36392000  0.53196000  0.24940000  1.0
  C  C50  1  0.86392000  0.96803000  0.75060000  1.0
  C  C51  1  0.63608000  0.03196000  0.25060000  1.0
  C  C52  1  0.86392000  0.53197000  0.25060000  1.0
  C  C53  1  0.63608000  0.46804000  0.75060000  1.0
  C  C54  1  0.13608000  0.03197000  0.24940000  1.0
  C  C55  1  0.36392000  0.96804000  0.74940000  1.0
  C  C56  1  0.17103000  0.31731000  0.71956000  1.0
  C  C57  1  0.32897000  0.68269000  0.21957000  1.0
  C  C58  1  0.82897000  0.81731000  0.78044000  1.0
  C  C59  1  0.67103000  0.18269000  0.28043000  1.0
  C  C60  1  0.82897000  0.68269000  0.28044000  1.0
  C  C61  1  0.67103000  0.31731000  0.78043000  1.0
  C  C62  1  0.17103000  0.18269000  0.21956000  1.0
  C  C63  1  0.32897000  0.81731000  0.71957000  1.0
  C  C64  1  0.11202000  0.17840000  0.58535000  1.0
  C  C65  1  0.38798000  0.82160000  0.08535000  1.0
  C  C66  1  0.88798000  0.67840000  0.91465000  1.0
  C  C67  1  0.61202000  0.32160000  0.41465000  1.0
  C  C68  1  0.88799000  0.82160000  0.41465000  1.0
  C  C69  1  0.61202000  0.17840000  0.91465000  1.0
  C  C70  1  0.11202000  0.32160000  0.08535000  1.0
  C  C71  1  0.38798000  0.67840000  0.58535000  1.0
  C  C72  1  0.16006000  0.26897000  0.50628000  1.0
  C  C73  1  0.33995000  0.73102000  0.00628000  1.0
  C  C74  1  0.83994000  0.76898000  0.99373000  1.0
  C  C75  1  0.66005000  0.23102000  0.49372000  1.0
  C  C76  1  0.83994000  0.73102000  0.49372000  1.0
  C  C77  1  0.66005000  0.26898000  0.99372000  1.0
  C  C78  1  0.16006000  0.23102000  0.00628000  1.0
  C  C79  1  0.33995000  0.76898000  0.50628000  1.0
  N  N80  1  0.04770000  0.26216000  0.65894000  1.0
  N  N81  1  0.45230000  0.73784000  0.15894000  1.0
  N  N82  1  0.95230000  0.76216000  0.84106000  1.0
  N  N83  1  0.54771000  0.23784000  0.34106000  1.0
  N  N84  1  0.95230000  0.73784000  0.34106000  1.0
  N  N85  1  0.54770000  0.26216000  0.84106000  1.0
  N  N86  1  0.04770000  0.23784000  0.15894000  1.0
  N  N87  1  0.45230000  0.76216000  0.65894000  1.0
  O  O88  1  0.04546000  0.54545000  0.70151000  1.0
  O  O89  1  0.45454000  0.45455000  0.20151000  1.0
  O  O90  1  0.95454000  0.04545000  0.79849000  1.0
  O  O91  1  0.54546000  0.95455000  0.29849000  1.0
  O  O92  1  0.95454000  0.45455000  0.29849000  1.0
  O  O93  1  0.54546000  0.54545000  0.79849000  1.0
  O  O94  1  0.04546000  0.95455000  0.20151000  1.0
  O  O95  1  0.45454000  0.04545000  0.70152000  1.0
  O  O96  1  0.20050000  0.51287000  0.82023000  1.0
  O  O97  1  0.29950000  0.48713000  0.32023000  1.0
  O  O98  1  0.79950000  0.01287000  0.67977000  1.0
  O  O99  1  0.70050000  0.98713000  0.17977000  1.0
  O  O100  1  0.79950000  0.48713000  0.17977000  1.0
  O  O101  1  0.70050000  0.51287000  0.67977000  1.0
  O  O102  1  0.20050000  0.98713000  0.32023000  1.0
  O  O103  1  0.29950000  0.01287000  0.82023000  1.0
  O  O104  1  0.25175000  0.21889000  0.44823000  1.0
  O  O105  1  0.24825000  0.78111000  0.94823000  1.0
  O  O106  1  0.74825000  0.71889000  0.05177000  1.0
  O  O107  1  0.75175000  0.28111000  0.55177000  1.0
  O  O108  1  0.74825000  0.78111000  0.55177000  1.0
  O  O109  1  0.75175000  0.21889000  0.05177000  1.0
  O  O110  1  0.25175000  0.28111000  0.94823000  1.0
  O  O111  1  0.24825000  0.71889000  0.44823000  1.0
  O  O112  1  0.09979000  0.39392000  0.50224000  1.0
  O  O113  1  0.40022000  0.60608000  0.00225000  1.0
  O  O114  1  0.90021000  0.89392000  0.99776000  1.0
  O  O115  1  0.59978000  0.10608000  0.49775000  1.0
  O  O116  1  0.90022000  0.60608000  0.49775000  1.0
  O  O117  1  0.59978000  0.39392000  0.99775000  1.0
  O  O118  1  0.09979000  0.10608000  0.00224000  1.0
  O  O119  1  0.40022000  0.89392000  0.50225000  1.0
