# generated using pymatgen
data_AlH15C33(SO5)3
_symmetry_space_group_name_H-M   'P 1'
_cell_length_a   4.26700000
_cell_length_b   20.32300000
_cell_length_c   20.35530000
_cell_angle_alpha   60.08890000
_cell_angle_beta   88.06710000
_cell_angle_gamma   88.00140000
_symmetry_Int_Tables_number   1
_chemical_formula_structural   AlH15C33(SO5)3
_chemical_formula_sum   'Al1 H15 C33 S3 O15'
_cell_volume   1528.85191601
_cell_formula_units_Z   1
loop_
 _symmetry_equiv_pos_site_id
 _symmetry_equiv_pos_as_xyz
  1  'x, y, z'
loop_
 _atom_site_type_symbol
 _atom_site_label
 _atom_site_symmetry_multiplicity
 _atom_site_fract_x
 _atom_site_fract_y
 _atom_site_fract_z
 _atom_site_occupancy
  Al  Al0  1  0.09131000  0.49871000  0.49952000  1.0
  H  H1  1  0.88168000  0.30876000  0.70479000  1.0
  H  H2  1  0.86901000  0.23435000  0.84658000  1.0
  H  H3  1  0.29931000  0.70810000  0.30893000  1.0
  H  H4  1  0.30862000  0.85042000  0.23671000  1.0
  H  H5  1  0.31343000  0.31162000  0.48173000  1.0
  H  H6  1  0.31513000  0.23926000  0.41172000  1.0
  H  H7  1  0.85855000  0.70479000  0.48233000  1.0
  H  H8  1  0.84161000  0.84687000  0.41497000  1.0
  H  H9  1  0.28029000  0.48075000  0.70917000  1.0
  H  H10  1  0.29365000  0.41102000  0.85121000  1.0
  H  H11  1  0.91648000  0.47752000  0.30969000  1.0
  H  H12  1  0.89474000  0.41008000  0.23531000  1.0
  H  H13  1  0.90503000  0.02711000  0.36727000  1.0
  H  H14  1  0.91202000  0.36660000  0.10998000  1.0
  H  H15  1  0.93732000  0.10854000  0.02454000  1.0
  C  C16  1  0.58307000  0.44131000  0.61441000  1.0
  C  C17  1  0.60955000  0.44117000  0.44188000  1.0
  C  C18  1  0.58188000  0.61381000  0.44184000  1.0
  C  C19  1  0.74969000  0.32980000  0.73752000  1.0
  C  C20  1  0.74444000  0.28876000  0.81617000  1.0
  C  C21  1  0.42220000  0.73912000  0.33071000  1.0
  C  C22  1  0.42533000  0.81787000  0.29086000  1.0
  C  C23  1  0.44461000  0.33160000  0.42858000  1.0
  C  C24  1  0.44376000  0.29173000  0.38973000  1.0
  C  C25  1  0.73492000  0.73738000  0.42922000  1.0
  C  C26  1  0.72720000  0.81613000  0.39165000  1.0
  C  C27  1  0.41295000  0.42757000  0.73989000  1.0
  C  C28  1  0.41831000  0.38885000  0.81851000  1.0
  C  C29  1  0.78158000  0.42607000  0.33075000  1.0
  C  C30  1  0.77081000  0.38849000  0.28961000  1.0
  C  C31  1  0.58111000  0.39878000  0.69892000  1.0
  C  C32  1  0.58071000  0.31831000  0.85747000  1.0
  C  C33  1  0.56657000  0.27785000  0.93736000  1.0
  C  C34  1  0.52513000  0.24599000  0.00582000  1.0
  C  C35  1  0.48689000  0.20712000  0.08513000  1.0
  C  C36  1  0.57929000  0.69842000  0.39966000  1.0
  C  C37  1  0.57391000  0.85722000  0.32172000  1.0
  C  C38  1  0.55684000  0.93721000  0.28281000  1.0
  C  C39  1  0.51455000  0.00581000  0.24700000  1.0
  C  C40  1  0.47979000  0.08533000  0.20677000  1.0
  C  C41  1  0.61383000  0.39879000  0.39959000  1.0
  C  C42  1  0.60152000  0.32083000  0.31883000  1.0
  C  C43  1  0.57419000  0.28250000  0.27767000  1.0
  C  C44  1  0.51995000  0.24707000  0.24568000  1.0
  C  C45  1  0.48038000  0.20716000  0.20674000  1.0
  C  C46  1  0.47418000  0.12657000  0.12637000  1.0
  C  C47  1  0.46229000  0.12689000  0.24596000  1.0
  C  C48  1  0.47102000  0.24651000  0.12636000  1.0
  S  S49  1  0.35158000  0.07976000  0.34511000  1.0
  S  S50  1  0.36927000  0.34643000  0.07694000  1.0
  S  S51  1  0.38563000  0.07668000  0.07690000  1.0
  O  O52  1  0.35358000  0.58159000  0.43078000  1.0
  O  O53  1  0.34615000  0.48480000  0.58241000  1.0
  O  O54  1  0.37289000  0.43057000  0.48609000  1.0
  O  O55  1  0.81257000  0.58069000  0.48577000  1.0
  O  O56  1  0.84040000  0.48426000  0.43053000  1.0
  O  O57  1  0.82273000  0.43035000  0.58132000  1.0
  O  O58  1  0.61877000  0.03998000  0.39325000  1.0
  O  O59  1  0.18414000  0.13325000  0.36031000  1.0
  O  O60  1  0.13379000  0.01764000  0.35148000  1.0
  O  O61  1  0.63498000  0.39281000  0.07026000  1.0
  O  O62  1  0.21872000  0.36466000  0.00787000  1.0
  O  O63  1  0.13653000  0.35186000  0.13406000  1.0
  O  O64  1  0.66140000  0.06987000  0.03602000  1.0
  O  O65  1  0.23218000  0.00751000  0.12847000  1.0
  O  O66  1  0.15870000  0.13362000  0.01597000  1.0
