# generated using pymatgen
data_NiH30C26(N2O)4
_symmetry_space_group_name_H-M   'P 1'
_cell_length_a   19.68117059
_cell_length_b   19.68120047
_cell_length_c   19.68110000
_cell_angle_alpha   60.46090194
_cell_angle_beta   60.46095263
_cell_angle_gamma   60.46078219
_symmetry_Int_Tables_number   1
_chemical_formula_structural   NiH30C26(N2O)4
_chemical_formula_sum   'Ni6 H180 C156 N48 O24'
_cell_volume   5446.75897686
_cell_formula_units_Z   6
loop_
 _symmetry_equiv_pos_site_id
 _symmetry_equiv_pos_as_xyz
  1  'x, y, z'
loop_
 _atom_site_type_symbol
 _atom_site_label
 _atom_site_symmetry_multiplicity
 _atom_site_fract_x
 _atom_site_fract_y
 _atom_site_fract_z
 _atom_site_occupancy
  Ni  Ni0  1  0.25000000  0.72630000  0.77370000  1.0
  Ni  Ni1  1  0.72629000  0.77371000  0.25000000  1.0
  Ni  Ni2  1  0.77370000  0.25000000  0.72630000  1.0
  Ni  Ni3  1  0.75001000  0.27370000  0.22629000  1.0
  Ni  Ni4  1  0.27371000  0.22629000  0.75000000  1.0
  Ni  Ni5  1  0.22630000  0.75000000  0.27370000  1.0
  H  H6  1  0.09123000  0.85534000  0.36970000  1.0
  H  H7  1  0.85534000  0.36970000  0.09123000  1.0
  H  H8  1  0.36971000  0.09122000  0.85534000  1.0
  H  H9  1  0.13030000  0.64466000  0.40877000  1.0
  H  H10  1  0.64466000  0.40877000  0.13030000  1.0
  H  H11  1  0.40878000  0.13029000  0.64466000  1.0
  H  H12  1  0.90877000  0.14466000  0.63030000  1.0
  H  H13  1  0.14466000  0.63030000  0.90877000  1.0
  H  H14  1  0.63029000  0.90878000  0.14466000  1.0
  H  H15  1  0.86970000  0.35534000  0.59123000  1.0
  H  H16  1  0.35534000  0.59123000  0.86970000  1.0
  H  H17  1  0.59122000  0.86971000  0.35534000  1.0
  H  H18  1  0.35172000  0.77815000  0.60488000  1.0
  H  H19  1  0.77815000  0.60487000  0.35172000  1.0
  H  H20  1  0.60487000  0.35174000  0.77813000  1.0
  H  H21  1  0.89513000  0.72185000  0.14827000  1.0
  H  H22  1  0.72185000  0.14828000  0.89512000  1.0
  H  H23  1  0.14826000  0.89513000  0.72187000  1.0
  H  H24  1  0.64828000  0.22185000  0.39513000  1.0
  H  H25  1  0.22185000  0.39513000  0.64828000  1.0
  H  H26  1  0.39513000  0.64827000  0.22186000  1.0
  H  H27  1  0.10487000  0.27815000  0.85172000  1.0
  H  H28  1  0.27815000  0.85172000  0.10488000  1.0
  H  H29  1  0.85174000  0.10487000  0.27813000  1.0
  H  H30  1  0.92730000  0.77056000  0.01774000  1.0
  H  H31  1  0.77055000  0.01775000  0.92730000  1.0
  H  H32  1  0.01774000  0.92732000  0.77055000  1.0
  H  H33  1  0.48225000  0.72945000  0.57270000  1.0
  H  H34  1  0.72944000  0.57270000  0.48226000  1.0
  H  H35  1  0.57268000  0.48226000  0.72945000  1.0
  H  H36  1  0.07270000  0.22944000  0.98226000  1.0
  H  H37  1  0.22945000  0.98225000  0.07270000  1.0
  H  H38  1  0.98226000  0.07268000  0.22945000  1.0
  H  H39  1  0.51775000  0.27055000  0.42731000  1.0
  H  H40  1  0.27056000  0.42730000  0.51774000  1.0
  H  H41  1  0.42732000  0.51774000  0.27055000  1.0
  H  H42  1  0.33892000  0.88526000  0.40661000  1.0
  H  H43  1  0.88525000  0.40661000  0.33894000  1.0
  H  H44  1  0.40661000  0.33893000  0.88525000  1.0
  H  H45  1  0.09339000  0.61475000  0.16107000  1.0
  H  H46  1  0.61474000  0.16108000  0.09339000  1.0
  H  H47  1  0.16107000  0.09339000  0.61475000  1.0
  H  H48  1  0.66108000  0.11474000  0.59339000  1.0
  H  H49  1  0.11475000  0.59339000  0.66107000  1.0
  H  H50  1  0.59339000  0.66107000  0.11475000  1.0
  H  H51  1  0.90661000  0.38525000  0.83893000  1.0
  H  H52  1  0.38526000  0.83892000  0.90661000  1.0
  H  H53  1  0.83893000  0.90661000  0.38525000  1.0
  H  H54  1  0.37855000  0.78596000  0.39939000  1.0
  H  H55  1  0.78596000  0.39939000  0.37855000  1.0
  H  H56  1  0.39939000  0.37856000  0.78596000  1.0
  H  H57  1  0.10061000  0.71404000  0.12145000  1.0
  H  H58  1  0.71404000  0.12145000  0.10061000  1.0
  H  H59  1  0.12144000  0.10061000  0.71405000  1.0
  H  H60  1  0.62145000  0.21404000  0.60060000  1.0
  H  H61  1  0.21404000  0.60061000  0.62145000  1.0
  H  H62  1  0.60061000  0.62144000  0.21405000  1.0
  H  H63  1  0.89939000  0.28596000  0.87855000  1.0
  H  H64  1  0.28596000  0.87855000  0.89939000  1.0
  H  H65  1  0.87856000  0.89939000  0.28595000  1.0
  H  H66  1  0.42137000  0.80783000  0.44482000  1.0
  H  H67  1  0.80782000  0.44482000  0.42138000  1.0
  H  H68  1  0.44481000  0.42138000  0.80783000  1.0
  H  H69  1  0.05519000  0.69218000  0.07861000  1.0
  H  H70  1  0.69217000  0.07863000  0.05518000  1.0
  H  H71  1  0.07862000  0.05519000  0.69217000  1.0
  H  H72  1  0.57863000  0.19217000  0.55518000  1.0
  H  H73  1  0.19218000  0.55519000  0.57862000  1.0
  H  H74  1  0.55519000  0.57862000  0.19217000  1.0
  H  H75  1  0.94481000  0.30783000  0.92137000  1.0
  H  H76  1  0.30783000  0.92137000  0.94482000  1.0
  H  H77  1  0.92138000  0.94481000  0.30783000  1.0
  H  H78  1  0.11853000  0.69156000  0.73893000  1.0
  H  H79  1  0.69157000  0.73894000  0.11852000  1.0
  H  H80  1  0.73893000  0.11853000  0.69157000  1.0
  H  H81  1  0.76106000  0.80843000  0.38148000  1.0
  H  H82  1  0.80844000  0.38147000  0.76107000  1.0
  H  H83  1  0.38147000  0.76107000  0.80843000  1.0
  H  H84  1  0.88147000  0.30844000  0.26107000  1.0
  H  H85  1  0.30843000  0.26106000  0.88148000  1.0
  H  H86  1  0.26107000  0.88147000  0.30843000  1.0
  H  H87  1  0.23894000  0.19157000  0.61852000  1.0
  H  H88  1  0.19156000  0.61853000  0.23893000  1.0
  H  H89  1  0.61853000  0.23893000  0.19157000  1.0
  H  H90  1  0.08864000  0.73747000  0.64952000  1.0
  H  H91  1  0.73747000  0.64952000  0.08864000  1.0
  H  H92  1  0.64951000  0.08864000  0.73748000  1.0
  H  H93  1  0.85048000  0.76253000  0.41136000  1.0
  H  H94  1  0.76253000  0.41136000  0.85049000  1.0
  H  H95  1  0.41136000  0.85049000  0.76252000  1.0
  H  H96  1  0.91136000  0.26253000  0.35049000  1.0
  H  H97  1  0.26253000  0.35048000  0.91136000  1.0
  H  H98  1  0.35049000  0.91136000  0.26252000  1.0
  H  H99  1  0.14952000  0.23747000  0.58864000  1.0
  H  H100  1  0.23747000  0.58864000  0.14951000  1.0
  H  H101  1  0.58864000  0.14951000  0.23748000  1.0
  H  H102  1  0.06432000  0.79873000  0.70662000  1.0
  H  H103  1  0.79875000  0.70660000  0.06432000  1.0
  H  H104  1  0.70661000  0.06433000  0.79873000  1.0
  H  H105  1  0.79340000  0.70125000  0.43568000  1.0
  H  H106  1  0.70127000  0.43568000  0.79338000  1.0
  H  H107  1  0.43568000  0.79340000  0.70125000  1.0
  H  H108  1  0.93568000  0.20127000  0.29338000  1.0
  H  H109  1  0.20125000  0.29340000  0.93568000  1.0
  H  H110  1  0.29340000  0.93567000  0.20126000  1.0
  H  H111  1  0.20660000  0.29874000  0.56433000  1.0
  H  H112  1  0.29873000  0.56432000  0.20662000  1.0
  H  H113  1  0.56433000  0.20660000  0.29874000  1.0
  H  H114  1  0.36380000  0.66349000  0.37006000  1.0
  H  H115  1  0.66350000  0.37006000  0.36379000  1.0
  H  H116  1  0.37006000  0.36378000  0.66349000  1.0
  H  H117  1  0.12994000  0.83650000  0.13621000  1.0
  H  H118  1  0.83651000  0.13620000  0.12994000  1.0
  H  H119  1  0.13622000  0.12994000  0.83651000  1.0
  H  H120  1  0.63620000  0.33651000  0.62994000  1.0
  H  H121  1  0.33650000  0.62994000  0.63621000  1.0
  H  H122  1  0.62994000  0.63622000  0.33651000  1.0
  H  H123  1  0.87006000  0.16350000  0.86379000  1.0
  H  H124  1  0.16349000  0.86380000  0.87006000  1.0
  H  H125  1  0.86378000  0.87006000  0.16349000  1.0
  H  H126  1  0.35224000  0.66339000  0.46578000  1.0
  H  H127  1  0.66338000  0.46578000  0.35225000  1.0
  H  H128  1  0.46576000  0.35226000  0.66339000  1.0
  H  H129  1  0.03422000  0.83661000  0.14776000  1.0
  H  H130  1  0.83661000  0.14775000  0.03423000  1.0
  H  H131  1  0.14774000  0.03424000  0.83661000  1.0
  H  H132  1  0.64775000  0.33661000  0.53423000  1.0
  H  H133  1  0.33661000  0.53422000  0.64776000  1.0
  H  H134  1  0.53424000  0.64774000  0.33661000  1.0
  H  H135  1  0.96578000  0.16338000  0.85225000  1.0
  H  H136  1  0.16339000  0.85225000  0.96577000  1.0
  H  H137  1  0.85226000  0.96576000  0.16339000  1.0
  H  H138  1  0.31028000  0.60258000  0.46478000  1.0
  H  H139  1  0.60259000  0.46477000  0.31027000  1.0
  H  H140  1  0.46478000  0.31028000  0.60258000  1.0
  H  H141  1  0.03523000  0.89741000  0.18973000  1.0
  H  H142  1  0.89742000  0.18972000  0.03522000  1.0
  H  H143  1  0.18972000  0.03522000  0.89742000  1.0
  H  H144  1  0.68972000  0.39742000  0.53522000  1.0
  H  H145  1  0.39741000  0.53523000  0.68973000  1.0
  H  H146  1  0.53522000  0.68972000  0.39742000  1.0
  H  H147  1  0.96477000  0.10259000  0.81027000  1.0
  H  H148  1  0.10258000  0.81028000  0.96478000  1.0
  H  H149  1  0.81028000  0.96478000  0.10258000  1.0
  H  H150  1  0.00355000  0.87965000  0.55073000  1.0
  H  H151  1  0.87966000  0.55073000  0.00355000  1.0
  H  H152  1  0.55072000  0.00355000  0.87967000  1.0
  H  H153  1  0.94927000  0.62034000  0.49645000  1.0
  H  H154  1  0.62035000  0.49645000  0.94927000  1.0
  H  H155  1  0.49645000  0.94928000  0.62033000  1.0
  H  H156  1  0.99645000  0.12035000  0.44927000  1.0
  H  H157  1  0.12034000  0.44927000  0.99645000  1.0
  H  H158  1  0.44928000  0.99645000  0.12033000  1.0
  H  H159  1  0.05073000  0.37966000  0.50355000  1.0
  H  H160  1  0.37965000  0.50355000  0.05073000  1.0
  H  H161  1  0.50355000  0.05072000  0.37967000  1.0
  H  H162  1  0.07717000  0.91997000  0.53069000  1.0
  H  H163  1  0.91997000  0.53069000  0.07718000  1.0
  H  H164  1  0.53070000  0.07718000  0.91996000  1.0
  H  H165  1  0.96931000  0.58003000  0.42283000  1.0
  H  H166  1  0.58003000  0.42283000  0.96931000  1.0
  H  H167  1  0.42282000  0.96930000  0.58004000  1.0
  H  H168  1  0.92283000  0.08003000  0.46931000  1.0
  H  H169  1  0.08003000  0.46931000  0.92283000  1.0
  H  H170  1  0.46930000  0.92282000  0.08003000  1.0
  H  H171  1  0.03069000  0.41997000  0.57718000  1.0
  H  H172  1  0.41998000  0.57717000  0.03068000  1.0
  H  H173  1  0.57718000  0.03070000  0.41997000  1.0
  H  H174  1  0.03364000  0.95462000  0.45350000  1.0
  H  H175  1  0.95463000  0.45351000  0.03363000  1.0
  H  H176  1  0.45350000  0.03366000  0.95463000  1.0
  H  H177  1  0.04649000  0.54537000  0.46637000  1.0
  H  H178  1  0.54538000  0.46636000  0.04650000  1.0
  H  H179  1  0.46634000  0.04650000  0.54537000  1.0
  H  H180  1  0.96636000  0.04538000  0.54650000  1.0
  H  H181  1  0.04537000  0.54649000  0.96637000  1.0
  H  H182  1  0.54650000  0.96634000  0.04537000  1.0
  H  H183  1  0.95351000  0.45463000  0.53363000  1.0
  H  H184  1  0.45462000  0.53364000  0.95350000  1.0
  H  H185  1  0.53365000  0.95350000  0.45464000  1.0
  C  C186  1  0.06324000  0.77195000  0.88280000  1.0
  C  C187  1  0.77194000  0.88280000  0.06324000  1.0
  C  C188  1  0.88279000  0.06325000  0.77195000  1.0
  C  C189  1  0.61720000  0.72806000  0.43676000  1.0
  C  C190  1  0.72805000  0.43675000  0.61721000  1.0
  C  C191  1  0.43674000  0.61721000  0.72806000  1.0
  C  C192  1  0.93675000  0.22805000  0.11721000  1.0
  C  C193  1  0.22806000  0.11720000  0.93676000  1.0
  C  C194  1  0.11721000  0.93675000  0.22805000  1.0
  C  C195  1  0.38280000  0.27194000  0.56324000  1.0
  C  C196  1  0.27195000  0.56325000  0.38279000  1.0
  C  C197  1  0.56326000  0.38279000  0.27194000  1.0
  C  C198  1  0.98168000  0.84137000  0.89372000  1.0
  C  C199  1  0.84136000  0.89371000  0.98169000  1.0
  C  C200  1  0.89370000  0.98170000  0.84137000  1.0
  C  C201  1  0.60628000  0.65864000  0.51832000  1.0
  C  C202  1  0.65863000  0.51831000  0.60629000  1.0
  C  C203  1  0.51830000  0.60629000  0.65864000  1.0
  C  C204  1  0.01831000  0.15863000  0.10629000  1.0
  C  C205  1  0.15864000  0.10628000  0.01832000  1.0
  C  C206  1  0.10629000  0.01830000  0.15864000  1.0
  C  C207  1  0.39372000  0.34136000  0.48168000  1.0
  C  C208  1  0.34137000  0.48169000  0.39371000  1.0
  C  C209  1  0.48170000  0.39371000  0.34136000  1.0
  C  C210  1  0.91725000  0.83019000  0.96914000  1.0
  C  C211  1  0.83018000  0.96914000  0.91726000  1.0
  C  C212  1  0.96913000  0.91727000  0.83018000  1.0
  C  C213  1  0.53086000  0.66982000  0.58274000  1.0
  C  C214  1  0.66981000  0.58275000  0.53086000  1.0
  C  C215  1  0.58273000  0.53087000  0.66982000  1.0
  C  C216  1  0.08275000  0.16981000  0.03086000  1.0
  C  C217  1  0.16982000  0.03086000  0.08274000  1.0
  C  C218  1  0.03087000  0.08273000  0.16982000  1.0
  C  C219  1  0.46915000  0.33018000  0.41725000  1.0
  C  C220  1  0.33019000  0.41725000  0.46914000  1.0
  C  C221  1  0.41727000  0.46913000  0.33018000  1.0
  C  C222  1  0.36367000  0.81878000  0.43918000  1.0
  C  C223  1  0.81877000  0.43919000  0.36367000  1.0
  C  C224  1  0.43918000  0.36368000  0.81877000  1.0
  C  C225  1  0.06081000  0.68123000  0.13633000  1.0
  C  C226  1  0.68122000  0.13633000  0.06082000  1.0
  C  C227  1  0.13632000  0.06082000  0.68123000  1.0
  C  C228  1  0.63634000  0.18122000  0.56081000  1.0
  C  C229  1  0.18123000  0.56081000  0.63633000  1.0
  C  C230  1  0.56082000  0.63632000  0.18123000  1.0
  C  C231  1  0.93919000  0.31877000  0.86367000  1.0
  C  C232  1  0.31878000  0.86367000  0.93918000  1.0
  C  C233  1  0.86368000  0.93918000  0.31877000  1.0
  C  C234  1  0.30137000  0.79308000  0.52107000  1.0
  C  C235  1  0.79308000  0.52107000  0.30137000  1.0
  C  C236  1  0.52107000  0.30137000  0.79309000  1.0
  C  C237  1  0.97892000  0.70692000  0.19864000  1.0
  C  C238  1  0.70692000  0.19864000  0.97892000  1.0
  C  C239  1  0.19863000  0.97893000  0.70692000  1.0
  C  C240  1  0.69864000  0.20692000  0.47892000  1.0
  C  C241  1  0.20692000  0.47893000  0.69863000  1.0
  C  C242  1  0.47893000  0.69863000  0.20692000  1.0
  C  C243  1  0.02108000  0.29308000  0.80136000  1.0
  C  C244  1  0.29308000  0.80136000  0.02108000  1.0
  C  C245  1  0.80137000  0.02107000  0.29308000  1.0
  C  C246  1  0.22845000  0.77944000  0.54287000  1.0
  C  C247  1  0.77944000  0.54287000  0.22845000  1.0
  C  C248  1  0.54287000  0.22846000  0.77944000  1.0
  C  C249  1  0.95713000  0.72056000  0.27155000  1.0
  C  C250  1  0.72056000  0.27155000  0.95713000  1.0
  C  C251  1  0.27154000  0.95714000  0.72056000  1.0
  C  C252  1  0.77155000  0.22056000  0.45713000  1.0
  C  C253  1  0.22056000  0.45713000  0.77155000  1.0
  C  C254  1  0.45713000  0.77154000  0.22057000  1.0
  C  C255  1  0.04287000  0.27944000  0.72845000  1.0
  C  C256  1  0.27944000  0.72845000  0.04287000  1.0
  C  C257  1  0.72846000  0.04286000  0.27944000  1.0
  C  C258  1  0.19115000  0.76321000  0.62977000  1.0
  C  C259  1  0.76320000  0.62977000  0.19116000  1.0
  C  C260  1  0.62977000  0.19116000  0.76320000  1.0
  C  C261  1  0.87023000  0.73679000  0.30885000  1.0
  C  C262  1  0.73679000  0.30885000  0.87023000  1.0
  C  C263  1  0.30884000  0.87023000  0.73680000  1.0
  C  C264  1  0.80885000  0.23679000  0.37023000  1.0
  C  C265  1  0.23679000  0.37023000  0.80885000  1.0
  C  C266  1  0.37023000  0.80884000  0.23680000  1.0
  C  C267  1  0.12977000  0.26321000  0.69115000  1.0
  C  C268  1  0.26321000  0.69115000  0.12977000  1.0
  C  C269  1  0.69116000  0.12976000  0.26321000  1.0
  C  C270  1  0.11133000  0.74669000  0.68423000  1.0
  C  C271  1  0.74670000  0.68423000  0.11132000  1.0
  C  C272  1  0.68422000  0.11133000  0.74670000  1.0
  C  C273  1  0.81577000  0.75330000  0.38868000  1.0
  C  C274  1  0.75331000  0.38867000  0.81577000  1.0
  C  C275  1  0.38867000  0.81578000  0.75330000  1.0
  C  C276  1  0.88867000  0.25331000  0.31577000  1.0
  C  C277  1  0.25330000  0.31577000  0.88868000  1.0
  C  C278  1  0.31578000  0.88867000  0.25330000  1.0
  C  C279  1  0.18423000  0.24670000  0.61132000  1.0
  C  C280  1  0.24669000  0.61133000  0.18423000  1.0
  C  C281  1  0.61133000  0.18422000  0.24670000  1.0
  C  C282  1  0.32148000  0.66210000  0.43294000  1.0
  C  C283  1  0.66210000  0.43294000  0.32147000  1.0
  C  C284  1  0.43294000  0.32148000  0.66209000  1.0
  C  C285  1  0.06706000  0.83790000  0.17853000  1.0
  C  C286  1  0.83790000  0.17852000  0.06706000  1.0
  C  C287  1  0.17852000  0.06706000  0.83791000  1.0
  C  C288  1  0.67852000  0.33790000  0.56706000  1.0
  C  C289  1  0.33790000  0.56706000  0.67852000  1.0
  C  C290  1  0.56706000  0.67852000  0.33791000  1.0
  C  C291  1  0.93294000  0.16210000  0.82148000  1.0
  C  C292  1  0.16210000  0.82148000  0.93294000  1.0
  C  C293  1  0.82148000  0.93294000  0.16209000  1.0
  C  C294  1  0.24199000  0.73239000  0.43408000  1.0
  C  C295  1  0.73239000  0.43408000  0.24198000  1.0
  C  C296  1  0.43409000  0.24198000  0.73239000  1.0
  C  C297  1  0.06591000  0.76761000  0.25803000  1.0
  C  C298  1  0.76761000  0.25801000  0.06592000  1.0
  C  C299  1  0.25801000  0.06591000  0.76763000  1.0
  C  C300  1  0.75801000  0.26761000  0.56592000  1.0
  C  C301  1  0.26761000  0.56592000  0.75801000  1.0
  C  C302  1  0.56591000  0.75801000  0.26762000  1.0
  C  C303  1  0.93408000  0.23239000  0.74199000  1.0
  C  C304  1  0.23239000  0.74199000  0.93408000  1.0
  C  C305  1  0.74199000  0.93409000  0.23238000  1.0
  C  C306  1  0.19921000  0.78122000  0.48653000  1.0
  C  C307  1  0.78122000  0.48653000  0.19921000  1.0
  C  C308  1  0.48653000  0.19921000  0.78123000  1.0
  C  C309  1  0.01347000  0.71877000  0.30080000  1.0
  C  C310  1  0.71877000  0.30079000  0.01348000  1.0
  C  C311  1  0.30079000  0.01347000  0.71877000  1.0
  C  C312  1  0.80079000  0.21877000  0.51348000  1.0
  C  C313  1  0.21877000  0.51347000  0.80080000  1.0
  C  C314  1  0.51347000  0.80079000  0.21877000  1.0
  C  C315  1  0.98653000  0.28123000  0.69920000  1.0
  C  C316  1  0.28123000  0.69921000  0.98652000  1.0
  C  C317  1  0.69921000  0.98653000  0.28123000  1.0
  C  C318  1  0.12562000  0.83454000  0.46882000  1.0
  C  C319  1  0.83455000  0.46882000  0.12561000  1.0
  C  C320  1  0.46882000  0.12563000  0.83454000  1.0
  C  C321  1  0.03118000  0.66545000  0.37439000  1.0
  C  C322  1  0.66546000  0.37438000  0.03118000  1.0
  C  C323  1  0.37437000  0.03118000  0.66546000  1.0
  C  C324  1  0.87438000  0.16546000  0.53118000  1.0
  C  C325  1  0.16545000  0.53118000  0.87439000  1.0
  C  C326  1  0.53118000  0.87437000  0.16546000  1.0
  C  C327  1  0.96882000  0.33455000  0.62561000  1.0
  C  C328  1  0.33454000  0.62562000  0.96882000  1.0
  C  C329  1  0.62563000  0.96882000  0.33454000  1.0
  C  C330  1  0.05626000  0.90070000  0.50258000  1.0
  C  C331  1  0.90071000  0.50258000  0.05626000  1.0
  C  C332  1  0.50258000  0.05627000  0.90071000  1.0
  C  C333  1  0.99742000  0.59929000  0.44374000  1.0
  C  C334  1  0.59930000  0.44374000  0.99742000  1.0
  C  C335  1  0.44373000  0.99743000  0.59928000  1.0
  C  C336  1  0.94374000  0.09930000  0.49742000  1.0
  C  C337  1  0.09929000  0.49742000  0.94374000  1.0
  C  C338  1  0.49743000  0.94373000  0.09928000  1.0
  C  C339  1  0.00258000  0.40071000  0.55626000  1.0
  C  C340  1  0.40070000  0.55626000  0.00258000  1.0
  C  C341  1  0.55627000  0.00257000  0.40072000  1.0
  N  N342  1  0.19747000  0.75660000  0.38668000  1.0
  N  N343  1  0.75661000  0.38668000  0.19746000  1.0
  N  N344  1  0.38668000  0.19746000  0.75661000  1.0
  N  N345  1  0.11332000  0.74339000  0.30254000  1.0
  N  N346  1  0.74340000  0.30253000  0.11332000  1.0
  N  N347  1  0.30254000  0.11332000  0.74339000  1.0
  N  N348  1  0.80253000  0.24340000  0.61332000  1.0
  N  N349  1  0.24339000  0.61332000  0.80254000  1.0
  N  N350  1  0.61331000  0.80254000  0.24340000  1.0
  N  N351  1  0.88668000  0.25661000  0.69746000  1.0
  N  N352  1  0.25660000  0.69747000  0.88668000  1.0
  N  N353  1  0.69746000  0.88668000  0.25661000  1.0
  N  N354  1  0.23911000  0.76516000  0.65888000  1.0
  N  N355  1  0.76516000  0.65887000  0.23912000  1.0
  N  N356  1  0.65887000  0.23912000  0.76516000  1.0
  N  N357  1  0.84113000  0.73484000  0.26088000  1.0
  N  N358  1  0.73484000  0.26089000  0.84112000  1.0
  N  N359  1  0.26088000  0.84113000  0.73484000  1.0
  N  N360  1  0.76089000  0.23484000  0.34112000  1.0
  N  N361  1  0.23484000  0.34113000  0.76088000  1.0
  N  N362  1  0.34113000  0.76088000  0.23484000  1.0
  N  N363  1  0.15887000  0.26516000  0.73912000  1.0
  N  N364  1  0.26516000  0.73911000  0.15888000  1.0
  N  N365  1  0.73912000  0.15887000  0.26516000  1.0
  N  N366  1  0.12683000  0.81702000  0.40988000  1.0
  N  N367  1  0.81703000  0.40988000  0.12683000  1.0
  N  N368  1  0.40988000  0.12683000  0.81703000  1.0
  N  N369  1  0.09012000  0.68297000  0.37318000  1.0
  N  N370  1  0.68298000  0.37317000  0.09012000  1.0
  N  N371  1  0.37317000  0.09012000  0.68297000  1.0
  N  N372  1  0.87317000  0.18298000  0.59012000  1.0
  N  N373  1  0.18297000  0.59012000  0.87317000  1.0
  N  N374  1  0.59012000  0.87317000  0.18297000  1.0
  N  N375  1  0.90988000  0.31703000  0.62683000  1.0
  N  N376  1  0.31702000  0.62683000  0.90988000  1.0
  N  N377  1  0.62683000  0.90988000  0.31703000  1.0
  N  N378  1  0.30409000  0.78420000  0.59247000  1.0
  N  N379  1  0.78420000  0.59247000  0.30409000  1.0
  N  N380  1  0.59246000  0.30409000  0.78421000  1.0
  N  N381  1  0.90753000  0.71580000  0.19591000  1.0
  N  N382  1  0.71580000  0.19592000  0.90752000  1.0
  N  N383  1  0.19591000  0.90754000  0.71579000  1.0
  N  N384  1  0.69592000  0.21579000  0.40753000  1.0
  N  N385  1  0.21580000  0.40753000  0.69591000  1.0
  N  N386  1  0.40754000  0.69591000  0.21579000  1.0
  N  N387  1  0.09247000  0.28420000  0.80409000  1.0
  N  N388  1  0.28421000  0.80408000  0.09247000  1.0
  N  N389  1  0.80409000  0.09246000  0.28421000  1.0
  O  O390  1  0.11985000  0.78698000  0.81251000  1.0
  O  O391  1  0.78696000  0.81251000  0.11986000  1.0
  O  O392  1  0.81251000  0.11986000  0.78697000  1.0
  O  O393  1  0.68749000  0.71304000  0.38014000  1.0
  O  O394  1  0.71302000  0.38014000  0.68750000  1.0
  O  O395  1  0.38013000  0.68749000  0.71304000  1.0
  O  O396  1  0.88014000  0.21302000  0.18750000  1.0
  O  O397  1  0.21304000  0.18749000  0.88014000  1.0
  O  O398  1  0.18749000  0.88013000  0.21304000  1.0
  O  O399  1  0.31251000  0.28697000  0.61985000  1.0
  O  O400  1  0.28698000  0.61986000  0.31250000  1.0
  O  O401  1  0.61987000  0.31251000  0.28696000  1.0
  O  O402  1  0.07005000  0.70491000  0.94313000  1.0
  O  O403  1  0.70490000  0.94314000  0.07004000  1.0
  O  O404  1  0.94313000  0.07005000  0.70491000  1.0
  O  O405  1  0.55686000  0.79510000  0.42995000  1.0
  O  O406  1  0.79509000  0.42995000  0.55686000  1.0
  O  O407  1  0.42995000  0.55687000  0.79509000  1.0
  O  O408  1  0.92995000  0.29509000  0.05686000  1.0
  O  O409  1  0.29510000  0.05686000  0.92996000  1.0
  O  O410  1  0.05687000  0.92995000  0.29509000  1.0
  O  O411  1  0.44314000  0.20490000  0.57004000  1.0
  O  O412  1  0.20491000  0.57005000  0.44313000  1.0
  O  O413  1  0.57005000  0.44313000  0.20491000  1.0
