# generated using pymatgen
data_ZnH20C32Br4(NO)8
_symmetry_space_group_name_H-M   'P 1'
_cell_length_a   8.50920000
_cell_length_b   8.78563000
_cell_length_c   11.51560000
_cell_angle_alpha   89.85300000
_cell_angle_beta   85.02110000
_cell_angle_gamma   81.90320000
_symmetry_Int_Tables_number   1
_chemical_formula_structural   ZnH20C32Br4(NO)8
_chemical_formula_sum   'Zn1 H20 C32 Br4 N8 O8'
_cell_volume   849.05260957
_cell_formula_units_Z   1
loop_
 _symmetry_equiv_pos_site_id
 _symmetry_equiv_pos_as_xyz
  1  'x, y, z'
loop_
 _atom_site_type_symbol
 _atom_site_label
 _atom_site_symmetry_multiplicity
 _atom_site_fract_x
 _atom_site_fract_y
 _atom_site_fract_z
 _atom_site_occupancy
  Zn  Zn0  1  0.50000000  0.50000000  0.50000000  1.0
  H  H1  1  0.24758000  0.63464000  0.41711000  1.0
  H  H2  1  0.75242000  0.36536000  0.58289000  1.0
  H  H3  1  0.17223000  0.61079000  0.54819000  1.0
  H  H4  1  0.82777000  0.38921000  0.45181000  1.0
  H  H5  1  0.25522000  0.34841000  0.65915000  1.0
  H  H6  1  0.74478000  0.65159000  0.34085000  1.0
  H  H7  1  0.51684000  0.22256000  0.34568000  1.0
  H  H8  1  0.48316000  0.77744000  0.65432000  1.0
  H  H9  1  0.39640000  0.98026000  0.33295000  1.0
  H  H10  1  0.60360000  0.01973000  0.66705000  1.0
  H  H11  1  0.19522000  0.92207000  0.49348000  1.0
  H  H12  1  0.80478000  0.07793000  0.50652000  1.0
  H  H13  1  0.76603000  0.97569000  0.99594000  1.0
  H  H14  1  0.23397000  0.02431000  0.00407000  1.0
  H  H15  1  0.72528000  0.29007000  0.26782000  1.0
  H  H16  1  0.27472000  0.70993000  0.73218000  1.0
  H  H17  1  0.85987000  0.47429000  0.14558000  1.0
  H  H18  1  0.14013000  0.52571000  0.85442000  1.0
  H  H19  1  0.95992000  0.39951000  0.93786000  1.0
  H  H20  1  0.04008000  0.60049000  0.06214000  1.0
  C  C21  1  0.20556000  0.13324000  0.58674000  1.0
  C  C22  1  0.79444000  0.86676000  0.41326000  1.0
  C  C23  1  0.28060000  0.26525000  0.58758000  1.0
  C  C24  1  0.71940000  0.73475000  0.41242000  1.0
  C  C25  1  0.42908000  0.19331000  0.41322000  1.0
  C  C26  1  0.57091000  0.80669000  0.58678000  1.0
  C  C27  1  0.36120000  0.05884000  0.40653000  1.0
  C  C28  1  0.63879000  0.94116000  0.59347000  1.0
  C  C29  1  0.24839000  0.02751000  0.49405000  1.0
  C  C30  1  0.75161000  0.97249000  0.50594000  1.0
  C  C31  1  0.08583000  0.10087000  0.67728000  1.0
  C  C32  1  0.91417000  0.89913000  0.32272000  1.0
  C  C33  1  0.93564000  0.12235000  0.83760000  1.0
  C  C34  1  0.06436000  0.87765000  0.16240000  1.0
  C  C35  1  0.87406000  0.17964000  0.95276000  1.0
  C  C36  1  0.12594000  0.82036000  0.04724000  1.0
  C  C37  1  0.78980000  0.08645000  0.02736000  1.0
  C  C38  1  0.21020000  0.91355000  0.97264000  1.0
  C  C39  1  0.76694000  0.26084000  0.17748000  1.0
  C  C40  1  0.23306000  0.73916000  0.82252000  1.0
  C  C41  1  0.84474000  0.36354000  0.10911000  1.0
  C  C42  1  0.15526000  0.63646000  0.89089000  1.0
  C  C43  1  0.89966000  0.32274000  0.99472000  1.0
  C  C44  1  0.10034000  0.67726000  0.00528000  1.0
  C  C45  1  0.44727000  0.52628000  0.11928000  1.0
  C  C46  1  0.55273000  0.47372000  0.88072000  1.0
  C  C47  1  0.53059000  0.63090000  0.05663000  1.0
  C  C48  1  0.46941000  0.36910000  0.94337000  1.0
  C  C49  1  0.58508000  0.60427000  0.93888000  1.0
  C  C50  1  0.41492000  0.39573000  0.06112000  1.0
  C  C51  1  0.40072000  0.55073000  0.24940000  1.0
  C  C52  1  0.59928000  0.44927000  0.75060000  1.0
  Br  Br53  1  0.56691000  0.81224000  0.13348000  1.0
  Br  Br54  1  0.43308000  0.18776000  0.86651000  1.0
  Br  Br55  1  0.70818000  0.74174000  0.85819000  1.0
  Br  Br56  1  0.29182000  0.25826000  0.14181000  1.0
  N  N57  1  0.39006000  0.29452000  0.50210000  1.0
  N  N58  1  0.60993000  0.70548000  0.49790000  1.0
  N  N59  1  0.00082000  0.98725000  0.67912000  1.0
  N  N60  1  0.99918000  0.01275000  0.32088000  1.0
  N  N61  1  0.90406000  0.00105000  0.78247000  1.0
  N  N62  1  0.09594000  0.99895000  0.21753000  1.0
  N  N63  1  0.73720000  0.12513000  0.13749000  1.0
  N  N64  1  0.26280000  0.87488000  0.86251000  1.0
  O  O65  1  0.04996000  0.19222000  0.77495000  1.0
  O  O66  1  0.95005000  0.80778000  0.22505000  1.0
  O  O67  1  0.26127000  0.61351000  0.28169000  1.0
  O  O68  1  0.73873000  0.38649000  0.71831000  1.0
  O  O69  1  0.51143000  0.50410000  0.31443000  1.0
  O  O70  1  0.48857000  0.49590000  0.68557000  1.0
  O  O71  1  0.26331000  0.64505000  0.50418000  1.0
  O  O72  1  0.73669000  0.35495000  0.49582000  1.0
