# generated using pymatgen
data_CuH16C17IN4
_symmetry_space_group_name_H-M   'P 1'
_cell_length_a   8.52143000
_cell_length_b   9.51419000
_cell_length_c   10.63070000
_cell_angle_alpha   85.23880000
_cell_angle_beta   75.88330000
_cell_angle_gamma   72.67880000
_symmetry_Int_Tables_number   1
_chemical_formula_structural   CuH16C17IN4
_chemical_formula_sum   'Cu2 H32 C34 I2 N8'
_cell_volume   797.89535061
_cell_formula_units_Z   2
loop_
 _symmetry_equiv_pos_site_id
 _symmetry_equiv_pos_as_xyz
  1  'x, y, z'
loop_
 _atom_site_type_symbol
 _atom_site_label
 _atom_site_symmetry_multiplicity
 _atom_site_fract_x
 _atom_site_fract_y
 _atom_site_fract_z
 _atom_site_occupancy
  Cu  Cu0  1  0.40879000  0.45478000  0.10953000  1.0
  Cu  Cu1  1  0.59121000  0.54523000  0.89047000  1.0
  H  H2  1  0.48024000  0.58153000  0.35992000  1.0
  H  H3  1  0.51976000  0.41847000  0.64007000  1.0
  H  H4  1  0.41580000  0.69478000  0.57999000  1.0
  H  H5  1  0.58421000  0.30520000  0.42001000  1.0
  H  H6  1  0.12042000  0.79914000  0.70042000  1.0
  H  H7  1  0.87959000  0.20084000  0.29958000  1.0
  H  H8  1  0.87969000  0.79174000  0.61308000  1.0
  H  H9  1  0.12033000  0.20826000  0.38692000  1.0
  H  H10  1  0.00381000  0.55423000  0.17635000  1.0
  H  H11  1  0.99618000  0.44577000  0.82365000  1.0
  H  H12  1  0.72990000  0.66111000  0.50506000  1.0
  H  H13  1  0.27011000  0.33889000  0.49494000  1.0
  H  H14  1  0.73164000  0.60443000  0.34989000  1.0
  H  H15  1  0.26836000  0.39558000  0.65011000  1.0
  H  H16  1  0.53003000  0.85055000  0.40579000  1.0
  H  H17  1  0.46996000  0.14945000  0.59422000  1.0
  H  H18  1  0.69375000  0.92269000  0.42120000  1.0
  H  H19  1  0.30625000  0.07732000  0.57880000  1.0
  H  H20  1  0.82325000  0.89402000  0.18763000  1.0
  H  H21  1  0.17675000  0.10599000  0.81237000  1.0
  H  H22  1  0.70079000  0.77915000  0.16996000  1.0
  H  H23  1  0.29921000  0.22085000  0.83004000  1.0
  H  H24  1  0.41803000  0.77192000  0.16764000  1.0
  H  H25  1  0.58197000  0.22808000  0.83236000  1.0
  H  H26  1  0.13859000  0.84079000  0.11381000  1.0
  H  H27  1  0.86141000  0.15920000  0.88620000  1.0
  H  H28  1  0.98801000  0.10347000  0.07498000  1.0
  H  H29  1  0.01198000  0.89652000  0.92502000  1.0
  H  H30  1  0.11612000  0.30309000  0.08700000  1.0
  H  H31  1  0.88387000  0.69690000  0.91300000  1.0
  H  H32  1  0.68498000  0.17608000  0.19141000  1.0
  H  H33  1  0.31501000  0.82393000  0.80858000  1.0
  C  C34  1  0.21561000  0.62494000  0.36452000  1.0
  C  C35  1  0.78438000  0.37506000  0.63547000  1.0
  C  C36  1  0.35121000  0.62921000  0.41471000  1.0
  C  C37  1  0.64880000  0.37078000  0.58528000  1.0
  C  C38  1  0.31363000  0.69288000  0.53576000  1.0
  C  C39  1  0.68638000  0.30711000  0.46424000  1.0
  C  C40  1  0.14561000  0.75176000  0.60530000  1.0
  C  C41  1  0.85441000  0.24823000  0.39469000  1.0
  C  C42  1  0.00887000  0.74757000  0.55737000  1.0
  C  C43  1  0.99114000  0.25243000  0.44263000  1.0
  C  C44  1  0.04724000  0.68235000  0.43651000  1.0
  C  C45  1  0.95277000  0.31765000  0.56348000  1.0
  C  C46  1  0.05153000  0.58738000  0.25174000  1.0
  C  C47  1  0.94847000  0.41262000  0.74826000  1.0
  C  C48  1  0.76329000  0.68471000  0.40058000  1.0
  C  C49  1  0.23671000  0.31530000  0.59942000  1.0
  C  C50  1  0.66511000  0.84112000  0.36952000  1.0
  C  C51  1  0.33489000  0.15889000  0.63048000  1.0
  C  C52  1  0.69956000  0.87388000  0.22347000  1.0
  C  C53  1  0.30044000  0.12613000  0.77653000  1.0
  C  C54  1  0.42022000  0.00117000  0.16330000  1.0
  C  C55  1  0.57978000  0.99884000  0.83671000  1.0
  C  C56  1  0.35142000  0.88721000  0.15480000  1.0
  C  C57  1  0.64858000  0.11279000  0.84521000  1.0
  C  C58  1  0.19430000  0.92765000  0.12334000  1.0
  C  C59  1  0.80570000  0.07235000  0.87667000  1.0
  C  C60  1  0.11032000  0.07586000  0.10048000  1.0
  C  C61  1  0.88967000  0.92414000  0.89953000  1.0
  C  C62  1  0.18050000  0.18916000  0.10725000  1.0
  C  C63  1  0.81950000  0.81084000  0.89275000  1.0
  C  C64  1  0.33793000  0.15074000  0.13908000  1.0
  C  C65  1  0.66207000  0.84926000  0.86092000  1.0
  C  C66  1  0.57740000  0.14387000  0.17954000  1.0
  C  C67  1  0.42260000  0.85613000  0.82046000  1.0
  I  I68  1  0.71584000  0.47434000  0.10094000  1.0
  I  I69  1  0.28416000  0.52566000  0.89905000  1.0
  N  N70  1  0.21360000  0.56766000  0.24858000  1.0
  N  N71  1  0.78639000  0.43234000  0.75142000  1.0
  N  N72  1  0.94629000  0.65553000  0.36240000  1.0
  N  N73  1  0.05371000  0.34448000  0.63761000  1.0
  N  N74  1  0.57245000  0.00127000  0.18897000  1.0
  N  N75  1  0.42755000  0.99874000  0.81103000  1.0
  N  N76  1  0.44091000  0.23690000  0.14959000  1.0
  N  N77  1  0.55909000  0.76310000  0.85041000  1.0
