# generated using pymatgen
data_Er2CoH16C24(N2O5)4
_symmetry_space_group_name_H-M   'P 1'
_cell_length_a   6.04599000
_cell_length_b   11.98520000
_cell_length_c   21.64510000
_cell_angle_alpha   90.00000000
_cell_angle_beta   90.00000000
_cell_angle_gamma   92.75980000
_symmetry_Int_Tables_number   1
_chemical_formula_structural   Er2CoH16C24(N2O5)4
_chemical_formula_sum   'Er4 Co2 H32 C48 N16 O40'
_cell_volume   1566.63673102
_cell_formula_units_Z   2
loop_
 _symmetry_equiv_pos_site_id
 _symmetry_equiv_pos_as_xyz
  1  'x, y, z'
loop_
 _atom_site_type_symbol
 _atom_site_label
 _atom_site_symmetry_multiplicity
 _atom_site_fract_x
 _atom_site_fract_y
 _atom_site_fract_z
 _atom_site_occupancy
  Er  Er0  1  0.96999000  0.92662000  0.34304000  1.0
  Er  Er1  1  0.53000000  0.57338000  0.84304000  1.0
  Er  Er2  1  0.03001000  0.07339000  0.65696000  1.0
  Er  Er3  1  0.47001000  0.42662000  0.15696000  1.0
  Co  Co4  1  0.49999000  0.49999000  0.50000000  1.0
  Co  Co5  1  0.00001000  0.00000000  0.00000000  1.0
  H  H6  1  0.38399000  0.91369000  0.41222000  1.0
  H  H7  1  0.11601000  0.58632000  0.91222000  1.0
  H  H8  1  0.61602000  0.08631000  0.58778000  1.0
  H  H9  1  0.88400000  0.41369000  0.08778000  1.0
  H  H10  1  0.20330000  0.84499000  0.45656000  1.0
  H  H11  1  0.29670000  0.65501000  0.95655000  1.0
  H  H12  1  0.79671000  0.15501000  0.54344000  1.0
  H  H13  1  0.70331000  0.34499000  0.04345000  1.0
  H  H14  1  0.10867000  0.15491000  0.36699000  1.0
  H  H15  1  0.39133000  0.34509000  0.86699000  1.0
  H  H16  1  0.89132000  0.84509000  0.63301000  1.0
  H  H17  1  0.60870000  0.65491000  0.13301000  1.0
  H  H18  1  0.92458000  0.14810000  0.41949000  1.0
  H  H19  1  0.57542000  0.35191000  0.91949000  1.0
  H  H20  1  0.07541000  0.85191000  0.58051000  1.0
  H  H21  1  0.42460000  0.64810000  0.08051000  1.0
  H  H22  1  0.95165000  0.25470000  0.14710000  1.0
  H  H23  1  0.54833000  0.24529000  0.64710000  1.0
  H  H24  1  0.04833000  0.74529000  0.85290000  1.0
  H  H25  1  0.45168000  0.75470000  0.35291000  1.0
  H  H26  1  0.11174000  0.09195000  0.20387000  1.0
  H  H27  1  0.38824000  0.40804000  0.70388000  1.0
  H  H28  1  0.88823000  0.90804000  0.79612000  1.0
  H  H29  1  0.61176000  0.59195000  0.29613000  1.0
  H  H30  1  0.32657000  0.36608000  0.39053000  1.0
  H  H31  1  0.17343000  0.13393000  0.89054000  1.0
  H  H32  1  0.67343000  0.63392000  0.60946000  1.0
  H  H33  1  0.82658000  0.86607000  0.10946000  1.0
  H  H34  1  0.01260000  0.40170000  0.31769000  1.0
  H  H35  1  0.48740000  0.09831000  0.81769000  1.0
  H  H36  1  0.98741000  0.59830000  0.68231000  1.0
  H  H37  1  0.51260000  0.90169000  0.18231000  1.0
  C  C38  1  0.63049000  0.10182000  0.27362000  1.0
  C  C39  1  0.86949000  0.39818000  0.77362000  1.0
  C  C40  1  0.36950000  0.89818000  0.72638000  1.0
  C  C41  1  0.13051000  0.60182000  0.22639000  1.0
  C  C42  1  0.55748000  0.20141000  0.24850000  1.0
  C  C43  1  0.94251000  0.29860000  0.74850000  1.0
  C  C44  1  0.44250000  0.79859000  0.75150000  1.0
  C  C45  1  0.05750000  0.70141000  0.25150000  1.0
  C  C46  1  0.86339000  0.21339000  0.18519000  1.0
  C  C47  1  0.63660000  0.28660000  0.68519000  1.0
  C  C48  1  0.13660000  0.78660000  0.81481000  1.0
  C  C49  1  0.36341000  0.71340000  0.31482000  1.0
  C  C50  1  0.94932000  0.12206000  0.21574000  1.0
  C  C51  1  0.55066000  0.37794000  0.71574000  1.0
  C  C52  1  0.05066000  0.87794000  0.78426000  1.0
  C  C53  1  0.44934000  0.62206000  0.28427000  1.0
  C  C54  1  0.49296000  0.02239000  0.31417000  1.0
  C  C55  1  0.00703000  0.47761000  0.81417000  1.0
  C  C56  1  0.50703000  0.97761000  0.68582000  1.0
  C  C57  1  0.99298000  0.52240000  0.18583000  1.0
  C  C58  1  0.35918000  0.25998000  0.27226000  1.0
  C  C59  1  0.14082000  0.24002000  0.77226000  1.0
  C  C60  1  0.64081000  0.74002000  0.72774000  1.0
  C  C61  1  0.85920000  0.75998000  0.22775000  1.0
  C  C62  1  0.95921000  0.61011000  0.41380000  1.0
  C  C63  1  0.54078000  0.88989000  0.91380000  1.0
  C  C64  1  0.04078000  0.38989000  0.58620000  1.0
  C  C65  1  0.45923000  0.11011000  0.08620000  1.0
  C  C66  1  0.13884000  0.59467000  0.45282000  1.0
  C  C67  1  0.36115000  0.90533000  0.95282000  1.0
  C  C68  1  0.86114000  0.40532000  0.54718000  1.0
  C  C69  1  0.63886000  0.09468000  0.04718000  1.0
  C  C70  1  0.22214000  0.43660000  0.39641000  1.0
  C  C71  1  0.27786000  0.06340000  0.89641000  1.0
  C  C72  1  0.77786000  0.56340000  0.60359000  1.0
  C  C73  1  0.72215000  0.93660000  0.10359000  1.0
  C  C74  1  0.04550000  0.45685000  0.35703000  1.0
  C  C75  1  0.45450000  0.04315000  0.85702000  1.0
  C  C76  1  0.95450000  0.54315000  0.64297000  1.0
  C  C77  1  0.54550000  0.95684000  0.14297000  1.0
  C  C78  1  0.20572000  0.66147000  0.50897000  1.0
  C  C79  1  0.29428000  0.83852000  0.00897000  1.0
  C  C80  1  0.79429000  0.33852000  0.49103000  1.0
  C  C81  1  0.70572000  0.16148000  0.99104000  1.0
  C  C82  1  0.78955000  0.69610000  0.42527000  1.0
  C  C83  1  0.71044000  0.80390000  0.92527000  1.0
  C  C84  1  0.21044000  0.30389000  0.57473000  1.0
  C  C85  1  0.28956000  0.19610000  0.07473000  1.0
  N  N86  1  0.83448000  0.06831000  0.26048000  1.0
  N  N87  1  0.66550000  0.43169000  0.76048000  1.0
  N  N88  1  0.16551000  0.93169000  0.73952000  1.0
  N  N89  1  0.33450000  0.56831000  0.23953000  1.0
  N  N90  1  0.67337000  0.25560000  0.20364000  1.0
  N  N91  1  0.82662000  0.24440000  0.70365000  1.0
  N  N92  1  0.32661000  0.74439000  0.79635000  1.0
  N  N93  1  0.17339000  0.75560000  0.29636000  1.0
  N  N94  1  0.26747000  0.50635000  0.44354000  1.0
  N  N95  1  0.23253000  0.99365000  0.94353000  1.0
  N  N96  1  0.73252000  0.49364000  0.55647000  1.0
  N  N97  1  0.76748000  0.00635000  0.05646000  1.0
  N  N98  1  0.91473000  0.54259000  0.36506000  1.0
  N  N99  1  0.58526000  0.95741000  0.86505000  1.0
  N  N100  1  0.08526000  0.45740000  0.63494000  1.0
  N  N101  1  0.41474000  0.04259000  0.13495000  1.0
  O  O102  1  0.59596000  0.97460000  0.35720000  1.0
  O  O103  1  0.90403000  0.52541000  0.85720000  1.0
  O  O104  1  0.40403000  0.02540000  0.64280000  1.0
  O  O105  1  0.09598000  0.47461000  0.14280000  1.0
  O  O106  1  0.22669000  0.89163000  0.41898000  1.0
  O  O107  1  0.27330000  0.60838000  0.91898000  1.0
  O  O108  1  0.77331000  0.10838000  0.58102000  1.0
  O  O109  1  0.72670000  0.39163000  0.08102000  1.0
  O  O110  1  0.29130000  0.00340000  0.30027000  1.0
  O  O111  1  0.20869000  0.49660000  0.80027000  1.0
  O  O112  1  0.70869000  0.99660000  0.69973000  1.0
  O  O113  1  0.79132000  0.50340000  0.19973000  1.0
  O  O114  1  0.99845000  0.10348000  0.38776000  1.0
  O  O115  1  0.50155000  0.39652000  0.88776000  1.0
  O  O116  1  0.00154000  0.89652000  0.61224000  1.0
  O  O117  1  0.49847000  0.60348000  0.11224000  1.0
  O  O118  1  0.29265000  0.33822000  0.23766000  1.0
  O  O119  1  0.20734000  0.16179000  0.73766000  1.0
  O  O120  1  0.70735000  0.66179000  0.76234000  1.0
  O  O121  1  0.79266000  0.83822000  0.26235000  1.0
  O  O122  1  0.28163000  0.23273000  0.32386000  1.0
  O  O123  1  0.21836000  0.26728000  0.82386000  1.0
  O  O124  1  0.71835000  0.76728000  0.67614000  1.0
  O  O125  1  0.78167000  0.73272000  0.17614000  1.0
  O  O126  1  0.81432000  0.79119000  0.39932000  1.0
  O  O127  1  0.68567000  0.70881000  0.89931000  1.0
  O  O128  1  0.18568000  0.20881000  0.60069000  1.0
  O  O129  1  0.31433000  0.29119000  0.10069000  1.0
  O  O130  1  0.62383000  0.66481000  0.45655000  1.0
  O  O131  1  0.87616000  0.83518000  0.95655000  1.0
  O  O132  1  0.37616000  0.33518000  0.54345000  1.0
  O  O133  1  0.12384000  0.16481000  0.04345000  1.0
  O  O134  1  0.33897000  0.61101000  0.54475000  1.0
  O  O135  1  0.16103000  0.88899000  0.04475000  1.0
  O  O136  1  0.66103000  0.38898000  0.45525000  1.0
  O  O137  1  0.83897000  0.11101000  0.95525000  1.0
  O  O138  1  0.13091000  0.75639000  0.51830000  1.0
  O  O139  1  0.36909000  0.74360000  0.01829000  1.0
  O  O140  1  0.86909000  0.24360000  0.48170000  1.0
  O  O141  1  0.63092000  0.25640000  0.98171000  1.0
