# generated using pymatgen
data_CuH4(C5O2)2
_symmetry_space_group_name_H-M   'P 1'
_cell_length_a   12.95950000
_cell_length_b   22.41670000
_cell_length_c   22.41670000
_cell_angle_alpha   120.00000000
_cell_angle_beta   90.00000000
_cell_angle_gamma   90.00000000
_symmetry_Int_Tables_number   1
_chemical_formula_structural   CuH4(C5O2)2
_chemical_formula_sum   'Cu12 H48 C120 O48'
_cell_volume   5639.78096255
_cell_formula_units_Z   12
loop_
 _symmetry_equiv_pos_site_id
 _symmetry_equiv_pos_as_xyz
  1  'x, y, z'
loop_
 _atom_site_type_symbol
 _atom_site_label
 _atom_site_symmetry_multiplicity
 _atom_site_fract_x
 _atom_site_fract_y
 _atom_site_fract_z
 _atom_site_occupancy
  Cu  Cu0  1  0.25000000  0.37844000  0.00001000  1.0
  Cu  Cu1  1  0.75000000  0.00001000  0.62157000  1.0
  Cu  Cu2  1  0.25000000  0.62157000  0.62156000  1.0
  Cu  Cu3  1  0.75000000  0.62156000  0.99999000  1.0
  Cu  Cu4  1  0.25000000  0.99999000  0.37843000  1.0
  Cu  Cu5  1  0.75000000  0.37843000  0.37844000  1.0
  Cu  Cu6  1  0.25000000  0.26886000  0.00000000  1.0
  Cu  Cu7  1  0.75000000  0.00001000  0.73115000  1.0
  Cu  Cu8  1  0.25000000  0.73115000  0.73114000  1.0
  Cu  Cu9  1  0.75000000  0.73114000  0.00000000  1.0
  Cu  Cu10  1  0.25000000  0.99999000  0.26885000  1.0
  Cu  Cu11  1  0.75000000  0.26885000  0.26886000  1.0
  H  H12  1  0.09581000  0.50713000  0.17488000  1.0
  H  H13  1  0.59581000  0.17489000  0.66776000  1.0
  H  H14  1  0.09581000  0.66775000  0.49286000  1.0
  H  H15  1  0.59581000  0.49287000  0.82512000  1.0
  H  H16  1  0.09581000  0.82511000  0.33224000  1.0
  H  H17  1  0.59581000  0.33225000  0.50714000  1.0
  H  H18  1  0.40419000  0.49287000  0.66775000  1.0
  H  H19  1  0.90419000  0.66775000  0.17488000  1.0
  H  H20  1  0.40419000  0.17488000  0.50713000  1.0
  H  H21  1  0.90419000  0.50713000  0.33225000  1.0
  H  H22  1  0.40419000  0.33225000  0.82512000  1.0
  H  H23  1  0.90419000  0.82512000  0.49287000  1.0
  H  H24  1  0.90419000  0.49287000  0.82512000  1.0
  H  H25  1  0.40419000  0.82511000  0.33224000  1.0
  H  H26  1  0.90419000  0.33225000  0.50714000  1.0
  H  H27  1  0.40419000  0.50713000  0.17488000  1.0
  H  H28  1  0.90419000  0.17489000  0.66776000  1.0
  H  H29  1  0.40419000  0.66775000  0.49286000  1.0
  H  H30  1  0.59581000  0.50713000  0.33225000  1.0
  H  H31  1  0.09581000  0.33225000  0.82512000  1.0
  H  H32  1  0.59581000  0.82512000  0.49287000  1.0
  H  H33  1  0.09581000  0.49287000  0.66775000  1.0
  H  H34  1  0.59581000  0.66775000  0.17488000  1.0
  H  H35  1  0.09581000  0.17488000  0.50713000  1.0
  H  H36  1  0.00002000  0.31548000  0.15775000  1.0
  H  H37  1  0.50002000  0.15775000  0.84227000  1.0
  H  H38  1  0.00002000  0.84227000  0.68452000  1.0
  H  H39  1  0.50002000  0.68452000  0.84225000  1.0
  H  H40  1  0.00002000  0.84225000  0.15773000  1.0
  H  H41  1  0.50002000  0.15773000  0.31548000  1.0
  H  H42  1  0.99998000  0.68452000  0.84225000  1.0
  H  H43  1  0.49998000  0.84225000  0.15773000  1.0
  H  H44  1  0.99998000  0.15773000  0.31548000  1.0
  H  H45  1  0.49998000  0.31548000  0.15775000  1.0
  H  H46  1  0.99998000  0.15775000  0.84227000  1.0
  H  H47  1  0.49998000  0.84227000  0.68452000  1.0
  H  H48  1  0.00000000  0.60269000  0.39732000  1.0
  H  H49  1  0.50000000  0.39732000  0.79463000  1.0
  H  H50  1  0.00000000  0.79463000  0.39731000  1.0
  H  H51  1  0.50000000  0.39731000  0.60268000  1.0
  H  H52  1  0.00000000  0.60268000  0.20537000  1.0
  H  H53  1  0.50000000  0.20537000  0.60269000  1.0
  H  H54  1  0.00000000  0.39731000  0.60268000  1.0
  H  H55  1  0.50000000  0.60268000  0.20537000  1.0
  H  H56  1  1.00000000  0.20537000  0.60269000  1.0
  H  H57  1  0.50000000  0.60269000  0.39732000  1.0
  H  H58  1  0.00000000  0.39732000  0.79463000  1.0
  H  H59  1  0.50000000  0.79463000  0.39731000  1.0
  C  C60  1  0.05252000  0.48054000  0.19624000  1.0
  C  C61  1  0.55252000  0.19624000  0.71570000  1.0
  C  C62  1  0.05252000  0.71570000  0.51946000  1.0
  C  C63  1  0.55252000  0.51946000  0.80376000  1.0
  C  C64  1  0.05252000  0.80376000  0.28430000  1.0
  C  C65  1  0.55252000  0.28430000  0.48054000  1.0
  C  C66  1  0.44748000  0.51946000  0.71569000  1.0
  C  C67  1  0.94748000  0.71569000  0.19623000  1.0
  C  C68  1  0.44748000  0.19623000  0.48054000  1.0
  C  C69  1  0.94748000  0.48054000  0.28431000  1.0
  C  C70  1  0.44748000  0.28431000  0.80377000  1.0
  C  C71  1  0.94748000  0.80377000  0.51946000  1.0
  C  C72  1  0.94748000  0.51946000  0.80376000  1.0
  C  C73  1  0.44748000  0.80376000  0.28430000  1.0
  C  C74  1  0.94748000  0.28430000  0.48054000  1.0
  C  C75  1  0.44748000  0.48054000  0.19624000  1.0
  C  C76  1  0.94748000  0.19624000  0.71570000  1.0
  C  C77  1  0.44748000  0.71570000  0.51946000  1.0
  C  C78  1  0.55252000  0.48054000  0.28431000  1.0
  C  C79  1  0.05252000  0.28431000  0.80377000  1.0
  C  C80  1  0.55252000  0.80377000  0.51946000  1.0
  C  C81  1  0.05252000  0.51946000  0.71569000  1.0
  C  C82  1  0.55252000  0.71569000  0.19623000  1.0
  C  C83  1  0.05252000  0.19623000  0.48054000  1.0
  C  C84  1  0.11808000  0.37308000  0.09659000  1.0
  C  C85  1  0.61808000  0.09659000  0.72351000  1.0
  C  C86  1  0.11808000  0.72351000  0.62692000  1.0
  C  C87  1  0.61808000  0.62692000  0.90341000  1.0
  C  C88  1  0.11808000  0.90341000  0.27649000  1.0
  C  C89  1  0.61809000  0.27649000  0.37308000  1.0
  C  C90  1  0.38192000  0.62692000  0.72349000  1.0
  C  C91  1  0.88192000  0.72349000  0.09657000  1.0
  C  C92  1  0.38192000  0.09657000  0.37308000  1.0
  C  C93  1  0.88192000  0.37308000  0.27651000  1.0
  C  C94  1  0.38192000  0.27651000  0.90343000  1.0
  C  C95  1  0.88192000  0.90343000  0.62692000  1.0
  C  C96  1  0.88192000  0.62692000  0.90341000  1.0
  C  C97  1  0.38192000  0.90341000  0.27649000  1.0
  C  C98  1  0.88192000  0.27649000  0.37308000  1.0
  C  C99  1  0.38192000  0.37308000  0.09659000  1.0
  C  C100  1  0.88192000  0.09659000  0.72351000  1.0
  C  C101  1  0.38192000  0.72351000  0.62692000  1.0
  C  C102  1  0.61808000  0.37308000  0.27651000  1.0
  C  C103  1  0.11808000  0.27651000  0.90343000  1.0
  C  C104  1  0.61808000  0.90343000  0.62692000  1.0
  C  C105  1  0.11808000  0.62692000  0.72349000  1.0
  C  C106  1  0.61808000  0.72349000  0.09657000  1.0
  C  C107  1  0.11808000  0.09657000  0.37308000  1.0
  C  C108  1  0.05379000  0.40838000  0.16044000  1.0
  C  C109  1  0.55379000  0.16044000  0.75206000  1.0
  C  C110  1  0.05379000  0.75206000  0.59162000  1.0
  C  C111  1  0.55379000  0.59162000  0.83956000  1.0
  C  C112  1  0.05379000  0.83956000  0.24794000  1.0
  C  C113  1  0.55379000  0.24794000  0.40838000  1.0
  C  C114  1  0.44620000  0.59162000  0.75204000  1.0
  C  C115  1  0.94620000  0.75205000  0.16043000  1.0
  C  C116  1  0.44619000  0.16042000  0.40838000  1.0
  C  C117  1  0.94619000  0.40838000  0.24795000  1.0
  C  C118  1  0.44620000  0.24795000  0.83957000  1.0
  C  C119  1  0.94619000  0.83957000  0.59162000  1.0
  C  C120  1  0.94621000  0.59162000  0.83956000  1.0
  C  C121  1  0.44621000  0.83956000  0.24794000  1.0
  C  C122  1  0.94621000  0.24794000  0.40838000  1.0
  C  C123  1  0.44621000  0.40838000  0.16044000  1.0
  C  C124  1  0.94621000  0.16044000  0.75206000  1.0
  C  C125  1  0.44621000  0.75206000  0.59162000  1.0
  C  C126  1  0.55381000  0.40838000  0.24795000  1.0
  C  C127  1  0.05380000  0.24795000  0.83957000  1.0
  C  C128  1  0.55381000  0.83957000  0.59162000  1.0
  C  C129  1  0.05380000  0.59162000  0.75204000  1.0
  C  C130  1  0.55380000  0.75205000  0.16043000  1.0
  C  C131  1  0.05381000  0.16042000  0.40838000  1.0
  C  C132  1  0.00000000  0.59401000  0.29701000  1.0
  C  C133  1  0.50000000  0.29701000  0.70300000  1.0
  C  C134  1  1.00000000  0.70300000  0.40599000  1.0
  C  C135  1  0.50000000  0.40599000  0.70299000  1.0
  C  C136  1  0.00000000  0.70299000  0.29700000  1.0
  C  C137  1  0.50000000  0.29700000  0.59401000  1.0
  C  C138  1  0.00000000  0.40599000  0.70299000  1.0
  C  C139  1  0.50000000  0.70299000  0.29700000  1.0
  C  C140  1  0.00000000  0.29700000  0.59401000  1.0
  C  C141  1  0.50000000  0.59401000  0.29701000  1.0
  C  C142  1  0.00000000  0.29701000  0.70300000  1.0
  C  C143  1  0.50000000  0.70300000  0.40599000  1.0
  C  C144  1  1.00000000  0.51773000  0.25887000  1.0
  C  C145  1  0.50000000  0.25887000  0.74114000  1.0
  C  C146  1  0.00000000  0.74114000  0.48227000  1.0
  C  C147  1  0.50000000  0.48227000  0.74113000  1.0
  C  C148  1  0.00000000  0.74113000  0.25886000  1.0
  C  C149  1  0.50000000  0.25886000  0.51773000  1.0
  C  C150  1  0.00000000  0.48227000  0.74113000  1.0
  C  C151  1  0.50000000  0.74113000  0.25886000  1.0
  C  C152  1  0.00000000  0.25886000  0.51773000  1.0
  C  C153  1  0.50000000  0.51773000  0.25887000  1.0
  C  C154  1  0.00000000  0.25887000  0.74114000  1.0
  C  C155  1  0.50000000  0.74114000  0.48227000  1.0
  C  C156  1  0.00001000  0.37160000  0.18581000  1.0
  C  C157  1  0.50001000  0.18581000  0.81421000  1.0
  C  C158  1  0.00001000  0.81421000  0.62840000  1.0
  C  C159  1  0.50001000  0.62840000  0.81419000  1.0
  C  C160  1  0.00001000  0.81419000  0.18579000  1.0
  C  C161  1  0.50001000  0.18579000  0.37160000  1.0
  C  C162  1  0.99999000  0.62840000  0.81419000  1.0
  C  C163  1  0.49999000  0.81419000  0.18579000  1.0
  C  C164  1  0.99999000  0.18579000  0.37160000  1.0
  C  C165  1  0.49999000  0.37160000  0.18581000  1.0
  C  C166  1  0.99999000  0.18581000  0.81421000  1.0
  C  C167  1  0.49999000  0.81421000  0.62840000  1.0
  C  C168  1  0.00000000  0.63077000  0.36924000  1.0
  C  C169  1  0.50000000  0.36924000  0.73847000  1.0
  C  C170  1  1.00000000  0.73847000  0.36923000  1.0
  C  C171  1  0.50000000  0.36923000  0.63076000  1.0
  C  C172  1  0.00000000  0.63076000  0.26153000  1.0
  C  C173  1  0.50000000  0.26153000  0.63077000  1.0
  C  C174  1  0.00000000  0.36923000  0.63076000  1.0
  C  C175  1  0.50000000  0.63076000  0.26153000  1.0
  C  C176  1  0.00000000  0.26153000  0.63077000  1.0
  C  C177  1  0.50000000  0.63077000  0.36924000  1.0
  C  C178  1  0.00000000  0.36924000  0.73847000  1.0
  C  C179  1  0.50000000  0.73847000  0.36923000  1.0
  O  O180  1  0.14323000  0.31027000  0.07363000  1.0
  O  O181  1  0.64323000  0.07363000  0.76337000  1.0
  O  O182  1  0.14323000  0.76336000  0.68973000  1.0
  O  O183  1  0.64323000  0.68974000  0.92637000  1.0
  O  O184  1  0.14323000  0.92637000  0.23663000  1.0
  O  O185  1  0.64322000  0.23664000  0.31027000  1.0
  O  O186  1  0.35677000  0.68974000  0.76335000  1.0
  O  O187  1  0.85677000  0.76335000  0.07361000  1.0
  O  O188  1  0.35677000  0.07361000  0.31026000  1.0
  O  O189  1  0.85677000  0.31026000  0.23665000  1.0
  O  O190  1  0.35677000  0.23665000  0.92639000  1.0
  O  O191  1  0.85677000  0.92639000  0.68974000  1.0
  O  O192  1  0.85677000  0.68974000  0.92637000  1.0
  O  O193  1  0.35677000  0.92637000  0.23663000  1.0
  O  O194  1  0.85677000  0.23664000  0.31027000  1.0
  O  O195  1  0.35677000  0.31027000  0.07363000  1.0
  O  O196  1  0.85677000  0.07363000  0.76337000  1.0
  O  O197  1  0.35678000  0.76336000  0.68973000  1.0
  O  O198  1  0.64323000  0.31026000  0.23665000  1.0
  O  O199  1  0.14323000  0.23665000  0.92639000  1.0
  O  O200  1  0.64323000  0.92639000  0.68974000  1.0
  O  O201  1  0.14323000  0.68974000  0.76335000  1.0
  O  O202  1  0.64323000  0.76335000  0.07361000  1.0
  O  O203  1  0.14323000  0.07361000  0.31026000  1.0
  O  O204  1  0.14555000  0.41102000  0.07158000  1.0
  O  O205  1  0.64555000  0.07158000  0.66057000  1.0
  O  O206  1  0.14555000  0.66056000  0.58898000  1.0
  O  O207  1  0.64555000  0.58899000  0.92843000  1.0
  O  O208  1  0.14555000  0.92842000  0.33943000  1.0
  O  O209  1  0.64555000  0.33944000  0.41102000  1.0
  O  O210  1  0.35446000  0.58899000  0.66055000  1.0
  O  O211  1  0.85446000  0.66055000  0.07156000  1.0
  O  O212  1  0.35446000  0.07156000  0.41101000  1.0
  O  O213  1  0.85446000  0.41101000  0.33945000  1.0
  O  O214  1  0.35446000  0.33945000  0.92844000  1.0
  O  O215  1  0.85446000  0.92844000  0.58899000  1.0
  O  O216  1  0.85445000  0.58899000  0.92843000  1.0
  O  O217  1  0.35445000  0.92842000  0.33943000  1.0
  O  O218  1  0.85445000  0.33944000  0.41102000  1.0
  O  O219  1  0.35445000  0.41102000  0.07158000  1.0
  O  O220  1  0.85445000  0.07158000  0.66057000  1.0
  O  O221  1  0.35445000  0.66056000  0.58898000  1.0
  O  O222  1  0.64554000  0.41101000  0.33945000  1.0
  O  O223  1  0.14554000  0.33945000  0.92844000  1.0
  O  O224  1  0.64554000  0.92844000  0.58899000  1.0
  O  O225  1  0.14554000  0.58899000  0.66055000  1.0
  O  O226  1  0.64554000  0.66055000  0.07156000  1.0
  O  O227  1  0.14554000  0.07156000  0.41101000  1.0
