# generated using pymatgen
data_SrH10(C2O)4
_symmetry_space_group_name_H-M   'P 1'
_cell_length_a   7.06238000
_cell_length_b   10.00010000
_cell_length_c   13.39190000
_cell_angle_alpha   72.39000000
_cell_angle_beta   89.99990000
_cell_angle_gamma   89.99990000
_symmetry_Int_Tables_number   1
_chemical_formula_structural   SrH10(C2O)4
_chemical_formula_sum   'Sr4 H40 C32 O16'
_cell_volume   901.47430399
_cell_formula_units_Z   4
loop_
 _symmetry_equiv_pos_site_id
 _symmetry_equiv_pos_as_xyz
  1  'x, y, z'
loop_
 _atom_site_type_symbol
 _atom_site_label
 _atom_site_symmetry_multiplicity
 _atom_site_fract_x
 _atom_site_fract_y
 _atom_site_fract_z
 _atom_site_occupancy
  Sr  Sr0  1  0.48878000  0.68926000  0.51221000  1.0
  Sr  Sr1  1  0.98879000  0.81074000  0.48779000  1.0
  Sr  Sr2  1  0.51121000  0.31074000  0.48779000  1.0
  Sr  Sr3  1  0.01121000  0.18926000  0.51221000  1.0
  H  H4  1  0.83642000  0.47153000  0.28501000  1.0
  H  H5  1  0.33642000  0.02847000  0.71499000  1.0
  H  H6  1  0.16357000  0.52847000  0.71499000  1.0
  H  H7  1  0.66358000  0.97153000  0.28501000  1.0
  H  H8  1  0.13694000  0.55856000  0.22120000  1.0
  H  H9  1  0.63694000  0.94144000  0.77880000  1.0
  H  H10  1  0.86305000  0.44144000  0.77880000  1.0
  H  H11  1  0.36305000  0.05856000  0.22120000  1.0
  H  H12  1  0.27624000  0.78325000  0.22515000  1.0
  H  H13  1  0.77624000  0.71675000  0.77485000  1.0
  H  H14  1  0.72376000  0.21675000  0.77485000  1.0
  H  H15  1  0.22376000  0.28325000  0.22515000  1.0
  H  H16  1  0.06419000  0.83258000  0.27306000  1.0
  H  H17  1  0.56419000  0.66742000  0.72694000  1.0
  H  H18  1  0.93581000  0.16742000  0.72694000  1.0
  H  H19  1  0.43581000  0.33258000  0.27306000  1.0
  H  H20  1  0.07620000  0.94534000  0.08371000  1.0
  H  H21  1  0.57620000  0.55466000  0.91629000  1.0
  H  H22  1  0.92380000  0.05465000  0.91630000  1.0
  H  H23  1  0.42380000  0.44534000  0.08370000  1.0
  H  H24  1  0.11581000  0.78324000  0.06009000  1.0
  H  H25  1  0.61581000  0.71676000  0.93991000  1.0
  H  H26  1  0.88419000  0.21676000  0.93991000  1.0
  H  H27  1  0.38419000  0.28324000  0.06009000  1.0
  H  H28  1  0.77712000  0.85103000  0.02845000  1.0
  H  H29  1  0.27712000  0.64897000  0.97155000  1.0
  H  H30  1  0.22288000  0.14897000  0.97155000  1.0
  H  H31  1  0.72288000  0.35103000  0.02845000  1.0
  H  H32  1  0.75657000  0.86556000  0.15622000  1.0
  H  H33  1  0.25656000  0.63444000  0.84378000  1.0
  H  H34  1  0.24344000  0.13444000  0.84378000  1.0
  H  H35  1  0.74344000  0.36556000  0.15622000  1.0
  H  H36  1  0.85057000  0.59627000  0.10165000  1.0
  H  H37  1  0.35057000  0.90373000  0.89835000  1.0
  H  H38  1  0.14943000  0.40373000  0.89835000  1.0
  H  H39  1  0.64943000  0.09627000  0.10165000  1.0
  H  H40  1  0.62952000  0.63404000  0.14880000  1.0
  H  H41  1  0.12952000  0.86596000  0.85120000  1.0
  H  H42  1  0.37048000  0.36596000  0.85120000  1.0
  H  H43  1  0.87048000  0.13404000  0.14880000  1.0
  C  C44  1  0.85495000  0.58570000  0.26487000  1.0
  C  C45  1  0.35495000  0.91430000  0.73513000  1.0
  C  C46  1  0.14505000  0.41429000  0.73513000  1.0
  C  C47  1  0.64505000  0.08571000  0.26487000  1.0
  C  C48  1  0.06957000  0.61620000  0.27024000  1.0
  C  C49  1  0.56957000  0.88380000  0.72976000  1.0
  C  C50  1  0.93043000  0.38380000  0.72976000  1.0
  C  C51  1  0.43043000  0.11620000  0.27024000  1.0
  C  C52  1  0.12131000  0.77166000  0.22423000  1.0
  C  C53  1  0.62131000  0.72834000  0.77577000  1.0
  C  C54  1  0.87869000  0.22834000  0.77577000  1.0
  C  C55  1  0.37869000  0.27166000  0.22423000  1.0
  C  C56  1  0.04373000  0.83263000  0.11306000  1.0
  C  C57  1  0.54373000  0.66737000  0.88693000  1.0
  C  C58  1  0.95627000  0.16737000  0.88694000  1.0
  C  C59  1  0.45627000  0.33263000  0.11306000  1.0
  C  C60  1  0.83017000  0.80842000  0.10923000  1.0
  C  C61  1  0.33017000  0.69158000  0.89077000  1.0
  C  C62  1  0.16983000  0.19158000  0.89077000  1.0
  C  C63  1  0.66983000  0.30842000  0.10923000  1.0
  C  C64  1  0.78288000  0.65226000  0.15162000  1.0
  C  C65  1  0.28288000  0.84774000  0.84838000  1.0
  C  C66  1  0.21712000  0.34774000  0.84838000  1.0
  C  C67  1  0.71712000  0.15226000  0.15162000  1.0
  C  C68  1  0.72639000  0.63181000  0.33996000  1.0
  C  C69  1  0.22639000  0.86819000  0.66004000  1.0
  C  C70  1  0.27361000  0.36820000  0.66004000  1.0
  C  C71  1  0.77362000  0.13180000  0.33996000  1.0
  C  C72  1  0.14774000  0.54729000  0.38036000  1.0
  C  C73  1  0.64774000  0.95271000  0.61964000  1.0
  C  C74  1  0.85226000  0.45273000  0.61965000  1.0
  C  C75  1  0.35226000  0.04727000  0.38035000  1.0
  O  O76  1  0.76145000  0.74255000  0.36532000  1.0
  O  O77  1  0.26145000  0.75745000  0.63469000  1.0
  O  O78  1  0.23854000  0.25745000  0.63468000  1.0
  O  O79  1  0.73855000  0.24255000  0.36532000  1.0
  O  O80  1  0.57850000  0.55815000  0.37331000  1.0
  O  O81  1  0.07850000  0.94185000  0.62669000  1.0
  O  O82  1  0.42149000  0.44185000  0.62669000  1.0
  O  O83  1  0.92150000  0.05815000  0.37331000  1.0
  O  O84  1  0.17568000  0.62247000  0.44074000  1.0
  O  O85  1  0.67568000  0.87753000  0.55926000  1.0
  O  O86  1  0.82431000  0.37753000  0.55925000  1.0
  O  O87  1  0.32431000  0.12247000  0.44075000  1.0
  O  O88  1  0.18284000  0.41630000  0.40611000  1.0
  O  O89  1  0.68285000  0.08370000  0.59389000  1.0
  O  O90  1  0.81716000  0.58369000  0.59389000  1.0
  O  O91  1  0.31717000  0.91631000  0.40611000  1.0
