# generated using pymatgen
data_CoH6(C2O3)2
_symmetry_space_group_name_H-M   'P 1'
_cell_length_a   7.70944000
_cell_length_b   8.82540000
_cell_length_c   9.00356000
_cell_angle_alpha   89.99910000
_cell_angle_beta   89.99890000
_cell_angle_gamma   90.00070000
_symmetry_Int_Tables_number   1
_chemical_formula_structural   CoH6(C2O3)2
_chemical_formula_sum   'Co4 H24 C16 O24'
_cell_volume   612.59224420
_cell_formula_units_Z   4
loop_
 _symmetry_equiv_pos_site_id
 _symmetry_equiv_pos_as_xyz
  1  'x, y, z'
loop_
 _atom_site_type_symbol
 _atom_site_label
 _atom_site_symmetry_multiplicity
 _atom_site_fract_x
 _atom_site_fract_y
 _atom_site_fract_z
 _atom_site_occupancy
  Co  Co0  1  0.09459000  0.89243000  0.92603000  1.0
  Co  Co1  1  0.40541000  0.39243000  0.07399000  1.0
  Co  Co2  1  0.59459000  0.10758000  0.57398000  1.0
  Co  Co3  1  0.90540000  0.60758000  0.42602000  1.0
  H  H4  1  0.02780000  0.85820000  0.64595000  1.0
  H  H5  1  0.47221000  0.35820000  0.35405000  1.0
  H  H6  1  0.52780000  0.14180000  0.85404000  1.0
  H  H7  1  0.97220000  0.64180000  0.14596000  1.0
  H  H8  1  0.99460000  0.03619000  0.66214000  1.0
  H  H9  1  0.50541000  0.53620000  0.33785000  1.0
  H  H10  1  0.49458000  0.96381000  0.83786000  1.0
  H  H11  1  0.00541000  0.46380000  0.16215000  1.0
  H  H12  1  0.76510000  0.03990000  0.91044000  1.0
  H  H13  1  0.73490000  0.53989000  0.08955000  1.0
  H  H14  1  0.26509000  0.96010000  0.58955000  1.0
  H  H15  1  0.23491000  0.46011000  0.41046000  1.0
  H  H16  1  0.84776000  0.25970000  0.00953000  1.0
  H  H17  1  0.65224000  0.75970000  0.99048000  1.0
  H  H18  1  0.34776000  0.74031000  0.49049000  1.0
  H  H19  1  0.15224000  0.24029000  0.50951000  1.0
  H  H20  1  0.86015000  0.02215000  0.25614000  1.0
  H  H21  1  0.63983000  0.52218000  0.74383000  1.0
  H  H22  1  0.36016000  0.97782000  0.24384000  1.0
  H  H23  1  0.13985000  0.47783000  0.75616000  1.0
  H  H24  1  0.90946000  0.21339000  0.29403000  1.0
  H  H25  1  0.59055000  0.71343000  0.70599000  1.0
  H  H26  1  0.40946000  0.78658000  0.20597000  1.0
  H  H27  1  0.09054000  0.28658000  0.79402000  1.0
  C  C28  1  0.90935000  0.15932000  0.05965000  1.0
  C  C29  1  0.59065000  0.65932000  0.94035000  1.0
  C  C30  1  0.40934000  0.84069000  0.44035000  1.0
  C  C31  1  0.09066000  0.34068000  0.55965000  1.0
  C  C32  1  0.64897000  0.18091000  0.22934000  1.0
  C  C33  1  0.85102000  0.68092000  0.77066000  1.0
  C  C34  1  0.14898000  0.81909000  0.27067000  1.0
  C  C35  1  0.35103000  0.31908000  0.72934000  1.0
  C  C36  1  0.10497000  0.18719000  0.06044000  1.0
  C  C37  1  0.39502000  0.68720000  0.93956000  1.0
  C  C38  1  0.60496000  0.81282000  0.43956000  1.0
  C  C39  1  0.89503000  0.31280000  0.56044000  1.0
  C  C40  1  0.83896000  0.13872000  0.21724000  1.0
  C  C41  1  0.66104000  0.63874000  0.78276000  1.0
  C  C42  1  0.33897000  0.86126000  0.28276000  1.0
  C  C43  1  0.16104000  0.36127000  0.71724000  1.0
  O  O44  1  0.57141000  0.22013000  0.11095000  1.0
  O  O45  1  0.92859000  0.72013000  0.88905000  1.0
  O  O46  1  0.07142000  0.77987000  0.38905000  1.0
  O  O47  1  0.42860000  0.27988000  0.61096000  1.0
  O  O48  1  0.57458000  0.18366000  0.35565000  1.0
  O  O49  1  0.92543000  0.68366000  0.64435000  1.0
  O  O50  1  0.07457000  0.81635000  0.14436000  1.0
  O  O51  1  0.42543000  0.31633000  0.85565000  1.0
  O  O52  1  0.07892000  0.95414000  0.68667000  1.0
  O  O53  1  0.42109000  0.45414000  0.31333000  1.0
  O  O54  1  0.57892000  0.04585000  0.81334000  1.0
  O  O55  1  0.92107000  0.54585000  0.18667000  1.0
  O  O56  1  0.15671000  0.31176000  0.11892000  1.0
  O  O57  1  0.34329000  0.81178000  0.88107000  1.0
  O  O58  1  0.65671000  0.68825000  0.38108000  1.0
  O  O59  1  0.84328000  0.18823000  0.61892000  1.0
  O  O60  1  0.87575000  0.03001000  0.96855000  1.0
  O  O61  1  0.62426000  0.53000000  0.03144000  1.0
  O  O62  1  0.37573000  0.97000000  0.53144000  1.0
  O  O63  1  0.12426000  0.46999000  0.46855000  1.0
  O  O64  1  0.20403000  0.09005000  0.00215000  1.0
  O  O65  1  0.29598000  0.59006000  0.99786000  1.0
  O  O66  1  0.70402000  0.90995000  0.49785000  1.0
  O  O67  1  0.79598000  0.40994000  0.50215000  1.0
