# generated using pymatgen
data_CdH16C20N2(ClO)2
_symmetry_space_group_name_H-M   'P 1'
_cell_length_a   12.48100000
_cell_length_b   14.99718448
_cell_length_c   15.25754105
_cell_angle_alpha   95.03789444
_cell_angle_beta   114.11072128
_cell_angle_gamma   114.58218222
_symmetry_Int_Tables_number   1
_chemical_formula_structural   CdH16C20N2(ClO)2
_chemical_formula_sum   'Cd4 H64 C80 N8 Cl8 O8'
_cell_volume   2253.29823523
_cell_formula_units_Z   4
loop_
 _symmetry_equiv_pos_site_id
 _symmetry_equiv_pos_as_xyz
  1  'x, y, z'
loop_
 _atom_site_type_symbol
 _atom_site_label
 _atom_site_symmetry_multiplicity
 _atom_site_fract_x
 _atom_site_fract_y
 _atom_site_fract_z
 _atom_site_occupancy
  Cd  Cd0  1  0.46517000  0.05866000  0.59619000  1.0
  Cd  Cd1  1  0.31033000  0.44154000  0.90382000  1.0
  Cd  Cd2  1  0.53483000  0.94134000  0.40381000  1.0
  Cd  Cd3  1  0.68967000  0.55846000  0.09618000  1.0
  H  H4  1  0.53469000  0.27812000  0.72789000  1.0
  H  H5  1  0.02911000  0.22205000  0.77248000  1.0
  H  H6  1  0.46531000  0.72188000  0.27211000  1.0
  H  H7  1  0.97089000  0.77795000  0.22752000  1.0
  H  H8  1  0.70212000  0.41521000  0.89673000  1.0
  H  H9  1  0.89062000  0.08475000  0.60378000  1.0
  H  H10  1  0.29787000  0.58479000  0.10327000  1.0
  H  H11  1  0.10939000  0.91525000  0.39623000  1.0
  H  H12  1  0.91264000  0.24116000  0.96418000  1.0
  H  H13  1  0.20725000  0.25846000  0.53574000  1.0
  H  H14  1  0.08736000  0.75884000  0.03582000  1.0
  H  H15  1  0.79274000  0.74153000  0.46426000  1.0
  H  H16  1  0.73663000  0.11300000  0.79370000  1.0
  H  H17  1  0.32995000  0.38686000  0.70614000  1.0
  H  H18  1  0.26337000  0.88700000  0.20630000  1.0
  H  H19  1  0.67005000  0.61314000  0.29386000  1.0
  H  H20  1  0.88722000  0.47599000  0.05811000  1.0
  H  H21  1  0.85318000  0.02380000  0.44215000  1.0
  H  H22  1  0.11278000  0.52401000  0.94188000  1.0
  H  H23  1  0.14682000  0.97620000  0.55785000  1.0
  H  H24  1  0.05278000  0.36312000  0.10661000  1.0
  H  H25  1  0.08271000  0.13680000  0.39325000  1.0
  H  H26  1  0.94723000  0.63688000  0.89339000  1.0
  H  H27  1  0.91728000  0.86320000  0.60675000  1.0
  H  H28  1  0.02678000  0.60172000  0.18418000  1.0
  H  H29  1  0.74071000  0.89828000  0.31577000  1.0
  H  H30  1  0.97322000  0.39828000  0.81582000  1.0
  H  H31  1  0.25929000  0.10172000  0.68423000  1.0
  H  H32  1  0.17766000  0.72527000  0.35753000  1.0
  H  H33  1  0.59475000  0.77470000  0.14239000  1.0
  H  H34  1  0.82234000  0.27473000  0.64247000  1.0
  H  H35  1  0.40525000  0.22530000  0.85761000  1.0
  H  H36  1  0.36072000  0.55064000  0.45557000  1.0
  H  H37  1  0.85438000  0.94935000  0.04427000  1.0
  H  H38  1  0.63928000  0.44936000  0.54443000  1.0
  H  H39  1  0.14561000  0.05065000  0.95573000  1.0
  H  H40  1  0.22268000  0.42108000  0.28317000  1.0
  H  H41  1  0.01819000  0.07892000  0.21667000  1.0
  H  H42  1  0.77733000  0.57892000  0.71684000  1.0
  H  H43  1  0.98181000  0.92108000  0.78333000  1.0
  H  H44  1  0.37362000  0.79000000  0.50948000  1.0
  H  H45  1  0.57423000  0.71005000  0.99033000  1.0
  H  H46  1  0.62639000  0.21000000  0.49053000  1.0
  H  H47  1  0.42576000  0.28995000  0.00967000  1.0
  H  H48  1  0.44446000  0.71153000  0.55441000  1.0
  H  H49  1  0.67870000  0.78865000  0.94551000  1.0
  H  H50  1  0.55553000  0.28847000  0.44559000  1.0
  H  H51  1  0.32129000  0.21135000  0.05449000  1.0
  H  H52  1  0.13446000  0.73797000  0.48963000  1.0
  H  H53  1  0.40687000  0.76205000  0.01018000  1.0
  H  H54  1  0.86554000  0.26203000  0.51037000  1.0
  H  H55  1  0.59313000  0.23795000  0.98982000  1.0
  H  H56  1  0.99841000  0.68297000  0.57529000  1.0
  H  H57  1  0.24026000  0.81711000  0.92461000  1.0
  H  H58  1  0.00158000  0.31703000  0.42470000  1.0
  H  H59  1  0.75973000  0.18289000  0.07538000  1.0
  H  H60  1  0.05981000  0.59896000  0.70927000  1.0
  H  H61  1  0.25197000  0.90129000  0.79070000  1.0
  H  H62  1  0.94018000  0.40104000  0.29072000  1.0
  H  H63  1  0.74802000  0.09871000  0.20930000  1.0
  H  H64  1  0.38874000  0.62393000  0.66791000  1.0
  H  H65  1  0.59719000  0.87625000  0.83200000  1.0
  H  H66  1  0.61126000  0.37607000  0.33209000  1.0
  H  H67  1  0.40281000  0.12375000  0.16800000  1.0
  C  C68  1  0.62018000  0.27370000  0.78373000  1.0
  C  C69  1  0.06308000  0.22637000  0.71654000  1.0
  C  C70  1  0.37982000  0.72630000  0.21627000  1.0
  C  C71  1  0.93692000  0.77363000  0.28346000  1.0
  C  C72  1  0.71352000  0.34933000  0.87707000  1.0
  C  C73  1  0.98748000  0.15060000  0.62328000  1.0
  C  C74  1  0.28648000  0.65067000  0.12293000  1.0
  C  C75  1  0.01252000  0.84940000  0.37672000  1.0
  C  C76  1  0.82096000  0.33921000  0.94631000  1.0
  C  C77  1  0.03560000  0.16055000  0.55389000  1.0
  C  C78  1  0.17905000  0.66079000  0.05370000  1.0
  C  C79  1  0.96440000  0.83945000  0.44611000  1.0
  C  C80  1  0.82991000  0.25239000  0.91575000  1.0
  C  C81  1  0.16182000  0.24736000  0.58426000  1.0
  C  C82  1  0.17009000  0.74761000  0.08425000  1.0
  C  C83  1  0.83818000  0.75264000  0.41574000  1.0
  C  C84  1  0.73350000  0.18123000  0.82062000  1.0
  C  C85  1  0.23176000  0.31863000  0.67935000  1.0
  C  C86  1  0.26649000  0.81876000  0.17938000  1.0
  C  C87  1  0.76824000  0.68137000  0.32065000  1.0
  C  C88  1  0.91411000  0.41753000  0.04468000  1.0
  C  C89  1  0.95187000  0.08227000  0.45546000  1.0
  C  C90  1  0.08591000  0.58248000  0.95532000  1.0
  C  C91  1  0.04812000  0.91772000  0.54454000  1.0
  C  C92  1  0.02421000  0.42080000  0.11890000  1.0
  C  C93  1  0.98429000  0.07907000  0.38105000  1.0
  C  C94  1  0.97579000  0.57920000  0.88110000  1.0
  C  C95  1  0.01571000  0.92093000  0.61895000  1.0
  C  C96  1  0.10895000  0.49776000  0.21753000  1.0
  C  C97  1  0.89349000  0.00215000  0.28238000  1.0
  C  C98  1  0.89105000  0.50224000  0.78247000  1.0
  C  C99  1  0.10651000  0.99785000  0.71762000  1.0
  C  C100  1  0.09793000  0.58563000  0.24087000  1.0
  C  C101  1  0.77125000  0.91432000  0.25904000  1.0
  C  C102  1  0.90208000  0.41437000  0.75914000  1.0
  C  C103  1  0.22875000  0.08568000  0.74096000  1.0
  C  C104  1  0.17941000  0.65475000  0.33685000  1.0
  C  C105  1  0.68768000  0.84523000  0.16306000  1.0
  C  C106  1  0.82059000  0.34525000  0.66315000  1.0
  C  C107  1  0.31232000  0.15477000  0.83694000  1.0
  C  C108  1  0.28560000  0.55731000  0.39193000  1.0
  C  C109  1  0.83626000  0.94265000  0.10795000  1.0
  C  C110  1  0.71440000  0.44269000  0.60807000  1.0
  C  C111  1  0.16374000  0.05735000  0.89205000  1.0
  C  C112  1  0.20769000  0.48648000  0.29659000  1.0
  C  C113  1  0.92444000  0.01350000  0.20328000  1.0
  C  C114  1  0.79231000  0.51352000  0.70341000  1.0
  C  C115  1  0.07556000  0.98651000  0.79672000  1.0
  C  C116  1  0.34947000  0.71257000  0.51619000  1.0
  C  C117  1  0.62074000  0.78751000  0.98369000  1.0
  C  C118  1  0.65054000  0.28743000  0.48382000  1.0
  C  C119  1  0.37926000  0.21250000  0.01631000  1.0
  C  C120  1  0.26862000  0.68204000  0.57034000  1.0
  C  C121  1  0.51641000  0.81809000  0.92955000  1.0
  C  C122  1  0.73138000  0.31796000  0.42966000  1.0
  C  C123  1  0.48360000  0.18192000  0.07046000  1.0
  C  C124  1  0.15903000  0.69915000  0.54579000  1.0
  C  C125  1  0.41412000  0.80091000  0.95404000  1.0
  C  C126  1  0.84097000  0.30085000  0.45421000  1.0
  C  C127  1  0.58587000  0.19908000  0.04596000  1.0
  C  C128  1  0.08295000  0.66872000  0.59468000  1.0
  C  C129  1  0.31964000  0.83133000  0.90518000  1.0
  C  C130  1  0.91705000  0.33128000  0.40532000  1.0
  C  C131  1  0.68036000  0.16867000  0.09482000  1.0
  C  C132  1  0.11659000  0.62229000  0.66917000  1.0
  C  C133  1  0.32542000  0.87790000  0.83079000  1.0
  C  C134  1  0.88340000  0.37770000  0.33083000  1.0
  C  C135  1  0.67457000  0.12210000  0.16920000  1.0
  C  C136  1  0.22730000  0.60669000  0.69570000  1.0
  C  C137  1  0.42521000  0.89347000  0.80425000  1.0
  C  C138  1  0.77268000  0.39331000  0.30429000  1.0
  C  C139  1  0.57479000  0.10653000  0.19575000  1.0
  C  C140  1  0.30222000  0.63622000  0.64546000  1.0
  C  C141  1  0.52081000  0.86392000  0.85445000  1.0
  C  C142  1  0.69778000  0.36378000  0.35454000  1.0
  C  C143  1  0.47919000  0.13608000  0.14555000  1.0
  C  C144  1  0.26642000  0.55838000  0.77669000  1.0
  C  C145  1  0.43163000  0.94174000  0.72322000  1.0
  C  C146  1  0.73357000  0.44162000  0.22331000  1.0
  C  C147  1  0.56837000  0.05826000  0.27678000  1.0
  N  N148  1  0.62975000  0.19110000  0.75578000  1.0
  N  N149  1  0.18312000  0.30892000  0.74433000  1.0
  N  N150  1  0.37025000  0.80890000  0.24422000  1.0
  N  N151  1  0.81690000  0.69108000  0.25568000  1.0
  N  N152  1  0.27125000  0.64023000  0.41153000  1.0
  N  N153  1  0.71944000  0.85977000  0.08837000  1.0
  N  N154  1  0.72875000  0.35977000  0.58847000  1.0
  N  N155  1  0.28056000  0.14023000  0.91163000  1.0
  Cl  Cl156  1  0.32282000  0.91115000  0.42416000  1.0
  Cl  Cl157  1  0.48778000  0.58893000  0.07591000  1.0
  Cl  Cl158  1  0.67718000  0.08885000  0.57584000  1.0
  Cl  Cl159  1  0.51223000  0.41107000  0.92409000  1.0
  Cl  Cl160  1  0.35712000  0.16655000  0.53242000  1.0
  Cl  Cl161  1  0.15827000  0.33382000  0.96781000  1.0
  Cl  Cl162  1  0.64290000  0.83346000  0.46758000  1.0
  Cl  Cl163  1  0.84173000  0.66618000  0.03219000  1.0
  O  O164  1  0.37328000  0.55238000  0.80280000  1.0
  O  O165  1  0.51819000  0.94755000  0.69692000  1.0
  O  O166  1  0.62671000  0.44762000  0.19719000  1.0
  O  O167  1  0.48182000  0.05245000  0.30308000  1.0
  O  O168  1  0.18883000  0.52287000  0.81461000  1.0
  O  O169  1  0.35171000  0.97733000  0.68542000  1.0
  O  O170  1  0.81116000  0.47713000  0.18538000  1.0
  O  O171  1  0.64830000  0.02268000  0.31458000  1.0
