# generated using pymatgen
data_CuH15C13N3O5
_symmetry_space_group_name_H-M   'P 1'
_cell_length_a   8.00404000
_cell_length_b   9.07171000
_cell_length_c   10.36320000
_cell_angle_alpha   74.97100000
_cell_angle_beta   89.99980000
_cell_angle_gamma   89.99970000
_symmetry_Int_Tables_number   1
_chemical_formula_structural   CuH15C13N3O5
_chemical_formula_sum   'Cu2 H30 C26 N6 O10'
_cell_volume   726.73672495
_cell_formula_units_Z   2
loop_
 _symmetry_equiv_pos_site_id
 _symmetry_equiv_pos_as_xyz
  1  'x, y, z'
loop_
 _atom_site_type_symbol
 _atom_site_label
 _atom_site_symmetry_multiplicity
 _atom_site_fract_x
 _atom_site_fract_y
 _atom_site_fract_z
 _atom_site_occupancy
  Cu  Cu0  1  0.51873000  0.38962000  0.67018000  1.0
  Cu  Cu1  1  0.48127000  0.38962000  0.17018000  1.0
  H  H2  1  0.67781000  0.35790000  0.94349000  1.0
  H  H3  1  0.32219000  0.35790000  0.44349000  1.0
  H  H4  1  0.72996000  0.48119000  0.80883000  1.0
  H  H5  1  0.27004000  0.48119000  0.30882000  1.0
  H  H6  1  0.33236000  0.21547000  0.98987000  1.0
  H  H7  1  0.66764000  0.21546000  0.48988000  1.0
  H  H8  1  0.24619000  0.94334000  0.01456000  1.0
  H  H9  1  0.75381000  0.94333000  0.51457000  1.0
  H  H10  1  0.24421000  0.76134000  0.24110000  1.0
  H  H11  1  0.75579000  0.76134000  0.74110000  1.0
  H  H12  1  0.42811000  0.13066000  0.39579000  1.0
  H  H13  1  0.57189000  0.13065000  0.89579000  1.0
  H  H14  1  0.46914000  0.64240000  0.42772000  1.0
  H  H15  1  0.53086000  0.64240000  0.92773000  1.0
  H  H16  1  0.21888000  0.99173000  0.57188000  1.0
  H  H17  1  0.78112000  0.99173000  0.07188000  1.0
  H  H18  1  0.32545000  0.56363000  0.82356000  1.0
  H  H19  1  0.67455000  0.56363000  0.32357000  1.0
  H  H20  1  0.09133000  0.59534000  0.51748000  1.0
  H  H21  1  0.90867000  0.59534000  0.01747000  1.0
  H  H22  1  0.93464000  0.67405000  0.39595000  1.0
  H  H23  1  0.06537000  0.67405000  0.89595000  1.0
  H  H24  1  0.98867000  0.48010000  0.42490000  1.0
  H  H25  1  0.01134000  0.48010000  0.92489000  1.0
  H  H26  1  0.08715000  0.03346000  0.81052000  1.0
  H  H27  1  0.91285000  0.03347000  0.31053000  1.0
  H  H28  1  0.95225000  0.16696000  0.70536000  1.0
  H  H29  1  0.04775000  0.16696000  0.20537000  1.0
  H  H30  1  0.02745000  0.20200000  0.85819000  1.0
  H  H31  1  0.97254000  0.20200000  0.35819000  1.0
  C  C32  1  0.33533000  0.13114000  0.08660000  1.0
  C  C33  1  0.66467000  0.13113000  0.58661000  1.0
  C  C34  1  0.28611000  0.98023000  0.10174000  1.0
  C  C35  1  0.71390000  0.98022000  0.60175000  1.0
  C  C36  1  0.28658000  0.87873000  0.22834000  1.0
  C  C37  1  0.71341000  0.87872000  0.72835000  1.0
  C  C38  1  0.33591000  0.93187000  0.33827000  1.0
  C  C39  1  0.66409000  0.93186000  0.83828000  1.0
  C  C40  1  0.38607000  0.08419000  0.31451000  1.0
  C  C41  1  0.61393000  0.08417000  0.81452000  1.0
  C  C42  1  0.41025000  0.68755000  0.50393000  1.0
  C  C43  1  0.58975000  0.68754000  0.00394000  1.0
  C  C44  1  0.33792000  0.83241000  0.47558000  1.0
  C  C45  1  0.66207000  0.83241000  0.97559000  1.0
  C  C46  1  0.27091000  0.87715000  0.58479000  1.0
  C  C47  1  0.72909000  0.87714000  0.08480000  1.0
  C  C48  1  0.33226000  0.64424000  0.72506000  1.0
  C  C49  1  0.66773000  0.64423000  0.22507000  1.0
  C  C50  1  0.84047000  0.53301000  0.58097000  1.0
  C  C51  1  0.15953000  0.53302000  0.08096000  1.0
  C  C52  1  0.97298000  0.57256000  0.47398000  1.0
  C  C53  1  0.02703000  0.57256000  0.97397000  1.0
  C  C54  1  0.20918000  0.23443000  0.69658000  1.0
  C  C55  1  0.79082000  0.23444000  0.19658000  1.0
  C  C56  1  0.05883000  0.15597000  0.77331000  1.0
  C  C57  1  0.94117000  0.15598000  0.27331000  1.0
  N  N58  1  0.38682000  0.18017000  0.19205000  1.0
  N  N59  1  0.61318000  0.18016000  0.69206000  1.0
  N  N60  1  0.40763000  0.59488000  0.62794000  1.0
  N  N61  1  0.59237000  0.59487000  0.12795000  1.0
  N  N62  1  0.26739000  0.78357000  0.70852000  1.0
  N  N63  1  0.73260000  0.78356000  0.20852000  1.0
  O  O64  1  0.70576000  0.47334000  0.54701000  1.0
  O  O65  1  0.29425000  0.47335000  0.04701000  1.0
  O  O66  1  0.86560000  0.55976000  0.69276000  1.0
  O  O67  1  0.13440000  0.55976000  0.19275000  1.0
  O  O68  1  0.31135000  0.29684000  0.76312000  1.0
  O  O69  1  0.68865000  0.29683000  0.26313000  1.0
  O  O70  1  0.22861000  0.23155000  0.57658000  1.0
  O  O71  1  0.77140000  0.23157000  0.07658000  1.0
  O  O72  1  0.63135000  0.43266000  0.86380000  1.0
  O  O73  1  0.36864000  0.43266000  0.36379000  1.0
