# generated using pymatgen
data_CoH4(C2O)4
_symmetry_space_group_name_H-M   'P 1'
_cell_length_a   4.61222000
_cell_length_b   5.81260000
_cell_length_c   13.69340000
_cell_angle_alpha   88.31310000
_cell_angle_beta   89.37750000
_cell_angle_gamma   70.95700000
_symmetry_Int_Tables_number   1
_chemical_formula_structural   CoH4(C2O)4
_chemical_formula_sum   'Co2 H8 C16 O8'
_cell_volume   346.86525917
_cell_formula_units_Z   2
loop_
 _symmetry_equiv_pos_site_id
 _symmetry_equiv_pos_as_xyz
  1  'x, y, z'
loop_
 _atom_site_type_symbol
 _atom_site_label
 _atom_site_symmetry_multiplicity
 _atom_site_fract_x
 _atom_site_fract_y
 _atom_site_fract_z
 _atom_site_occupancy
  Co  Co0  1  0.77034000  0.25354000  0.55349000  1.0
  Co  Co1  1  0.22976000  0.74653000  0.44651000  1.0
  H  H2  1  0.00217000  0.43439000  0.81927000  1.0
  H  H3  1  0.50136000  0.07079000  0.81302000  1.0
  H  H4  1  0.99786000  0.56554000  0.18061000  1.0
  H  H5  1  0.49858000  0.92918000  0.18709000  1.0
  H  H6  1  0.13546000  0.58515000  0.97662000  1.0
  H  H7  1  0.37652000  0.90714000  0.97342000  1.0
  H  H8  1  0.86425000  0.41469000  0.02333000  1.0
  H  H9  1  0.62314000  0.09274000  0.02664000  1.0
  C  C10  1  0.10501000  0.54850000  0.64073000  1.0
  C  C11  1  0.38668000  0.97277000  0.63660000  1.0
  C  C12  1  0.89512000  0.45155000  0.35923000  1.0
  C  C13  1  0.61341000  0.02733000  0.36345000  1.0
  C  C14  1  0.17912000  0.66473000  0.72892000  1.0
  C  C15  1  0.31981000  0.84757000  0.72703000  1.0
  C  C16  1  0.82100000  0.33529000  0.27105000  1.0
  C  C17  1  0.68027000  0.15245000  0.27299000  1.0
  C  C18  1  0.11266000  0.57376000  0.81942000  1.0
  C  C19  1  0.39123000  0.93112000  0.81579000  1.0
  C  C20  1  0.88735000  0.42615000  0.18052000  1.0
  C  C21  1  0.60874000  0.06884000  0.18426000  1.0
  C  C22  1  0.18516000  0.65871000  0.90678000  1.0
  C  C23  1  0.32311000  0.83917000  0.90494000  1.0
  C  C24  1  0.81471000  0.34120000  0.09319000  1.0
  C  C25  1  0.67670000  0.16072000  0.09508000  1.0
  O  O26  1  0.88487000  0.46386000  0.64972000  1.0
  O  O27  1  0.60908000  0.05468000  0.64258000  1.0
  O  O28  1  0.11520000  0.53631000  0.35021000  1.0
  O  O29  1  0.39097000  0.94547000  0.35749000  1.0
  O  O30  1  0.27135000  0.52352000  0.56278000  1.0
  O  O31  1  0.21468000  0.00620000  0.56057000  1.0
  O  O32  1  0.72891000  0.47650000  0.43719000  1.0
  O  O33  1  0.78541000  0.99390000  0.43947000  1.0
