# generated using pymatgen
data_SrH10C4(N4O3)2
_symmetry_space_group_name_H-M   'P 1'
_cell_length_a   7.59009000
_cell_length_b   7.64587000
_cell_length_c   11.34600000
_cell_angle_alpha   74.04680000
_cell_angle_beta   87.11250000
_cell_angle_gamma   63.12220000
_symmetry_Int_Tables_number   1
_chemical_formula_structural   SrH10C4(N4O3)2
_chemical_formula_sum   'Sr2 H20 C8 N16 O12'
_cell_volume   562.59235810
_cell_formula_units_Z   2
loop_
 _symmetry_equiv_pos_site_id
 _symmetry_equiv_pos_as_xyz
  1  'x, y, z'
loop_
 _atom_site_type_symbol
 _atom_site_label
 _atom_site_symmetry_multiplicity
 _atom_site_fract_x
 _atom_site_fract_y
 _atom_site_fract_z
 _atom_site_occupancy
  Sr  Sr0  1  0.30293000  0.77490000  0.54044000  1.0
  Sr  Sr1  1  0.69707000  0.22510000  0.45956000  1.0
  H  H2  1  0.47072000  0.28506000  0.04515000  1.0
  H  H3  1  0.52928000  0.71494000  0.95485000  1.0
  H  H4  1  0.11891000  0.61593000  0.99510000  1.0
  H  H5  1  0.88109000  0.38407000  0.00490000  1.0
  H  H6  1  0.27982000  0.37266000  0.56340000  1.0
  H  H7  1  0.72018000  0.62735000  0.43660000  1.0
  H  H8  1  0.24674000  0.46006000  0.41852000  1.0
  H  H9  1  0.75326000  0.53994000  0.58148000  1.0
  H  H10  1  0.91300000  0.73239000  0.58909000  1.0
  H  H11  1  0.08700000  0.26761000  0.41091000  1.0
  H  H12  1  0.89926000  0.79594000  0.44391000  1.0
  H  H13  1  0.10074000  0.20406000  0.55609000  1.0
  H  H14  1  0.97526000  0.93915000  0.74258000  1.0
  H  H15  1  0.02473000  0.06085000  0.25742000  1.0
  H  H16  1  0.17736000  0.73013000  0.79976000  1.0
  H  H17  1  0.82264000  0.26987000  0.20024000  1.0
  H  H18  1  0.40164000  0.00135000  0.68909000  1.0
  H  H19  1  0.59836000  0.99865000  0.31091000  1.0
  H  H20  1  0.59730000  0.79064000  0.72602000  1.0
  H  H21  1  0.40270000  0.20937000  0.27398000  1.0
  C  C22  1  0.61698000  0.25241000  0.76917000  1.0
  C  C23  1  0.38302000  0.74759000  0.23083000  1.0
  C  C24  1  0.49084000  0.30642000  0.94788000  1.0
  C  C25  1  0.50916000  0.69358000  0.05212000  1.0
  C  C26  1  0.93038000  0.66430000  0.25832000  1.0
  C  C27  1  0.06962000  0.33570000  0.74168000  1.0
  C  C28  1  0.08370000  0.59916000  0.09008000  1.0
  C  C29  1  0.91630000  0.40084000  0.90992000  1.0
  N  N30  1  0.45826000  0.43822000  0.74614000  1.0
  N  N31  1  0.54174000  0.56178000  0.25386000  1.0
  N  N32  1  0.38334000  0.46717000  0.85755000  1.0
  N  N33  1  0.61666000  0.53283000  0.14245000  1.0
  N  N34  1  0.64040000  0.16529000  0.89958000  1.0
  N  N35  1  0.35960000  0.83470000  0.10042000  1.0
  N  N36  1  0.78916000  0.97820000  0.95593000  1.0
  N  N37  1  0.21084000  0.02180000  0.04407000  1.0
  N  N38  1  0.77407000  0.92951000  0.07047000  1.0
  N  N39  1  0.22593000  0.07049000  0.92953000  1.0
  N  N40  1  0.92281000  0.74379000  0.12998000  1.0
  N  N41  1  0.07718000  0.25621000  0.87002000  1.0
  N  N42  1  0.09141000  0.48141000  0.29061000  1.0
  N  N43  1  0.90859000  0.51859000  0.70939000  1.0
  N  N44  1  0.18426000  0.44347000  0.18482000  1.0
  N  N45  1  0.81574000  0.55652000  0.81518000  1.0
  O  O46  1  0.72916000  0.16221000  0.69664000  1.0
  O  O47  1  0.27085000  0.83778000  0.30336000  1.0
  O  O48  1  0.80555000  0.75514000  0.32636000  1.0
  O  O49  1  0.19446000  0.24486000  0.67364000  1.0
  O  O50  1  0.32736000  0.44327000  0.49116000  1.0
  O  O51  1  0.67264000  0.55673000  0.50884000  1.0
  O  O52  1  0.93177000  0.82909000  0.51622000  1.0
  O  O53  1  0.06823000  0.17091000  0.48378000  1.0
  O  O54  1  0.11499000  0.85583000  0.73059000  1.0
  O  O55  1  0.88501000  0.14417000  0.26940000  1.0
  O  O56  1  0.50130000  0.89329000  0.65598000  1.0
  O  O57  1  0.49870000  0.10671000  0.34402000  1.0
