# generated using pymatgen
data_CdH15C20N3O5
_symmetry_space_group_name_H-M   'P 1'
_cell_length_a   10.08920000
_cell_length_b   10.45700000
_cell_length_c   10.50700000
_cell_angle_alpha   64.94360000
_cell_angle_beta   63.64810000
_cell_angle_gamma   71.36390000
_symmetry_Int_Tables_number   1
_chemical_formula_structural   CdH15C20N3O5
_chemical_formula_sum   'Cd2 H30 C40 N6 O10'
_cell_volume   887.94734088
_cell_formula_units_Z   2
loop_
 _symmetry_equiv_pos_site_id
 _symmetry_equiv_pos_as_xyz
  1  'x, y, z'
loop_
 _atom_site_type_symbol
 _atom_site_label
 _atom_site_symmetry_multiplicity
 _atom_site_fract_x
 _atom_site_fract_y
 _atom_site_fract_z
 _atom_site_occupancy
  Cd  Cd0  1  0.26255000  0.39942000  0.06012000  1.0
  Cd  Cd1  1  0.73745000  0.60058000  0.93988000  1.0
  H  H2  1  0.85526000  0.84883000  0.09460000  1.0
  H  H3  1  0.14474000  0.15118000  0.90540000  1.0
  H  H4  1  0.00913000  0.65283000  0.11802000  1.0
  H  H5  1  0.99088000  0.34716000  0.88198000  1.0
  H  H6  1  0.45695000  0.24583000  0.73464000  1.0
  H  H7  1  0.54305000  0.75417000  0.26536000  1.0
  H  H8  1  0.40049000  0.23261000  0.32141000  1.0
  H  H9  1  0.59950000  0.76739000  0.67859000  1.0
  H  H10  1  0.56309000  0.24215000  0.87906000  1.0
  H  H11  1  0.43691000  0.75785000  0.12094000  1.0
  H  H12  1  0.48780000  0.41311000  0.47428000  1.0
  H  H13  1  0.51220000  0.58689000  0.52572000  1.0
  H  H14  1  0.75771000  0.02838000  0.92706000  1.0
  H  H15  1  0.24229000  0.97162000  0.07294000  1.0
  H  H16  1  0.88932000  0.13252000  0.17765000  1.0
  H  H17  1  0.11068000  0.86748000  0.82235000  1.0
  H  H18  1  0.98044000  0.01507000  0.30565000  1.0
  H  H19  1  0.01955000  0.98492000  0.69435000  1.0
  H  H20  1  0.21986000  0.58200000  0.49006000  1.0
  H  H21  1  0.78014000  0.41800000  0.50994000  1.0
  H  H22  1  0.34996000  0.46577000  0.29117000  1.0
  H  H23  1  0.65004000  0.53423000  0.70883000  1.0
  H  H24  1  0.97264000  0.74013000  0.50180000  1.0
  H  H25  1  0.02736000  0.25987000  0.49819000  1.0
  H  H26  1  0.59299000  0.02859000  0.38323000  1.0
  H  H27  1  0.40701000  0.97142000  0.61678000  1.0
  H  H28  1  0.65003000  0.02503000  0.77372000  1.0
  H  H29  1  0.34997000  0.97497000  0.22628000  1.0
  H  H30  1  0.86171000  0.97477000  0.55514000  1.0
  H  H31  1  0.13829000  0.02523000  0.44486000  1.0
  C  C32  1  0.05076000  0.64161000  0.20280000  1.0
  C  C33  1  0.94924000  0.35839000  0.79720000  1.0
  C  C34  1  0.55390000  0.22357000  0.63989000  1.0
  C  C35  1  0.44611000  0.77643000  0.36011000  1.0
  C  C36  1  0.48368000  0.18821000  0.23435000  1.0
  C  C37  1  0.51632000  0.81179000  0.76566000  1.0
  C  C38  1  0.57249000  0.19029000  0.98974000  1.0
  C  C39  1  0.42750000  0.80972000  0.01027000  1.0
  C  C40  1  0.69433000  0.29367000  0.36967000  1.0
  C  C41  1  0.30567000  0.70633000  0.63033000  1.0
  C  C42  1  0.97335000  0.71396000  0.30735000  1.0
  C  C43  1  0.02665000  0.28604000  0.69265000  1.0
  C  C44  1  0.57041000  0.31751000  0.49460000  1.0
  C  C45  1  0.42959000  0.68249000  0.50540000  1.0
  C  C46  1  0.68140000  0.07272000  0.01618000  1.0
  C  C47  1  0.31860000  0.92728000  0.98382000  1.0
  C  C48  1  0.92960000  0.12698000  0.26143000  1.0
  C  C49  1  0.07040000  0.87301000  0.73857000  1.0
  C  C50  1  0.16906000  0.59965000  0.41054000  1.0
  C  C51  1  0.83094000  0.40035000  0.58946000  1.0
  C  C52  1  0.24044000  0.53309000  0.30147000  1.0
  C  C53  1  0.75956000  0.46691000  0.69853000  1.0
  C  C54  1  0.03283000  0.68936000  0.41535000  1.0
  C  C55  1  0.96717000  0.31064000  0.58465000  1.0
  C  C56  1  0.82913000  0.81642000  0.31542000  1.0
  C  C57  1  0.17087000  0.18358000  0.68458000  1.0
  C  C58  1  0.80179000  0.16824000  0.39024000  1.0
  C  C59  1  0.19821000  0.83176000  0.60976000  1.0
  C  C60  1  0.59052000  0.07178000  0.27057000  1.0
  C  C61  1  0.40948000  0.92822000  0.72944000  1.0
  C  C62  1  0.66172000  0.10157000  0.66104000  1.0
  C  C63  1  0.33828000  0.89842000  0.33896000  1.0
  C  C64  1  0.05595000  0.21499000  0.17847000  1.0
  C  C65  1  0.94405000  0.78501000  0.82153000  1.0
  C  C66  1  0.69071000  0.00836000  0.16069000  1.0
  C  C67  1  0.30929000  0.99164000  0.83931000  1.0
  C  C68  1  0.78259000  0.07411000  0.53730000  1.0
  C  C69  1  0.21741000  0.92589000  0.46270000  1.0
  C  C70  1  0.70611000  0.40520000  0.21922000  1.0
  C  C71  1  0.29389000  0.59479000  0.78078000  1.0
  N  N72  1  0.80018000  0.88885000  0.18357000  1.0
  N  N73  1  0.19982000  0.11115000  0.81643000  1.0
  N  N74  1  0.18077000  0.55162000  0.20179000  1.0
  N  N75  1  0.81923000  0.44838000  0.79821000  1.0
  N  N76  1  0.47208000  0.24686000  0.09750000  1.0
  N  N77  1  0.52792000  0.75314000  0.90251000  1.0
  O  O78  1  0.59236000  0.50126000  0.20483000  1.0
  O  O79  1  0.40763000  0.49874000  0.79517000  1.0
  O  O80  1  0.74699000  0.83883000  0.43539000  1.0
  O  O81  1  0.25301000  0.16117000  0.56461000  1.0
  O  O82  1  0.13978000  0.22163000  0.04319000  1.0
  O  O83  1  0.86022000  0.77837000  0.95681000  1.0
  O  O84  1  0.83046000  0.40344000  0.10863000  1.0
  O  O85  1  0.16954000  0.59656000  0.89137000  1.0
  O  O86  1  0.07884000  0.27256000  0.25100000  1.0
  O  O87  1  0.92116000  0.72744000  0.74900000  1.0
