# generated using pymatgen
data_NdH12C18(NO2)3
_symmetry_space_group_name_H-M   'P 1'
_cell_length_a   7.71211000
_cell_length_b   10.92960000
_cell_length_c   11.31880000
_cell_angle_alpha   117.95300000
_cell_angle_beta   89.99990000
_cell_angle_gamma   90.00000000
_symmetry_Int_Tables_number   1
_chemical_formula_structural   NdH12C18(NO2)3
_chemical_formula_sum   'Nd2 H24 C36 N6 O12'
_cell_volume   842.75634813
_cell_formula_units_Z   2
loop_
 _symmetry_equiv_pos_site_id
 _symmetry_equiv_pos_as_xyz
  1  'x, y, z'
loop_
 _atom_site_type_symbol
 _atom_site_label
 _atom_site_symmetry_multiplicity
 _atom_site_fract_x
 _atom_site_fract_y
 _atom_site_fract_z
 _atom_site_occupancy
  Nd  Nd0  1  0.79634000  0.98458000  0.53103000  1.0
  Nd  Nd1  1  0.29634000  0.01542000  0.46897000  1.0
  H  H2  1  0.04747000  0.44199000  0.35039000  1.0
  H  H3  1  0.54747000  0.55801000  0.64961000  1.0
  H  H4  1  0.76452000  0.31441000  0.31993000  1.0
  H  H5  1  0.26452000  0.68559000  0.68007000  1.0
  H  H6  1  0.48560000  0.45137000  0.35447000  1.0
  H  H7  1  0.98560000  0.54863000  0.64553000  1.0
  H  H8  1  0.50318000  0.70062000  0.42465000  1.0
  H  H9  1  0.00318000  0.29938000  0.57534000  1.0
  H  H10  1  0.49897000  0.84550000  0.90163000  1.0
  H  H11  1  0.99897000  0.15450000  0.09837000  1.0
  H  H12  1  0.77216000  0.80839000  0.00431000  1.0
  H  H13  1  0.27216000  0.19161000  0.99569000  1.0
  H  H14  1  0.05989000  0.83435000  0.91146000  1.0
  H  H15  1  0.55989000  0.16565000  0.08855000  1.0
  H  H16  1  0.06255000  0.89753000  0.72698000  1.0
  H  H17  1  0.56255000  0.10246000  0.27301000  1.0
  H  H18  1  0.04532000  0.39722000  0.02815000  1.0
  H  H19  1  0.54533000  0.60278000  0.97185000  1.0
  H  H20  1  0.76042000  0.49730000  0.14290000  1.0
  H  H21  1  0.26043000  0.50270000  0.85710000  1.0
  H  H22  1  0.48416000  0.38794000  0.01801000  1.0
  H  H23  1  0.98416000  0.61206000  0.98199000  1.0
  H  H24  1  0.50323000  0.19810000  0.78715000  1.0
  H  H25  1  0.00323000  0.80190000  0.21285000  1.0
  C  C26  1  0.92168000  0.63570000  0.40500000  1.0
  C  C27  1  0.42167000  0.36430000  0.59500000  1.0
  C  C28  1  0.92293000  0.49424000  0.36633000  1.0
  C  C29  1  0.42292000  0.50576000  0.63367000  1.0
  C  C30  1  0.76580000  0.42475000  0.34925000  1.0
  C  C31  1  0.26579000  0.57525000  0.65075000  1.0
  C  C32  1  0.61273000  0.49965000  0.36880000  1.0
  C  C33  1  0.11272000  0.50036000  0.63120000  1.0
  C  C34  1  0.62209000  0.64108000  0.40814000  1.0
  C  C35  1  0.12209000  0.35892000  0.59186000  1.0
  C  C36  1  0.08935000  0.71335000  0.42278000  1.0
  C  C37  1  0.58935000  0.28665000  0.57722000  1.0
  C  C38  1  0.63946000  0.89006000  0.76297000  1.0
  C  C39  1  0.13946000  0.10994000  0.23703000  1.0
  C  C40  1  0.62718000  0.85478000  0.86633000  1.0
  C  C41  1  0.12718000  0.14522000  0.13367000  1.0
  C  C42  1  0.77871000  0.83418000  0.92215000  1.0
  C  C43  1  0.27871000  0.16582000  0.07785000  1.0
  C  C44  1  0.93768000  0.84882000  0.87139000  1.0
  C  C45  1  0.43768000  0.15119000  0.12862000  1.0
  C  C46  1  0.93998000  0.88394000  0.76766000  1.0
  C  C47  1  0.43998000  0.11606000  0.23234000  1.0
  C  C48  1  0.47742000  0.91582000  0.70235000  1.0
  C  C49  1  0.97742000  0.08418000  0.29765000  1.0
  C  C50  1  0.92079000  0.25028000  0.84775000  1.0
  C  C51  1  0.42079000  0.74971000  0.15225000  1.0
  C  C52  1  0.92148000  0.35675000  0.97930000  1.0
  C  C53  1  0.42148000  0.64325000  0.02070000  1.0
  C  C54  1  0.76384000  0.41020000  0.04267000  1.0
  C  C55  1  0.26384000  0.58980000  0.95733000  1.0
  C  C56  1  0.61118000  0.35129000  0.97349000  1.0
  C  C57  1  0.11118000  0.64871000  0.02650000  1.0
  C  C58  1  0.62157000  0.24386000  0.84277000  1.0
  C  C59  1  0.12157000  0.75613000  0.15722000  1.0
  C  C60  1  0.08851000  0.19624000  0.77315000  1.0
  C  C61  1  0.58851000  0.80376000  0.22685000  1.0
  N  N62  1  0.77331000  0.70890000  0.42727000  1.0
  N  N63  1  0.27331000  0.29110000  0.57273000  1.0
  N  N64  1  0.79387000  0.90444000  0.71473000  1.0
  N  N65  1  0.29387000  0.09556000  0.28527000  1.0
  N  N66  1  0.77306000  0.19463000  0.77996000  1.0
  N  N67  1  0.27306000  0.80537000  0.22004000  1.0
  O  O68  1  0.07159000  0.84594000  0.46460000  1.0
  O  O69  1  0.57159000  0.15406000  0.53540000  1.0
  O  O70  1  0.22952000  0.65038000  0.39687000  1.0
  O  O71  1  0.72952000  0.34962000  0.60313000  1.0
  O  O72  1  0.50315000  0.95144000  0.60865000  1.0
  O  O73  1  0.00315000  0.04856000  0.39135000  1.0
  O  O74  1  0.33362000  0.90274000  0.74427000  1.0
  O  O75  1  0.83362000  0.09726000  0.25572000  1.0
  O  O76  1  0.22908000  0.24402000  0.82994000  1.0
  O  O77  1  0.72908000  0.75598000  0.17007000  1.0
  O  O78  1  0.07120000  0.10204000  0.64950000  1.0
  O  O79  1  0.57120000  0.89796000  0.35051000  1.0
