# generated using pymatgen
data_ZnH10C15NO4
_symmetry_space_group_name_H-M   'P 1'
_cell_length_a   9.23569000
_cell_length_b   10.66540000
_cell_length_c   15.10630000
_cell_angle_alpha   89.99980000
_cell_angle_beta   89.99960000
_cell_angle_gamma   106.26700000
_symmetry_Int_Tables_number   1
_chemical_formula_structural   ZnH10C15NO4
_chemical_formula_sum   'Zn4 H40 C60 N4 O16'
_cell_volume   1428.43606671
_cell_formula_units_Z   4
loop_
 _symmetry_equiv_pos_site_id
 _symmetry_equiv_pos_as_xyz
  1  'x, y, z'
loop_
 _atom_site_type_symbol
 _atom_site_label
 _atom_site_symmetry_multiplicity
 _atom_site_fract_x
 _atom_site_fract_y
 _atom_site_fract_z
 _atom_site_occupancy
  Zn  Zn0  1  0.63789000  0.61302000  0.00377000  1.0
  Zn  Zn1  1  0.86211000  0.88698000  0.50377000  1.0
  Zn  Zn2  1  0.36211000  0.38698000  0.99623000  1.0
  Zn  Zn3  1  0.13789000  0.11302000  0.49623000  1.0
  H  H4  1  0.92390000  0.64058000  0.91409000  1.0
  H  H5  1  0.57610000  0.85941000  0.41409000  1.0
  H  H6  1  0.07610000  0.35941000  0.08590000  1.0
  H  H7  1  0.42390000  0.14059000  0.58591000  1.0
  H  H8  1  0.18999000  0.77486000  0.92126000  1.0
  H  H9  1  0.31001000  0.72514000  0.42125000  1.0
  H  H10  1  0.81000000  0.22513000  0.07874000  1.0
  H  H11  1  0.68999000  0.27487000  0.57874000  1.0
  H  H12  1  0.06128000  0.98973000  0.13637000  1.0
  H  H13  1  0.43872000  0.51026000  0.63637000  1.0
  H  H14  1  0.93873000  0.01025000  0.86363000  1.0
  H  H15  1  0.56128000  0.48974000  0.36363000  1.0
  H  H16  1  0.79806000  0.84525000  0.11913000  1.0
  H  H17  1  0.70193000  0.65475000  0.61913000  1.0
  H  H18  1  0.20194000  0.15473000  0.88087000  1.0
  H  H19  1  0.29806000  0.34527000  0.38087000  1.0
  H  H20  1  0.32196000  0.06631000  0.07906000  1.0
  H  H21  1  0.17803000  0.43369000  0.57906000  1.0
  H  H22  1  0.67803000  0.93367000  0.92094000  1.0
  H  H23  1  0.82197000  0.56632000  0.42094000  1.0
  H  H24  1  0.41334000  0.86955000  0.95601000  1.0
  H  H25  1  0.08666000  0.63044000  0.45601000  1.0
  H  H26  1  0.58666000  0.13044000  0.04399000  1.0
  H  H27  1  0.91333000  0.36956000  0.54399000  1.0
  H  H28  1  0.53356000  0.85727000  0.78612000  1.0
  H  H29  1  0.96644000  0.64274000  0.28612000  1.0
  H  H30  1  0.46645000  0.14274000  0.21388000  1.0
  H  H31  1  0.03356000  0.35727000  0.71388000  1.0
  H  H32  1  0.40112000  0.96409000  0.67609000  1.0
  H  H33  1  0.09887000  0.53591000  0.17609000  1.0
  H  H34  1  0.59887000  0.03592000  0.32392000  1.0
  H  H35  1  0.90113000  0.46409000  0.82391000  1.0
  H  H36  1  0.00801000  0.63601000  0.69078000  1.0
  H  H37  1  0.49199000  0.86399000  0.19077000  1.0
  H  H38  1  0.99199000  0.36399000  0.30922000  1.0
  H  H39  1  0.50801000  0.13601000  0.80923000  1.0
  H  H40  1  0.14157000  0.52940000  0.80151000  1.0
  H  H41  1  0.35844000  0.97061000  0.30150000  1.0
  H  H42  1  0.85845000  0.47061000  0.19850000  1.0
  H  H43  1  0.64156000  0.02939000  0.69850000  1.0
  C  C44  1  0.96034000  0.71911000  0.96229000  1.0
  C  C45  1  0.53966000  0.78088000  0.46228000  1.0
  C  C46  1  0.03966000  0.28088000  0.03771000  1.0
  C  C47  1  0.46033000  0.21913000  0.53771000  1.0
  C  C48  1  0.10867000  0.79400000  0.96767000  1.0
  C  C49  1  0.39133000  0.70600000  0.46767000  1.0
  C  C50  1  0.89133000  0.20599000  0.03232000  1.0
  C  C51  1  0.60866000  0.29401000  0.53232000  1.0
  C  C52  1  0.15128000  0.89495000  0.03080000  1.0
  C  C53  1  0.34872000  0.60505000  0.53080000  1.0
  C  C54  1  0.84872000  0.10504000  0.96920000  1.0
  C  C55  1  0.65128000  0.39496000  0.46920000  1.0
  C  C56  1  0.03616000  0.91286000  0.08642000  1.0
  C  C57  1  0.46383000  0.58714000  0.58642000  1.0
  C  C58  1  0.96383000  0.08713000  0.91358000  1.0
  C  C59  1  0.53617000  0.41287000  0.41358000  1.0
  C  C60  1  0.88955000  0.83317000  0.07734000  1.0
  C  C61  1  0.61045000  0.66683000  0.57734000  1.0
  C  C62  1  0.11045000  0.16682000  0.92266000  1.0
  C  C63  1  0.38955000  0.33318000  0.42265000  1.0
  C  C64  1  0.30426000  0.97936000  0.03743000  1.0
  C  C65  1  0.19574000  0.52063000  0.53743000  1.0
  C  C66  1  0.69574000  0.02063000  0.96256000  1.0
  C  C67  1  0.80426000  0.47937000  0.46256000  1.0
  C  C68  1  0.42549000  0.95716000  0.99601000  1.0
  C  C69  1  0.07450000  0.54284000  0.49601000  1.0
  C  C70  1  0.57450000  0.04283000  0.00398000  1.0
  C  C71  1  0.92549000  0.45716000  0.50398000  1.0
  C  C72  1  0.34383000  0.68725000  0.80012000  1.0
  C  C73  1  0.15618000  0.81276000  0.30012000  1.0
  C  C74  1  0.65619000  0.31276000  0.19988000  1.0
  C  C75  1  0.84382000  0.18724000  0.69988000  1.0
  C  C76  1  0.41847000  0.80984000  0.76501000  1.0
  C  C77  1  0.08153000  0.69017000  0.26501000  1.0
  C  C78  1  0.58154000  0.19017000  0.23500000  1.0
  C  C79  1  0.91846000  0.30984000  0.73500000  1.0
  C  C80  1  0.34516000  0.86890000  0.70428000  1.0
  C  C81  1  0.15484000  0.63111000  0.20428000  1.0
  C  C82  1  0.65485000  0.13111000  0.29573000  1.0
  C  C83  1  0.84515000  0.36890000  0.79573000  1.0
  C  C84  1  0.19694000  0.80687000  0.67785000  1.0
  C  C85  1  0.30306000  0.69312000  0.17785000  1.0
  C  C86  1  0.80306000  0.19313000  0.32215000  1.0
  C  C87  1  0.69694000  0.30687000  0.82215000  1.0
  C  C88  1  0.12273000  0.68374000  0.71249000  1.0
  C  C89  1  0.37728000  0.81626000  0.21249000  1.0
  C  C90  1  0.87728000  0.31627000  0.28751000  1.0
  C  C91  1  0.62272000  0.18373000  0.78752000  1.0
  C  C92  1  0.19613000  0.62459000  0.77295000  1.0
  C  C93  1  0.30387000  0.87541000  0.27294000  1.0
  C  C94  1  0.80388000  0.37541000  0.22706000  1.0
  C  C95  1  0.69613000  0.12459000  0.72706000  1.0
  C  C96  1  0.41627000  0.62363000  0.86927000  1.0
  C  C97  1  0.08375000  0.87638000  0.36927000  1.0
  C  C98  1  0.58375000  0.37638000  0.13074000  1.0
  C  C99  1  0.91626000  0.12363000  0.63073000  1.0
  C  C100  1  0.11911000  0.87118000  0.61202000  1.0
  C  C101  1  0.38088000  0.62880000  0.11202000  1.0
  C  C102  1  0.88088000  0.12881000  0.38799000  1.0
  C  C103  1  0.61911000  0.37118000  0.88799000  1.0
  N  N104  1  0.85094000  0.73784000  0.01586000  1.0
  N  N105  1  0.64906000  0.76216000  0.51586000  1.0
  N  N106  1  0.14906000  0.26215000  0.98414000  1.0
  N  N107  1  0.35094000  0.23785000  0.48414000  1.0
  O  O108  1  0.54446000  0.68902000  0.89910000  1.0
  O  O109  1  0.95555000  0.81099000  0.39910000  1.0
  O  O110  1  0.45556000  0.31099000  0.10090000  1.0
  O  O111  1  0.04445000  0.18902000  0.60090000  1.0
  O  O112  1  0.34102000  0.51029000  0.89397000  1.0
  O  O113  1  0.15899000  0.98973000  0.39397000  1.0
  O  O114  1  0.65898000  0.48974000  0.10604000  1.0
  O  O115  1  0.84102000  0.01027000  0.60604000  1.0
  O  O116  1  0.19227000  0.98412000  0.58480000  1.0
  O  O117  1  0.30773000  0.51587000  0.08481000  1.0
  O  O118  1  0.80772000  0.01588000  0.41521000  1.0
  O  O119  1  0.69227000  0.48412000  0.91521000  1.0
  O  O120  1  0.98655000  0.80742000  0.58837000  1.0
  O  O121  1  0.51344000  0.69257000  0.08837000  1.0
  O  O122  1  0.01345000  0.19257000  0.41163000  1.0
  O  O123  1  0.48654000  0.30742000  0.91162000  1.0
