# generated using pymatgen
data_CuH9C9BrN3
_symmetry_space_group_name_H-M   'P 1'
_cell_length_a   7.58396000
_cell_length_b   8.32927000
_cell_length_c   9.09177000
_cell_angle_alpha   96.31730000
_cell_angle_beta   113.64400000
_cell_angle_gamma   108.89800000
_symmetry_Int_Tables_number   1
_chemical_formula_structural   CuH9C9BrN3
_chemical_formula_sum   'Cu2 H18 C18 Br2 N6'
_cell_volume   478.29315509
_cell_formula_units_Z   2
loop_
 _symmetry_equiv_pos_site_id
 _symmetry_equiv_pos_as_xyz
  1  'x, y, z'
loop_
 _atom_site_type_symbol
 _atom_site_label
 _atom_site_symmetry_multiplicity
 _atom_site_fract_x
 _atom_site_fract_y
 _atom_site_fract_z
 _atom_site_occupancy
  Cu  Cu0  1  0.04726000  0.18130000  0.48146000  1.0
  Cu  Cu1  1  0.95274000  0.81870000  0.51854000  1.0
  H  H2  1  0.01207000  0.35074000  0.95104000  1.0
  H  H3  1  0.98793000  0.64926000  0.04896000  1.0
  H  H4  1  0.21724000  0.18375000  0.90420000  1.0
  H  H5  1  0.78275000  0.81624000  0.09580000  1.0
  H  H6  1  0.37769000  0.04473000  0.12715000  1.0
  H  H7  1  0.62231000  0.95526000  0.87285000  1.0
  H  H8  1  0.30656000  0.06174000  0.37175000  1.0
  H  H9  1  0.69343000  0.93825000  0.62825000  1.0
  H  H10  1  0.60756000  0.26413000  0.01908000  1.0
  H  H11  1  0.39243000  0.73586000  0.98092000  1.0
  H  H12  1  0.57927000  0.54512000  0.18800000  1.0
  H  H13  1  0.42073000  0.45489000  0.81200000  1.0
  H  H14  1  0.28522000  0.72300000  0.56635000  1.0
  H  H15  1  0.71479000  0.27701000  0.43364000  1.0
  H  H16  1  0.34124000  0.72702000  0.39329000  1.0
  H  H17  1  0.65876000  0.27299000  0.60670000  1.0
  H  H18  1  0.33033000  0.54404000  0.48198000  1.0
  H  H19  1  0.66967000  0.45596000  0.51802000  1.0
  C  C20  1  0.05463000  0.29427000  0.18482000  1.0
  C  C21  1  0.94537000  0.70573000  0.81519000  1.0
  C  C22  1  0.08110000  0.28516000  0.04122000  1.0
  C  C23  1  0.91890000  0.71485000  0.95878000  1.0
  C  C24  1  0.19642000  0.19415000  0.01632000  1.0
  C  C25  1  0.80358000  0.80584000  0.98368000  1.0
  C  C26  1  0.28259000  0.11500000  0.13752000  1.0
  C  C27  1  0.71740000  0.88499000  0.86247000  1.0
  C  C28  1  0.24592000  0.12517000  0.27563000  1.0
  C  C29  1  0.75409000  0.87483000  0.72437000  1.0
  C  C30  1  0.94062000  0.39673000  0.21502000  1.0
  C  C31  1  0.05938000  0.60327000  0.78498000  1.0
  C  C32  1  0.73084000  0.37211000  0.12779000  1.0
  C  C33  1  0.26916000  0.62789000  0.87221000  1.0
  C  C34  1  0.71508000  0.51443000  0.21169000  1.0
  C  C35  1  0.28492000  0.48556000  0.78831000  1.0
  C  C36  1  0.26318000  0.64149000  0.45226000  1.0
  C  C37  1  0.73683000  0.35852000  0.54774000  1.0
  Br  Br38  1  0.31259000  0.06347000  0.67137000  1.0
  Br  Br39  1  0.68741000  0.93652000  0.32863000  1.0
  N  N40  1  0.13334000  0.21198000  0.30085000  1.0
  N  N41  1  0.86667000  0.78802000  0.69915000  1.0
  N  N42  1  0.90327000  0.62277000  0.34109000  1.0
  N  N43  1  0.09673000  0.37723000  0.65890000  1.0
  N  N44  1  0.03932000  0.54913000  0.34164000  1.0
  N  N45  1  0.96068000  0.45087000  0.65835000  1.0
