# generated using pymatgen
data_LiP2H13(C2O)6
_symmetry_space_group_name_H-M   'P 1'
_cell_length_a   5.37216000
_cell_length_b   8.50103000
_cell_length_c   15.17980000
_cell_angle_alpha   100.12250000
_cell_angle_beta   89.90760000
_cell_angle_gamma   89.54080000
_symmetry_Int_Tables_number   1
_chemical_formula_structural   LiP2H13(C2O)6
_chemical_formula_sum   'Li2 P4 H26 C24 O12'
_cell_volume   682.42865318
_cell_formula_units_Z   2
loop_
 _symmetry_equiv_pos_site_id
 _symmetry_equiv_pos_as_xyz
  1  'x, y, z'
loop_
 _atom_site_type_symbol
 _atom_site_label
 _atom_site_symmetry_multiplicity
 _atom_site_fract_x
 _atom_site_fract_y
 _atom_site_fract_z
 _atom_site_occupancy
  Li  Li0  1  0.24839000  0.00578000  0.99995000  1.0
  Li  Li1  1  0.75161000  0.99422000  0.00005000  1.0
  P  P2  1  0.00859000  0.22230000  0.88071000  1.0
  P  P3  1  0.99141000  0.77770000  0.11929000  1.0
  P  P4  1  0.48355000  0.30215000  0.11568000  1.0
  P  P5  1  0.51645000  0.69785000  0.88432000  1.0
  H  H6  1  0.32396000  0.38914000  0.89538000  1.0
  H  H7  1  0.67604000  0.61086000  0.10462000  1.0
  H  H8  1  0.17434000  0.47360000  0.10329000  1.0
  H  H9  1  0.82567000  0.52640000  0.89671000  1.0
  H  H10  1  0.73492000  0.38489000  0.00688000  1.0
  H  H11  1  0.26509000  0.61511000  0.99312000  1.0
  H  H12  1  0.20799000  0.29695000  0.71314000  1.0
  H  H13  1  0.79201000  0.70305000  0.28686000  1.0
  H  H14  1  0.06255000  0.23048000  0.55613000  1.0
  H  H15  1  0.93746000  0.76951000  0.44387000  1.0
  H  H16  1  0.68072000  0.06922000  0.51957000  1.0
  H  H17  1  0.31930000  0.93078000  0.48043000  1.0
  H  H18  1  0.44746000  0.96927000  0.64153000  1.0
  H  H19  1  0.55254000  0.03073000  0.35847000  1.0
  H  H20  1  0.59525000  0.03379000  0.79799000  1.0
  H  H21  1  0.40474000  0.96621000  0.20201000  1.0
  H  H22  1  0.30931000  0.50156000  0.28099000  1.0
  H  H23  1  0.69069000  0.49845000  0.71901000  1.0
  H  H24  1  0.48350000  0.55185000  0.43427000  1.0
  H  H25  1  0.51649000  0.44814000  0.56573000  1.0
  H  H26  1  0.86131000  0.40262000  0.46976000  1.0
  H  H27  1  0.13868000  0.59737000  0.53024000  1.0
  H  H28  1  0.06611000  0.20463000  0.35047000  1.0
  H  H29  1  0.93389000  0.79537000  0.64953000  1.0
  H  H30  1  0.89686000  0.15801000  0.19623000  1.0
  H  H31  1  0.10314000  0.84199000  0.80377000  1.0
  C  C32  1  0.91022000  0.17072000  0.76586000  1.0
  C  C33  1  0.08978000  0.82928000  0.23414000  1.0
  C  C34  1  0.04044000  0.22633000  0.69744000  1.0
  C  C35  1  0.95956000  0.77367000  0.30256000  1.0
  C  C36  1  0.95777000  0.18914000  0.60915000  1.0
  C  C37  1  0.04224000  0.81086000  0.39085000  1.0
  C  C38  1  0.74400000  0.09761000  0.58873000  1.0
  C  C39  1  0.25600000  0.90239000  0.41126000  1.0
  C  C40  1  0.61375000  0.04168000  0.65675000  1.0
  C  C41  1  0.38625000  0.95832000  0.34325000  1.0
  C  C42  1  0.69652000  0.07758000  0.74504000  1.0
  C  C43  1  0.30348000  0.92242000  0.25496000  1.0
  C  C44  1  0.59294000  0.32737000  0.22887000  1.0
  C  C45  1  0.40706000  0.67263000  0.77113000  1.0
  C  C46  1  0.47604000  0.43756000  0.29615000  1.0
  C  C47  1  0.52396000  0.56244000  0.70385000  1.0
  C  C48  1  0.57331000  0.46459000  0.38259000  1.0
  C  C49  1  0.42668000  0.53541000  0.61741000  1.0
  C  C50  1  0.78537000  0.38117000  0.40216000  1.0
  C  C51  1  0.21462000  0.61883000  0.59784000  1.0
  C  C52  1  0.90083000  0.27008000  0.33545000  1.0
  C  C53  1  0.09917000  0.72992000  0.66455000  1.0
  C  C54  1  0.80570000  0.24325000  0.24871000  1.0
  C  C55  1  0.19431000  0.75675000  0.75129000  1.0
  O  O56  1  0.29157000  0.27162000  0.87650000  1.0
  O  O57  1  0.70843000  0.72838000  0.12349000  1.0
  O  O58  1  0.85402000  0.36871000  0.92544000  1.0
  O  O59  1  0.14598000  0.63129000  0.07456000  1.0
  O  O60  1  0.98889000  0.07957000  0.92695000  1.0
  O  O61  1  0.01111000  0.92043000  0.07305000  1.0
  O  O62  1  0.20688000  0.36183000  0.11969000  1.0
  O  O63  1  0.79312000  0.63817000  0.88031000  1.0
  O  O64  1  0.64296000  0.42143000  0.07068000  1.0
  O  O65  1  0.35705000  0.57858000  0.92932000  1.0
  O  O66  1  0.50770000  0.13194000  0.06845000  1.0
  O  O67  1  0.49230000  0.86806000  0.93155000  1.0
