# generated using pymatgen
data_CuH6C13N3O4
_symmetry_space_group_name_H-M   'P 1'
_cell_length_a   4.76933000
_cell_length_b   10.91170000
_cell_length_c   27.05980000
_cell_angle_alpha   90.00020000
_cell_angle_beta   90.00020000
_cell_angle_gamma   83.98450000
_symmetry_Int_Tables_number   1
_chemical_formula_structural   CuH6C13N3O4
_chemical_formula_sum   'Cu4 H24 C52 N12 O16'
_cell_volume   1400.47821398
_cell_formula_units_Z   4
loop_
 _symmetry_equiv_pos_site_id
 _symmetry_equiv_pos_as_xyz
  1  'x, y, z'
loop_
 _atom_site_type_symbol
 _atom_site_label
 _atom_site_symmetry_multiplicity
 _atom_site_fract_x
 _atom_site_fract_y
 _atom_site_fract_z
 _atom_site_occupancy
  Cu  Cu0  1  0.60410000  0.11118000  0.18507000  1.0
  Cu  Cu1  1  0.39591000  0.38883000  0.68507000  1.0
  Cu  Cu2  1  0.39591000  0.88883000  0.81493000  1.0
  Cu  Cu3  1  0.60409000  0.61117000  0.31493000  1.0
  H  H4  1  0.75143000  0.03319000  0.29416000  1.0
  H  H5  1  0.24857000  0.46680000  0.79416000  1.0
  H  H6  1  0.24857000  0.96681000  0.70584000  1.0
  H  H7  1  0.75143000  0.53320000  0.20584000  1.0
  H  H8  1  0.54975000  0.12198000  0.37458000  1.0
  H  H9  1  0.45025000  0.37801000  0.87458000  1.0
  H  H10  1  0.45023000  0.87802000  0.62542000  1.0
  H  H11  1  0.54975000  0.62198000  0.12542000  1.0
  H  H12  1  0.92275000  0.23507000  0.11409000  1.0
  H  H13  1  0.07725000  0.26493000  0.61409000  1.0
  H  H14  1  0.07724000  0.76494000  0.88591000  1.0
  H  H15  1  0.92275000  0.73506000  0.38591000  1.0
  H  H16  1  0.51057000  0.91838000  0.11312000  1.0
  H  H17  1  0.48942000  0.58162000  0.61312000  1.0
  H  H18  1  0.48943000  0.08163000  0.88688000  1.0
  H  H19  1  0.51057000  0.41837000  0.38688000  1.0
  H  H20  1  0.55738000  0.76911000  0.04043000  1.0
  H  H21  1  0.44260000  0.73089000  0.54043000  1.0
  H  H22  1  0.44262000  0.23089000  0.95958000  1.0
  H  H23  1  0.55737000  0.26911000  0.45957000  1.0
  H  H24  1  0.23499000  0.28746000  0.04208000  1.0
  H  H25  1  0.76499000  0.21254000  0.54207000  1.0
  H  H26  1  0.76501000  0.71254000  0.95793000  1.0
  H  H27  1  0.23498000  0.78746000  0.45793000  1.0
  C  C28  1  0.30668000  0.33873000  0.20297000  1.0
  C  C29  1  0.69334000  0.16127000  0.70297000  1.0
  C  C30  1  0.69333000  0.66128000  0.79703000  1.0
  C  C31  1  0.30668000  0.83873000  0.29703000  1.0
  C  C32  1  0.35891000  0.27891000  0.25293000  1.0
  C  C33  1  0.64110000  0.22109000  0.75293000  1.0
  C  C34  1  0.64109000  0.72109000  0.74707000  1.0
  C  C35  1  0.35891000  0.77891000  0.24707000  1.0
  C  C36  1  0.60484000  0.11679000  0.29541000  1.0
  C  C37  1  0.39517000  0.38321000  0.79541000  1.0
  C  C38  1  0.39516000  0.88321000  0.70459000  1.0
  C  C39  1  0.60484000  0.61679000  0.20459000  1.0
  C  C40  1  0.49353000  0.16755000  0.33950000  1.0
  C  C41  1  0.50648000  0.33244000  0.83950000  1.0
  C  C42  1  0.50647000  0.83245000  0.66049000  1.0
  C  C43  1  0.49352000  0.66756000  0.16050000  1.0
  C  C44  1  0.24997000  0.32716000  0.29766000  1.0
  C  C45  1  0.75004000  0.17284000  0.79766000  1.0
  C  C46  1  0.75003000  0.67284000  0.70234000  1.0
  C  C47  1  0.24997000  0.82717000  0.20234000  1.0
  C  C48  1  0.06475000  0.44787000  0.30151000  1.0
  C  C49  1  0.93526000  0.05212000  0.80151000  1.0
  C  C50  1  0.93525000  0.55213000  0.69849000  1.0
  C  C51  1  0.06475000  0.94788000  0.19849000  1.0
  C  C52  1  0.88018000  0.15341000  0.09333000  1.0
  C  C53  1  0.11982000  0.34659000  0.59333000  1.0
  C  C54  1  0.11983000  0.84659000  0.90667000  1.0
  C  C55  1  0.88017000  0.65340000  0.40667000  1.0
  C  C56  1  0.64953000  0.97425000  0.09299000  1.0
  C  C57  1  0.35047000  0.52575000  0.59299000  1.0
  C  C58  1  0.35047000  0.02576000  0.90701000  1.0
  C  C59  1  0.64953000  0.47424000  0.40701000  1.0
  C  C60  1  0.75985000  0.93801000  0.04663000  1.0
  C  C61  1  0.24014000  0.56199000  0.54663000  1.0
  C  C62  1  0.24016000  0.06199000  0.95338000  1.0
  C  C63  1  0.75984000  0.43801000  0.45338000  1.0
  C  C64  1  0.00184000  0.12683000  0.04693000  1.0
  C  C65  1  0.99815000  0.37317000  0.54693000  1.0
  C  C66  1  0.99817000  0.87317000  0.95307000  1.0
  C  C67  1  0.00183000  0.62683000  0.45307000  1.0
  C  C68  1  0.94053000  0.01618000  0.02333000  1.0
  C  C69  1  0.05947000  0.48382000  0.52333000  1.0
  C  C70  1  0.05949000  0.98382000  0.97667000  1.0
  C  C71  1  0.94050000  0.51618000  0.47667000  1.0
  C  C72  1  0.69900000  0.82714000  0.02218000  1.0
  C  C73  1  0.30099000  0.67286000  0.52218000  1.0
  C  C74  1  0.30100000  0.17286000  0.97782000  1.0
  C  C75  1  0.69899000  0.32714000  0.47782000  1.0
  C  C76  1  0.18617000  0.20420000  0.02301000  1.0
  C  C77  1  0.81382000  0.29580000  0.52301000  1.0
  C  C78  1  0.81383000  0.79580000  0.97699000  1.0
  C  C79  1  0.18616000  0.70419000  0.47699000  1.0
  N  N80  1  0.53336000  0.17363000  0.25282000  1.0
  N  N81  1  0.46665000  0.32638000  0.75282000  1.0
  N  N82  1  0.46664000  0.82637000  0.74718000  1.0
  N  N83  1  0.53336000  0.67363000  0.24718000  1.0
  N  N84  1  0.31699000  0.27099000  0.34101000  1.0
  N  N85  1  0.68301000  0.22901000  0.84101000  1.0
  N  N86  1  0.68300000  0.72901000  0.65898000  1.0
  N  N87  1  0.31700000  0.77099000  0.15899000  1.0
  N  N88  1  0.71155000  0.07815000  0.11510000  1.0
  N  N89  1  0.28844000  0.42185000  0.61510000  1.0
  N  N90  1  0.28845000  0.92185000  0.88490000  1.0
  N  N91  1  0.71155000  0.57814000  0.38490000  1.0
  O  O92  1  0.43008000  0.27827000  0.16636000  1.0
  O  O93  1  0.56992000  0.22173000  0.66635000  1.0
  O  O94  1  0.56992000  0.72173000  0.83364000  1.0
  O  O95  1  0.43008000  0.77827000  0.33364000  1.0
  O  O96  1  0.16069000  0.43963000  0.19948000  1.0
  O  O97  1  0.83933000  0.06038000  0.69947000  1.0
  O  O98  1  0.83933000  0.56038000  0.80052000  1.0
  O  O99  1  0.16068000  0.93962000  0.30053000  1.0
  O  O100  1  0.79961000  0.44427000  0.29537000  1.0
  O  O101  1  0.20039000  0.05573000  0.79537000  1.0
  O  O102  1  0.20038000  0.55573000  0.70463000  1.0
  O  O103  1  0.79962000  0.94427000  0.20463000  1.0
  O  O104  1  0.17610000  0.54204000  0.31435000  1.0
  O  O105  1  0.82391000  0.95795000  0.81435000  1.0
  O  O106  1  0.82390000  0.45795000  0.68565000  1.0
  O  O107  1  0.17611000  0.04205000  0.18565000  1.0
