# generated using pymatgen
data_Zn4H34C44BrN21O10
_symmetry_space_group_name_H-M   'P 1'
_cell_length_a   14.53430000
_cell_length_b   14.84350000
_cell_length_c   14.92230000
_cell_angle_alpha   103.35700000
_cell_angle_beta   112.23100000
_cell_angle_gamma   110.72800000
_symmetry_Int_Tables_number   1
_chemical_formula_structural   Zn4H34C44BrN21O10
_chemical_formula_sum   'Zn4 H34 C44 Br1 N21 O10'
_cell_volume   2527.43580155
_cell_formula_units_Z   1
loop_
 _symmetry_equiv_pos_site_id
 _symmetry_equiv_pos_as_xyz
  1  'x, y, z'
loop_
 _atom_site_type_symbol
 _atom_site_label
 _atom_site_symmetry_multiplicity
 _atom_site_fract_x
 _atom_site_fract_y
 _atom_site_fract_z
 _atom_site_occupancy
  Zn  Zn0  1  0.86926000  0.00355000  0.36266000  1.0
  Zn  Zn1  1  0.13949000  0.99104000  0.66346000  1.0
  Zn  Zn2  1  0.15378000  0.14599000  0.49884000  1.0
  Zn  Zn3  1  0.85769000  0.86144000  0.49878000  1.0
  H  H4  1  0.83222000  0.80166000  0.19286000  1.0
  H  H5  1  0.20268000  0.82744000  0.54045000  1.0
  H  H6  1  0.62177000  0.64403000  0.31605000  1.0
  H  H7  1  0.43976000  0.05851000  0.75679000  1.0
  H  H8  1  0.63450000  0.83125000  0.13317000  1.0
  H  H9  1  0.83667000  0.67055000  0.32871000  1.0
  H  H10  1  0.19244000  0.00677000  0.31843000  1.0
  H  H11  1  0.84918000  0.19412000  0.50150000  1.0
  H  H12  1  0.16796000  0.36186000  0.46151000  1.0
  H  H13  1  0.76676000  0.73419000  0.63695000  1.0
  H  H14  1  0.12899000  0.93566000  0.86107000  1.0
  H  H15  1  0.80718000  0.15079000  0.23463000  1.0
  H  H16  1  0.85432000  0.01071000  0.69035000  1.0
  H  H17  1  0.19167000  0.35353000  0.67116000  1.0
  H  H18  1  0.55437000  0.48844000  0.12627000  1.0
  H  H19  1  0.48323000  0.43538000  0.89567000  1.0
  H  H20  1  0.44754000  0.35039000  0.95638000  1.0
  H  H21  1  0.42143000  0.52872000  0.16765000  1.0
  H  H22  1  0.29735000  0.36603000  0.01934000  1.0
  H  H23  1  0.43239000  0.68003000  0.99736000  1.0
  H  H24  1  0.52891000  0.65048000  0.96833000  1.0
  H  H25  1  0.37276000  0.50565000  0.81606000  1.0
  H  H26  1  0.35651000  0.59267000  0.10165000  1.0
  H  H27  1  0.21792000  0.42505000  0.96414000  1.0
  H  H28  1  0.06312000  0.45893000  0.38867000  1.0
  H  H29  1  0.84799000  0.52084000  0.24112000  1.0
  H  H30  1  0.10044000  0.61004000  0.40844000  1.0
  H  H31  1  0.63785000  0.13256000  0.79928000  1.0
  H  H32  1  0.60018000  0.22009000  0.62752000  1.0
  H  H33  1  0.78308000  0.11218000  0.77700000  1.0
  H  H34  1  0.75234000  0.22203000  0.62458000  1.0
  H  H35  1  0.10539000  0.85155000  0.95663000  1.0
  H  H36  1  0.14505000  0.89495000  0.12683000  1.0
  H  H37  1  0.89537000  0.75140000  0.05525000  1.0
  C  C38  1  0.92146000  0.86260000  0.23926000  1.0
  C  C39  1  0.11268000  0.80362000  0.49752000  1.0
  C  C40  1  0.38845000  0.18116000  0.60402000  1.0
  C  C41  1  0.63904000  0.70475000  0.28635000  1.0
  C  C42  1  0.41137000  0.09518000  0.70487000  1.0
  C  C43  1  0.64497000  0.80005000  0.19324000  1.0
  C  C44  1  0.92577000  0.72341000  0.38974000  1.0
  C  C45  1  0.10557000  0.96712000  0.30252000  1.0
  C  C46  1  0.00824000  0.87391000  0.21429000  1.0
  C  C47  1  0.02061000  0.70753000  0.41068000  1.0
  C  C48  1  0.47266000  0.16087000  0.66928000  1.0
  C  C49  1  0.58722000  0.69646000  0.18198000  1.0
  C  C50  1  0.85672000  0.14032000  0.53882000  1.0
  C  C51  1  0.22328000  0.20919000  0.80277000  1.0
  C  C52  1  0.08072000  0.29672000  0.41187000  1.0
  C  C53  1  0.85790000  0.78726000  0.67839000  1.0
  C  C54  1  0.04282000  0.89020000  0.79313000  1.0
  C  C55  1  0.89630000  0.18859000  0.29463000  1.0
  C  C56  1  0.86016000  0.04754000  0.63627000  1.0
  C  C57  1  0.19487000  0.29637000  0.70462000  1.0
  C  C58  1  0.83824000  0.13077000  0.62347000  1.0
  C  C59  1  0.25147000  0.31439000  0.81172000  1.0
  C  C60  1  0.98399000  0.29384000  0.33430000  1.0
  C  C61  1  0.94188000  0.81675000  0.78308000  1.0
  C  C62  1  0.53969000  0.51654000  0.06307000  1.0
  C  C63  1  0.45404000  0.42489000  0.95243000  1.0
  C  C64  1  0.39259000  0.53965000  0.09346000  1.0
  C  C65  1  0.45784000  0.61925000  0.98301000  1.0
  C  C66  1  0.49743000  0.59699000  0.08254000  1.0
  C  C67  1  0.33487000  0.41892000  0.90872000  1.0
  C  C68  1  0.30277000  0.43186000  0.99653000  1.0
  C  C69  1  0.35671000  0.51782000  0.88275000  1.0
  C  C70  1  0.91096000  0.41209000  0.25891000  1.0
  C  C71  1  0.98524000  0.38724000  0.32333000  1.0
  C  C72  1  0.92562000  0.51863000  0.28639000  1.0
  C  C73  1  0.02005000  0.60972000  0.36647000  1.0
  C  C74  1  0.65620000  0.16076000  0.74326000  1.0
  C  C75  1  0.58231000  0.18671000  0.68073000  1.0
  C  C76  1  0.74777000  0.15266000  0.73331000  1.0
  C  C77  1  0.78160000  0.17583000  0.66382000  1.0
  C  C78  1  0.02831000  0.81803000  0.96164000  1.0
  C  C79  1  0.93234000  0.78603000  0.86639000  1.0
  C  C80  1  0.05447000  0.83947000  0.06926000  1.0
  C  C81  1  0.98338000  0.81466000  0.10978000  1.0
  Br  Br82  1  0.69116000  0.57964000  0.07481000  1.0
  N  N83  1  0.96279000  0.94310000  0.33150000  1.0
  N  N84  1  0.07436000  0.86959000  0.52600000  1.0
  N  N85  1  0.28878000  0.13053000  0.60093000  1.0
  N  N86  1  0.72188000  0.80557000  0.35429000  1.0
  N  N87  1  0.30314000  0.07796000  0.66251000  1.0
  N  N88  1  0.72533000  0.86501000  0.29646000  1.0
  N  N89  1  0.95918000  0.81947000  0.45953000  1.0
  N  N90  1  0.07656000  0.00684000  0.37115000  1.0
  N  N91  1  0.88399000  0.06748000  0.50372000  1.0
  N  N92  1  0.15532000  0.13803000  0.69899000  1.0
  N  N93  1  0.05300000  0.20322000  0.41751000  1.0
  N  N94  1  0.90620000  0.83869000  0.63145000  1.0
  N  N95  1  0.02107000  0.90267000  0.70226000  1.0
  N  N96  1  0.93780000  0.13670000  0.34534000  1.0
  N  N97  1  0.88602000  0.01038000  0.56357000  1.0
  N  N98  1  0.13911000  0.19089000  0.63886000  1.0
  N  N99  1  0.26556000  0.16949000  0.87794000  1.0
  N  N100  1  0.25205000  0.53294000  0.84127000  1.0
  N  N101  1  0.80467000  0.33043000  0.16094000  1.0
  N  N102  1  0.39304000  0.24362000  0.54677000  1.0
  N  N103  1  0.81867000  0.73228000  0.84976000  1.0
  O  O104  1  0.25047000  0.07595000  0.84194000  1.0
  O  O105  1  0.31886000  0.22603000  0.97508000  1.0
  O  O106  1  0.22559000  0.56713000  0.90585000  1.0
  O  O107  1  0.20054000  0.51105000  0.74466000  1.0
  O  O108  1  0.74220000  0.35926000  0.10595000  1.0
  O  O109  1  0.78188000  0.23566000  0.13488000  1.0
  O  O110  1  0.48083000  0.29063000  0.54406000  1.0
  O  O111  1  0.30262000  0.25027000  0.49736000  1.0
  O  O112  1  0.80155000  0.67542000  0.89817000  1.0
  O  O113  1  0.74161000  0.74326000  0.78682000  1.0
