# generated using pymatgen
data_Zn4H21C30N3O13
_symmetry_space_group_name_H-M   'P 1'
_cell_length_a   18.36645084
_cell_length_b   18.39410000
_cell_length_c   18.41400000
_cell_angle_alpha   60.26400000
_cell_angle_beta   89.50230845
_cell_angle_gamma   119.54424055
_symmetry_Int_Tables_number   1
_chemical_formula_structural   Zn4H21C30N3O13
_chemical_formula_sum   'Zn8 H42 C60 N6 O26'
_cell_volume   4427.38076200
_cell_formula_units_Z   2
loop_
 _symmetry_equiv_pos_site_id
 _symmetry_equiv_pos_as_xyz
  1  'x, y, z'
loop_
 _atom_site_type_symbol
 _atom_site_label
 _atom_site_symmetry_multiplicity
 _atom_site_fract_x
 _atom_site_fract_y
 _atom_site_fract_z
 _atom_site_occupancy
  Zn  Zn0  1  0.13082000  0.08550000  0.45629000  1.0
  Zn  Zn1  1  0.95836000  0.08666000  0.45825000  1.0
  Zn  Zn2  1  0.95667000  0.91169000  0.63116000  1.0
  Zn  Zn3  1  0.95436000  0.90944000  0.46060000  1.0
  Zn  Zn4  1  0.36588000  0.91195000  0.04863000  1.0
  Zn  Zn5  1  0.54117000  0.08840000  0.87446000  1.0
  Zn  Zn6  1  0.54143000  0.91317000  0.04735000  1.0
  Zn  Zn7  1  0.54019000  0.08415000  0.04885000  1.0
  H  H8  1  0.21722000  0.82741000  0.32493000  1.0
  H  H9  1  0.69943000  0.11269000  0.20893000  1.0
  H  H10  1  0.66627000  0.79298000  0.23632000  1.0
  H  H11  1  0.76475000  0.89463000  0.14190000  1.0
  H  H12  1  0.75709000  0.79066000  0.33620000  1.0
  H  H13  1  0.77555000  0.86497000  0.82066000  1.0
  H  H14  1  0.68117000  0.86957000  0.91377000  1.0
  H  H15  1  0.68348000  0.16201000  0.62097000  1.0
  H  H16  1  0.78181000  0.23792000  0.63553000  1.0
  H  H17  1  0.22263000  0.04981000  0.10912000  1.0
  H  H18  1  0.12409000  0.59401000  0.25315000  1.0
  H  H19  1  0.46496000  0.11088000  0.63169000  1.0
  H  H20  1  0.12649000  0.59421000  0.15634000  1.0
  H  H21  1  0.02844000  0.40187000  0.34902000  1.0
  H  H22  1  0.03158000  0.40149000  0.25257000  1.0
  H  H23  1  0.27669000  0.16796000  0.18089000  1.0
  H  H24  1  0.26880000  0.94527000  0.39624000  1.0
  H  H25  1  0.17872000  0.88799000  0.91469000  1.0
  H  H26  1  0.37505000  0.05225000  0.54583000  1.0
  H  H27  1  0.33823000  0.11631000  0.48099000  1.0
  H  H28  1  0.78825000  0.44675000  0.94804000  1.0
  H  H29  1  0.71205000  0.32662000  0.97000000  1.0
  H  H30  1  0.37761000  0.21789000  0.53629000  1.0
  H  H31  1  0.05734000  0.82521000  0.25229000  1.0
  H  H32  1  0.02818000  0.82439000  0.33910000  1.0
  H  H33  1  0.91119000  0.95362000  0.17163000  1.0
  H  H34  1  0.91399000  0.88946000  0.27139000  1.0
  H  H35  1  0.77058000  0.14807000  0.52993000  1.0
  H  H36  1  0.92362000  0.27432000  0.56277000  1.0
  H  H37  1  0.92746000  0.23975000  0.49713000  1.0
  H  H38  1  0.31982000  0.40569000  0.30194000  1.0
  H  H39  1  0.41346000  0.59571000  0.20693000  1.0
  H  H40  1  0.40156000  0.11963000  0.22840000  1.0
  H  H41  1  0.84491000  0.60024000  0.80857000  1.0
  H  H42  1  0.08577000  0.88888000  0.81706000  1.0
  H  H43  1  0.52086000  0.22881000  0.67086000  1.0
  H  H44  1  0.46052000  0.27009000  0.62844000  1.0
  H  H45  1  0.67826000  0.39471000  0.63224000  1.0
  H  H46  1  0.59081000  0.39685000  0.67149000  1.0
  H  H47  1  0.77354000  0.58677000  0.53074000  1.0
  H  H48  1  0.68527000  0.58820000  0.56942000  1.0
  H  H49  1  0.79907000  0.11657000  0.29971000  1.0
  C  C50  1  0.86822000  0.00521000  0.35821000  1.0
  C  C51  1  0.21006000  0.93749000  0.84275000  1.0
  C  C52  1  0.30373000  0.00033000  0.80713000  1.0
  C  C53  1  0.13973000  0.00094000  0.63749000  1.0
  C  C54  1  0.34111000  0.06214000  0.71473000  1.0
  C  C55  1  0.42901000  0.14259000  0.63635000  1.0
  C  C56  1  0.36989000  0.14427000  0.57406000  1.0
  C  C57  1  0.75351000  0.55034000  0.66703000  1.0
  C  C58  1  0.80597000  0.60885000  0.69684000  1.0
  C  C59  1  0.80418000  0.55583000  0.78431000  1.0
  C  C60  1  0.75218000  0.44781000  0.84229000  1.0
  C  C61  1  0.23285000  0.02712000  0.17331000  1.0
  C  C62  1  0.69750000  0.38848000  0.81135000  1.0
  C  C63  1  0.70156000  0.44434000  0.72315000  1.0
  C  C64  1  0.66281000  0.43277000  0.65410000  1.0
  C  C65  1  0.13934000  0.27610000  0.36567000  1.0
  C  C66  1  0.72228000  0.55341000  0.59022000  1.0
  C  C67  1  0.78648000  0.94447000  0.26954000  1.0
  C  C68  1  0.81213000  0.00591000  0.30060000  1.0
  C  C69  1  0.77994000  0.06748000  0.27666000  1.0
  C  C70  1  0.72411000  0.06522000  0.22590000  1.0
  C  C71  1  0.69747000  0.00185000  0.19560000  1.0
  C  C72  1  0.26391000  0.09255000  0.21187000  1.0
  C  C73  1  0.73110000  0.94294000  0.21803000  1.0
  C  C74  1  0.73119000  0.86523000  0.20940000  1.0
  C  C75  1  0.79189000  0.86329000  0.26982000  1.0
  C  C76  1  0.78378000  0.07079000  0.66104000  1.0
  C  C77  1  0.86158000  0.72234000  0.63991000  1.0
  C  C78  1  0.80143000  0.99675000  0.69716000  1.0
  C  C79  1  0.76297000  0.92386000  0.79004000  1.0
  C  C80  1  0.71017000  0.92653000  0.84215000  1.0
  C  C81  1  0.69292000  0.00220000  0.80496000  1.0
  C  C82  1  0.73165000  0.07430000  0.71315000  1.0
  C  C83  1  0.33231000  0.06571000  0.23948000  1.0
  C  C84  1  0.74409000  0.16988000  0.63479000  1.0
  C  C85  1  0.80212000  0.16588000  0.57468000  1.0
  C  C86  1  0.15813000  0.44542000  0.28071000  1.0
  C  C87  1  0.19505000  0.38963000  0.30921000  1.0
  C  C88  1  0.28880000  0.44691000  0.28105000  1.0
  C  C89  1  0.85848000  0.99519000  0.64110000  1.0
  C  C90  1  0.34127000  0.55335000  0.22780000  1.0
  C  C91  1  0.30337000  0.60933000  0.19924000  1.0
  C  C92  1  0.21084000  0.55221000  0.22717000  1.0
  C  C93  1  0.13151000  0.55839000  0.22292000  1.0
  C  C94  1  0.25990000  0.96842000  0.33151000  1.0
  C  C95  1  0.07188000  0.43766000  0.28335000  1.0
  C  C96  1  0.63886000  0.27625000  0.86722000  1.0
  C  C97  1  0.36010000  0.72299000  0.14257000  1.0
  C  C98  1  0.35921000  0.99927000  0.86558000  1.0
  C  C99  1  0.63712000  0.99946000  0.14222000  1.0
  C  C100  1  0.63717000  0.00364000  0.86266000  1.0
  C  C101  1  0.13467000  0.99378000  0.36385000  1.0
  C  C102  1  0.35942000  0.00166000  0.14281000  1.0
  C  C103  1  0.15944000  0.92991000  0.26542000  1.0
  C  C104  1  0.22920000  0.90259000  0.29356000  1.0
  C  C105  1  0.19046000  0.99524000  0.30408000  1.0
  C  C106  1  0.30217000  0.00060000  0.20100000  1.0
  C  C107  1  0.28909000  0.06281000  0.66004000  1.0
  C  C108  1  0.19645000  0.00073000  0.69465000  1.0
  C  C109  1  0.15799000  0.93773000  0.78809000  1.0
  N  N110  1  0.38452000  0.12188000  0.51220000  1.0
  N  N111  1  0.75731000  0.40306000  0.92567000  1.0
  N  N112  1  0.06901000  0.86893000  0.27522000  1.0
  N  N113  1  0.87533000  0.88476000  0.23216000  1.0
  N  N114  1  0.89275000  0.25645000  0.52242000  1.0
  N  N115  1  0.49245000  0.23993000  0.62233000  1.0
  O  O116  1  0.00071000  0.99896000  0.50113000  1.0
  O  O117  1  0.61928000  0.94218000  0.11554000  1.0
  O  O118  1  0.62213000  0.07233000  0.82352000  1.0
  O  O119  1  0.89590000  0.94884000  0.37441000  1.0
  O  O120  1  0.44320000  0.06831000  0.11481000  1.0
  O  O121  1  0.60915000  0.93643000  0.94611000  1.0
  O  O122  1  0.31932000  0.93558000  0.12525000  1.0
  O  O123  1  0.31912000  0.94086000  0.94930000  1.0
  O  O124  1  0.60807000  0.05418000  0.12744000  1.0
  O  O125  1  0.60070000  0.23246000  0.82919000  1.0
  O  O126  1  0.44407000  0.76748000  0.12293000  1.0
  O  O127  1  0.17893000  0.23151000  0.38962000  1.0
  O  O128  1  0.17969000  0.05426000  0.55392000  1.0
  O  O129  1  0.05526000  0.23237000  0.38564000  1.0
  O  O130  1  0.89888000  0.76793000  0.67665000  1.0
  O  O131  1  0.88940000  0.06504000  0.55771000  1.0
  O  O132  1  0.05250000  0.91888000  0.40301000  1.0
  O  O133  1  0.87254000  0.92577000  0.67975000  1.0
  O  O134  1  0.17437000  0.06702000  0.37305000  1.0
  O  O135  1  0.86771000  0.76558000  0.55803000  1.0
  O  O136  1  0.88364000  0.05986000  0.38724000  1.0
  O  O137  1  0.05628000  0.94845000  0.67612000  1.0
  O  O138  1  0.49628000  0.99861000  0.00453000  1.0
  O  O139  1  0.62852000  0.22833000  0.95079000  1.0
  O  O140  1  0.31946000  0.76645000  0.11848000  1.0
  O  O141  1  0.44327000  0.05777000  0.82611000  1.0
