# generated using pymatgen
data_YbH12(C5O3)3
_symmetry_space_group_name_H-M   'P 1'
_cell_length_a   9.91002000
_cell_length_b   11.92390000
_cell_length_c   13.58770000
_cell_angle_alpha   76.27500000
_cell_angle_beta   89.99970000
_cell_angle_gamma   89.99990000
_symmetry_Int_Tables_number   1
_chemical_formula_structural   YbH12(C5O3)3
_chemical_formula_sum   'Yb4 H48 C60 O36'
_cell_volume   1559.75838979
_cell_formula_units_Z   4
loop_
 _symmetry_equiv_pos_site_id
 _symmetry_equiv_pos_as_xyz
  1  'x, y, z'
loop_
 _atom_site_type_symbol
 _atom_site_label
 _atom_site_symmetry_multiplicity
 _atom_site_fract_x
 _atom_site_fract_y
 _atom_site_fract_z
 _atom_site_occupancy
  Yb  Yb0  1  0.78786000  0.05840000  0.92335000  1.0
  Yb  Yb1  1  0.28786000  0.44160000  0.07665000  1.0
  Yb  Yb2  1  0.21215000  0.94160000  0.07665000  1.0
  Yb  Yb3  1  0.71215000  0.55840000  0.92335000  1.0
  H  H4  1  0.77388000  0.42667000  0.67011000  1.0
  H  H5  1  0.27388000  0.07333000  0.32989000  1.0
  H  H6  1  0.22612000  0.57333000  0.32989000  1.0
  H  H7  1  0.72612000  0.92667000  0.67011000  1.0
  H  H8  1  0.74394000  0.54326000  0.49344000  1.0
  H  H9  1  0.24394000  0.95674000  0.50656000  1.0
  H  H10  1  0.25606000  0.45674000  0.50656000  1.0
  H  H11  1  0.75606000  0.04325000  0.49344000  1.0
  H  H12  1  0.57803000  0.24774000  0.40574000  1.0
  H  H13  1  0.07804000  0.25226000  0.59426000  1.0
  H  H14  1  0.42196000  0.75227000  0.59426000  1.0
  H  H15  1  0.92197000  0.74773000  0.40574000  1.0
  H  H16  1  0.61053000  0.12936000  0.58364000  1.0
  H  H17  1  0.11053000  0.37064000  0.41636000  1.0
  H  H18  1  0.38947000  0.87064000  0.41636000  1.0
  H  H19  1  0.88947000  0.62936000  0.58364000  1.0
  H  H20  1  0.51822000  0.65739000  0.29531000  1.0
  H  H21  1  0.01822000  0.84261000  0.70469000  1.0
  H  H22  1  0.48178000  0.34261000  0.70469000  1.0
  H  H23  1  0.98178000  0.15739000  0.29531000  1.0
  H  H24  1  0.62226000  0.84440000  0.20049000  1.0
  H  H25  1  0.12226000  0.65560000  0.79951000  1.0
  H  H26  1  0.37774000  0.15560000  0.79951000  1.0
  H  H27  1  0.87774000  0.34439000  0.20049000  1.0
  H  H28  1  0.00792000  0.67649000  0.21115000  1.0
  H  H29  1  0.50792000  0.82352000  0.78885000  1.0
  H  H30  1  0.99208000  0.32351000  0.78885000  1.0
  H  H31  1  0.49208000  0.17648000  0.21115000  1.0
  H  H32  1  0.90385000  0.49003000  0.30348000  1.0
  H  H33  1  0.40385000  0.00998000  0.69652000  1.0
  H  H34  1  0.09614000  0.50998000  0.69652000  1.0
  H  H35  1  0.59615000  0.99002000  0.30348000  1.0
  H  H36  1  0.96994000  0.86238000  0.91921000  1.0
  H  H37  1  0.46995000  0.63762000  0.08079000  1.0
  H  H38  1  0.03005000  0.13762000  0.08079000  1.0
  H  H39  1  0.53006000  0.36238000  0.91921000  1.0
  H  H40  1  0.83419000  0.83882000  0.86204000  1.0
  H  H41  1  0.33419000  0.66118000  0.13796000  1.0
  H  H42  1  0.16581000  0.16118000  0.13796000  1.0
  H  H43  1  0.66581000  0.33882000  0.86204000  1.0
  H  H44  1  0.87275000  0.27196000  0.98292000  1.0
  H  H45  1  0.37276000  0.22804000  0.01708000  1.0
  H  H46  1  0.12724000  0.72804000  0.01708000  1.0
  H  H47  1  0.62725000  0.77196000  0.98292000  1.0
  H  H48  1  0.79970000  0.19067000  0.07590000  1.0
  H  H49  1  0.29970000  0.30933000  0.92410000  1.0
  H  H50  1  0.20030000  0.80933000  0.92410000  1.0
  H  H51  1  0.70030000  0.69067000  0.07590000  1.0
  C  C52  1  0.71746000  0.19740000  0.74089000  1.0
  C  C53  1  0.21746000  0.30260000  0.25911000  1.0
  C  C54  1  0.28253000  0.80260000  0.25911000  1.0
  C  C55  1  0.78254000  0.69740000  0.74089000  1.0
  C  C56  1  0.69760000  0.26915000  0.63716000  1.0
  C  C57  1  0.19761000  0.23085000  0.36284000  1.0
  C  C58  1  0.30239000  0.73085000  0.36284000  1.0
  C  C59  1  0.80240000  0.76915000  0.63716000  1.0
  C  C60  1  0.73401000  0.38635000  0.61200000  1.0
  C  C61  1  0.23401000  0.11365000  0.38800000  1.0
  C  C62  1  0.26598000  0.61365000  0.38800000  1.0
  C  C63  1  0.76599000  0.88635000  0.61200000  1.0
  C  C64  1  0.71724000  0.45210000  0.51342000  1.0
  C  C65  1  0.21725000  0.04790000  0.48658000  1.0
  C  C66  1  0.28275000  0.54790000  0.48658000  1.0
  C  C67  1  0.78276000  0.95210000  0.51342000  1.0
  C  C68  1  0.66264000  0.40058000  0.43987000  1.0
  C  C69  1  0.16264000  0.09942000  0.56013000  1.0
  C  C70  1  0.33736000  0.59942000  0.56014000  1.0
  C  C71  1  0.83736000  0.90058000  0.43987000  1.0
  C  C72  1  0.62221000  0.28459000  0.46438000  1.0
  C  C73  1  0.12221000  0.21541000  0.53563000  1.0
  C  C74  1  0.37779000  0.71541000  0.53563000  1.0
  C  C75  1  0.87779000  0.78459000  0.46438000  1.0
  C  C76  1  0.64064000  0.21978000  0.56256000  1.0
  C  C77  1  0.14064000  0.28022000  0.43744000  1.0
  C  C78  1  0.35936000  0.78022000  0.43744000  1.0
  C  C79  1  0.85936000  0.71978000  0.56256000  1.0
  C  C80  1  0.70492000  0.56478000  0.30321000  1.0
  C  C81  1  0.20493000  0.93522000  0.69679000  1.0
  C  C82  1  0.29507000  0.43522000  0.69679000  1.0
  C  C83  1  0.79507000  0.06478000  0.30321000  1.0
  C  C84  1  0.62515000  0.66361000  0.27684000  1.0
  C  C85  1  0.12515000  0.83639000  0.72316000  1.0
  C  C86  1  0.37485000  0.33639000  0.72316000  1.0
  C  C87  1  0.87485000  0.16361000  0.27684000  1.0
  C  C88  1  0.68340000  0.76681000  0.22458000  1.0
  C  C89  1  0.18341000  0.73319000  0.77542000  1.0
  C  C90  1  0.31659000  0.23320000  0.77542000  1.0
  C  C91  1  0.81660000  0.26680000  0.22458000  1.0
  C  C92  1  0.82101000  0.77165000  0.19966000  1.0
  C  C93  1  0.32101000  0.72835000  0.80034000  1.0
  C  C94  1  0.17899000  0.22836000  0.80034000  1.0
  C  C95  1  0.67899000  0.27164000  0.19966000  1.0
  C  C96  1  0.90107000  0.67222000  0.23081000  1.0
  C  C97  1  0.40108000  0.82778000  0.76919000  1.0
  C  C98  1  0.09892000  0.32778000  0.76920000  1.0
  C  C99  1  0.59892000  0.17222000  0.23081000  1.0
  C  C100  1  0.84330000  0.56838000  0.28239000  1.0
  C  C101  1  0.34330000  0.93163000  0.71761000  1.0
  C  C102  1  0.15669000  0.43163000  0.71761000  1.0
  C  C103  1  0.65670000  0.06837000  0.28239000  1.0
  C  C104  1  0.87970000  0.87909000  0.13385000  1.0
  C  C105  1  0.37970000  0.62092000  0.86615000  1.0
  C  C106  1  0.12030000  0.12092000  0.86615000  1.0
  C  C107  1  0.62031000  0.37908000  0.13385000  1.0
  C  C108  1  0.50349000  0.93999000  0.98832000  1.0
  C  C109  1  0.00349000  0.56001000  0.01168000  1.0
  C  C110  1  0.49650000  0.06001000  0.01167000  1.0
  C  C111  1  0.99651000  0.43999000  0.98832000  1.0
  O  O112  1  0.70342000  0.08749000  0.75976000  1.0
  O  O113  1  0.20342000  0.41251000  0.24024000  1.0
  O  O114  1  0.29657000  0.91251000  0.24024000  1.0
  O  O115  1  0.79658000  0.58749000  0.75976000  1.0
  O  O116  1  0.75164000  0.24443000  0.81341000  1.0
  O  O117  1  0.25165000  0.25557000  0.18659000  1.0
  O  O118  1  0.24835000  0.75557000  0.18659000  1.0
  O  O119  1  0.74836000  0.74443000  0.81341000  1.0
  O  O120  1  0.64008000  0.46027000  0.34179000  1.0
  O  O121  1  0.14009000  0.03973000  0.65821000  1.0
  O  O122  1  0.35991000  0.53973000  0.65821000  1.0
  O  O123  1  0.85992000  0.96027000  0.34180000  1.0
  O  O124  1  0.00683000  0.88590000  0.12493000  1.0
  O  O125  1  0.50684000  0.61411000  0.87507000  1.0
  O  O126  1  0.99316000  0.11411000  0.87507000  1.0
  O  O127  1  0.49317000  0.38589000  0.12493000  1.0
  O  O128  1  0.79871000  0.95618000  0.08656000  1.0
  O  O129  1  0.29872000  0.54382000  0.91344000  1.0
  O  O130  1  0.20128000  0.04382000  0.91344000  1.0
  O  O131  1  0.70129000  0.45618000  0.08656000  1.0
  O  O132  1  0.60924000  0.91732000  0.94390000  1.0
  O  O133  1  0.10924000  0.58268000  0.05609000  1.0
  O  O134  1  0.39076000  0.08267000  0.05609000  1.0
  O  O135  1  0.89076000  0.41733000  0.94390000  1.0
  O  O136  1  0.40504000  0.87291000  0.01590000  1.0
  O  O137  1  0.90503000  0.62710000  0.98410000  1.0
  O  O138  1  0.59497000  0.12710000  0.98409000  1.0
  O  O139  1  0.09497000  0.37291000  0.01590000  1.0
  O  O140  1  0.88313000  0.89635000  0.89139000  1.0
  O  O141  1  0.38314000  0.60365000  0.10861000  1.0
  O  O142  1  0.11686000  0.10365000  0.10861000  1.0
  O  O143  1  0.61687000  0.39635000  0.89139000  1.0
  O  O144  1  0.86226000  0.18904000  0.02063000  1.0
  O  O145  1  0.36226000  0.31096000  0.97937000  1.0
  O  O146  1  0.13774000  0.81096000  0.97937000  1.0
  O  O147  1  0.63774000  0.68904000  0.02063000  1.0
