# generated using pymatgen
data_NiH8C12(NO2)2
_symmetry_space_group_name_H-M   'P 1'
_cell_length_a   6.12896000
_cell_length_b   11.14630000
_cell_length_c   12.20390000
_cell_angle_alpha   90.00020000
_cell_angle_beta   89.99870000
_cell_angle_gamma   89.99990000
_symmetry_Int_Tables_number   1
_chemical_formula_structural   NiH8C12(NO2)2
_chemical_formula_sum   'Ni2 H16 C24 N4 O8'
_cell_volume   833.71219671
_cell_formula_units_Z   2
loop_
 _symmetry_equiv_pos_site_id
 _symmetry_equiv_pos_as_xyz
  1  'x, y, z'
loop_
 _atom_site_type_symbol
 _atom_site_label
 _atom_site_symmetry_multiplicity
 _atom_site_fract_x
 _atom_site_fract_y
 _atom_site_fract_z
 _atom_site_occupancy
  Ni  Ni0  1  0.00001000  0.96200000  0.50000000  1.0
  Ni  Ni1  1  0.50000000  0.46199000  0.00000000  1.0
  H  H2  1  0.03246000  0.32982000  0.74584000  1.0
  H  H3  1  0.96754000  0.32982000  0.25417000  1.0
  H  H4  1  0.46756000  0.82984000  0.24583000  1.0
  H  H5  1  0.53245000  0.82983000  0.75415000  1.0
  H  H6  1  0.15975000  0.18348000  0.60301000  1.0
  H  H7  1  0.84027000  0.18347000  0.39699000  1.0
  H  H8  1  0.34025000  0.68349000  0.10301000  1.0
  H  H9  1  0.65975000  0.68349000  0.89699000  1.0
  H  H10  1  0.57736000  0.99372000  0.61727000  1.0
  H  H11  1  0.42266000  0.99373000  0.38273000  1.0
  H  H12  1  0.92264000  0.49372000  0.11728000  1.0
  H  H13  1  0.07736000  0.49372000  0.88273000  1.0
  H  H14  1  0.42583000  0.13435000  0.75882000  1.0
  H  H15  1  0.57417000  0.13436000  0.24118000  1.0
  H  H16  1  0.07415000  0.63435000  0.25884000  1.0
  H  H17  1  0.92583000  0.63435000  0.74118000  1.0
  C  C18  1  0.62928000  0.32892000  0.84582000  1.0
  C  C19  1  0.37069000  0.32893000  0.15417000  1.0
  C  C20  1  0.87071000  0.82894000  0.34583000  1.0
  C  C21  1  0.12930000  0.82893000  0.65416000  1.0
  C  C22  1  0.71612000  0.24417000  0.76127000  1.0
  C  C23  1  0.28388000  0.24418000  0.23873000  1.0
  C  C24  1  0.78387000  0.74416000  0.26128000  1.0
  C  C25  1  0.21613000  0.74416000  0.73872000  1.0
  C  C26  1  0.92607000  0.25782000  0.71797000  1.0
  C  C27  1  0.07393000  0.25783000  0.28203000  1.0
  C  C28  1  0.57392000  0.75783000  0.21798000  1.0
  C  C29  1  0.42609000  0.75783000  0.78202000  1.0
  C  C30  1  0.99786000  0.17661000  0.63956000  1.0
  C  C31  1  0.00214000  0.17662000  0.36045000  1.0
  C  C32  1  0.50214000  0.67662000  0.13956000  1.0
  C  C33  1  0.49785000  0.67662000  0.86045000  1.0
  C  C34  1  0.67205000  0.07009000  0.64657000  1.0
  C  C35  1  0.32798000  0.07009000  0.35343000  1.0
  C  C36  1  0.82796000  0.57008000  0.14658000  1.0
  C  C37  1  0.17203000  0.57009000  0.85342000  1.0
  C  C38  1  0.58832000  0.14813000  0.72490000  1.0
  C  C39  1  0.41169000  0.14815000  0.27511000  1.0
  C  C40  1  0.91167000  0.64814000  0.22490000  1.0
  C  C41  1  0.08831000  0.64815000  0.77510000  1.0
  N  N42  1  0.87356000  0.08457000  0.60419000  1.0
  N  N43  1  0.12645000  0.08458000  0.39581000  1.0
  N  N44  1  0.62643000  0.58457000  0.10419000  1.0
  N  N45  1  0.37357000  0.58458000  0.89581000  1.0
  O  O46  1  0.75489000  0.41091000  0.88373000  1.0
  O  O47  1  0.24508000  0.41093000  0.11628000  1.0
  O  O48  1  0.74508000  0.91093000  0.38371000  1.0
  O  O49  1  0.25491000  0.91092000  0.61628000  1.0
  O  O50  1  0.43336000  0.31711000  0.87863000  1.0
  O  O51  1  0.56659000  0.31710000  0.12134000  1.0
  O  O52  1  0.06662000  0.81711000  0.37864000  1.0
  O  O53  1  0.93338000  0.81710000  0.62136000  1.0
