# generated using pymatgen
data_SnPH2(CO)3
_symmetry_space_group_name_H-M   'P 1'
_cell_length_a   4.83824000
_cell_length_b   6.83534000
_cell_length_c   16.43960000
_cell_angle_alpha   90.00000000
_cell_angle_beta   90.00010000
_cell_angle_gamma   106.55600000
_symmetry_Int_Tables_number   1
_chemical_formula_structural   SnPH2(CO)3
_chemical_formula_sum   'Sn4 P4 H8 C12 O12'
_cell_volume   521.13444575
_cell_formula_units_Z   4
loop_
 _symmetry_equiv_pos_site_id
 _symmetry_equiv_pos_as_xyz
  1  'x, y, z'
loop_
 _atom_site_type_symbol
 _atom_site_label
 _atom_site_symmetry_multiplicity
 _atom_site_fract_x
 _atom_site_fract_y
 _atom_site_fract_z
 _atom_site_occupancy
  Sn  Sn0  1  0.02277000  0.10329000  0.33056000  1.0
  Sn  Sn1  1  0.97723000  0.39671000  0.83056000  1.0
  Sn  Sn2  1  0.97723000  0.89671000  0.66944000  1.0
  Sn  Sn3  1  0.02277000  0.60329000  0.16944000  1.0
  P  P4  1  0.41127000  0.24566000  0.15923000  1.0
  P  P5  1  0.58873000  0.25434000  0.65923000  1.0
  P  P6  1  0.58873000  0.75434000  0.84077000  1.0
  P  P7  1  0.41127000  0.74566000  0.34077000  1.0
  H  H8  1  0.23965000  0.26452000  0.99032000  1.0
  H  H9  1  0.76035000  0.23547000  0.49032000  1.0
  H  H10  1  0.76035000  0.73547000  0.00968000  1.0
  H  H11  1  0.23965000  0.76453000  0.50968000  1.0
  H  H12  1  0.70596000  0.93393000  0.13256000  1.0
  H  H13  1  0.29405000  0.56607000  0.63256000  1.0
  H  H14  1  0.29405000  0.06607000  0.86744000  1.0
  H  H15  1  0.70595000  0.43393000  0.36744000  1.0
  C  C16  1  0.46637000  0.11075000  0.06924000  1.0
  C  C17  1  0.53363000  0.38925000  0.56924000  1.0
  C  C18  1  0.53363000  0.88925000  0.93076000  1.0
  C  C19  1  0.46637000  0.61075000  0.43076000  1.0
  C  C20  1  0.35321000  0.14829000  0.99428000  1.0
  C  C21  1  0.64679000  0.35171000  0.49428000  1.0
  C  C22  1  0.64679000  0.85171000  0.00572000  1.0
  C  C23  1  0.35321000  0.64829000  0.50572000  1.0
  C  C24  1  0.61386000  0.96168000  0.07458000  1.0
  C  C25  1  0.38614000  0.53832000  0.57458000  1.0
  C  C26  1  0.38614000  0.03832000  0.92542000  1.0
  C  C27  1  0.61386000  0.46168000  0.42542000  1.0
  O  O28  1  0.19379000  0.08615000  0.21172000  1.0
  O  O29  1  0.80621000  0.41385000  0.71172000  1.0
  O  O30  1  0.80621000  0.91385000  0.78828000  1.0
  O  O31  1  0.19379000  0.58615000  0.28828000  1.0
  O  O32  1  0.70116000  0.32270000  0.20588000  1.0
  O  O33  1  0.29884000  0.17730000  0.70588000  1.0
  O  O34  1  0.29884000  0.67730000  0.79412000  1.0
  O  O35  1  0.70116000  0.82270000  0.29412000  1.0
  O  O36  1  0.30093000  0.42299000  0.12906000  1.0
  O  O37  1  0.69908000  0.07701000  0.62906000  1.0
  O  O38  1  0.69907000  0.57701000  0.87094000  1.0
  O  O39  1  0.30092000  0.92299000  0.37094000  1.0
