# generated using pymatgen
data_ZnH10C16NO4
_symmetry_space_group_name_H-M   'P 1'
_cell_length_a   10.98020000
_cell_length_b   19.74140000
_cell_length_c   21.62410000
_cell_angle_alpha   90.00000000
_cell_angle_beta   100.63200000
_cell_angle_gamma   90.00000000
_symmetry_Int_Tables_number   1
_chemical_formula_structural   ZnH10C16NO4
_chemical_formula_sum   'Zn8 H80 C128 N8 O32'
_cell_volume   4606.86759696
_cell_formula_units_Z   8
loop_
 _symmetry_equiv_pos_site_id
 _symmetry_equiv_pos_as_xyz
  1  'x, y, z'
loop_
 _atom_site_type_symbol
 _atom_site_label
 _atom_site_symmetry_multiplicity
 _atom_site_fract_x
 _atom_site_fract_y
 _atom_site_fract_z
 _atom_site_occupancy
  Zn  Zn0  1  0.35363000  0.95083000  0.36386000  1.0
  Zn  Zn1  1  0.64637000  0.45083000  0.13614000  1.0
  Zn  Zn2  1  0.64637000  0.04917000  0.63614000  1.0
  Zn  Zn3  1  0.35363000  0.54917000  0.86386000  1.0
  Zn  Zn4  1  0.31617000  0.05041000  0.26603000  1.0
  Zn  Zn5  1  0.68383000  0.55041000  0.23397000  1.0
  Zn  Zn6  1  0.68383000  0.94959000  0.73397000  1.0
  Zn  Zn7  1  0.31617000  0.44959000  0.76603000  1.0
  H  H8  1  0.36730000  0.08137000  0.51813000  1.0
  H  H9  1  0.63270000  0.58137000  0.98187000  1.0
  H  H10  1  0.63270000  0.91863000  0.48187000  1.0
  H  H11  1  0.36730000  0.41863000  0.01813000  1.0
  H  H12  1  0.30942000  0.23913000  0.37895000  1.0
  H  H13  1  0.69058000  0.73913000  0.12105000  1.0
  H  H14  1  0.69058000  0.76087000  0.62105000  1.0
  H  H15  1  0.30942000  0.26087000  0.87895000  1.0
  H  H16  1  0.36354000  0.16491000  0.60198000  1.0
  H  H17  1  0.63646000  0.66491000  0.89802000  1.0
  H  H18  1  0.63646000  0.83509000  0.39802000  1.0
  H  H19  1  0.36354000  0.33509000  0.10198000  1.0
  H  H20  1  0.91608000  0.08319000  0.24484000  1.0
  H  H21  1  0.08392000  0.58320000  0.25516000  1.0
  H  H22  1  0.08392000  0.91681000  0.75516000  1.0
  H  H23  1  0.91608000  0.41681000  0.74484000  1.0
  H  H24  1  0.69007000  0.08281000  0.25310000  1.0
  H  H25  1  0.30993000  0.58281000  0.24690000  1.0
  H  H26  1  0.30993000  0.91719000  0.74690000  1.0
  H  H27  1  0.69007000  0.41719000  0.75310000  1.0
  H  H28  1  0.34147000  0.69589000  0.87879000  1.0
  H  H29  1  0.65855000  0.19589000  0.62121000  1.0
  H  H30  1  0.65855000  0.30411000  0.12121000  1.0
  H  H31  1  0.34147000  0.80411000  0.37879000  1.0
  H  H32  1  0.23172000  0.91359000  0.11193000  1.0
  H  H33  1  0.76829000  0.41359000  0.38806000  1.0
  H  H34  1  0.76829000  0.08641000  0.88806000  1.0
  H  H35  1  0.23172000  0.58641000  0.61193000  1.0
  H  H36  1  0.33243000  0.61227000  0.09170000  1.0
  H  H37  1  0.66757000  0.11227000  0.40830000  1.0
  H  H38  1  0.66757000  0.38773000  0.90830000  1.0
  H  H39  1  0.33242000  0.88773000  0.59170000  1.0
  H  H40  1  0.41499000  0.77079000  0.24650000  1.0
  H  H41  1  0.58501000  0.27079000  0.25350000  1.0
  H  H42  1  0.58501000  0.22921000  0.75350000  1.0
  H  H43  1  0.41499000  0.72921000  0.74650000  1.0
  H  H44  1  0.33557000  0.78055000  0.96375000  1.0
  H  H45  1  0.66445000  0.28055000  0.53625000  1.0
  H  H46  1  0.66445000  0.21945000  0.03625000  1.0
  H  H47  1  0.33557000  0.71945000  0.46375000  1.0
  H  H48  1  0.30200000  0.32474000  0.46306000  1.0
  H  H49  1  0.69800000  0.82474000  0.03694000  1.0
  H  H50  1  0.69800000  0.67526000  0.53694000  1.0
  H  H51  1  0.30200000  0.17526000  0.96306000  1.0
  H  H52  1  0.98391000  0.92174000  0.37930000  1.0
  H  H53  1  0.01609000  0.42174000  0.12070000  1.0
  H  H54  1  0.01609000  0.07826000  0.62070000  1.0
  H  H55  1  0.98391000  0.57826000  0.87930000  1.0
  H  H56  1  0.42360000  0.68716000  0.16070000  1.0
  H  H57  1  0.57641000  0.18716000  0.33930000  1.0
  H  H58  1  0.57641000  0.31284000  0.83930000  1.0
  H  H59  1  0.42360000  0.81284000  0.66070000  1.0
  H  H60  1  0.76024000  0.92398000  0.39056000  1.0
  H  H61  1  0.23976000  0.42398000  0.10944000  1.0
  H  H62  1  0.23976000  0.07602000  0.60944000  1.0
  H  H63  1  0.76024000  0.57602000  0.89056000  1.0
  H  H64  1  0.18742000  0.36612000  0.53812000  1.0
  H  H65  1  0.81258000  0.86612000  0.96188000  1.0
  H  H66  1  0.81258000  0.63388000  0.46188000  1.0
  H  H67  1  0.18743000  0.13388000  0.03812000  1.0
  H  H68  1  0.34854000  0.53544000  0.00234000  1.0
  H  H69  1  0.65145000  0.03544000  0.49766000  1.0
  H  H70  1  0.65145000  0.46456000  0.99766000  1.0
  H  H71  1  0.34854000  0.96456000  0.50234000  1.0
  H  H72  1  0.22969000  0.82949000  0.02608000  1.0
  H  H73  1  0.77032000  0.32949000  0.47392000  1.0
  H  H74  1  0.77032000  0.17051000  0.97392000  1.0
  H  H75  1  0.22969000  0.67051000  0.52608000  1.0
  H  H76  1  0.18609000  0.44265000  0.63050000  1.0
  H  H77  1  0.81391000  0.94265000  0.86950000  1.0
  H  H78  1  0.81391000  0.55735000  0.36950000  1.0
  H  H79  1  0.18609000  0.05735000  0.13050000  1.0
  H  H80  1  0.45042000  0.32747000  0.74469000  1.0
  H  H81  1  0.54958000  0.82747000  0.75531000  1.0
  H  H82  1  0.54958000  0.67253000  0.25531000  1.0
  H  H83  1  0.45042000  0.17253000  0.24469000  1.0
  H  H84  1  0.46635000  0.24663000  0.65742000  1.0
  H  H85  1  0.53365000  0.74663000  0.84258000  1.0
  H  H86  1  0.53365000  0.75337000  0.34259000  1.0
  H  H87  1  0.46635000  0.25337000  0.15742000  1.0
  C  C88  1  0.33782000  0.15504000  0.44317000  1.0
  C  C89  1  0.66218000  0.65504000  0.05683000  1.0
  C  C90  1  0.66218000  0.84496000  0.55683000  1.0
  C  C91  1  0.33782000  0.34496000  0.94317000  1.0
  C  C92  1  0.33088000  0.25090000  0.53853000  1.0
  C  C93  1  0.66912000  0.75090000  0.96147000  1.0
  C  C94  1  0.66912000  0.74910000  0.46147000  1.0
  C  C95  1  0.33088000  0.24910000  0.03853000  1.0
  C  C96  1  0.32773000  0.29945000  0.58982000  1.0
  C  C97  1  0.67228000  0.79946000  0.91019000  1.0
  C  C98  1  0.67228000  0.70054000  0.41019000  1.0
  C  C99  1  0.32773000  0.20054000  0.08981000  1.0
  C  C100  1  0.32405000  0.84731000  0.18431000  1.0
  C  C101  1  0.67595000  0.34731000  0.31569000  1.0
  C  C102  1  0.67595000  0.15269000  0.81569000  1.0
  C  C103  1  0.32405000  0.65269000  0.68431000  1.0
  C  C104  1  0.96211000  0.00186000  0.31104000  1.0
  C  C105  1  0.03789000  0.50186000  0.18896000  1.0
  C  C106  1  0.03789000  0.99814000  0.68896000  1.0
  C  C107  1  0.96211000  0.49814000  0.81104000  1.0
  C  C108  1  0.35270000  0.13460000  0.50609000  1.0
  C  C109  1  0.64730000  0.63460000  0.99391000  1.0
  C  C110  1  0.64731000  0.86540000  0.49391000  1.0
  C  C111  1  0.35270000  0.36540000  0.00609000  1.0
  C  C112  1  0.57663000  0.00201000  0.32525000  1.0
  C  C113  1  0.42337000  0.50201000  0.17475000  1.0
  C  C114  1  0.42337000  0.99799000  0.67475000  1.0
  C  C115  1  0.57663000  0.49799000  0.82525000  1.0
  C  C116  1  0.34179000  0.10292000  0.39309000  1.0
  C  C117  1  0.65821000  0.60292000  0.10691000  1.0
  C  C118  1  0.65821000  0.89708000  0.60691000  1.0
  C  C119  1  0.34179000  0.39708000  0.89309000  1.0
  C  C120  1  0.31957000  0.22379000  0.42803000  1.0
  C  C121  1  0.68043000  0.72379000  0.07197000  1.0
  C  C122  1  0.68043000  0.77621000  0.57197000  1.0
  C  C123  1  0.31958000  0.27621000  0.92803000  1.0
  C  C124  1  0.32748000  0.75238000  0.08719000  1.0
  C  C125  1  0.67253000  0.25238000  0.41281000  1.0
  C  C126  1  0.67253000  0.24762000  0.91281000  1.0
  C  C127  1  0.32748000  0.74762000  0.58719000  1.0
  C  C128  1  0.33266000  0.70401000  0.03585000  1.0
  C  C129  1  0.66734000  0.20401000  0.46415000  1.0
  C  C130  1  0.66735000  0.29599000  0.96415000  1.0
  C  C131  1  0.33266000  0.79599000  0.53585000  1.0
  C  C132  1  0.35079000  0.18196000  0.55325000  1.0
  C  C133  1  0.64922000  0.68196000  0.94675000  1.0
  C  C134  1  0.64922000  0.81803000  0.44675000  1.0
  C  C135  1  0.35079000  0.31804000  0.05325000  1.0
  C  C136  1  0.32722000  0.89974000  0.23502000  1.0
  C  C137  1  0.67278000  0.39974000  0.26498000  1.0
  C  C138  1  0.67278000  0.10026000  0.76498000  1.0
  C  C139  1  0.32722000  0.60026000  0.73502000  1.0
  C  C140  1  0.88015000  0.04806000  0.27593000  1.0
  C  C141  1  0.11985000  0.54806000  0.22407000  1.0
  C  C142  1  0.11985000  0.95194000  0.72407000  1.0
  C  C143  1  0.88015000  0.45194000  0.77593000  1.0
  C  C144  1  0.75569000  0.04830000  0.28098000  1.0
  C  C145  1  0.24431000  0.54830000  0.21902000  1.0
  C  C146  1  0.24431000  0.95170000  0.71902000  1.0
  C  C147  1  0.75569000  0.45170000  0.78098000  1.0
  C  C148  1  0.71192000  0.00323000  0.32209000  1.0
  C  C149  1  0.28808000  0.50323000  0.17791000  1.0
  C  C150  1  0.28808000  0.99677000  0.67791000  1.0
  C  C151  1  0.71192000  0.49677000  0.82209000  1.0
  C  C152  1  0.09642000  0.00100000  0.30581000  1.0
  C  C153  1  0.90358000  0.50100000  0.19419000  1.0
  C  C154  1  0.90358000  0.99900000  0.69419000  1.0
  C  C155  1  0.09642000  0.49900000  0.80581000  1.0
  C  C156  1  0.34062000  0.68019000  0.92707000  1.0
  C  C157  1  0.65939000  0.18019000  0.57293000  1.0
  C  C158  1  0.65939000  0.31981000  0.07293000  1.0
  C  C159  1  0.34062000  0.81981000  0.42707000  1.0
  C  C160  1  0.27220000  0.86351000  0.12191000  1.0
  C  C161  1  0.72781000  0.36351000  0.37809000  1.0
  C  C162  1  0.72781000  0.13649000  0.87808000  1.0
  C  C163  1  0.27220000  0.63649000  0.62191000  1.0
  C  C164  1  0.33635000  0.63362000  0.04568000  1.0
  C  C165  1  0.66365000  0.13362000  0.45432000  1.0
  C  C166  1  0.66365000  0.36638000  0.95432000  1.0
  C  C167  1  0.33635000  0.86638000  0.54568000  1.0
  C  C168  1  0.37552000  0.78289000  0.19782000  1.0
  C  C169  1  0.62448000  0.28289000  0.30218000  1.0
  C  C170  1  0.62448000  0.21711000  0.80218000  1.0
  C  C171  1  0.37552000  0.71711000  0.69782000  1.0
  C  C172  1  0.33509000  0.72666000  0.97445000  1.0
  C  C173  1  0.66492000  0.22666000  0.52555000  1.0
  C  C174  1  0.66492000  0.27334000  0.02555000  1.0
  C  C175  1  0.33509000  0.77334000  0.47445000  1.0
  C  C176  1  0.31488000  0.27123000  0.47519000  1.0
  C  C177  1  0.68512000  0.77123000  0.02481000  1.0
  C  C178  1  0.68512000  0.72877000  0.52481000  1.0
  C  C179  1  0.31488000  0.22877000  0.97519000  1.0
  C  C180  1  0.91862000  0.95704000  0.35230000  1.0
  C  C181  1  0.08138000  0.45705000  0.14770000  1.0
  C  C182  1  0.08138000  0.04295000  0.64770000  1.0
  C  C183  1  0.91862000  0.54295000  0.85230000  1.0
  C  C184  1  0.37836000  0.73608000  0.14998000  1.0
  C  C185  1  0.62165000  0.23608000  0.35002000  1.0
  C  C186  1  0.62165000  0.26392000  0.85002000  1.0
  C  C187  1  0.37836000  0.76392000  0.64998000  1.0
  C  C188  1  0.79465000  0.95821000  0.35828000  1.0
  C  C189  1  0.20534000  0.45821000  0.14172000  1.0
  C  C190  1  0.20534000  0.04179000  0.64172000  1.0
  C  C191  1  0.79466000  0.54179000  0.85828000  1.0
  C  C192  1  0.24908000  0.35618000  0.58274000  1.0
  C  C193  1  0.75092000  0.85618000  0.91726000  1.0
  C  C194  1  0.75092000  0.64382000  0.41726000  1.0
  C  C195  1  0.24908000  0.14382000  0.08274000  1.0
  C  C196  1  0.34390000  0.59020000  0.99604000  1.0
  C  C197  1  0.65609000  0.09020000  0.50396000  1.0
  C  C198  1  0.65609000  0.40980000  0.00396000  1.0
  C  C199  1  0.34390000  0.90980000  0.49604000  1.0
  C  C200  1  0.27300000  0.81658000  0.07415000  1.0
  C  C201  1  0.72700000  0.31658000  0.42585000  1.0
  C  C202  1  0.72700000  0.18342000  0.92585000  1.0
  C  C203  1  0.27300000  0.68342000  0.57415000  1.0
  C  C204  1  0.24659000  0.39846000  0.63382000  1.0
  C  C205  1  0.75341000  0.89847000  0.86618000  1.0
  C  C206  1  0.75341000  0.60153000  0.36618000  1.0
  C  C207  1  0.24659000  0.10153000  0.13382000  1.0
  C  C208  1  0.39467000  0.33382000  0.69789000  1.0
  C  C209  1  0.60533000  0.83382000  0.80211000  1.0
  C  C210  1  0.60533000  0.66618000  0.30211000  1.0
  C  C211  1  0.39467000  0.16618000  0.19789000  1.0
  C  C212  1  0.40244000  0.28930000  0.64928000  1.0
  C  C213  1  0.59756000  0.78930000  0.85072000  1.0
  C  C214  1  0.59756000  0.71070000  0.35072000  1.0
  C  C215  1  0.40244000  0.21070000  0.14928000  1.0
  N  N216  1  0.34603000  0.61291000  0.93750000  1.0
  N  N217  1  0.65397000  0.11291000  0.56250000  1.0
  N  N218  1  0.65397000  0.38709000  0.06250000  1.0
  N  N219  1  0.34603000  0.88708000  0.43750000  1.0
  N  N220  1  0.31762000  0.38743000  0.69061000  1.0
  N  N221  1  0.68238000  0.88743000  0.80939000  1.0
  N  N222  1  0.68238000  0.61257000  0.30939000  1.0
  N  N223  1  0.31762000  0.11257000  0.19061000  1.0
  O  O224  1  0.36229000  0.88098000  0.29198000  1.0
  O  O225  1  0.63771000  0.38098000  0.20802000  1.0
  O  O226  1  0.63771000  0.11902000  0.70802000  1.0
  O  O227  1  0.36229000  0.61902000  0.79198000  1.0
  O  O228  1  0.54207000  0.96587000  0.36781000  1.0
  O  O229  1  0.45793000  0.46587000  0.13219000  1.0
  O  O230  1  0.45793000  0.03413000  0.63219000  1.0
  O  O231  1  0.54206000  0.53413000  0.86781000  1.0
  O  O232  1  0.34263000  0.12360000  0.33745000  1.0
  O  O233  1  0.65737000  0.62360000  0.16255000  1.0
  O  O234  1  0.65737000  0.87640000  0.66255000  1.0
  O  O235  1  0.34263000  0.37640000  0.83745000  1.0
  O  O236  1  0.16322000  0.95455000  0.33552000  1.0
  O  O237  1  0.83678000  0.45455000  0.16448000  1.0
  O  O238  1  0.83678000  0.04545000  0.66448000  1.0
  O  O239  1  0.16322000  0.54545000  0.83552000  1.0
  O  O240  1  0.13383000  0.04727000  0.27255000  1.0
  O  O241  1  0.86617000  0.54727000  0.22745000  1.0
  O  O242  1  0.86617000  0.95273000  0.72745000  1.0
  O  O243  1  0.13383000  0.45273000  0.77255000  1.0
  O  O244  1  0.50567000  0.03723000  0.28423000  1.0
  O  O245  1  0.49433000  0.53723000  0.21577000  1.0
  O  O246  1  0.49433000  0.96277000  0.71577000  1.0
  O  O247  1  0.50567000  0.46277000  0.78423000  1.0
  O  O248  1  0.34387000  0.04127000  0.41078000  1.0
  O  O249  1  0.65613000  0.54127000  0.08922000  1.0
  O  O250  1  0.65613000  0.95873000  0.58922000  1.0
  O  O251  1  0.34387000  0.45873000  0.91078000  1.0
  O  O252  1  0.29592000  0.95946000  0.21653000  1.0
  O  O253  1  0.70407000  0.45946000  0.28347000  1.0
  O  O254  1  0.70407000  0.04054000  0.78347000  1.0
  O  O255  1  0.29592000  0.54054000  0.71653000  1.0
