# generated using pymatgen
data_Ag2H5C6SClO5
_symmetry_space_group_name_H-M   'P 1'
_cell_length_a   9.23628000
_cell_length_b   9.52669000
_cell_length_c   10.99690000
_cell_angle_alpha   90.00000000
_cell_angle_beta   90.00000000
_cell_angle_gamma   101.00200000
_symmetry_Int_Tables_number   1
_chemical_formula_structural   Ag2H5C6SClO5
_chemical_formula_sum   'Ag8 H20 C24 S4 Cl4 O20'
_cell_volume   949.84562978
_cell_formula_units_Z   4
loop_
 _symmetry_equiv_pos_site_id
 _symmetry_equiv_pos_as_xyz
  1  'x, y, z'
loop_
 _atom_site_type_symbol
 _atom_site_label
 _atom_site_symmetry_multiplicity
 _atom_site_fract_x
 _atom_site_fract_y
 _atom_site_fract_z
 _atom_site_occupancy
  Ag  Ag0  1  0.54917000  0.43130000  0.63629000  1.0
  Ag  Ag1  1  0.95083000  0.56870000  0.13629000  1.0
  Ag  Ag2  1  0.45083000  0.56870000  0.36371000  1.0
  Ag  Ag3  1  0.04917000  0.43130000  0.86371000  1.0
  Ag  Ag4  1  0.61944000  0.24511000  0.37897000  1.0
  Ag  Ag5  1  0.88055000  0.75489000  0.87897000  1.0
  Ag  Ag6  1  0.38056000  0.75489000  0.62103000  1.0
  Ag  Ag7  1  0.11944000  0.24511000  0.12103000  1.0
  H  H8  1  0.61511000  0.95675000  0.34577000  1.0
  H  H9  1  0.88489000  0.04325000  0.84577000  1.0
  H  H10  1  0.38489000  0.04325000  0.65423000  1.0
  H  H11  1  0.11511000  0.95675000  0.15423000  1.0
  H  H12  1  0.63087000  0.03980000  0.21648000  1.0
  H  H13  1  0.86913000  0.96020000  0.71648000  1.0
  H  H14  1  0.36913000  0.96020000  0.78352000  1.0
  H  H15  1  0.13087000  0.03980000  0.28352000  1.0
  H  H16  1  0.11765000  0.63480000  0.66277000  1.0
  H  H17  1  0.38235000  0.36520000  0.16278000  1.0
  H  H18  1  0.88235000  0.36520000  0.33723000  1.0
  H  H19  1  0.61765000  0.63480000  0.83723000  1.0
  H  H20  1  0.86044000  0.50609000  0.69750000  1.0
  H  H21  1  0.63956000  0.49391000  0.19750000  1.0
  H  H22  1  0.13956000  0.49391000  0.30250000  1.0
  H  H23  1  0.36044000  0.50609000  0.80250000  1.0
  H  H24  1  0.97019000  0.12687000  0.53684000  1.0
  H  H25  1  0.52981000  0.87313000  0.03684000  1.0
  H  H26  1  0.02981000  0.87313000  0.46316000  1.0
  H  H27  1  0.47019000  0.12687000  0.96316000  1.0
  C  C28  1  0.14640000  0.31100000  0.54561000  1.0
  C  C29  1  0.35360000  0.68900000  0.04561000  1.0
  C  C30  1  0.85360000  0.68900000  0.45439000  1.0
  C  C31  1  0.64640000  0.31100000  0.95439000  1.0
  C  C32  1  0.19374000  0.45588000  0.58153000  1.0
  C  C33  1  0.30626000  0.54412000  0.08153000  1.0
  C  C34  1  0.80626000  0.54412000  0.41847000  1.0
  C  C35  1  0.69374000  0.45588000  0.91847000  1.0
  C  C36  1  0.08711000  0.52126000  0.64020000  1.0
  C  C37  1  0.41289000  0.47874000  0.14020000  1.0
  C  C38  1  0.91288000  0.47874000  0.35980000  1.0
  C  C39  1  0.58711000  0.52126000  0.85980000  1.0
  C  C40  1  0.94300000  0.44798000  0.66305000  1.0
  C  C41  1  0.55700000  0.55202000  0.16305000  1.0
  C  C42  1  0.05700000  0.55202000  0.33696000  1.0
  C  C43  1  0.44300000  0.44797000  0.83696000  1.0
  C  C44  1  0.90167000  0.30512000  0.62523000  1.0
  C  C45  1  0.59833000  0.69488000  0.12523000  1.0
  C  C46  1  0.09833000  0.69488000  0.37477000  1.0
  C  C47  1  0.40167000  0.30512000  0.87477000  1.0
  C  C48  1  0.00246000  0.23727000  0.56676000  1.0
  C  C49  1  0.49754000  0.76273000  0.06676000  1.0
  C  C50  1  0.99754000  0.76273000  0.43324000  1.0
  C  C51  1  0.50246000  0.23727000  0.93324000  1.0
  S  S52  1  0.26886000  0.21509000  0.47305000  1.0
  S  S53  1  0.23114000  0.78491000  0.97305000  1.0
  S  S54  1  0.73114000  0.78491000  0.52695000  1.0
  S  S55  1  0.76886000  0.21509000  0.02695000  1.0
  Cl  Cl56  1  0.72224000  0.21430000  0.64994000  1.0
  Cl  Cl57  1  0.77777000  0.78570000  0.14994000  1.0
  Cl  Cl58  1  0.27776000  0.78570000  0.35006000  1.0
  Cl  Cl59  1  0.22223000  0.21430000  0.85006000  1.0
  O  O60  1  0.58416000  0.03424000  0.29805000  1.0
  O  O61  1  0.91584000  0.96576000  0.79805000  1.0
  O  O62  1  0.41584000  0.96576000  0.70195000  1.0
  O  O63  1  0.08416000  0.03424000  0.20196000  1.0
  O  O64  1  0.38272000  0.19883000  0.56513000  1.0
  O  O65  1  0.11729000  0.80117000  0.06513000  1.0
  O  O66  1  0.61728000  0.80117000  0.43487000  1.0
  O  O67  1  0.88272000  0.19883000  0.93487000  1.0
  O  O68  1  0.18114000  0.07707000  0.43631000  1.0
  O  O69  1  0.31886000  0.92293000  0.93631000  1.0
  O  O70  1  0.81886000  0.92293000  0.56369000  1.0
  O  O71  1  0.68114000  0.07707000  0.06369000  1.0
  O  O72  1  0.33469000  0.30194000  0.36874000  1.0
  O  O73  1  0.16532000  0.69806000  0.86874000  1.0
  O  O74  1  0.66531000  0.69806000  0.63126000  1.0
  O  O75  1  0.83469000  0.30194000  0.13126000  1.0
  O  O76  1  0.32926000  0.52977000  0.56188000  1.0
  O  O77  1  0.17074000  0.47023000  0.06188000  1.0
  O  O78  1  0.67074000  0.47023000  0.43813000  1.0
  O  O79  1  0.82926000  0.52977000  0.93812000  1.0
