# generated using pymatgen
data_CdH10(C5N2)2
_symmetry_space_group_name_H-M   'P 1'
_cell_length_a   7.32270000
_cell_length_b   11.94605537
_cell_length_c   13.83160000
_cell_angle_alpha   82.76385253
_cell_angle_beta   74.66770000
_cell_angle_gamma   72.17389398
_symmetry_Int_Tables_number   1
_chemical_formula_structural   CdH10(C5N2)2
_chemical_formula_sum   'Cd4 H40 C40 N16'
_cell_volume   1109.52988372
_cell_formula_units_Z   4
loop_
 _symmetry_equiv_pos_site_id
 _symmetry_equiv_pos_as_xyz
  1  'x, y, z'
loop_
 _atom_site_type_symbol
 _atom_site_label
 _atom_site_symmetry_multiplicity
 _atom_site_fract_x
 _atom_site_fract_y
 _atom_site_fract_z
 _atom_site_occupancy
  Cd  Cd0  1  0.67687000  0.65375000  0.11635000  1.0
  Cd  Cd1  1  0.94706000  0.84640000  0.38349000  1.0
  Cd  Cd2  1  0.32313000  0.34626000  0.88365000  1.0
  Cd  Cd3  1  0.05293000  0.15361000  0.61651000  1.0
  H  H4  1  0.89101000  0.84761000  0.00359000  1.0
  H  H5  1  0.24258000  0.65234000  0.49587000  1.0
  H  H6  1  0.10899000  0.15239000  0.99641000  1.0
  H  H7  1  0.75743000  0.34765000  0.50412000  1.0
  H  H8  1  0.87298000  0.99955000  0.85971000  1.0
  H  H9  1  0.23280000  0.50035000  0.63975000  1.0
  H  H10  1  0.12698000  0.00047000  0.14029000  1.0
  H  H11  1  0.76721000  0.49964000  0.36024000  1.0
  H  H12  1  0.59518000  0.03764000  0.77560000  1.0
  H  H13  1  0.90896000  0.46261000  0.72424000  1.0
  H  H14  1  0.40479000  0.96237000  0.22441000  1.0
  H  H15  1  0.09105000  0.53738000  0.27575000  1.0
  H  H16  1  0.35458000  0.91718000  0.83263000  1.0
  H  H17  1  0.60481000  0.58326000  0.66748000  1.0
  H  H18  1  0.64540000  0.08282000  0.16739000  1.0
  H  H19  1  0.39520000  0.41675000  0.33252000  1.0
  H  H20  1  0.25661000  0.78278000  0.05932000  1.0
  H  H21  1  0.59891000  0.71712000  0.44064000  1.0
  H  H22  1  0.74338000  0.21722000  0.94068000  1.0
  H  H23  1  0.40109000  0.28288000  0.55936000  1.0
  H  H24  1  0.26381000  0.75427000  0.93486000  1.0
  H  H25  1  0.45337000  0.74565000  0.56514000  1.0
  H  H26  1  0.73620000  0.24572000  0.06514000  1.0
  H  H27  1  0.54664000  0.25436000  0.43486000  1.0
  H  H28  1  0.68366000  0.61276000  0.87475000  1.0
  H  H29  1  0.67162000  0.88723000  0.62509000  1.0
  H  H30  1  0.31635000  0.38724000  0.12525000  1.0
  H  H31  1  0.32839000  0.11276000  0.37491000  1.0
  H  H32  1  0.47025000  0.57458000  0.86582000  1.0
  H  H33  1  0.41115000  0.92531000  0.63413000  1.0
  H  H34  1  0.52975000  0.42542000  0.13417000  1.0
  H  H35  1  0.58885000  0.07470000  0.36586000  1.0
  H  H36  1  0.20671000  0.56705000  0.02617000  1.0
  H  H37  1  0.29986000  0.93280000  0.47397000  1.0
  H  H38  1  0.79329000  0.43295000  0.97384000  1.0
  H  H39  1  0.70015000  0.06721000  0.52603000  1.0
  H  H40  1  0.24647000  0.60341000  0.13802000  1.0
  H  H41  1  0.48738000  0.89662000  0.36201000  1.0
  H  H42  1  0.75354000  0.39660000  0.86198000  1.0
  H  H43  1  0.51262000  0.10338000  0.63799000  1.0
  C  C44  1  0.88072000  0.47949000  0.12569000  1.0
  C  C45  1  0.98607000  0.02065000  0.37416000  1.0
  C  C46  1  0.11929000  0.52050000  0.87430000  1.0
  C  C47  1  0.01393000  0.97935000  0.62584000  1.0
  C  C48  1  0.87274000  0.79633000  0.25080000  1.0
  C  C49  1  0.42017000  0.70415000  0.24905000  1.0
  C  C50  1  0.12721000  0.20368000  0.74921000  1.0
  C  C51  1  0.57991000  0.29583000  0.75098000  1.0
  C  C52  1  0.77573000  0.86660000  0.96266000  1.0
  C  C53  1  0.10539000  0.63349000  0.53693000  1.0
  C  C54  1  0.22427000  0.13340000  0.03733000  1.0
  C  C55  1  0.89462000  0.36650000  0.46306000  1.0
  C  C56  1  0.76309000  0.95128000  0.88421000  1.0
  C  C57  1  0.09906000  0.54877000  0.61542000  1.0
  C  C58  1  0.23690000  0.04872000  0.11580000  1.0
  C  C59  1  0.90094000  0.45122000  0.38458000  1.0
  C  C60  1  0.60944000  0.97119000  0.83677000  1.0
  C  C61  1  0.91791000  0.52901000  0.66306000  1.0
  C  C62  1  0.39055000  0.02881000  0.16323000  1.0
  C  C63  1  0.08209000  0.47098000  0.33694000  1.0
  C  C64  1  0.47579000  0.90473000  0.86851000  1.0
  C  C65  1  0.74945000  0.59558000  0.63147000  1.0
  C  C66  1  0.52420000  0.09527000  0.13150000  1.0
  C  C67  1  0.25055000  0.40442000  0.36853000  1.0
  C  C68  1  0.49817000  0.82096000  0.94764000  1.0
  C  C69  1  0.76714000  0.67924000  0.55224000  1.0
  C  C70  1  0.50181000  0.17904000  0.05237000  1.0
  C  C71  1  0.23287000  0.32076000  0.44776000  1.0
  C  C72  1  0.35647000  0.74787000  0.98796000  1.0
  C  C73  1  0.59257000  0.75215000  0.51196000  1.0
  C  C74  1  0.64353000  0.25213000  0.01204000  1.0
  C  C75  1  0.40744000  0.24784000  0.48804000  1.0
  C  C76  1  0.57317000  0.56721000  0.91388000  1.0
  C  C77  1  0.55458000  0.93279000  0.58605000  1.0
  C  C78  1  0.42683000  0.43279000  0.08612000  1.0
  C  C79  1  0.44543000  0.06721000  0.41395000  1.0
  C  C80  1  0.32107000  0.56087000  0.06648000  1.0
  C  C81  1  0.44822000  0.93910000  0.43356000  1.0
  C  C82  1  0.67893000  0.43913000  0.93352000  1.0
  C  C83  1  0.55180000  0.06090000  0.56643000  1.0
  N  N84  1  0.98039000  0.38268000  0.13317000  1.0
  N  N85  1  0.99522000  0.11773000  0.36679000  1.0
  N  N86  1  0.01960000  0.61732000  0.86684000  1.0
  N  N87  1  0.00480000  0.88227000  0.63322000  1.0
  N  N88  1  0.84567000  0.76499000  0.18020000  1.0
  N  N89  1  0.29090000  0.73535000  0.31953000  1.0
  N  N90  1  0.15432000  0.23501000  0.81980000  1.0
  N  N91  1  0.70909000  0.26465000  0.68047000  1.0
  N  N92  1  0.64571000  0.80363000  0.99381000  1.0
  N  N93  1  0.94346000  0.69650000  0.50592000  1.0
  N  N94  1  0.35430000  0.19636000  0.00619000  1.0
  N  N95  1  0.05654000  0.30350000  0.49407000  1.0
  N  N96  1  0.46165000  0.62489000  0.00895000  1.0
  N  N97  1  0.59556000  0.87520000  0.49096000  1.0
  N  N98  1  0.53835000  0.37511000  0.99105000  1.0
  N  N99  1  0.40446000  0.12480000  0.50904000  1.0
