# generated using pymatgen
data_CuH6C8(NO2)2
_symmetry_space_group_name_H-M   'P 1'
_cell_length_a   6.90172000
_cell_length_b   8.02254000
_cell_length_c   8.07105000
_cell_angle_alpha   89.99840000
_cell_angle_beta   109.41900000
_cell_angle_gamma   89.99990000
_symmetry_Int_Tables_number   1
_chemical_formula_structural   CuH6C8(NO2)2
_chemical_formula_sum   'Cu2 H12 C16 N4 O8'
_cell_volume   421.46619481
_cell_formula_units_Z   2
loop_
 _symmetry_equiv_pos_site_id
 _symmetry_equiv_pos_as_xyz
  1  'x, y, z'
loop_
 _atom_site_type_symbol
 _atom_site_label
 _atom_site_symmetry_multiplicity
 _atom_site_fract_x
 _atom_site_fract_y
 _atom_site_fract_z
 _atom_site_occupancy
  Cu  Cu0  1  0.50001000  0.00000000  0.49999000  1.0
  Cu  Cu1  1  0.49999000  0.49999000  0.00001000  1.0
  H  H2  1  0.97367000  0.41361000  0.59584000  1.0
  H  H3  1  0.02639000  0.91360000  0.90417000  1.0
  H  H4  1  0.02638000  0.58640000  0.40415000  1.0
  H  H5  1  0.97359000  0.08640000  0.09583000  1.0
  H  H6  1  0.79771000  0.31373000  0.68294000  1.0
  H  H7  1  0.20228000  0.81375000  0.81705000  1.0
  H  H8  1  0.20228000  0.68629000  0.31703000  1.0
  H  H9  1  0.79772000  0.18626000  0.18298000  1.0
  H  H10  1  0.72187000  0.35055000  0.45603000  1.0
  H  H11  1  0.27815000  0.85051000  0.04394000  1.0
  H  H12  1  0.27818000  0.64947000  0.54394000  1.0
  H  H13  1  0.72180000  0.14948000  0.95608000  1.0
  C  C14  1  0.14210000  0.11910000  0.56451000  1.0
  C  C15  1  0.85790000  0.61910000  0.93548000  1.0
  C  C16  1  0.85793000  0.88090000  0.43549000  1.0
  C  C17  1  0.14207000  0.38089000  0.06452000  1.0
  C  C18  1  0.93406000  0.15258000  0.54242000  1.0
  C  C19  1  0.06597000  0.65257000  0.95756000  1.0
  C  C20  1  0.06598000  0.84743000  0.45757000  1.0
  C  C21  1  0.93400000  0.34742000  0.04244000  1.0
  C  C22  1  0.31824000  0.23744000  0.65048000  1.0
  C  C23  1  0.68177000  0.73744000  0.84955000  1.0
  C  C24  1  0.68177000  0.76257000  0.34953000  1.0
  C  C25  1  0.31820000  0.26256000  0.15048000  1.0
  C  C26  1  0.85465000  0.31870000  0.57151000  1.0
  C  C27  1  0.14537000  0.81870000  0.92848000  1.0
  C  C28  1  0.14538000  0.68131000  0.42847000  1.0
  C  C29  1  0.85460000  0.18130000  0.07154000  1.0
  N  N30  1  0.20263000  0.97178000  0.51909000  1.0
  N  N31  1  0.79735000  0.47179000  0.98092000  1.0
  N  N32  1  0.79738000  0.02821000  0.48091000  1.0
  N  N33  1  0.20263000  0.52820000  0.01909000  1.0
  O  O34  1  0.49215000  0.19654000  0.63590000  1.0
  O  O35  1  0.50784000  0.69653000  0.86409000  1.0
  O  O36  1  0.50788000  0.80347000  0.36407000  1.0
  O  O37  1  0.49214000  0.30346000  0.13594000  1.0
  O  O38  1  0.29176000  0.35996000  0.73561000  1.0
  O  O39  1  0.70828000  0.86000000  0.76436000  1.0
  O  O40  1  0.70826000  0.64003000  0.26438000  1.0
  O  O41  1  0.29170000  0.14000000  0.23566000  1.0
