# generated using pymatgen
data_ZnH14C14(N3O)2
_symmetry_space_group_name_H-M   'P 1'
_cell_length_a   7.14160000
_cell_length_b   8.27832000
_cell_length_c   26.42820000
_cell_angle_alpha   89.99970000
_cell_angle_beta   90.00000000
_cell_angle_gamma   89.99950000
_symmetry_Int_Tables_number   1
_chemical_formula_structural   ZnH14C14(N3O)2
_chemical_formula_sum   'Zn4 H56 C56 N24 O8'
_cell_volume   1562.44707957
_cell_formula_units_Z   4
loop_
 _symmetry_equiv_pos_site_id
 _symmetry_equiv_pos_as_xyz
  1  'x, y, z'
loop_
 _atom_site_type_symbol
 _atom_site_label
 _atom_site_symmetry_multiplicity
 _atom_site_fract_x
 _atom_site_fract_y
 _atom_site_fract_z
 _atom_site_occupancy
  Zn  Zn0  1  0.27785000  0.04251000  0.00275000  1.0
  Zn  Zn1  1  0.22215000  0.95749000  0.50275000  1.0
  Zn  Zn2  1  0.72215000  0.54251000  0.49725000  1.0
  Zn  Zn3  1  0.77786000  0.45749000  0.99725000  1.0
  H  H4  1  0.29036000  0.98461000  0.10167000  1.0
  H  H5  1  0.20964000  0.01538000  0.60167000  1.0
  H  H6  1  0.70964000  0.48462000  0.39833000  1.0
  H  H7  1  0.79036000  0.51538000  0.89833000  1.0
  H  H8  1  0.66384000  0.99258000  0.22350000  1.0
  H  H9  1  0.83618000  0.00743000  0.72350000  1.0
  H  H10  1  0.33616000  0.49258000  0.27651000  1.0
  H  H11  1  0.16384000  0.50741000  0.77650000  1.0
  H  H12  1  0.20644000  0.70033000  0.07635000  1.0
  H  H13  1  0.29356000  0.29966000  0.57635000  1.0
  H  H14  1  0.79356000  0.20033000  0.42365000  1.0
  H  H15  1  0.70644000  0.79967000  0.92365000  1.0
  H  H16  1  0.96670000  0.65274000  0.07641000  1.0
  H  H17  1  0.53330000  0.34725000  0.57642000  1.0
  H  H18  1  0.03331000  0.15275000  0.42358000  1.0
  H  H19  1  0.46669000  0.84725000  0.92358000  1.0
  H  H20  1  0.90268000  0.95889000  0.06335000  1.0
  H  H21  1  0.59733000  0.04111000  0.56335000  1.0
  H  H22  1  0.09732000  0.45890000  0.43665000  1.0
  H  H23  1  0.40268000  0.54111000  0.93665000  1.0
  H  H24  1  0.98012000  0.89514000  0.12371000  1.0
  H  H25  1  0.51988000  0.10485000  0.62371000  1.0
  H  H26  1  0.01989000  0.39515000  0.37629000  1.0
  H  H27  1  0.48011000  0.60485000  0.87629000  1.0
  H  H28  1  0.02450000  0.18426000  0.12684000  1.0
  H  H29  1  0.47550000  0.81573000  0.62684000  1.0
  H  H30  1  0.97549000  0.68427000  0.37316000  1.0
  H  H31  1  0.52451000  0.31573000  0.87316000  1.0
  H  H32  1  0.40074000  0.28827000  0.08021000  1.0
  H  H33  1  0.09926000  0.71172000  0.58021000  1.0
  H  H34  1  0.59926000  0.78829000  0.41979000  1.0
  H  H35  1  0.90074000  0.21172000  0.91979000  1.0
  H  H36  1  0.25285000  0.41230000  0.11737000  1.0
  H  H37  1  0.24715000  0.58770000  0.61737000  1.0
  H  H38  1  0.74714000  0.91231000  0.38263000  1.0
  H  H39  1  0.75286000  0.08770000  0.88263000  1.0
  H  H40  1  0.64379000  0.09317000  0.13371000  1.0
  H  H41  1  0.85622000  0.90683000  0.63371000  1.0
  H  H42  1  0.35620000  0.59319000  0.36630000  1.0
  H  H43  1  0.14379000  0.40681000  0.86629000  1.0
  H  H44  1  0.03987000  0.36133000  0.20407000  1.0
  H  H45  1  0.46014000  0.63867000  0.70407000  1.0
  H  H46  1  0.96012000  0.86132000  0.29593000  1.0
  H  H47  1  0.53987000  0.13868000  0.79593000  1.0
  H  H48  1  0.95794000  0.31111000  0.29351000  1.0
  H  H49  1  0.54207000  0.68889000  0.79351000  1.0
  H  H50  1  0.04206000  0.81109000  0.20649000  1.0
  H  H51  1  0.45793000  0.18891000  0.70649000  1.0
  H  H52  1  0.16657000  0.14248000  0.34877000  1.0
  H  H53  1  0.33343000  0.85753000  0.84877000  1.0
  H  H54  1  0.83341000  0.64246000  0.15123000  1.0
  H  H55  1  0.66658000  0.35753000  0.65123000  1.0
  H  H56  1  0.45510000  0.02020000  0.31539000  1.0
  H  H57  1  0.04491000  0.97982000  0.81539000  1.0
  H  H58  1  0.54489000  0.52018000  0.18461000  1.0
  H  H59  1  0.95511000  0.47980000  0.68461000  1.0
  C  C60  1  0.06669000  0.73508000  0.00583000  1.0
  C  C61  1  0.43331000  0.26492000  0.50583000  1.0
  C  C62  1  0.93332000  0.23509000  0.49417000  1.0
  C  C63  1  0.56669000  0.76492000  0.99417000  1.0
  C  C64  1  0.06899000  0.74061000  0.06226000  1.0
  C  C65  1  0.43101000  0.25938000  0.56226000  1.0
  C  C66  1  0.93102000  0.24062000  0.43774000  1.0
  C  C67  1  0.56899000  0.75938000  0.93774000  1.0
  C  C68  1  0.02296000  0.90782000  0.08384000  1.0
  C  C69  1  0.47705000  0.09218000  0.58384000  1.0
  C  C70  1  0.97704000  0.40783000  0.41616000  1.0
  C  C71  1  0.52296000  0.59218000  0.91616000  1.0
  C  C72  1  0.12449000  0.18763000  0.09507000  1.0
  C  C73  1  0.37551000  0.81236000  0.59507000  1.0
  C  C74  1  0.87550000  0.68764000  0.40492000  1.0
  C  C75  1  0.62450000  0.31236000  0.90493000  1.0
  C  C76  1  0.02737000  0.26798000  0.05024000  1.0
  C  C77  1  0.47263000  0.73201000  0.55024000  1.0
  C  C78  1  0.97262000  0.76798000  0.44976000  1.0
  C  C79  1  0.52737000  0.23202000  0.94976000  1.0
  C  C80  1  0.29840000  0.28663000  0.11138000  1.0
  C  C81  1  0.20161000  0.71336000  0.61138000  1.0
  C  C82  1  0.70159000  0.78664000  0.38862000  1.0
  C  C83  1  0.79840000  0.21336000  0.88862000  1.0
  C  C84  1  0.38154000  0.21692000  0.15843000  1.0
  C  C85  1  0.11847000  0.78307000  0.65843000  1.0
  C  C86  1  0.61845000  0.71694000  0.34158000  1.0
  C  C87  1  0.88154000  0.28306000  0.84158000  1.0
  C  C88  1  0.54248000  0.12502000  0.16262000  1.0
  C  C89  1  0.95753000  0.87499000  0.66262000  1.0
  C  C90  1  0.45751000  0.62503000  0.33739000  1.0
  C  C91  1  0.04248000  0.37497000  0.83739000  1.0
  C  C92  1  0.29566000  0.21716000  0.20775000  1.0
  C  C93  1  0.20435000  0.78284000  0.70775000  1.0
  C  C94  1  0.70433000  0.71716000  0.29225000  1.0
  C  C95  1  0.79566000  0.28284000  0.79225000  1.0
  C  C96  1  0.13164000  0.28724000  0.22756000  1.0
  C  C97  1  0.36837000  0.71277000  0.72756000  1.0
  C  C98  1  0.86835000  0.78724000  0.27244000  1.0
  C  C99  1  0.63164000  0.21277000  0.77244000  1.0
  C  C100  1  0.08645000  0.25909000  0.27814000  1.0
  C  C101  1  0.41355000  0.74092000  0.77815000  1.0
  C  C102  1  0.91354000  0.75908000  0.22186000  1.0
  C  C103  1  0.58645000  0.24092000  0.72186000  1.0
  C  C104  1  0.20261000  0.16324000  0.30927000  1.0
  C  C105  1  0.29740000  0.83677000  0.80927000  1.0
  C  C106  1  0.79738000  0.66322000  0.19073000  1.0
  C  C107  1  0.70261000  0.33678000  0.69073000  1.0
  C  C108  1  0.36695000  0.09409000  0.29090000  1.0
  C  C109  1  0.13306000  0.90592000  0.79090000  1.0
  C  C110  1  0.63304000  0.59408000  0.20911000  1.0
  C  C111  1  0.86695000  0.40592000  0.70911000  1.0
  C  C112  1  0.41218000  0.12180000  0.24015000  1.0
  C  C113  1  0.08784000  0.87821000  0.74015000  1.0
  C  C114  1  0.58781000  0.62179000  0.25985000  1.0
  C  C115  1  0.91218000  0.37820000  0.75985000  1.0
  N  N116  1  0.12646000  0.85487000  0.97566000  1.0
  N  N117  1  0.37355000  0.14513000  0.47566000  1.0
  N  N118  1  0.87355000  0.35487000  0.52434000  1.0
  N  N119  1  0.62646000  0.64513000  0.02434000  1.0
  N  N120  1  0.09969000  0.80671000  0.92727000  1.0
  N  N121  1  0.40031000  0.19329000  0.42727000  1.0
  N  N122  1  0.90030000  0.30671000  0.57273000  1.0
  N  N123  1  0.59970000  0.69329000  0.07273000  1.0
  N  N124  1  0.02493000  0.66259000  0.92806000  1.0
  N  N125  1  0.47508000  0.33741000  0.42806000  1.0
  N  N126  1  0.97507000  0.16259000  0.57194000  1.0
  N  N127  1  0.52493000  0.83741000  0.07194000  1.0
  N  N128  1  0.00209000  0.61425000  0.97687000  1.0
  N  N129  1  0.49792000  0.38575000  0.47687000  1.0
  N  N130  1  0.99792000  0.11425000  0.52313000  1.0
  N  N131  1  0.50209000  0.88575000  0.02313000  1.0
  N  N132  1  0.17999000  0.02395000  0.07987000  1.0
  N  N133  1  0.32001000  0.97605000  0.57987000  1.0
  N  N134  1  0.82001000  0.52396000  0.42012000  1.0
  N  N135  1  0.67999000  0.47605000  0.92012000  1.0
  N  N136  1  0.56163000  0.06919000  0.21149000  1.0
  N  N137  1  0.93838000  0.93082000  0.71149000  1.0
  N  N138  1  0.43836000  0.56920000  0.28851000  1.0
  N  N139  1  0.06163000  0.43080000  0.78851000  1.0
  O  O140  1  0.07985000  0.23253000  0.00567000  1.0
  O  O141  1  0.42015000  0.76748000  0.50566000  1.0
  O  O142  1  0.92014000  0.73254000  0.49433000  1.0
  O  O143  1  0.57985000  0.26747000  0.99433000  1.0
  O  O144  1  0.89851000  0.36897000  0.06046000  1.0
  O  O145  1  0.60148000  0.63103000  0.56046000  1.0
  O  O146  1  0.10150000  0.86897000  0.43954000  1.0
  O  O147  1  0.39851000  0.13103000  0.93954000  1.0
