# generated using pymatgen
data_SnH11C10Cl3O2
_symmetry_space_group_name_H-M   'P 1'
_cell_length_a   9.62430000
_cell_length_b   9.66725000
_cell_length_c   15.02380000
_cell_angle_alpha   90.00040000
_cell_angle_beta   106.21200000
_cell_angle_gamma   89.99960000
_symmetry_Int_Tables_number   1
_chemical_formula_structural   SnH11C10Cl3O2
_chemical_formula_sum   'Sn4 H44 C40 Cl12 O8'
_cell_volume   1342.23800741
_cell_formula_units_Z   4
loop_
 _symmetry_equiv_pos_site_id
 _symmetry_equiv_pos_as_xyz
  1  'x, y, z'
loop_
 _atom_site_type_symbol
 _atom_site_label
 _atom_site_symmetry_multiplicity
 _atom_site_fract_x
 _atom_site_fract_y
 _atom_site_fract_z
 _atom_site_occupancy
  Sn  Sn0  1  0.58178000  0.27473000  0.74981000  1.0
  Sn  Sn1  1  0.41822000  0.77473000  0.75020000  1.0
  Sn  Sn2  1  0.41823000  0.72526000  0.25019000  1.0
  Sn  Sn3  1  0.58177000  0.22526000  0.24980000  1.0
  H  H4  1  0.06606000  0.66258000  0.80126000  1.0
  H  H5  1  0.93394000  0.16258000  0.69874000  1.0
  H  H6  1  0.93394000  0.33742000  0.19875000  1.0
  H  H7  1  0.06606000  0.83741000  0.30126000  1.0
  H  H8  1  0.00935000  0.75594000  0.07076000  1.0
  H  H9  1  0.99065000  0.25593000  0.42924000  1.0
  H  H10  1  0.99065000  0.24407000  0.92924000  1.0
  H  H11  1  0.00934000  0.74407000  0.57076000  1.0
  H  H12  1  0.68306000  0.52237000  0.71380000  1.0
  H  H13  1  0.31693000  0.02237000  0.78621000  1.0
  H  H14  1  0.31694000  0.47763000  0.28621000  1.0
  H  H15  1  0.68307000  0.97762000  0.21380000  1.0
  H  H16  1  0.81208000  0.39216000  0.70780000  1.0
  H  H17  1  0.18792000  0.89216000  0.79221000  1.0
  H  H18  1  0.18793000  0.60785000  0.29221000  1.0
  H  H19  1  0.81208000  0.10784000  0.20779000  1.0
  H  H20  1  0.80386000  0.45514000  0.81781000  1.0
  H  H21  1  0.19613000  0.95514000  0.68220000  1.0
  H  H22  1  0.19614000  0.54486000  0.18220000  1.0
  H  H23  1  0.80386000  0.04486000  0.31781000  1.0
  H  H24  1  0.39867000  0.20773000  0.85241000  1.0
  H  H25  1  0.60132000  0.70773000  0.64759000  1.0
  H  H26  1  0.60133000  0.79227000  0.14759000  1.0
  H  H27  1  0.39868000  0.29227000  0.35241000  1.0
  H  H28  1  0.50499000  0.35359000  0.90276000  1.0
  H  H29  1  0.49500000  0.85359000  0.59724000  1.0
  H  H30  1  0.49501000  0.64641000  0.09723000  1.0
  H  H31  1  0.50499000  0.14641000  0.40276000  1.0
  H  H32  1  0.58208000  0.18350000  0.91982000  1.0
  H  H33  1  0.41791000  0.68350000  0.58018000  1.0
  H  H34  1  0.41792000  0.81650000  0.08018000  1.0
  H  H35  1  0.58209000  0.31650000  0.41982000  1.0
  H  H36  1  0.38097000  0.12573000  0.62311000  1.0
  H  H37  1  0.61903000  0.62573000  0.87689000  1.0
  H  H38  1  0.61903000  0.87428000  0.37689000  1.0
  H  H39  1  0.38097000  0.37428000  0.12311000  1.0
  H  H40  1  0.55631000  0.09618000  0.60726000  1.0
  H  H41  1  0.44369000  0.59618000  0.89274000  1.0
  H  H42  1  0.44368000  0.90382000  0.39273000  1.0
  H  H43  1  0.55632000  0.40382000  0.10726000  1.0
  H  H44  1  0.45956000  0.25184000  0.56427000  1.0
  H  H45  1  0.54044000  0.75184000  0.93573000  1.0
  H  H46  1  0.54044000  0.74816000  0.43573000  1.0
  H  H47  1  0.45956000  0.24816000  0.06427000  1.0
  C  C48  1  0.71931000  0.99755000  0.81447000  1.0
  C  C49  1  0.28069000  0.49755000  0.68553000  1.0
  C  C50  1  0.28070000  0.00245000  0.18553000  1.0
  C  C51  1  0.71931000  0.50244000  0.31447000  1.0
  C  C52  1  0.83336000  0.89256000  0.85886000  1.0
  C  C53  1  0.16664000  0.39256000  0.64113000  1.0
  C  C54  1  0.16665000  0.10744000  0.14114000  1.0
  C  C55  1  0.83336000  0.60744000  0.35886000  1.0
  C  C56  1  0.90675000  0.81837000  0.80585000  1.0
  C  C57  1  0.09325000  0.31836000  0.69415000  1.0
  C  C58  1  0.09325000  0.18164000  0.19415000  1.0
  C  C59  1  0.90676000  0.68163000  0.30585000  1.0
  C  C60  1  0.01198000  0.71959000  0.84452000  1.0
  C  C61  1  0.98802000  0.21959000  0.65548000  1.0
  C  C62  1  0.98802000  0.28041000  0.15548000  1.0
  C  C63  1  0.01198000  0.78040000  0.34452000  1.0
  C  C64  1  0.04653000  0.69824000  0.94000000  1.0
  C  C65  1  0.95347000  0.19823000  0.56000000  1.0
  C  C66  1  0.95347000  0.30177000  0.06000000  1.0
  C  C67  1  0.04653000  0.80176000  0.44000000  1.0
  C  C68  1  0.97813000  0.77082000  0.99610000  1.0
  C  C69  1  0.02187000  0.27081000  0.50389000  1.0
  C  C70  1  0.02187000  0.22918000  0.00390000  1.0
  C  C71  1  0.97813000  0.72918000  0.49610000  1.0
  C  C72  1  0.87061000  0.86577000  0.95432000  1.0
  C  C73  1  0.12939000  0.36576000  0.54568000  1.0
  C  C74  1  0.12940000  0.13424000  0.04568000  1.0
  C  C75  1  0.87060000  0.63423000  0.45431000  1.0
  C  C76  1  0.73983000  0.42992000  0.74724000  1.0
  C  C77  1  0.26017000  0.92992000  0.75277000  1.0
  C  C78  1  0.26018000  0.57008000  0.25277000  1.0
  C  C79  1  0.73983000  0.07008000  0.24723000  1.0
  C  C80  1  0.50752000  0.25209000  0.87099000  1.0
  C  C81  1  0.49247000  0.75209000  0.62901000  1.0
  C  C82  1  0.49248000  0.74791000  0.12900000  1.0
  C  C83  1  0.50753000  0.24791000  0.37099000  1.0
  C  C84  1  0.48210000  0.17484000  0.61997000  1.0
  C  C85  1  0.51790000  0.67483000  0.88003000  1.0
  C  C86  1  0.51790000  0.82517000  0.38003000  1.0
  C  C87  1  0.48210000  0.32517000  0.11997000  1.0
  Cl  Cl88  1  0.86680000  0.85231000  0.68848000  1.0
  Cl  Cl89  1  0.13320000  0.35231000  0.81152000  1.0
  Cl  Cl90  1  0.13320000  0.14769000  0.31152000  1.0
  Cl  Cl91  1  0.86681000  0.64768000  0.18848000  1.0
  Cl  Cl92  1  0.17978000  0.57961000  0.99068000  1.0
  Cl  Cl93  1  0.82022000  0.07960000  0.50932000  1.0
  Cl  Cl94  1  0.82022000  0.42040000  0.00932000  1.0
  Cl  Cl95  1  0.17978000  0.92039000  0.49068000  1.0
  Cl  Cl96  1  0.78295000  0.95409000  0.02319000  1.0
  Cl  Cl97  1  0.21704000  0.45408000  0.47680000  1.0
  Cl  Cl98  1  0.21705000  0.04592000  0.97680000  1.0
  Cl  Cl99  1  0.78295000  0.54592000  0.52319000  1.0
  O  O100  1  0.76457000  0.11894000  0.80271000  1.0
  O  O101  1  0.23543000  0.61894000  0.69729000  1.0
  O  O102  1  0.23544000  0.88106000  0.19729000  1.0
  O  O103  1  0.76457000  0.38105000  0.30271000  1.0
  O  O104  1  0.58762000  0.96404000  0.79208000  1.0
  O  O105  1  0.41237000  0.46404000  0.70792000  1.0
  O  O106  1  0.41238000  0.03596000  0.20792000  1.0
  O  O107  1  0.58763000  0.53596000  0.29207000  1.0
