# generated using pymatgen
data_ZnH14C8N2O7
_symmetry_space_group_name_H-M   'P 1'
_cell_length_a   8.40138000
_cell_length_b   9.45717000
_cell_length_c   17.61990000
_cell_angle_alpha   89.99920000
_cell_angle_beta   89.99970000
_cell_angle_gamma   76.03700000
_symmetry_Int_Tables_number   1
_chemical_formula_structural   ZnH14C8N2O7
_chemical_formula_sum   'Zn4 H56 C32 N8 O28'
_cell_volume   1358.59249561
_cell_formula_units_Z   4
loop_
 _symmetry_equiv_pos_site_id
 _symmetry_equiv_pos_as_xyz
  1  'x, y, z'
loop_
 _atom_site_type_symbol
 _atom_site_label
 _atom_site_symmetry_multiplicity
 _atom_site_fract_x
 _atom_site_fract_y
 _atom_site_fract_z
 _atom_site_occupancy
  Zn  Zn0  1  0.69046000  0.20241000  0.84064000  1.0
  Zn  Zn1  1  0.80955000  0.79758000  0.34064000  1.0
  Zn  Zn2  1  0.30954000  0.79758000  0.15936000  1.0
  Zn  Zn3  1  0.19047000  0.20241000  0.65935000  1.0
  H  H4  1  0.93204000  0.50990000  0.85149000  1.0
  H  H5  1  0.56797000  0.49010000  0.35150000  1.0
  H  H6  1  0.06796000  0.49010000  0.14850000  1.0
  H  H7  1  0.43203000  0.50990000  0.64850000  1.0
  H  H8  1  0.79062000  0.50061000  0.77682000  1.0
  H  H9  1  0.70938000  0.49939000  0.27683000  1.0
  H  H10  1  0.20937000  0.49939000  0.22317000  1.0
  H  H11  1  0.29062000  0.50061000  0.72317000  1.0
  H  H12  1  0.91788000  0.33180000  0.96023000  1.0
  H  H13  1  0.58212000  0.66820000  0.46023000  1.0
  H  H14  1  0.08212000  0.66820000  0.03977000  1.0
  H  H15  1  0.41788000  0.33180000  0.53977000  1.0
  H  H16  1  0.71408000  0.33598000  0.99005000  1.0
  H  H17  1  0.78593000  0.66402000  0.49005000  1.0
  H  H18  1  0.28592000  0.66403000  0.00995000  1.0
  H  H19  1  0.21407000  0.33598000  0.50995000  1.0
  H  H20  1  0.49301000  0.49793000  0.91755000  1.0
  H  H21  1  0.00699000  0.50207000  0.41756000  1.0
  H  H22  1  0.50699000  0.50208000  0.08245000  1.0
  H  H23  1  0.99301000  0.49792000  0.58245000  1.0
  H  H24  1  0.52662000  0.53796000  0.82146000  1.0
  H  H25  1  0.97339000  0.46204000  0.32147000  1.0
  H  H26  1  0.47338000  0.46204000  0.17854000  1.0
  H  H27  1  0.02661000  0.53796000  0.67854000  1.0
  H  H28  1  0.67404000  0.72153000  0.85540000  1.0
  H  H29  1  0.82596000  0.27847000  0.35541000  1.0
  H  H30  1  0.32595000  0.27847000  0.14460000  1.0
  H  H31  1  0.17404000  0.72153000  0.64460000  1.0
  H  H32  1  0.49524000  0.75613000  0.91182000  1.0
  H  H33  1  0.00476000  0.24388000  0.41183000  1.0
  H  H34  1  0.50475000  0.24388000  0.08818000  1.0
  H  H35  1  0.99525000  0.75613000  0.58818000  1.0
  H  H36  1  0.72063000  0.88211000  0.96597000  1.0
  H  H37  1  0.77935000  0.11789000  0.46598000  1.0
  H  H38  1  0.27936000  0.11790000  0.03403000  1.0
  H  H39  1  0.22064000  0.88210000  0.53403000  1.0
  H  H40  1  0.83198000  0.77889000  0.04122000  1.0
  H  H41  1  0.66801000  0.22112000  0.54123000  1.0
  H  H42  1  0.16801000  0.22112000  0.95877000  1.0
  H  H43  1  0.33199000  0.77889000  0.45877000  1.0
  H  H44  1  0.55680000  0.00182000  0.83815000  1.0
  H  H45  1  0.94319000  0.99819000  0.33815000  1.0
  H  H46  1  0.44319000  0.99818000  0.16185000  1.0
  H  H47  1  0.05680000  0.00182000  0.66186000  1.0
  H  H48  1  0.57815000  0.04764000  0.75295000  1.0
  H  H49  1  0.92186000  0.95236000  0.25295000  1.0
  H  H50  1  0.42185000  0.95236000  0.24705000  1.0
  H  H51  1  0.07815000  0.04764000  0.74706000  1.0
  H  H52  1  0.96614000  0.06823000  0.89868000  1.0
  H  H53  1  0.53387000  0.93176000  0.39868000  1.0
  H  H54  1  0.03386000  0.93177000  0.10132000  1.0
  H  H55  1  0.46614000  0.06822000  0.60132000  1.0
  H  H56  1  0.90340000  0.08135000  0.98240000  1.0
  H  H57  1  0.59662000  0.91862000  0.48240000  1.0
  H  H58  1  0.09660000  0.91864000  0.01760000  1.0
  H  H59  1  0.40341000  0.08133000  0.51760000  1.0
  C  C60  1  0.96936000  0.30568000  0.79458000  1.0
  C  C61  1  0.53066000  0.69432000  0.29458000  1.0
  C  C62  1  0.03064000  0.69431000  0.20542000  1.0
  C  C63  1  0.46936000  0.30569000  0.70542000  1.0
  C  C64  1  0.85540000  0.44292000  0.82631000  1.0
  C  C65  1  0.64461000  0.55707000  0.32631000  1.0
  C  C66  1  0.14460000  0.55707000  0.17369000  1.0
  C  C67  1  0.35539000  0.44293000  0.67369000  1.0
  C  C68  1  0.79049000  0.39579000  0.95873000  1.0
  C  C69  1  0.70953000  0.60422000  0.45873000  1.0
  C  C70  1  0.20952000  0.60422000  0.04127000  1.0
  C  C71  1  0.29048000  0.39578000  0.54127000  1.0
  C  C72  1  0.78863000  0.53509000  0.00222000  1.0
  C  C73  1  0.71138000  0.46492000  0.50223000  1.0
  C  C74  1  0.21137000  0.46492000  0.99777000  1.0
  C  C75  1  0.28863000  0.53508000  0.49777000  1.0
  C  C76  1  0.57942000  0.53098000  0.87861000  1.0
  C  C77  1  0.92059000  0.46902000  0.37862000  1.0
  C  C78  1  0.42058000  0.46902000  0.12139000  1.0
  C  C79  1  0.07942000  0.53097000  0.62139000  1.0
  C  C80  1  0.61206000  0.67620000  0.90131000  1.0
  C  C81  1  0.88795000  0.32380000  0.40132000  1.0
  C  C82  1  0.38794000  0.32380000  0.09868000  1.0
  C  C83  1  0.11206000  0.67620000  0.59868000  1.0
  C  C84  1  0.71803000  0.79764000  0.00826000  1.0
  C  C85  1  0.78196000  0.20236000  0.50827000  1.0
  C  C86  1  0.28195000  0.20237000  0.99174000  1.0
  C  C87  1  0.21804000  0.79764000  0.49173000  1.0
  C  C88  1  0.57894000  0.85450000  0.06452000  1.0
  C  C89  1  0.92106000  0.14550000  0.56453000  1.0
  C  C90  1  0.42106000  0.14550000  0.93547000  1.0
  C  C91  1  0.07894000  0.85450000  0.43548000  1.0
  N  N92  1  0.73194000  0.41262000  0.87941000  1.0
  N  N93  1  0.76807000  0.58738000  0.37941000  1.0
  N  N94  1  0.26806000  0.58738000  0.12059000  1.0
  N  N95  1  0.23194000  0.41262000  0.62059000  1.0
  N  N96  1  0.71172000  0.66350000  0.97024000  1.0
  N  N97  1  0.78828000  0.33650000  0.47025000  1.0
  N  N98  1  0.28828000  0.33650000  0.02975000  1.0
  N  N99  1  0.21171000  0.66350000  0.52975000  1.0
  O  O100  1  0.93728000  0.18123000  0.80697000  1.0
  O  O101  1  0.56272000  0.81877000  0.30697000  1.0
  O  O102  1  0.06272000  0.81877000  0.19303000  1.0
  O  O103  1  0.43729000  0.18123000  0.69304000  1.0
  O  O104  1  0.08770000  0.32369000  0.75508000  1.0
  O  O105  1  0.41232000  0.67630000  0.25507000  1.0
  O  O106  1  0.91230000  0.67631000  0.24492000  1.0
  O  O107  1  0.58770000  0.32370000  0.74493000  1.0
  O  O108  1  0.85779000  0.52614000  0.06516000  1.0
  O  O109  1  0.64222000  0.47387000  0.56517000  1.0
  O  O110  1  0.14222000  0.47387000  0.93483000  1.0
  O  O111  1  0.35779000  0.52613000  0.43483000  1.0
  O  O112  1  0.47697000  0.77517000  0.07496000  1.0
  O  O113  1  0.02303000  0.22482000  0.57496000  1.0
  O  O114  1  0.52303000  0.22483000  0.92503000  1.0
  O  O115  1  0.97697000  0.77518000  0.42504000  1.0
  O  O116  1  0.57798000  0.97360000  0.09702000  1.0
  O  O117  1  0.92201000  0.02640000  0.59702000  1.0
  O  O118  1  0.42201000  0.02640000  0.90298000  1.0
  O  O119  1  0.07798000  0.97361000  0.40298000  1.0
  O  O120  1  0.64354000  0.01139000  0.79883000  1.0
  O  O121  1  0.85646000  0.98860000  0.29883000  1.0
  O  O122  1  0.35646000  0.98860000  0.20117000  1.0
  O  O123  1  0.14354000  0.01139000  0.70117000  1.0
  O  O124  1  0.89381000  0.03359000  0.93409000  1.0
  O  O125  1  0.60617000  0.96642000  0.43410000  1.0
  O  O126  1  0.10619000  0.96641000  0.06591000  1.0
  O  O127  1  0.39377000  0.03362000  0.56592000  1.0
