# generated using pymatgen
data_Zn4H12C20O13F
_symmetry_space_group_name_H-M   'P 1'
_cell_length_a   18.54720000
_cell_length_b   18.57220000
_cell_length_c   18.59870000
_cell_angle_alpha   119.76600000
_cell_angle_beta   90.55650000
_cell_angle_gamma   119.43900000
_symmetry_Int_Tables_number   1
_chemical_formula_structural   Zn4H12C20O13F
_chemical_formula_sum   'Zn8 H24 C40 O26 F2'
_cell_volume   4562.28011612
_cell_formula_units_Z   2
loop_
 _symmetry_equiv_pos_site_id
 _symmetry_equiv_pos_as_xyz
  1  'x, y, z'
loop_
 _atom_site_type_symbol
 _atom_site_label
 _atom_site_symmetry_multiplicity
 _atom_site_fract_x
 _atom_site_fract_y
 _atom_site_fract_z
 _atom_site_occupancy
  Zn  Zn0  1  0.54208000  0.08796000  0.95540000  1.0
  Zn  Zn1  1  0.54217000  0.08522000  0.12618000  1.0
  Zn  Zn2  1  0.53941000  0.91236000  0.95237000  1.0
  Zn  Zn3  1  0.36840000  0.91607000  0.95383000  1.0
  Zn  Zn4  1  0.95934000  0.91314000  0.54535000  1.0
  Zn  Zn5  1  0.96089000  0.08600000  0.54535000  1.0
  Zn  Zn6  1  0.95908000  0.91364000  0.37293000  1.0
  Zn  Zn7  1  0.13310000  0.08283000  0.54517000  1.0
  H  H8  1  0.27778000  0.95305000  0.61048000  1.0
  H  H9  1  0.78509000  0.87867000  0.19062000  1.0
  H  H10  1  0.22378000  0.83299000  0.67798000  1.0
  H  H11  1  0.77603000  0.04223000  0.34900000  1.0
  H  H12  1  0.72664000  0.06489000  0.25671000  1.0
  H  H13  1  0.79266000  0.59384000  0.18890000  1.0
  H  H14  1  0.70727000  0.40807000  0.09519000  1.0
  H  H15  1  0.22231000  0.04636000  0.89014000  1.0
  H  H16  1  0.40428000  0.12467000  0.77961000  1.0
  H  H17  1  0.80249000  0.89664000  0.70998000  1.0
  H  H18  1  0.77994000  0.04367000  0.69634000  1.0
  H  H19  1  0.72154000  0.06884000  0.80257000  1.0
  H  H20  1  0.69731000  0.88637000  0.79090000  1.0
  H  H21  1  0.80157000  0.58174000  0.34788000  1.0
  H  H22  1  0.69746000  0.41718000  0.26461000  1.0
  H  H23  1  0.09587000  0.87484000  0.72100000  1.0
  H  H24  1  0.27632000  0.16646000  0.82264000  1.0
  H  H25  1  0.15625000  0.41586000  0.71669000  1.0
  H  H26  1  0.40423000  0.59690000  0.80010000  1.0
  H  H27  1  0.23022000  0.58091000  0.78083000  1.0
  H  H28  1  0.31382000  0.10105000  0.40442000  1.0
  H  H29  1  0.15349000  0.95665000  0.23575000  1.0
  H  H30  1  0.40572000  0.11175000  0.31050000  1.0
  H  H31  1  0.23511000  0.93233000  0.15201000  1.0
  C  C32  1  0.36273000  0.99690000  0.13550000  1.0
  C  C33  1  0.69815000  0.00822000  0.81145000  1.0
  C  C34  1  0.28189000  0.44827000  0.72331000  1.0
  C  C35  1  0.63855000  0.00273000  0.86359000  1.0
  C  C36  1  0.19362000  0.38318000  0.69588000  1.0
  C  C37  1  0.33297000  0.55795000  0.77769000  1.0
  C  C38  1  0.30041000  0.61409000  0.80139000  1.0
  C  C39  1  0.28034000  0.05486000  0.33360000  1.0
  C  C40  1  0.19182000  0.00252000  0.30505000  1.0
  C  C41  1  0.33473000  0.05564000  0.27795000  1.0
  C  C42  1  0.30476000  0.99172000  0.18937000  1.0
  C  C43  1  0.16463000  0.93017000  0.73445000  1.0
  C  C44  1  0.76548000  0.93042000  0.22354000  1.0
  C  C45  1  0.79554000  0.99151000  0.31201000  1.0
  C  C46  1  0.70807000  0.92700000  0.16656000  1.0
  C  C47  1  0.63289000  0.27453000  0.13568000  1.0
  C  C48  1  0.69329000  0.99858000  0.18890000  1.0
  C  C49  1  0.77746000  0.55543000  0.22162000  1.0
  C  C50  1  0.81232000  0.61388000  0.31019000  1.0
  C  C51  1  0.72221000  0.44566000  0.16618000  1.0
  C  C52  1  0.68718000  0.38611000  0.19505000  1.0
  C  C53  1  0.14066000  0.27200000  0.63963000  1.0
  C  C54  1  0.23383000  0.02561000  0.82734000  1.0
  C  C55  1  0.86711000  0.72552000  0.36365000  1.0
  C  C56  1  0.86182000  0.99636000  0.63536000  1.0
  C  C57  1  0.13925000  0.00211000  0.36423000  1.0
  C  C58  1  0.85797000  0.99456000  0.36566000  1.0
  C  C59  1  0.35854000  0.72615000  0.85765000  1.0
  C  C60  1  0.13875000  0.99624000  0.64076000  1.0
  C  C61  1  0.63602000  0.99695000  0.13197000  1.0
  C  C62  1  0.36165000  0.00347000  0.85986000  1.0
  C  C63  1  0.23468000  0.90696000  0.70936000  1.0
  C  C64  1  0.26633000  0.97388000  0.67330000  1.0
  C  C65  1  0.26549000  0.09254000  0.79128000  1.0
  C  C66  1  0.19506000  0.99621000  0.69793000  1.0
  C  C67  1  0.33554000  0.06933000  0.76618000  1.0
  C  C68  1  0.30515000  0.00334000  0.80272000  1.0
  C  C69  1  0.77839000  0.94366000  0.72333000  1.0
  C  C70  1  0.80251000  0.99656000  0.68775000  1.0
  C  C71  1  0.72194000  0.94324000  0.77686000  1.0
  O  O72  1  0.49771000  0.00014000  0.99683000  1.0
  O  O73  1  0.05582000  0.94461000  0.32545000  1.0
  O  O74  1  0.88403000  0.05948000  0.44862000  1.0
  O  O75  1  0.32279000  0.93709000  0.05223000  1.0
  O  O76  1  0.17901000  0.05599000  0.61771000  1.0
  O  O77  1  0.88048000  0.93404000  0.32562000  1.0
  O  O78  1  0.05564000  0.93735000  0.61967000  1.0
  O  O79  1  0.88502000  0.93631000  0.61592000  1.0
  O  O80  1  0.17948000  0.05696000  0.44687000  1.0
  O  O81  1  0.05730000  0.22981000  0.61813000  1.0
  O  O82  1  0.88784000  0.76885000  0.32389000  1.0
  O  O83  1  0.61346000  0.23236000  0.05276000  1.0
  O  O84  1  0.61861000  0.06630000  0.88741000  1.0
  O  O85  1  0.61011000  0.22976000  0.17432000  1.0
  O  O86  1  0.44139000  0.76840000  0.88004000  1.0
  O  O87  1  0.62016000  0.06414000  0.17287000  1.0
  O  O88  1  0.32146000  0.94395000  0.88316000  1.0
  O  O89  1  0.60808000  0.93183000  0.04906000  1.0
  O  O90  1  0.44475000  0.06223000  0.88075000  1.0
  O  O91  1  0.31908000  0.77021000  0.87834000  1.0
  O  O92  1  0.44581000  0.05889000  0.17487000  1.0
  O  O93  1  0.61189000  0.93656000  0.88028000  1.0
  O  O94  1  0.00348000  0.99902000  0.50198000  1.0
  O  O95  1  0.17932000  0.22728000  0.61726000  1.0
  O  O96  1  0.88899000  0.76912000  0.44696000  1.0
  O  O97  1  0.88495000  0.05842000  0.61410000  1.0
  F  F98  1  0.33369000  0.41423000  0.70091000  1.0
  F  F99  1  0.66947000  0.84175000  0.08354000  1.0
