# generated using pymatgen
data_ZnH11C14NO5
_symmetry_space_group_name_H-M   'P 1'
_cell_length_a   8.05160000
_cell_length_b   9.66368000
_cell_length_c   10.57240000
_cell_angle_alpha   107.62300000
_cell_angle_beta   100.47300000
_cell_angle_gamma   112.59300000
_symmetry_Int_Tables_number   1
_chemical_formula_structural   ZnH11C14NO5
_chemical_formula_sum   'Zn2 H22 C28 N2 O10'
_cell_volume   681.04587887
_cell_formula_units_Z   2
loop_
 _symmetry_equiv_pos_site_id
 _symmetry_equiv_pos_as_xyz
  1  'x, y, z'
loop_
 _atom_site_type_symbol
 _atom_site_label
 _atom_site_symmetry_multiplicity
 _atom_site_fract_x
 _atom_site_fract_y
 _atom_site_fract_z
 _atom_site_occupancy
  Zn  Zn0  1  0.71171000  0.65847000  0.52178000  1.0
  Zn  Zn1  1  0.28830000  0.34153000  0.47822000  1.0
  H  H2  1  0.83074000  0.62684000  0.31587000  1.0
  H  H3  1  0.16926000  0.37317000  0.68412000  1.0
  H  H4  1  0.01344000  0.65124000  0.43356000  1.0
  H  H5  1  0.98657000  0.34877000  0.56643000  1.0
  H  H6  1  0.71381000  0.08301000  0.47410000  1.0
  H  H7  1  0.28620000  0.91700000  0.52590000  1.0
  H  H8  1  0.30841000  0.69231000  0.07932000  1.0
  H  H9  1  0.69159000  0.30769000  0.92068000  1.0
  H  H10  1  0.39301000  0.18909000  0.18044000  1.0
  H  H11  1  0.60699000  0.81091000  0.81956000  1.0
  H  H12  1  0.00062000  0.63496000  0.97546000  1.0
  H  H13  1  0.99937000  0.36504000  0.02454000  1.0
  H  H14  1  0.29129000  0.10112000  0.95041000  1.0
  H  H15  1  0.70871000  0.89888000  0.04960000  1.0
  H  H16  1  0.03460000  0.98195000  0.60500000  1.0
  H  H17  1  0.96540000  0.01805000  0.39501000  1.0
  H  H18  1  0.14147000  0.15312000  0.77169000  1.0
  H  H19  1  0.85853000  0.84688000  0.22832000  1.0
  H  H20  1  0.88758000  0.03202000  0.69420000  1.0
  H  H21  1  0.11242000  0.96798000  0.30580000  1.0
  H  H22  1  0.75462000  0.54421000  0.74796000  1.0
  H  H23  1  0.24538000  0.45578000  0.25204000  1.0
  C  C24  1  0.56442000  0.75541000  0.31911000  1.0
  C  C25  1  0.43558000  0.24460000  0.68089000  1.0
  C  C26  1  0.51454000  0.87576000  0.28021000  1.0
  C  C27  1  0.48547000  0.12424000  0.71979000  1.0
  C  C28  1  0.60890000  0.04210000  0.37234000  1.0
  C  C29  1  0.39111000  0.95790000  0.62766000  1.0
  C  C30  1  0.66276000  0.33165000  0.43519000  1.0
  C  C31  1  0.33724000  0.66835000  0.56480000  1.0
  C  C32  1  0.56707000  0.15465000  0.33445000  1.0
  C  C33  1  0.43294000  0.84535000  0.66554000  1.0
  C  C34  1  0.37622000  0.82199000  0.15079000  1.0
  C  C35  1  0.62379000  0.17801000  0.84921000  1.0
  C  C36  1  0.42774000  0.09994000  0.20534000  1.0
  C  C37  1  0.57226000  0.90006000  0.79466000  1.0
  C  C38  1  0.32870000  0.93286000  0.11288000  1.0
  C  C39  1  0.67129000  0.06714000  0.88712000  1.0
  C  C40  1  0.17449000  0.87504000  0.98051000  1.0
  C  C41  1  0.82550000  0.12496000  0.01950000  1.0
  C  C42  1  0.01698000  0.71711000  0.92195000  1.0
  C  C43  1  0.98301000  0.28288000  0.07805000  1.0
  C  C44  1  0.17504000  0.97650000  0.90973000  1.0
  C  C45  1  0.82496000  0.02350000  0.09028000  1.0
  C  C46  1  0.02416000  0.02831000  0.71022000  1.0
  C  C47  1  0.97584000  0.97169000  0.28979000  1.0
  C  C48  1  0.02968000  0.91945000  0.78357000  1.0
  C  C49  1  0.97032000  0.08055000  0.21643000  1.0
  C  C50  1  0.87822000  0.66556000  0.79514000  1.0
  C  C51  1  0.12177000  0.33444000  0.20486000  1.0
  N  N52  1  0.88636000  0.76239000  0.72490000  1.0
  N  N53  1  0.11364000  0.23761000  0.27511000  1.0
  O  O54  1  0.63186000  0.79943000  0.45390000  1.0
  O  O55  1  0.36816000  0.20057000  0.54609000  1.0
  O  O56  1  0.54183000  0.62765000  0.22485000  1.0
  O  O57  1  0.45817000  0.37236000  0.77514000  1.0
  O  O58  1  0.82083000  0.39627000  0.53057000  1.0
  O  O59  1  0.17917000  0.60374000  0.46942000  1.0
  O  O60  1  0.56990000  0.41291000  0.41744000  1.0
  O  O61  1  0.43010000  0.58709000  0.58255000  1.0
  O  O62  1  0.91347000  0.68835000  0.41452000  1.0
  O  O63  1  0.08654000  0.31166000  0.58548000  1.0
