# generated using pymatgen
data_CuH4C3(N2O)4
_symmetry_space_group_name_H-M   'P 1'
_cell_length_a   8.82209000
_cell_length_b   9.18365000
_cell_length_c   10.66340000
_cell_angle_alpha   90.00940000
_cell_angle_beta   90.01430000
_cell_angle_gamma   106.80100000
_symmetry_Int_Tables_number   1
_chemical_formula_structural   CuH4C3(N2O)4
_chemical_formula_sum   'Cu4 H16 C12 N32 O16'
_cell_volume   827.06015276
_cell_formula_units_Z   4
loop_
 _symmetry_equiv_pos_site_id
 _symmetry_equiv_pos_as_xyz
  1  'x, y, z'
loop_
 _atom_site_type_symbol
 _atom_site_label
 _atom_site_symmetry_multiplicity
 _atom_site_fract_x
 _atom_site_fract_y
 _atom_site_fract_z
 _atom_site_occupancy
  Cu  Cu0  1  0.67032000  0.18288000  0.93196000  1.0
  Cu  Cu1  1  0.32965000  0.31721000  0.43212000  1.0
  Cu  Cu2  1  0.32980000  0.81709000  0.06805000  1.0
  Cu  Cu3  1  0.67028000  0.68279000  0.56790000  1.0
  H  H4  1  0.81398000  0.74298000  0.08120000  1.0
  H  H5  1  0.18598000  0.75702000  0.58116000  1.0
  H  H6  1  0.18582000  0.25701000  0.91888000  1.0
  H  H7  1  0.81405000  0.24296000  0.41884000  1.0
  H  H8  1  0.90008000  0.57454000  0.91402000  1.0
  H  H9  1  0.09991000  0.92529000  0.41386000  1.0
  H  H10  1  0.10027000  0.42557000  0.08623000  1.0
  H  H11  1  0.90002000  0.07464000  0.58612000  1.0
  H  H12  1  0.91920000  0.31210000  0.79238000  1.0
  H  H13  1  0.08093000  0.18791000  0.29234000  1.0
  H  H14  1  0.08077000  0.68793000  0.20758000  1.0
  H  H15  1  0.91906000  0.81214000  0.70759000  1.0
  H  H16  1  0.91801000  0.13692000  0.81767000  1.0
  H  H17  1  0.08196000  0.36311000  0.31768000  1.0
  H  H18  1  0.08223000  0.86318000  0.18213000  1.0
  H  H19  1  0.91792000  0.63690000  0.68235000  1.0
  C  C20  1  0.63271000  0.40297000  0.10964000  1.0
  C  C21  1  0.36732000  0.09696000  0.60963000  1.0
  C  C22  1  0.36727000  0.59697000  0.89029000  1.0
  C  C23  1  0.63266000  0.90302000  0.39031000  1.0
  C  C24  1  0.81139000  0.53486000  0.98634000  1.0
  C  C25  1  0.18861000  0.96504000  0.48624000  1.0
  C  C26  1  0.18873000  0.46516000  0.01375000  1.0
  C  C27  1  0.81134000  0.03492000  0.51373000  1.0
  C  C28  1  0.52185000  0.26246000  0.15011000  1.0
  C  C29  1  0.47818000  0.23748000  0.65017000  1.0
  C  C30  1  0.47824000  0.73748000  0.84988000  1.0
  C  C31  1  0.52179000  0.76250000  0.34982000  1.0
  N  N32  1  0.40474000  0.02669000  0.12953000  1.0
  N  N33  1  0.59508000  0.47330000  0.62946000  1.0
  N  N34  1  0.59537000  0.97325000  0.87058000  1.0
  N  N35  1  0.40481000  0.52671000  0.37064000  1.0
  N  N36  1  0.35061000  0.07299000  0.23241000  1.0
  N  N37  1  0.64929000  0.42723000  0.73240000  1.0
  N  N38  1  0.64939000  0.92706000  0.76761000  1.0
  N  N39  1  0.35058000  0.57274000  0.26769000  1.0
  N  N40  1  0.42267000  0.22180000  0.24778000  1.0
  N  N41  1  0.57735000  0.27839000  0.74784000  1.0
  N  N42  1  0.57733000  0.77827000  0.75217000  1.0
  N  N43  1  0.42257000  0.72155000  0.25218000  1.0
  N  N44  1  0.72399000  0.39203000  0.00771000  1.0
  N  N45  1  0.27606000  0.10789000  0.50763000  1.0
  N  N46  1  0.27613000  0.60796000  0.99228000  1.0
  N  N47  1  0.72389000  0.89209000  0.49232000  1.0
  N  N48  1  0.65864000  0.54404000  0.15124000  1.0
  N  N49  1  0.34134000  0.95594000  0.65127000  1.0
  N  N50  1  0.34121000  0.45586000  0.84870000  1.0
  N  N51  1  0.65863000  0.04406000  0.34869000  1.0
  N  N52  1  0.77210000  0.62478000  0.07191000  1.0
  N  N53  1  0.22786000  0.87517000  0.57187000  1.0
  N  N54  1  0.22783000  0.37518000  0.92814000  1.0
  N  N55  1  0.77210000  0.12481000  0.42811000  1.0
  N  N56  1  0.51216000  0.14203000  0.07543000  1.0
  N  N57  1  0.48774000  0.35779000  0.57537000  1.0
  N  N58  1  0.48802000  0.85785000  0.92468000  1.0
  N  N59  1  0.51223000  0.64222000  0.42466000  1.0
  N  N60  1  0.90652000  0.04023000  0.13720000  1.0
  N  N61  1  0.09333000  0.45972000  0.63722000  1.0
  N  N62  1  0.09346000  0.95983000  0.86278000  1.0
  N  N63  1  0.90665000  0.54030000  0.36276000  1.0
  O  O64  1  0.88332000  0.22343000  0.85064000  1.0
  O  O65  1  0.11696000  0.27672000  0.35050000  1.0
  O  O66  1  0.11682000  0.77657000  0.14931000  1.0
  O  O67  1  0.88299000  0.72329000  0.64947000  1.0
  O  O68  1  0.00516000  0.01634000  0.21865000  1.0
  O  O69  1  0.99486000  0.48383000  0.71870000  1.0
  O  O70  1  0.99491000  0.98374000  0.78124000  1.0
  O  O71  1  0.00512000  0.51622000  0.28127000  1.0
  O  O72  1  0.82760000  0.93125000  0.06987000  1.0
  O  O73  1  0.17233000  0.56858000  0.56990000  1.0
  O  O74  1  0.17216000  0.06874000  0.93026000  1.0
  O  O75  1  0.82776000  0.43144000  0.43014000  1.0
  O  O76  1  0.89108000  0.17053000  0.12664000  1.0
  O  O77  1  0.10853000  0.32931000  0.62665000  1.0
  O  O78  1  0.10902000  0.82957000  0.87326000  1.0
  O  O79  1  0.89137000  0.67068000  0.37329000  1.0
