# generated using pymatgen
data_MnH16C26(NO2)2
_symmetry_space_group_name_H-M   'P 1'
_cell_length_a   9.99897000
_cell_length_b   14.96210000
_cell_length_c   17.94086818
_cell_angle_alpha   65.69149297
_cell_angle_beta   90.01140655
_cell_angle_gamma   70.47070000
_symmetry_Int_Tables_number   1
_chemical_formula_structural   MnH16C26(NO2)2
_chemical_formula_sum   'Mn4 H64 C104 N8 O16'
_cell_volume   2275.50284713
_cell_formula_units_Z   4
loop_
 _symmetry_equiv_pos_site_id
 _symmetry_equiv_pos_as_xyz
  1  'x, y, z'
loop_
 _atom_site_type_symbol
 _atom_site_label
 _atom_site_symmetry_multiplicity
 _atom_site_fract_x
 _atom_site_fract_y
 _atom_site_fract_z
 _atom_site_occupancy
  Mn  Mn0  1  0.31883000  0.90571000  0.86916000  1.0
  Mn  Mn1  1  0.22435000  0.09456000  0.63067000  1.0
  Mn  Mn2  1  0.68118000  0.09428000  0.13082000  1.0
  Mn  Mn3  1  0.77567000  0.90546000  0.36932000  1.0
  H  H4  1  0.90095000  0.30401000  0.47202000  1.0
  H  H5  1  0.20443000  0.69603000  0.02776000  1.0
  H  H6  1  0.09904000  0.69599000  0.52798000  1.0
  H  H7  1  0.79559000  0.30396000  0.97224000  1.0
  H  H8  1  0.72736000  0.21582000  0.46974000  1.0
  H  H9  1  0.94274000  0.78423000  0.03024000  1.0
  H  H10  1  0.27265000  0.78419000  0.53026000  1.0
  H  H11  1  0.05727000  0.21577000  0.96976000  1.0
  H  H12  1  0.50958000  0.31293000  0.36186000  1.0
  H  H13  1  0.82225000  0.68707000  0.13810000  1.0
  H  H14  1  0.49043000  0.68706000  0.63815000  1.0
  H  H15  1  0.17775000  0.31294000  0.86190000  1.0
  H  H16  1  0.84963000  0.48718000  0.37110000  1.0
  H  H17  1  0.33651000  0.51280000  0.12862000  1.0
  H  H18  1  0.15037000  0.51283000  0.62890000  1.0
  H  H19  1  0.66350000  0.48719000  0.87139000  1.0
  H  H20  1  0.45940000  0.49701000  0.25944000  1.0
  H  H21  1  0.95628000  0.50294000  0.24042000  1.0
  H  H22  1  0.54060000  0.50300000  0.74056000  1.0
  H  H23  1  0.04371000  0.49707000  0.75958000  1.0
  H  H24  1  0.69609000  0.65879000  0.33704000  1.0
  H  H25  1  0.35504000  0.34102000  0.16296000  1.0
  H  H26  1  0.30392000  0.34120000  0.66296000  1.0
  H  H27  1  0.64496000  0.65896000  0.83706000  1.0
  H  H28  1  0.52523000  0.60633000  0.14357000  1.0
  H  H29  1  0.13161000  0.39394000  0.35623000  1.0
  H  H30  1  0.47476000  0.39366000  0.85643000  1.0
  H  H31  1  0.86837000  0.60606000  0.64378000  1.0
  H  H32  1  0.55834000  0.90542000  0.08800000  1.0
  H  H33  1  0.46365000  0.09463000  0.41205000  1.0
  H  H34  1  0.44167000  0.09456000  0.91200000  1.0
  H  H35  1  0.53634000  0.90537000  0.58797000  1.0
  H  H36  1  0.37908000  0.70201000  0.82515000  1.0
  H  H37  1  0.08081000  0.29802000  0.67472000  1.0
  H  H38  1  0.62092000  0.29799000  0.17485000  1.0
  H  H39  1  0.91919000  0.70199000  0.32525000  1.0
  H  H40  1  0.24045000  0.59906000  0.80640000  1.0
  H  H41  1  0.83925000  0.40083000  0.69362000  1.0
  H  H42  1  0.75954000  0.40097000  0.19359000  1.0
  H  H43  1  0.16077000  0.59915000  0.30638000  1.0
  H  H44  1  0.97817000  0.65273000  0.81905000  1.0
  H  H45  1  0.63066000  0.34716000  0.68099000  1.0
  H  H46  1  0.02182000  0.34729000  0.18094000  1.0
  H  H47  1  0.36935000  0.65282000  0.31903000  1.0
  H  H48  1  0.76081000  0.77844000  0.84531000  1.0
  H  H49  1  0.53906000  0.22132000  0.65469000  1.0
  H  H50  1  0.23919000  0.22156000  0.15469000  1.0
  H  H51  1  0.46093000  0.77868000  0.34531000  1.0
  H  H52  1  0.65576000  0.93177000  0.87422000  1.0
  H  H53  1  0.58762000  0.06794000  0.62581000  1.0
  H  H54  1  0.34423000  0.06822000  0.12579000  1.0
  H  H55  1  0.41237000  0.93206000  0.37419000  1.0
  H  H56  1  0.68703000  0.07944000  0.89828000  1.0
  H  H57  1  0.76673000  0.92038000  0.60166000  1.0
  H  H58  1  0.31298000  0.92053000  0.10174000  1.0
  H  H59  1  0.23326000  0.07963000  0.39833000  1.0
  H  H60  1  0.84789000  0.17357000  0.90714000  1.0
  H  H61  1  0.02183000  0.82638000  0.59279000  1.0
  H  H62  1  0.15212000  0.82640000  0.09288000  1.0
  H  H63  1  0.97817000  0.17364000  0.40719000  1.0
  H  H64  1  0.10673000  0.10293000  0.89019000  1.0
  H  H65  1  0.20980000  0.89718000  0.60969000  1.0
  H  H66  1  0.89327000  0.89705000  0.10981000  1.0
  H  H67  1  0.79020000  0.10283000  0.39031000  1.0
  C  C68  1  0.80259000  0.34570000  0.42668000  1.0
  C  C69  1  0.14788000  0.65429000  0.07313000  1.0
  C  C70  1  0.19741000  0.65430000  0.57332000  1.0
  C  C71  1  0.85213000  0.34570000  0.92688000  1.0
  C  C72  1  0.70705000  0.29645000  0.42427000  1.0
  C  C73  1  0.00314000  0.70354000  0.07563000  1.0
  C  C74  1  0.29294000  0.70354000  0.57574000  1.0
  C  C75  1  0.99687000  0.29646000  0.92437000  1.0
  C  C76  1  0.58450000  0.35091000  0.36362000  1.0
  C  C77  1  0.93516000  0.64905000  0.13630000  1.0
  C  C78  1  0.41549000  0.64908000  0.63639000  1.0
  C  C79  1  0.06485000  0.35096000  0.86370000  1.0
  C  C80  1  0.77408000  0.44950000  0.36904000  1.0
  C  C81  1  0.22329000  0.55047000  0.13072000  1.0
  C  C82  1  0.22592000  0.55049000  0.63097000  1.0
  C  C83  1  0.77671000  0.44953000  0.86928000  1.0
  C  C84  1  0.55674000  0.45447000  0.30570000  1.0
  C  C85  1  0.01105000  0.54547000  0.19416000  1.0
  C  C86  1  0.44325000  0.54552000  0.69431000  1.0
  C  C87  1  0.98894000  0.45454000  0.80584000  1.0
  C  C88  1  0.65081000  0.50565000  0.30783000  1.0
  C  C89  1  0.15631000  0.49432000  0.19198000  1.0
  C  C90  1  0.34919000  0.49434000  0.69218000  1.0
  C  C91  1  0.84369000  0.50568000  0.80803000  1.0
  C  C92  1  0.62073000  0.61612000  0.24772000  1.0
  C  C93  1  0.23686000  0.38391000  0.25214000  1.0
  C  C94  1  0.37929000  0.38388000  0.75228000  1.0
  C  C95  1  0.76313000  0.61609000  0.74787000  1.0
  C  C96  1  0.65384000  0.68498000  0.27243000  1.0
  C  C97  1  0.33889000  0.31495000  0.22754000  1.0
  C  C98  1  0.34617000  0.31501000  0.72758000  1.0
  C  C99  1  0.66111000  0.68505000  0.77247000  1.0
  C  C100  1  0.55629000  0.65578000  0.16538000  1.0
  C  C101  1  0.21214000  0.34441000  0.33449000  1.0
  C  C102  1  0.44372000  0.34422000  0.83462000  1.0
  C  C103  1  0.78784000  0.65559000  0.66552000  1.0
  C  C104  1  0.63108000  0.78859000  0.21555000  1.0
  C  C105  1  0.41969000  0.21135000  0.28449000  1.0
  C  C106  1  0.36894000  0.21140000  0.78444000  1.0
  C  C107  1  0.58031000  0.78866000  0.71552000  1.0
  C  C108  1  0.53184000  0.75961000  0.10845000  1.0
  C  C109  1  0.29150000  0.24060000  0.39150000  1.0
  C  C110  1  0.46818000  0.24037000  0.89156000  1.0
  C  C111  1  0.70848000  0.75941000  0.60850000  1.0
  C  C112  1  0.57366000  0.82532000  0.13278000  1.0
  C  C113  1  0.39896000  0.17476000  0.36724000  1.0
  C  C114  1  0.42635000  0.17467000  0.86722000  1.0
  C  C115  1  0.60104000  0.82525000  0.63277000  1.0
  C  C116  1  0.45473000  0.80207000  0.02245000  1.0
  C  C117  1  0.25673000  0.19832000  0.47744000  1.0
  C  C118  1  0.54526000  0.19792000  0.97755000  1.0
  C  C119  1  0.74324000  0.80170000  0.52256000  1.0
  C  C120  1  0.66696000  0.86052000  0.24338000  1.0
  C  C121  1  0.52750000  0.13924000  0.25679000  1.0
  C  C122  1  0.33305000  0.13949000  0.75662000  1.0
  C  C123  1  0.47250000  0.86076000  0.74321000  1.0
  C  C124  1  0.26460000  0.72451000  0.82900000  1.0
  C  C125  1  0.98886000  0.27546000  0.67095000  1.0
  C  C126  1  0.73540000  0.27550000  0.17099000  1.0
  C  C127  1  0.01114000  0.72454000  0.32904000  1.0
  C  C128  1  0.18641000  0.66637000  0.81926000  1.0
  C  C129  1  0.85252000  0.33353000  0.68076000  1.0
  C  C130  1  0.81359000  0.33365000  0.18073000  1.0
  C  C131  1  0.14749000  0.66646000  0.31924000  1.0
  C  C132  1  0.04194000  0.69624000  0.82594000  1.0
  C  C133  1  0.73794000  0.30365000  0.67408000  1.0
  C  C134  1  0.95806000  0.30378000  0.17405000  1.0
  C  C135  1  0.26208000  0.69634000  0.32593000  1.0
  C  C136  1  0.97589000  0.78459000  0.84197000  1.0
  C  C137  1  0.76029000  0.21530000  0.65803000  1.0
  C  C138  1  0.02410000  0.21542000  0.15802000  1.0
  C  C139  1  0.23970000  0.78469000  0.34197000  1.0
  C  C140  1  0.06369000  0.83874000  0.85002000  1.0
  C  C141  1  0.90223000  0.16121000  0.64996000  1.0
  C  C142  1  0.93631000  0.16127000  0.14999000  1.0
  C  C143  1  0.09775000  0.83880000  0.35002000  1.0
  C  C144  1  0.82758000  0.82054000  0.85095000  1.0
  C  C145  1  0.64800000  0.17930000  0.64905000  1.0
  C  C146  1  0.17242000  0.17946000  0.14905000  1.0
  C  C147  1  0.35200000  0.82070000  0.35095000  1.0
  C  C148  1  0.76863000  0.90631000  0.86671000  1.0
  C  C149  1  0.67494000  0.09350000  0.63330000  1.0
  C  C150  1  0.23137000  0.09369000  0.13329000  1.0
  C  C151  1  0.32506000  0.90651000  0.36669000  1.0
  C  C152  1  0.85407000  0.96295000  0.87466000  1.0
  C  C153  1  0.81706000  0.03687000  0.62537000  1.0
  C  C154  1  0.14594000  0.03703000  0.12535000  1.0
  C  C155  1  0.18292000  0.96314000  0.37462000  1.0
  C  C156  1  0.00161000  0.92916000  0.86649000  1.0
  C  C157  1  0.93074000  0.07076000  0.63351000  1.0
  C  C158  1  0.99838000  0.07084000  0.13350000  1.0
  C  C159  1  0.06924000  0.92924000  0.36650000  1.0
  C  C160  1  0.79920000  0.05219000  0.89062000  1.0
  C  C161  1  0.85158000  0.94766000  0.60937000  1.0
  C  C162  1  0.20081000  0.94779000  0.10939000  1.0
  C  C163  1  0.14843000  0.05235000  0.39062000  1.0
  C  C164  1  0.88812000  0.10364000  0.89609000  1.0
  C  C165  1  0.99199000  0.89628000  0.60388000  1.0
  C  C166  1  0.11189000  0.89633000  0.10392000  1.0
  C  C167  1  0.00801000  0.10372000  0.39611000  1.0
  C  C168  1  0.03270000  0.06466000  0.88700000  1.0
  C  C169  1  0.09749000  0.93536000  0.61294000  1.0
  C  C170  1  0.96730000  0.93532000  0.11301000  1.0
  C  C171  1  0.90251000  0.06465000  0.38705000  1.0
  N  N172  1  0.20565000  0.80851000  0.84371000  1.0
  N  N173  1  0.01393000  0.19149000  0.65623000  1.0
  N  N174  1  0.79436000  0.19150000  0.15629000  1.0
  N  N175  1  0.98607000  0.80852000  0.34376000  1.0
  N  N176  1  0.08845000  0.97942000  0.87329000  1.0
  N  N177  1  0.06787000  0.02061000  0.62664000  1.0
  N  N178  1  0.91154000  0.02059000  0.12670000  1.0
  N  N179  1  0.93214000  0.97939000  0.37335000  1.0
  O  O180  1  0.40283000  0.74704000  0.00251000  1.0
  O  O181  1  0.14986000  0.25351000  0.49730000  1.0
  O  O182  1  0.59719000  0.25294000  0.99749000  1.0
  O  O183  1  0.85011000  0.74651000  0.50270000  1.0
  O  O184  1  0.43861000  0.89707000  0.97155000  1.0
  O  O185  1  0.33541000  0.10324000  0.52834000  1.0
  O  O186  1  0.56135000  0.10293000  0.02845000  1.0
  O  O187  1  0.66457000  0.89677000  0.47165000  1.0
  O  O188  1  0.66818000  0.83996000  0.32004000  1.0
  O  O189  1  0.50833000  0.15975000  0.18013000  1.0
  O  O190  1  0.33185000  0.16006000  0.67996000  1.0
  O  O191  1  0.49170000  0.84025000  0.81987000  1.0
  O  O192  1  0.69695000  0.93537000  0.19004000  1.0
  O  O193  1  0.63212000  0.06429000  0.31025000  1.0
  O  O194  1  0.30304000  0.06464000  0.80995000  1.0
  O  O195  1  0.36788000  0.93570000  0.68976000  1.0
