# generated using pymatgen
data_CdH22C26N2O5
_symmetry_space_group_name_H-M   'P 1'
_cell_length_a   9.58780000
_cell_length_b   11.36410000
_cell_length_c   23.63110000
_cell_angle_alpha   90.00000000
_cell_angle_beta   100.60500000
_cell_angle_gamma   90.00000000
_symmetry_Int_Tables_number   1
_chemical_formula_structural   CdH22C26N2O5
_chemical_formula_sum   'Cd4 H88 C104 N8 O20'
_cell_volume   2530.78825489
_cell_formula_units_Z   4
loop_
 _symmetry_equiv_pos_site_id
 _symmetry_equiv_pos_as_xyz
  1  'x, y, z'
loop_
 _atom_site_type_symbol
 _atom_site_label
 _atom_site_symmetry_multiplicity
 _atom_site_fract_x
 _atom_site_fract_y
 _atom_site_fract_z
 _atom_site_occupancy
  Cd  Cd0  1  0.07578000  0.83107000  0.18775000  1.0
  Cd  Cd1  1  0.92422000  0.33106000  0.31225000  1.0
  Cd  Cd2  1  0.92422000  0.16893000  0.81225000  1.0
  Cd  Cd3  1  0.07578000  0.66893000  0.68775000  1.0
  H  H4  1  0.80161000  0.89204000  0.21883000  1.0
  H  H5  1  0.19838000  0.39204000  0.28117000  1.0
  H  H6  1  0.19839000  0.10796000  0.78117000  1.0
  H  H7  1  0.80162000  0.60796000  0.71883000  1.0
  H  H8  1  0.88369000  0.01421000  0.22715000  1.0
  H  H9  1  0.11631000  0.51421000  0.27285000  1.0
  H  H10  1  0.11631000  0.98579000  0.77284000  1.0
  H  H11  1  0.88369000  0.48579000  0.72716000  1.0
  H  H12  1  0.16034000  0.58623000  0.37575000  1.0
  H  H13  1  0.83966000  0.08623000  0.12425000  1.0
  H  H14  1  0.83966000  0.41377000  0.62425000  1.0
  H  H15  1  0.16034000  0.91377000  0.87575000  1.0
  H  H16  1  0.31231000  0.53745000  0.46876000  1.0
  H  H17  1  0.68769000  0.03745000  0.03124000  1.0
  H  H18  1  0.68769000  0.46255000  0.53124000  1.0
  H  H19  1  0.31231000  0.96255000  0.96876000  1.0
  H  H20  1  0.56628000  0.60180000  0.48858000  1.0
  H  H21  1  0.43372000  0.10180000  0.01142000  1.0
  H  H22  1  0.43372000  0.39820000  0.51142000  1.0
  H  H23  1  0.56628000  0.89820000  0.98858000  1.0
  H  H24  1  0.66106000  0.72295000  0.41644000  1.0
  H  H25  1  0.33894000  0.22295000  0.08355000  1.0
  H  H26  1  0.33894000  0.27705000  0.58355000  1.0
  H  H27  1  0.66106000  0.77705000  0.91644000  1.0
  H  H28  1  0.50034000  0.78308000  0.32543000  1.0
  H  H29  1  0.49966000  0.28308000  0.17457000  1.0
  H  H30  1  0.49967000  0.21692000  0.67457000  1.0
  H  H31  1  0.50033000  0.71692000  0.82543000  1.0
  H  H32  1  0.04199000  0.11314000  0.00853000  1.0
  H  H33  1  0.95800000  0.61314000  0.49148000  1.0
  H  H34  1  0.95800000  0.88686000  0.99147000  1.0
  H  H35  1  0.04199000  0.38686000  0.50853000  1.0
  H  H36  1  0.05154000  0.32086000  0.97541000  1.0
  H  H37  1  0.94846000  0.82087000  0.52459000  1.0
  H  H38  1  0.94846000  0.67914000  0.02459000  1.0
  H  H39  1  0.05154000  0.17914000  0.47541000  1.0
  H  H40  1  0.09275000  0.48390000  0.04657000  1.0
  H  H41  1  0.90725000  0.98390000  0.45343000  1.0
  H  H42  1  0.90725000  0.51610000  0.95343000  1.0
  H  H43  1  0.09275000  0.01610000  0.54657000  1.0
  H  H44  1  0.12885000  0.43899000  0.15183000  1.0
  H  H45  1  0.87115000  0.93899000  0.34817000  1.0
  H  H46  1  0.87114000  0.56101000  0.84817000  1.0
  H  H47  1  0.12886000  0.06101000  0.65183000  1.0
  H  H48  1  0.12384000  0.23096000  0.18456000  1.0
  H  H49  1  0.87616000  0.73095000  0.31544000  1.0
  H  H50  1  0.87616000  0.76905000  0.81544000  1.0
  H  H51  1  0.12384000  0.26905000  0.68456000  1.0
  H  H52  1  0.78706000  0.84991000  0.09553000  1.0
  H  H53  1  0.21294000  0.34991000  0.40447000  1.0
  H  H54  1  0.21294000  0.15010000  0.90448000  1.0
  H  H55  1  0.78706000  0.65009000  0.59553000  1.0
  H  H56  1  0.60374000  0.72588000  0.03504000  1.0
  H  H57  1  0.39626000  0.22588000  0.46496000  1.0
  H  H58  1  0.39626000  0.27412000  0.96496000  1.0
  H  H59  1  0.60374000  0.77412000  0.53504000  1.0
  H  H60  1  0.79620000  0.42373000  0.12976000  1.0
  H  H61  1  0.20380000  0.92373000  0.37024000  1.0
  H  H62  1  0.20380000  0.57627000  0.87024000  1.0
  H  H63  1  0.79620000  0.07627000  0.62976000  1.0
  H  H64  1  0.96457000  0.56123000  0.18888000  1.0
  H  H65  1  0.03543000  0.06123000  0.31112000  1.0
  H  H66  1  0.03543000  0.43877000  0.81112000  1.0
  H  H67  1  0.96457000  0.93877000  0.68888000  1.0
  H  H68  1  0.61717000  0.38974000  0.04967000  1.0
  H  H69  1  0.38283000  0.88974000  0.45033000  1.0
  H  H70  1  0.38283000  0.61026000  0.95033000  1.0
  H  H71  1  0.61717000  0.11026000  0.54967000  1.0
  H  H72  1  0.37655000  0.41213000  0.03683000  1.0
  H  H73  1  0.62345000  0.91213000  0.46317000  1.0
  H  H74  1  0.62345000  0.58787000  0.96317000  1.0
  H  H75  1  0.37655000  0.08787000  0.53683000  1.0
  H  H76  1  0.45014000  0.49463000  0.14553000  1.0
  H  H77  1  0.54986000  0.99463000  0.35447000  1.0
  H  H78  1  0.54986000  0.50537000  0.85447000  1.0
  H  H79  1  0.45014000  0.00537000  0.64553000  1.0
  H  H80  1  0.32593000  0.62535000  0.20478000  1.0
  H  H81  1  0.67407000  0.12535000  0.29522000  1.0
  H  H82  1  0.67407000  0.37465000  0.79522000  1.0
  H  H83  1  0.32593000  0.87465000  0.70478000  1.0
  H  H84  1  0.15495000  0.82816000  0.06379000  1.0
  H  H85  1  0.84505000  0.32816000  0.43621000  1.0
  H  H86  1  0.84505000  0.17184000  0.93621000  1.0
  H  H87  1  0.15495000  0.67184000  0.56379000  1.0
  H  H88  1  0.26573000  0.70378000  0.99753000  1.0
  H  H89  1  0.73427000  0.20378000  0.50246000  1.0
  H  H90  1  0.73427000  0.29622000  0.00246000  1.0
  H  H91  1  0.26573000  0.79622000  0.49753000  1.0
  C  C92  1  0.22445000  0.72539000  0.29074000  1.0
  C  C93  1  0.77555000  0.22539000  0.20926000  1.0
  C  C94  1  0.77555000  0.27461000  0.70926000  1.0
  C  C95  1  0.22445000  0.77461000  0.79074000  1.0
  C  C96  1  0.32058000  0.68848000  0.34509000  1.0
  C  C97  1  0.67942000  0.18849000  0.15491000  1.0
  C  C98  1  0.67942000  0.31152000  0.65491000  1.0
  C  C99  1  0.32058000  0.81152000  0.84509000  1.0
  C  C100  1  0.26918000  0.61732000  0.38500000  1.0
  C  C101  1  0.73082000  0.11732000  0.11500000  1.0
  C  C102  1  0.73082000  0.38268000  0.61500000  1.0
  C  C103  1  0.26918000  0.88268000  0.88500000  1.0
  C  C104  1  0.35618000  0.58859000  0.43712000  1.0
  C  C105  1  0.64382000  0.08859000  0.06288000  1.0
  C  C106  1  0.64382000  0.41141000  0.56288000  1.0
  C  C107  1  0.35618000  0.91141000  0.93712000  1.0
  C  C108  1  0.49728000  0.62650000  0.44842000  1.0
  C  C109  1  0.50273000  0.12650000  0.05158000  1.0
  C  C110  1  0.50273000  0.37350000  0.55158000  1.0
  C  C111  1  0.49727000  0.87350000  0.94842000  1.0
  C  C112  1  0.55038000  0.69533000  0.40812000  1.0
  C  C113  1  0.44962000  0.19533000  0.09188000  1.0
  C  C114  1  0.44962000  0.30467000  0.59188000  1.0
  C  C115  1  0.55038000  0.80467000  0.90812000  1.0
  C  C116  1  0.46151000  0.72807000  0.35702000  1.0
  C  C117  1  0.53849000  0.22807000  0.14298000  1.0
  C  C118  1  0.53849000  0.27193000  0.64298000  1.0
  C  C119  1  0.46151000  0.77193000  0.85702000  1.0
  C  C120  1  0.07841000  0.03649000  0.12051000  1.0
  C  C121  1  0.92159000  0.53648000  0.37949000  1.0
  C  C122  1  0.92159000  0.96352000  0.87949000  1.0
  C  C123  1  0.07841000  0.46352000  0.62051000  1.0
  C  C124  1  0.08379000  0.16012000  0.09878000  1.0
  C  C125  1  0.91620000  0.66012000  0.40122000  1.0
  C  C126  1  0.91621000  0.83988000  0.90122000  1.0
  C  C127  1  0.08379000  0.33988000  0.59878000  1.0
  C  C128  1  0.06177000  0.18488000  0.03973000  1.0
  C  C129  1  0.93822000  0.68488000  0.46027000  1.0
  C  C130  1  0.93823000  0.81512000  0.96027000  1.0
  C  C131  1  0.06177000  0.31512000  0.53973000  1.0
  C  C132  1  0.06677000  0.30140000  0.02128000  1.0
  C  C133  1  0.93323000  0.80141000  0.47872000  1.0
  C  C134  1  0.93323000  0.69860000  0.97872000  1.0
  C  C135  1  0.06677000  0.19859000  0.52128000  1.0
  C  C136  1  0.09046000  0.39312000  0.06128000  1.0
  C  C137  1  0.90954000  0.89312000  0.43872000  1.0
  C  C138  1  0.90954000  0.60688000  0.93872000  1.0
  C  C139  1  0.09046000  0.10688000  0.56128000  1.0
  C  C140  1  0.11118000  0.36831000  0.12021000  1.0
  C  C141  1  0.88882000  0.86831000  0.37979000  1.0
  C  C142  1  0.88882000  0.63169000  0.87980000  1.0
  C  C143  1  0.11118000  0.13169000  0.62021000  1.0
  C  C144  1  0.10874000  0.25230000  0.13890000  1.0
  C  C145  1  0.89125000  0.75229000  0.36110000  1.0
  C  C146  1  0.89126000  0.74770000  0.86110000  1.0
  C  C147  1  0.10874000  0.24770000  0.63890000  1.0
  C  C148  1  0.78267000  0.75516000  0.10246000  1.0
  C  C149  1  0.21733000  0.25516000  0.39754000  1.0
  C  C150  1  0.21733000  0.24484000  0.89754000  1.0
  C  C151  1  0.78267000  0.74484000  0.60246000  1.0
  C  C152  1  0.68237000  0.68466000  0.06828000  1.0
  C  C153  1  0.31763000  0.18466000  0.43172000  1.0
  C  C154  1  0.31763000  0.31534000  0.93172000  1.0
  C  C155  1  0.68237000  0.81534000  0.56828000  1.0
  C  C156  1  0.68649000  0.56204000  0.07571000  1.0
  C  C157  1  0.31352000  0.06204000  0.42429000  1.0
  C  C158  1  0.31352000  0.43796000  0.92429000  1.0
  C  C159  1  0.68649000  0.93796000  0.57571000  1.0
  C  C160  1  0.78892000  0.51766000  0.12052000  1.0
  C  C161  1  0.21108000  0.01766000  0.37948000  1.0
  C  C162  1  0.21108000  0.48234000  0.87948000  1.0
  C  C163  1  0.78892000  0.98234000  0.62052000  1.0
  C  C164  1  0.88417000  0.59400000  0.15380000  1.0
  C  C165  1  0.11583000  0.09400000  0.34621000  1.0
  C  C166  1  0.11583000  0.40600000  0.84621000  1.0
  C  C167  1  0.88417000  0.90600000  0.65380000  1.0
  C  C168  1  0.58942000  0.48075000  0.03681000  1.0
  C  C169  1  0.41058000  0.98075000  0.46319000  1.0
  C  C170  1  0.41058000  0.51925000  0.96319000  1.0
  C  C171  1  0.58942000  0.01925000  0.53681000  1.0
  C  C172  1  0.42357000  0.49760000  0.02901000  1.0
  C  C173  1  0.57643000  0.99760000  0.47099000  1.0
  C  C174  1  0.57643000  0.50240000  0.97099000  1.0
  C  C175  1  0.42358000  0.00240000  0.52901000  1.0
  C  C176  1  0.36572000  0.58577000  0.06561000  1.0
  C  C177  1  0.63428000  0.08577000  0.43439000  1.0
  C  C178  1  0.63428000  0.41423000  0.93439000  1.0
  C  C179  1  0.36572000  0.91423000  0.56561000  1.0
  C  C180  1  0.38561000  0.56765000  0.12537000  1.0
  C  C181  1  0.61439000  0.06765000  0.37463000  1.0
  C  C182  1  0.61439000  0.43235000  0.87463000  1.0
  C  C183  1  0.38561000  0.93235000  0.62537000  1.0
  C  C184  1  0.31745000  0.64061000  0.15874000  1.0
  C  C185  1  0.68255000  0.14061000  0.34126000  1.0
  C  C186  1  0.68255000  0.35939000  0.84126000  1.0
  C  C187  1  0.31745000  0.85939000  0.65874000  1.0
  C  C188  1  0.22166000  0.75310000  0.07984000  1.0
  C  C189  1  0.77834000  0.25310000  0.42016000  1.0
  C  C190  1  0.77834000  0.24690000  0.92016000  1.0
  C  C191  1  0.22166000  0.74690000  0.57984000  1.0
  C  C192  1  0.28489000  0.68299000  0.04329000  1.0
  C  C193  1  0.71511000  0.18299000  0.45671000  1.0
  C  C194  1  0.71511000  0.31701000  0.95671000  1.0
  C  C195  1  0.28489000  0.81701000  0.54329000  1.0
  N  N196  1  0.88385000  0.71086000  0.14433000  1.0
  N  N197  1  0.11615000  0.21086000  0.35567000  1.0
  N  N198  1  0.11615000  0.28914000  0.85567000  1.0
  N  N199  1  0.88385000  0.78914000  0.64433000  1.0
  N  N200  1  0.23405000  0.73086000  0.13636000  1.0
  N  N201  1  0.76595000  0.23086000  0.36364000  1.0
  N  N202  1  0.76595000  0.26914000  0.86364000  1.0
  N  N203  1  0.23405000  0.76914000  0.63636000  1.0
  O  O204  1  0.89502000  0.92588000  0.23186000  1.0
  O  O205  1  0.10498000  0.42588000  0.26814000  1.0
  O  O206  1  0.10498000  0.07412000  0.76814000  1.0
  O  O207  1  0.89502000  0.57412000  0.73186000  1.0
  O  O208  1  0.24513000  0.82671000  0.27092000  1.0
  O  O209  1  0.75487000  0.32671000  0.22908000  1.0
  O  O210  1  0.75487000  0.17329000  0.72908000  1.0
  O  O211  1  0.24513000  0.67329000  0.77092000  1.0
  O  O212  1  0.12639000  0.65616000  0.26630000  1.0
  O  O213  1  0.87360000  0.15616000  0.23370000  1.0
  O  O214  1  0.87360000  0.34384000  0.73370000  1.0
  O  O215  1  0.12639000  0.84384000  0.76630000  1.0
  O  O216  1  0.14154000  0.01767000  0.17231000  1.0
  O  O217  1  0.85846000  0.51767000  0.32769000  1.0
  O  O218  1  0.85846000  0.98233000  0.82769000  1.0
  O  O219  1  0.14154000  0.48233000  0.67231000  1.0
  O  O220  1  0.00906000  0.95845000  0.08840000  1.0
  O  O221  1  0.99094000  0.45844000  0.41160000  1.0
  O  O222  1  0.99094000  0.04155000  0.91160000  1.0
  O  O223  1  0.00906000  0.54155000  0.58840000  1.0
