# generated using pymatgen
data_BaH12C10(N3O8)2
_symmetry_space_group_name_H-M   'P 1'
_cell_length_a   6.48645000
_cell_length_b   12.19920000
_cell_length_c   13.48750000
_cell_angle_alpha   86.33830000
_cell_angle_beta   76.10230000
_cell_angle_gamma   74.58720000
_symmetry_Int_Tables_number   1
_chemical_formula_structural   BaH12C10(N3O8)2
_chemical_formula_sum   'Ba2 H24 C20 N12 O32'
_cell_volume   998.75709545
_cell_formula_units_Z   2
loop_
 _symmetry_equiv_pos_site_id
 _symmetry_equiv_pos_as_xyz
  1  'x, y, z'
loop_
 _atom_site_type_symbol
 _atom_site_label
 _atom_site_symmetry_multiplicity
 _atom_site_fract_x
 _atom_site_fract_y
 _atom_site_fract_z
 _atom_site_occupancy
  Ba  Ba0  1  0.67405000  0.50010000  0.49981000  1.0
  Ba  Ba1  1  0.92376000  0.00007000  0.00022000  1.0
  H  H2  1  0.67595000  0.21033000  0.52049000  1.0
  H  H3  1  0.40586000  0.78954000  0.47918000  1.0
  H  H4  1  0.94704000  0.71026000  0.97938000  1.0
  H  H5  1  0.63586000  0.28969000  0.02086000  1.0
  H  H6  1  0.61223000  0.26205000  0.62906000  1.0
  H  H7  1  0.50176000  0.73822000  0.37048000  1.0
  H  H8  1  0.99092000  0.76203000  0.87080000  1.0
  H  H9  1  0.62242000  0.23824000  0.12955000  1.0
  H  H10  1  0.15226000  0.58220000  0.55993000  1.0
  H  H11  1  0.29449000  0.41760000  0.43999000  1.0
  H  H12  1  0.46219000  0.08221000  0.93998000  1.0
  H  H13  1  0.48418000  0.91776000  0.06025000  1.0
  H  H14  1  0.18720000  0.51753000  0.66168000  1.0
  H  H15  1  0.36634000  0.48229000  0.33822000  1.0
  H  H16  1  0.59912000  0.01746000  0.83831000  1.0
  H  H17  1  0.45442000  0.98251000  0.16199000  1.0
  H  H18  1  0.22164000  0.25016000  0.37993000  1.0
  H  H19  1  0.85241000  0.74974000  0.62021000  1.0
  H  H20  1  0.35101000  0.75030000  0.12017000  1.0
  H  H21  1  0.22171000  0.24970000  0.87967000  1.0
  H  H22  1  0.05862000  0.26889000  0.69623000  1.0
  H  H23  1  0.02379000  0.73125000  0.30387000  1.0
  H  H24  1  0.50444000  0.76898000  0.80384000  1.0
  H  H25  1  0.07741000  0.23116000  0.19599000  1.0
  C  C26  1  0.20821000  0.20283000  0.45114000  1.0
  C  C27  1  0.86269000  0.79713000  0.54901000  1.0
  C  C28  1  0.40910000  0.70294000  0.04896000  1.0
  C  C29  1  0.16115000  0.29710000  0.95085000  1.0
  C  C30  1  0.26045000  0.08580000  0.45407000  1.0
  C  C31  1  0.80042000  0.91414000  0.54612000  1.0
  C  C32  1  0.46473000  0.58591000  0.04603000  1.0
  C  C33  1  0.09644000  0.41411000  0.95373000  1.0
  C  C34  1  0.24188000  0.01970000  0.54898000  1.0
  C  C35  1  0.80939000  0.98031000  0.45126000  1.0
  C  C36  1  0.54105000  0.51979000  0.95113000  1.0
  C  C37  1  0.01109000  0.48025000  0.04860000  1.0
  C  C38  1  0.16185000  0.09607000  0.63754000  1.0
  C  C39  1  0.89544000  0.90402000  0.36266000  1.0
  C  C40  1  0.54928000  0.59613000  0.86255000  1.0
  C  C41  1  0.00805000  0.40395000  0.13722000  1.0
  C  C42  1  0.11696000  0.21315000  0.63000000  1.0
  C  C43  1  0.96020000  0.78694000  0.37015000  1.0
  C  C44  1  0.49663000  0.71321000  0.87006000  1.0
  C  C45  1  0.08016000  0.28689000  0.12973000  1.0
  N  N46  1  0.13740000  0.26589000  0.53782000  1.0
  N  N47  1  0.94110000  0.73414000  0.46230000  1.0
  N  N48  1  0.42497000  0.76597000  0.96225000  1.0
  N  N49  1  0.15322000  0.23410000  0.03758000  1.0
  N  N50  1  0.33045000  0.03058000  0.35616000  1.0
  N  N51  1  0.71663000  0.96922000  0.64410000  1.0
  N  N52  1  0.43654000  0.53068000  0.14392000  1.0
  N  N53  1  0.11043000  0.46931000  0.85582000  1.0
  N  N54  1  0.12117000  0.05184000  0.73997000  1.0
  N  N55  1  0.91318000  0.94827000  0.26021000  1.0
  N  N56  1  0.61112000  0.55178000  0.76018000  1.0
  N  N57  1  0.92316000  0.44822000  0.23965000  1.0
  O  O58  1  0.08430000  0.37820000  0.53246000  1.0
  O  O59  1  0.99465000  0.62181000  0.46756000  1.0
  O  O60  1  0.36650000  0.87831000  0.96756000  1.0
  O  O61  1  0.21222000  0.12178000  0.03231000  1.0
  O  O62  1  0.28509000  0.91374000  0.55538000  1.0
  O  O63  1  0.75052000  0.08622000  0.44497000  1.0
  O  O64  1  0.59096000  0.41384000  0.94477000  1.0
  O  O65  1  0.94701000  0.58618000  0.05492000  1.0
  O  O66  1  0.28647000  0.08726000  0.27939000  1.0
  O  O67  1  0.65388000  0.91222000  0.72084000  1.0
  O  O68  1  0.31526000  0.58728000  0.22061000  1.0
  O  O69  1  0.12379000  0.41248000  0.77906000  1.0
  O  O70  1  0.43303000  0.92862000  0.35090000  1.0
  O  O71  1  0.70996000  0.07143000  0.64944000  1.0
  O  O72  1  0.53410000  0.42877000  0.14926000  1.0
  O  O73  1  0.10953000  0.57147000  0.85054000  1.0
  O  O74  1  0.09820000  0.95365000  0.75470000  1.0
  O  O75  1  0.80680000  0.04643000  0.24544000  1.0
  O  O76  1  0.60225000  0.45368000  0.74558000  1.0
  O  O77  1  0.80254000  0.54651000  0.25433000  1.0
  O  O78  1  0.10596000  0.11629000  0.81198000  1.0
  O  O79  1  0.03478000  0.88386000  0.18825000  1.0
  O  O80  1  0.66867000  0.61604000  0.68816000  1.0
  O  O81  1  0.97205000  0.38370000  0.31168000  1.0
  O  O82  1  0.63479000  0.28361000  0.55743000  1.0
  O  O83  1  0.47302000  0.71632000  0.44202000  1.0
  O  O84  1  0.94256000  0.78355000  0.94245000  1.0
  O  O85  1  0.66589000  0.21643000  0.05798000  1.0
  O  O86  1  0.24566000  0.56896000  0.61043000  1.0
  O  O87  1  0.42506000  0.43078000  0.38941000  1.0
  O  O88  1  0.60613000  0.06897000  0.88955000  1.0
  O  O89  1  0.56423000  0.93095000  0.11081000  1.0
