# generated using pymatgen
data_CsH5C14N4O
_symmetry_space_group_name_H-M   'P 1'
_cell_length_a   8.36471000
_cell_length_b   9.72375000
_cell_length_c   18.44270000
_cell_angle_alpha   89.99990000
_cell_angle_beta   89.99990000
_cell_angle_gamma   71.09900000
_symmetry_Int_Tables_number   1
_chemical_formula_structural   CsH5C14N4O
_chemical_formula_sum   'Cs4 H20 C56 N16 O4'
_cell_volume   1419.17810240
_cell_formula_units_Z   4
loop_
 _symmetry_equiv_pos_site_id
 _symmetry_equiv_pos_as_xyz
  1  'x, y, z'
loop_
 _atom_site_type_symbol
 _atom_site_label
 _atom_site_symmetry_multiplicity
 _atom_site_fract_x
 _atom_site_fract_y
 _atom_site_fract_z
 _atom_site_occupancy
  Cs  Cs0  1  0.63556000  0.20992000  0.83393000  1.0
  Cs  Cs1  1  0.86444000  0.79008000  0.33394000  1.0
  Cs  Cs2  1  0.36444000  0.79008000  0.16607000  1.0
  Cs  Cs3  1  0.13556000  0.20992000  0.66606000  1.0
  H  H4  1  0.30940000  0.43511000  0.02410000  1.0
  H  H5  1  0.19060000  0.56490000  0.52410000  1.0
  H  H6  1  0.69060000  0.56490000  0.97590000  1.0
  H  H7  1  0.80940000  0.43510000  0.47590000  1.0
  H  H8  1  0.09292000  0.48170000  0.12288000  1.0
  H  H9  1  0.40709000  0.51830000  0.62287000  1.0
  H  H10  1  0.90708000  0.51830000  0.87712000  1.0
  H  H11  1  0.59292000  0.48170000  0.37713000  1.0
  H  H12  1  0.84694000  0.70902000  0.12159000  1.0
  H  H13  1  0.65306000  0.29098000  0.62159000  1.0
  H  H14  1  0.15306000  0.29098000  0.87841000  1.0
  H  H15  1  0.34695000  0.70901000  0.37841000  1.0
  H  H16  1  0.81262000  0.88805000  0.02134000  1.0
  H  H17  1  0.68738000  0.11195000  0.52134000  1.0
  H  H18  1  0.18738000  0.11195000  0.97866000  1.0
  H  H19  1  0.31262000  0.88804000  0.47866000  1.0
  H  H20  1  0.03064000  0.84490000  0.92529000  1.0
  H  H21  1  0.46936000  0.15511000  0.42529000  1.0
  H  H22  1  0.96936000  0.15511000  0.07471000  1.0
  H  H23  1  0.53064000  0.84489000  0.57471000  1.0
  C  C24  1  0.30962000  0.72408000  0.85618000  1.0
  C  C25  1  0.19037000  0.27592000  0.35618000  1.0
  C  C26  1  0.69038000  0.27592000  0.14382000  1.0
  C  C27  1  0.80962000  0.72408000  0.64382000  1.0
  C  C28  1  0.31610000  0.60789000  0.91292000  1.0
  C  C29  1  0.18390000  0.39211000  0.41291000  1.0
  C  C30  1  0.68390000  0.39211000  0.08708000  1.0
  C  C31  1  0.81610000  0.60789000  0.58709000  1.0
  C  C32  1  0.18655000  0.63881000  0.97006000  1.0
  C  C33  1  0.31345000  0.36120000  0.47006000  1.0
  C  C34  1  0.81345000  0.36120000  0.02994000  1.0
  C  C35  1  0.68655000  0.63880000  0.52994000  1.0
  C  C36  1  0.20232000  0.53509000  0.02540000  1.0
  C  C37  1  0.29768000  0.46491000  0.52540000  1.0
  C  C38  1  0.79768000  0.46491000  0.97460000  1.0
  C  C39  1  0.70232000  0.53509000  0.47460000  1.0
  C  C40  1  0.08146000  0.56139000  0.07997000  1.0
  C  C41  1  0.41854000  0.43861000  0.57997000  1.0
  C  C42  1  0.91854000  0.43861000  0.92003000  1.0
  C  C43  1  0.58146000  0.56139000  0.42003000  1.0
  C  C44  1  0.94236000  0.68956000  0.07907000  1.0
  C  C45  1  0.55764000  0.31044000  0.57907000  1.0
  C  C46  1  0.05764000  0.31044000  0.92093000  1.0
  C  C47  1  0.44236000  0.68956000  0.42093000  1.0
  C  C48  1  0.92407000  0.79139000  0.02343000  1.0
  C  C49  1  0.57593000  0.20862000  0.52343000  1.0
  C  C50  1  0.07593000  0.20862000  0.97657000  1.0
  C  C51  1  0.42407000  0.79138000  0.47657000  1.0
  C  C52  1  0.04631000  0.76681000  0.96925000  1.0
  C  C53  1  0.45368000  0.23319000  0.46925000  1.0
  C  C54  1  0.95369000  0.23319000  0.03075000  1.0
  C  C55  1  0.54632000  0.76681000  0.53075000  1.0
  C  C56  1  0.25952000  0.69860000  0.78624000  1.0
  C  C57  1  0.24047000  0.30140000  0.28624000  1.0
  C  C58  1  0.74047000  0.30140000  0.21376000  1.0
  C  C59  1  0.75952000  0.69860000  0.71376000  1.0
  C  C60  1  0.27001000  0.78234000  0.72485000  1.0
  C  C61  1  0.22998000  0.21766000  0.22485000  1.0
  C  C62  1  0.72998000  0.21767000  0.27515000  1.0
  C  C63  1  0.77002000  0.78233000  0.77515000  1.0
  C  C64  1  0.20596000  0.57700000  0.77320000  1.0
  C  C65  1  0.29404000  0.42300000  0.27320000  1.0
  C  C66  1  0.79404000  0.42301000  0.22680000  1.0
  C  C67  1  0.70596000  0.57700000  0.72680000  1.0
  C  C68  1  0.36374000  0.83978000  0.87919000  1.0
  C  C69  1  0.13626000  0.16021000  0.37919000  1.0
  C  C70  1  0.63625000  0.16022000  0.12081000  1.0
  C  C71  1  0.86374000  0.83978000  0.62082000  1.0
  C  C72  1  0.35862000  0.96092000  0.83618000  1.0
  C  C73  1  0.14138000  0.03907000  0.33618000  1.0
  C  C74  1  0.64138000  0.03907000  0.16382000  1.0
  C  C75  1  0.85862000  0.96093000  0.66382000  1.0
  C  C76  1  0.42621000  0.84070000  0.95038000  1.0
  C  C77  1  0.07379000  0.15930000  0.45038000  1.0
  C  C78  1  0.57378000  0.15930000  0.04962000  1.0
  C  C79  1  0.92621000  0.84070000  0.54962000  1.0
  N  N80  1  0.28098000  0.84932000  0.67333000  1.0
  N  N81  1  0.21902000  0.15067000  0.17333000  1.0
  N  N82  1  0.71901000  0.15068000  0.32667000  1.0
  N  N83  1  0.78099000  0.84932000  0.82667000  1.0
  N  N84  1  0.16312000  0.47538000  0.76246000  1.0
  N  N85  1  0.33688000  0.52461000  0.26246000  1.0
  N  N86  1  0.83688000  0.52461000  0.23754000  1.0
  N  N87  1  0.66312000  0.47538000  0.73754000  1.0
  N  N88  1  0.47819000  0.84129000  0.00934000  1.0
  N  N89  1  0.02182000  0.15872000  0.50934000  1.0
  N  N90  1  0.52182000  0.15871000  0.99066000  1.0
  N  N91  1  0.97819000  0.84129000  0.49066000  1.0
  N  N92  1  0.35223000  0.06573000  0.80328000  1.0
  N  N93  1  0.14778000  0.93427000  0.30329000  1.0
  N  N94  1  0.64778000  0.93427000  0.19671000  1.0
  N  N95  1  0.85223000  0.06573000  0.69672000  1.0
  O  O96  1  0.43221000  0.49144000  0.90782000  1.0
  O  O97  1  0.06779000  0.50856000  0.40782000  1.0
  O  O98  1  0.56779000  0.50856000  0.09218000  1.0
  O  O99  1  0.93221000  0.49144000  0.59218000  1.0
