# generated using pymatgen
data_EuH26C21N5O12
_symmetry_space_group_name_H-M   'P 1'
_cell_length_a   9.68766000
_cell_length_b   10.15640000
_cell_length_c   14.82510000
_cell_angle_alpha   73.15960000
_cell_angle_beta   77.43360000
_cell_angle_gamma   74.80150000
_symmetry_Int_Tables_number   1
_chemical_formula_structural   EuH26C21N5O12
_chemical_formula_sum   'Eu2 H52 C42 N10 O24'
_cell_volume   1331.35063210
_cell_formula_units_Z   2
loop_
 _symmetry_equiv_pos_site_id
 _symmetry_equiv_pos_as_xyz
  1  'x, y, z'
loop_
 _atom_site_type_symbol
 _atom_site_label
 _atom_site_symmetry_multiplicity
 _atom_site_fract_x
 _atom_site_fract_y
 _atom_site_fract_z
 _atom_site_occupancy
  Eu  Eu0  1  0.78684000  0.10168000  0.22076000  1.0
  Eu  Eu1  1  0.21316000  0.89832000  0.77924000  1.0
  H  H2  1  0.78947000  0.46140000  0.21713000  1.0
  H  H3  1  0.21053000  0.53860000  0.78287000  1.0
  H  H4  1  0.82910000  0.66872000  0.25662000  1.0
  H  H5  1  0.17090000  0.33128000  0.74338000  1.0
  H  H6  1  0.02524000  0.64343000  0.34884000  1.0
  H  H7  1  0.97476000  0.35657000  0.65116000  1.0
  H  H8  1  0.18631000  0.40682000  0.39789000  1.0
  H  H9  1  0.81369000  0.59318000  0.60211000  1.0
  H  H10  1  0.26465000  0.17140000  0.40124000  1.0
  H  H11  1  0.73535000  0.82860000  0.59876000  1.0
  H  H12  1  0.35313000  0.94145000  0.41260000  1.0
  H  H13  1  0.64687000  0.05855000  0.58740000  1.0
  H  H14  1  0.14018000  0.87445000  0.52563000  1.0
  H  H15  1  0.85982000  0.12555000  0.47437000  1.0
  H  H16  1  0.09323000  0.80557000  0.44213000  1.0
  H  H17  1  0.90677000  0.19443000  0.55787000  1.0
  H  H18  1  0.22395000  0.61016000  0.55861000  1.0
  H  H19  1  0.77605000  0.38984000  0.44139000  1.0
  H  H20  1  0.36955000  0.69596000  0.53517000  1.0
  H  H21  1  0.63045000  0.30404000  0.46483000  1.0
  H  H22  1  0.27257000  0.58388000  0.39288000  1.0
  H  H23  1  0.72743000  0.41612000  0.60712000  1.0
  H  H24  1  0.42964000  0.50819000  0.44578000  1.0
  H  H25  1  0.57036000  0.49181000  0.55422000  1.0
  H  H26  1  0.52854000  0.72510000  0.36391000  1.0
  H  H27  1  0.47146000  0.27490000  0.63609000  1.0
  H  H28  1  0.48379000  0.65517000  0.27996000  1.0
  H  H29  1  0.51621000  0.34483000  0.72003000  1.0
  H  H30  1  0.24691000  0.82424000  0.27761000  1.0
  H  H31  1  0.75309000  0.17576000  0.72239000  1.0
  H  H32  1  0.25396000  0.97219000  0.13942000  1.0
  H  H33  1  0.74604000  0.02781000  0.86058000  1.0
  H  H34  1  0.23667000  0.12763000  0.98930000  1.0
  H  H35  1  0.76333000  0.87237000  0.01070000  1.0
  H  H36  1  0.30962000  0.32649000  0.86004000  1.0
  H  H37  1  0.69038000  0.67351000  0.13996000  1.0
  H  H38  1  0.51256000  0.42600000  0.87247000  1.0
  H  H39  1  0.48744000  0.57400000  0.12754000  1.0
  H  H40  1  0.64667000  0.32431000  0.00945000  1.0
  H  H41  1  0.35333000  0.67569000  0.99055000  1.0
  H  H42  1  0.83995000  0.43532000  0.04116000  1.0
  H  H43  1  0.16005000  0.56468000  0.95884000  1.0
  H  H44  1  0.99132000  0.37008000  0.95996000  1.0
  H  H45  1  0.00868000  0.62992000  0.04004000  1.0
  H  H46  1  0.01290000  0.35589000  0.07956000  1.0
  H  H47  1  0.98710000  0.64410000  0.92044000  1.0
  H  H48  1  0.08381000  0.05718000  0.31944000  1.0
  H  H49  1  0.91619000  0.94282000  0.68056000  1.0
  H  H50  1  0.49854000  0.96736000  0.22928000  1.0
  H  H51  1  0.50146000  0.03264000  0.77072000  1.0
  H  H52  1  0.89429000  0.18967000  0.00751000  1.0
  H  H53  1  0.10571000  0.81033000  0.99249000  1.0
  C  C54  1  0.96396000  0.31424000  0.28433000  1.0
  C  C55  1  0.03604000  0.68576000  0.71567000  1.0
  C  C56  1  0.87756000  0.45083000  0.25519000  1.0
  C  C57  1  0.12244000  0.54917000  0.74481000  1.0
  C  C58  1  0.90027000  0.56584000  0.27793000  1.0
  C  C59  1  0.09973000  0.43416000  0.72207000  1.0
  C  C60  1  0.01048000  0.55211000  0.33049000  1.0
  C  C61  1  0.98952000  0.44788000  0.66951000  1.0
  C  C62  1  0.09914000  0.42160000  0.35795000  1.0
  C  C63  1  0.90086000  0.57840000  0.64205000  1.0
  C  C64  1  0.07978000  0.30189000  0.33509000  1.0
  C  C65  1  0.92022000  0.69811000  0.66491000  1.0
  C  C66  1  0.17734000  0.17230000  0.36491000  1.0
  C  C67  1  0.82266000  0.82770000  0.63509000  1.0
  C  C68  1  0.26667000  0.91764000  0.38630000  1.0
  C  C69  1  0.73333000  0.08235000  0.61370000  1.0
  C  C70  1  0.18520000  0.82080000  0.46781000  1.0
  C  C71  1  0.81479000  0.17920000  0.53219000  1.0
  C  C72  1  0.28562000  0.67907000  0.50256000  1.0
  C  C73  1  0.71438000  0.32093000  0.49744000  1.0
  C  C74  1  0.35638000  0.60906000  0.42072000  1.0
  C  C75  1  0.64362000  0.39094000  0.57928000  1.0
  C  C76  1  0.43824000  0.70493000  0.33967000  1.0
  C  C77  1  0.56176000  0.29507000  0.66033000  1.0
  C  C78  1  0.33515000  0.84454000  0.30400000  1.0
  C  C79  1  0.66485000  0.15546000  0.69600000  1.0
  C  C80  1  0.35031000  0.00355000  0.14574000  1.0
  C  C81  1  0.64969000  0.99645000  0.85426000  1.0
  C  C82  1  0.40275000  0.11042000  0.07184000  1.0
  C  C83  1  0.59725000  0.88958000  0.92816000  1.0
  C  C84  1  0.32684000  0.17081000  0.99273000  1.0
  C  C85  1  0.67316000  0.82919000  0.00727000  1.0
  C  C86  1  0.36684000  0.28159000  0.92120000  1.0
  C  C87  1  0.63316000  0.71841000  0.07880000  1.0
  C  C88  1  0.48273000  0.33661000  0.92813000  1.0
  C  C89  1  0.51727000  0.66339000  0.07187000  1.0
  C  C90  1  0.55886000  0.27978000  0.00433000  1.0
  C  C91  1  0.44114000  0.72022000  0.99567000  1.0
  C  C92  1  0.52500000  0.16221000  0.07750000  1.0
  C  C93  1  0.47500000  0.83779000  0.92250000  1.0
  C  C94  1  0.93842000  0.35265000  0.03463000  1.0
  C  C95  1  0.06158000  0.64735000  0.96537000  1.0
  N  N96  1  0.16953000  0.05180000  0.35258000  1.0
  N  N97  1  0.83047000  0.94820000  0.64742000  1.0
  N  N98  1  0.40589000  0.93908000  0.22439000  1.0
  N  N99  1  0.59411000  0.06092000  0.77561000  1.0
  N  N100  1  0.01554000  0.88865000  0.14286000  1.0
  N  N101  1  0.98446000  0.11135000  0.85714000  1.0
  N  N102  1  0.73916000  0.87013000  0.38897000  1.0
  N  N103  1  0.26084000  0.12987000  0.61103000  1.0
  N  N104  1  0.54286000  0.31319000  0.27264000  1.0
  N  N105  1  0.45714000  0.68681000  0.72736000  1.0
  O  O106  1  0.94048000  0.20289000  0.26700000  1.0
  O  O107  1  0.05952000  0.79711000  0.73301000  1.0
  O  O108  1  0.59933000  0.10126000  0.14781000  1.0
  O  O109  1  0.40067000  0.89874000  0.85219000  1.0
  O  O110  1  0.02300000  0.92446000  0.21752000  1.0
  O  O111  1  0.97700000  0.07554000  0.78248000  1.0
  O  O112  1  0.12398000  0.81586000  0.10365000  1.0
  O  O113  1  0.87602000  0.18414000  0.89635000  1.0
  O  O114  1  0.89581000  0.93127000  0.11082000  1.0
  O  O115  1  0.10419000  0.06873000  0.88918000  1.0
  O  O116  1  0.70092000  0.88549000  0.30740000  1.0
  O  O117  1  0.29908000  0.11451000  0.69260000  1.0
  O  O118  1  0.70738000  0.77619000  0.45887000  1.0
  O  O119  1  0.29261000  0.22381000  0.54113000  1.0
  O  O120  1  0.81105000  0.95812000  0.39176000  1.0
  O  O121  1  0.18895000  0.04188000  0.60824000  1.0
  O  O122  1  0.57107000  0.18860000  0.32803000  1.0
  O  O123  1  0.42893000  0.81140000  0.67197000  1.0
  O  O124  1  0.43103000  0.39974000  0.28872000  1.0
  O  O125  1  0.56897000  0.60026000  0.71128000  1.0
  O  O126  1  0.63914000  0.34180000  0.19885000  1.0
  O  O127  1  0.36086000  0.65820000  0.80115000  1.0
  O  O128  1  0.90350000  0.21531000  0.06557000  1.0
  O  O129  1  0.09650000  0.78469000  0.93443000  1.0
