# generated using pymatgen
data_UH11C13S(NO3)2
_symmetry_space_group_name_H-M   'P 1'
_cell_length_a   7.56067000
_cell_length_b   8.83222000
_cell_length_c   12.29170000
_cell_angle_alpha   86.38150000
_cell_angle_beta   73.41750000
_cell_angle_gamma   75.99950000
_symmetry_Int_Tables_number   1
_chemical_formula_structural   UH11C13S(NO3)2
_chemical_formula_sum   'U2 H22 C26 S2 N4 O12'
_cell_volume   763.28668753
_cell_formula_units_Z   2
loop_
 _symmetry_equiv_pos_site_id
 _symmetry_equiv_pos_as_xyz
  1  'x, y, z'
loop_
 _atom_site_type_symbol
 _atom_site_label
 _atom_site_symmetry_multiplicity
 _atom_site_fract_x
 _atom_site_fract_y
 _atom_site_fract_z
 _atom_site_occupancy
  U  U0  1  0.44058000  0.42565000  0.15442000  1.0
  U  U1  1  0.55942000  0.57436000  0.84558000  1.0
  H  H2  1  0.76366000  0.37082000  0.97427000  1.0
  H  H3  1  0.23632000  0.62918000  0.02573000  1.0
  H  H4  1  0.38540000  0.88422000  0.06749000  1.0
  H  H5  1  0.61460000  0.11578000  0.93251000  1.0
  H  H6  1  0.30272000  0.09329000  0.06965000  1.0
  H  H7  1  0.69727000  0.90671000  0.93036000  1.0
  H  H8  1  0.11618000  0.78171000  0.16997000  1.0
  H  H9  1  0.88382000  0.21829000  0.83003000  1.0
  H  H10  1  0.87913000  0.98227000  0.29867000  1.0
  H  H11  1  0.12088000  0.01774000  0.70134000  1.0
  H  H12  1  0.83246000  0.95062000  0.51166000  1.0
  H  H13  1  0.16755000  0.04938000  0.48835000  1.0
  H  H14  1  0.11526000  0.56199000  0.73731000  1.0
  H  H15  1  0.88474000  0.43800000  0.26269000  1.0
  H  H16  1  0.91945000  0.79698000  0.66914000  1.0
  H  H17  1  0.08056000  0.20302000  0.33086000  1.0
  H  H18  1  0.35506000  0.30941000  0.69548000  1.0
  H  H19  1  0.64494000  0.69059000  0.30452000  1.0
  H  H20  1  0.57695000  0.11537000  0.55217000  1.0
  H  H21  1  0.42305000  0.88462000  0.44783000  1.0
  H  H22  1  0.59791000  0.16466000  0.34525000  1.0
  H  H23  1  0.40209000  0.83534000  0.65475000  1.0
  C  C24  1  0.42833000  0.99582000  0.05705000  1.0
  C  C25  1  0.57166000  0.00418000  0.94295000  1.0
  C  C26  1  0.09333000  0.76860000  0.26115000  1.0
  C  C27  1  0.90667000  0.23140000  0.73886000  1.0
  C  C28  1  0.96011000  0.88353000  0.33487000  1.0
  C  C29  1  0.03990000  0.11648000  0.66513000  1.0
  C  C30  1  0.93458000  0.86609000  0.45013000  1.0
  C  C31  1  0.06542000  0.13391000  0.54987000  1.0
  C  C32  1  0.04290000  0.73369000  0.49110000  1.0
  C  C33  1  0.95710000  0.26631000  0.50889000  1.0
  C  C34  1  0.17309000  0.62182000  0.41040000  1.0
  C  C35  1  0.82691000  0.37818000  0.58960000  1.0
  C  C36  1  0.28107000  0.48354000  0.45010000  1.0
  C  C37  1  0.71893000  0.51645000  0.54990000  1.0
  C  C38  1  0.26003000  0.46475000  0.56870000  1.0
  C  C39  1  0.73996000  0.53525000  0.43130000  1.0
  C  C40  1  0.12923000  0.58071000  0.64716000  1.0
  C  C41  1  0.87077000  0.41929000  0.35284000  1.0
  C  C42  1  0.02336000  0.71021000  0.60974000  1.0
  C  C43  1  0.97664000  0.28979000  0.39026000  1.0
  C  C44  1  0.36922000  0.32870000  0.60517000  1.0
  C  C45  1  0.63078000  0.67130000  0.39483000  1.0
  C  C46  1  0.49216000  0.22094000  0.52512000  1.0
  C  C47  1  0.50785000  0.77905000  0.47488000  1.0
  C  C48  1  0.50342000  0.24794000  0.41004000  1.0
  C  C49  1  0.49658000  0.75206000  0.58996000  1.0
  S  S50  1  0.52597000  0.00326000  0.17321000  1.0
  S  S51  1  0.47403000  0.99674000  0.82680000  1.0
  N  N52  1  0.19752000  0.64090000  0.29642000  1.0
  N  N53  1  0.80248000  0.35910000  0.70357000  1.0
  N  N54  1  0.39969000  0.37408000  0.37256000  1.0
  N  N55  1  0.60031000  0.62592000  0.62744000  1.0
  O  O56  1  0.23638000  0.36411000  0.14054000  1.0
  O  O57  1  0.76361000  0.63590000  0.85947000  1.0
  O  O58  1  0.63870000  0.49638000  0.16816000  1.0
  O  O59  1  0.36131000  0.50362000  0.83183000  1.0
  O  O60  1  0.57903000  0.16117000  0.16301000  1.0
  O  O61  1  0.42096000  0.83884000  0.83699000  1.0
  O  O62  1  0.37361000  0.99847000  0.27694000  1.0
  O  O63  1  0.62639000  0.00153000  0.72307000  1.0
  O  O64  1  0.69715000  0.87939000  0.15761000  1.0
  O  O65  1  0.30285000  0.12062000  0.84238000  1.0
  O  O66  1  0.64009000  0.36909000  0.96501000  1.0
  O  O67  1  0.35989000  0.63091000  0.03498000  1.0
