# generated using pymatgen
data_AgH8C12N4O3
_symmetry_space_group_name_H-M   'P 1'
_cell_length_a   9.75011000
_cell_length_b   9.79892000
_cell_length_c   13.72650000
_cell_angle_alpha   76.32110000
_cell_angle_beta   76.25120000
_cell_angle_gamma   76.45510000
_symmetry_Int_Tables_number   1
_chemical_formula_structural   AgH8C12N4O3
_chemical_formula_sum   'Ag4 H32 C48 N16 O12'
_cell_volume   1215.51599679
_cell_formula_units_Z   4
loop_
 _symmetry_equiv_pos_site_id
 _symmetry_equiv_pos_as_xyz
  1  'x, y, z'
loop_
 _atom_site_type_symbol
 _atom_site_label
 _atom_site_symmetry_multiplicity
 _atom_site_fract_x
 _atom_site_fract_y
 _atom_site_fract_z
 _atom_site_occupancy
  Ag  Ag0  1  0.71028000  0.22437000  0.85760000  1.0
  Ag  Ag1  1  0.22510000  0.71086000  0.35800000  1.0
  Ag  Ag2  1  0.26631000  0.24058000  0.93773000  1.0
  Ag  Ag3  1  0.24100000  0.26632000  0.43745000  1.0
  H  H4  1  0.68230000  0.87584000  0.96577000  1.0
  H  H5  1  0.87597000  0.68243000  0.46559000  1.0
  H  H6  1  0.83355000  0.04820000  0.65658000  1.0
  H  H7  1  0.04900000  0.83363000  0.15646000  1.0
  H  H8  1  0.65496000  0.62436000  0.92816000  1.0
  H  H9  1  0.62286000  0.65600000  0.42848000  1.0
  H  H10  1  0.73952000  0.58925000  0.80308000  1.0
  H  H11  1  0.58752000  0.73998000  0.30352000  1.0
  H  H12  1  0.85152000  0.49781000  0.20609000  1.0
  H  H13  1  0.49740000  0.85263000  0.70592000  1.0
  H  H14  1  0.94999000  0.42072000  0.36757000  1.0
  H  H15  1  0.42036000  0.95080000  0.86748000  1.0
  H  H16  1  0.36936000  0.36080000  0.20616000  1.0
  H  H17  1  0.36140000  0.36790000  0.70626000  1.0
  H  H18  1  0.29062000  0.42882000  0.03904000  1.0
  H  H19  1  0.42924000  0.28943000  0.53915000  1.0
  H  H20  1  0.01273000  0.19597000  0.82928000  1.0
  H  H21  1  0.19488000  0.01278000  0.32924000  1.0
  H  H22  1  0.07466000  0.13532000  0.65446000  1.0
  H  H23  1  0.13404000  0.07488000  0.15444000  1.0
  H  H24  1  0.10683000  0.55339000  0.51552000  1.0
  H  H25  1  0.55443000  0.10663000  0.01548000  1.0
  H  H26  1  0.02211000  0.63746000  0.68130000  1.0
  H  H27  1  0.63878000  0.02198000  0.18116000  1.0
  H  H28  1  0.60460000  0.42026000  0.12971000  1.0
  H  H29  1  0.42031000  0.60439000  0.62973000  1.0
  H  H30  1  0.92733000  0.08096000  0.24516000  1.0
  H  H31  1  0.08122000  0.92744000  0.74516000  1.0
  H  H32  1  0.63629000  0.33955000  0.44755000  1.0
  H  H33  1  0.33930000  0.63630000  0.94762000  1.0
  H  H34  1  0.03031000  0.98297000  0.48351000  1.0
  H  H35  1  0.98315000  0.03036000  0.98339000  1.0
  C  C36  1  0.72203000  0.89146000  0.88384000  1.0
  C  C37  1  0.89158000  0.72208000  0.38368000  1.0
  C  C38  1  0.80149000  0.97374000  0.72671000  1.0
  C  C39  1  0.97419000  0.80152000  0.22659000  1.0
  C  C40  1  0.74822000  0.63607000  0.86603000  1.0
  C  C41  1  0.63489000  0.74857000  0.36631000  1.0
  C  C42  1  0.00854000  0.48901000  0.01591000  1.0
  C  C43  1  0.48900000  0.00858000  0.51591000  1.0
  C  C44  1  0.06301000  0.46534000  0.11000000  1.0
  C  C45  1  0.46539000  0.06298000  0.60995000  1.0
  C  C46  1  0.96690000  0.46915000  0.20345000  1.0
  C  C47  1  0.46890000  0.96743000  0.70338000  1.0
  C  C48  1  0.02137000  0.42703000  0.29288000  1.0
  C  C49  1  0.42685000  0.02175000  0.79283000  1.0
  C  C50  1  0.25537000  0.39177000  0.20311000  1.0
  C  C51  1  0.39219000  0.25447000  0.70316000  1.0
  C  C52  1  0.21076000  0.42963000  0.10988000  1.0
  C  C53  1  0.42998000  0.20997000  0.60991000  1.0
  C  C54  1  0.98796000  0.46361000  0.86923000  1.0
  C  C55  1  0.46356000  0.98814000  0.36922000  1.0
  C  C56  1  0.01386000  0.42247000  0.76925000  1.0
  C  C57  1  0.42253000  0.01400000  0.26918000  1.0
  C  C58  1  0.02719000  0.27958000  0.76159000  1.0
  C  C59  1  0.27895000  0.02730000  0.26154000  1.0
  C  C60  1  0.06427000  0.24451000  0.66482000  1.0
  C  C61  1  0.24376000  0.06443000  0.16482000  1.0
  C  C62  1  0.07785000  0.47842000  0.58648000  1.0
  C  C63  1  0.47899000  0.07781000  0.08645000  1.0
  C  C64  1  0.03463000  0.52475000  0.67930000  1.0
  C  C65  1  0.52548000  0.03463000  0.17922000  1.0
  C  C66  1  0.82637000  0.20899000  0.07186000  1.0
  C  C67  1  0.20914000  0.82620000  0.57197000  1.0
  C  C68  1  0.86970000  0.13547000  0.44083000  1.0
  C  C69  1  0.13565000  0.86971000  0.94078000  1.0
  C  C70  1  0.47321000  0.50468000  0.31558000  1.0
  C  C71  1  0.50478000  0.47315000  0.81543000  1.0
  C  C72  1  0.60232000  0.39015000  0.29195000  1.0
  C  C73  1  0.39021000  0.60224000  0.79197000  1.0
  C  C74  1  0.65409000  0.35828000  0.19386000  1.0
  C  C75  1  0.35834000  0.65392000  0.69391000  1.0
  C  C76  1  0.77065000  0.24587000  0.17700000  1.0
  C  C77  1  0.24594000  0.77047000  0.67707000  1.0
  C  C78  1  0.83721000  0.16801000  0.25833000  1.0
  C  C79  1  0.16810000  0.83718000  0.75836000  1.0
  C  C80  1  0.79098000  0.20383000  0.35514000  1.0
  C  C81  1  0.20386000  0.79092000  0.85516000  1.0
  C  C82  1  0.67234000  0.31325000  0.37167000  1.0
  C  C83  1  0.31318000  0.67227000  0.87171000  1.0
  N  N84  1  0.75026000  0.01191000  0.82067000  1.0
  N  N85  1  0.01255000  0.75045000  0.32045000  1.0
  N  N86  1  0.80596000  0.83663000  0.72913000  1.0
  N  N87  1  0.83640000  0.80576000  0.22913000  1.0
  N  N88  1  0.75340000  0.78632000  0.82939000  1.0
  N  N89  1  0.78595000  0.75317000  0.32935000  1.0
  N  N90  1  0.87543000  0.56057000  0.90668000  1.0
  N  N91  1  0.55989000  0.87549000  0.40693000  1.0
  N  N92  1  0.88628000  0.57708000  0.99955000  1.0
  N  N93  1  0.57651000  0.88627000  0.49978000  1.0
  N  N94  1  0.07419000  0.41635000  0.93761000  1.0
  N  N95  1  0.41666000  0.07437000  0.43742000  1.0
  N  N96  1  0.16299000  0.38637000  0.29335000  1.0
  N  N97  1  0.38653000  0.16267000  0.79337000  1.0
  N  N98  1  0.09389000  0.34108000  0.57869000  1.0
  N  N99  1  0.34094000  0.09400000  0.07870000  1.0
  O  O100  1  0.93488000  0.10637000  0.06495000  1.0
  O  O101  1  0.10665000  0.93471000  0.56501000  1.0
  O  O102  1  0.76247000  0.28144000  0.00060000  1.0
  O  O103  1  0.28176000  0.76226000  0.50071000  1.0
  O  O104  1  0.38980000  0.47802000  0.40214000  1.0
  O  O105  1  0.47758000  0.39022000  0.90192000  1.0
  O  O106  1  0.45489000  0.62068000  0.25086000  1.0
  O  O107  1  0.62134000  0.45426000  0.75065000  1.0
  O  O108  1  0.84241000  0.18565000  0.51951000  1.0
  O  O109  1  0.18601000  0.84236000  0.01944000  1.0
  O  O110  1  0.97046000  0.02238000  0.42295000  1.0
  O  O111  1  0.02257000  0.97064000  0.92283000  1.0
