# generated using pymatgen
data_Li3H7C13(NO3)2
_symmetry_space_group_name_H-M   'P 1'
_cell_length_a   10.13280000
_cell_length_b   10.40750000
_cell_length_c   13.24690000
_cell_angle_alpha   90.00000000
_cell_angle_beta   89.99940000
_cell_angle_gamma   106.25900000
_symmetry_Int_Tables_number   1
_chemical_formula_structural   Li3H7C13(NO3)2
_chemical_formula_sum   'Li12 H28 C52 N8 O24'
_cell_volume   1341.10889923
_cell_formula_units_Z   4
loop_
 _symmetry_equiv_pos_site_id
 _symmetry_equiv_pos_as_xyz
  1  'x, y, z'
loop_
 _atom_site_type_symbol
 _atom_site_label
 _atom_site_symmetry_multiplicity
 _atom_site_fract_x
 _atom_site_fract_y
 _atom_site_fract_z
 _atom_site_occupancy
  Li  Li0  1  0.89096000  0.93065000  0.88778000  1.0
  Li  Li1  1  0.10904000  0.56935000  0.38779000  1.0
  Li  Li2  1  0.10904000  0.06934000  0.11222000  1.0
  Li  Li3  1  0.89096000  0.43065000  0.61222000  1.0
  Li  Li4  1  0.94590000  0.67397000  0.80351000  1.0
  Li  Li5  1  0.05409000  0.82603000  0.30351000  1.0
  Li  Li6  1  0.05410000  0.32603000  0.19649000  1.0
  Li  Li7  1  0.94590000  0.17397000  0.69649000  1.0
  Li  Li8  1  0.69305000  0.52456000  0.66889000  1.0
  Li  Li9  1  0.30694000  0.97543000  0.16889000  1.0
  Li  Li10  1  0.30695000  0.47544000  0.33110000  1.0
  Li  Li11  1  0.69306000  0.02456000  0.83111000  1.0
  H  H12  1  0.70589000  0.26560000  0.89759000  1.0
  H  H13  1  0.29411000  0.23440000  0.39759000  1.0
  H  H14  1  0.29411000  0.73439000  0.10241000  1.0
  H  H15  1  0.70589000  0.76561000  0.60241000  1.0
  H  H16  1  0.77769000  0.62788000  0.07440000  1.0
  H  H17  1  0.22231000  0.87212000  0.57440000  1.0
  H  H18  1  0.22231000  0.37212000  0.92560000  1.0
  H  H19  1  0.77768000  0.12788000  0.42560000  1.0
  H  H20  1  0.44370000  0.82308000  0.82386000  1.0
  H  H21  1  0.55629000  0.67693000  0.32385000  1.0
  H  H22  1  0.55631000  0.17692000  0.17614000  1.0
  H  H23  1  0.44371000  0.32307000  0.67614000  1.0
  H  H24  1  0.65164000  0.48270000  0.93239000  1.0
  H  H25  1  0.34837000  0.01731000  0.43239000  1.0
  H  H26  1  0.34837000  0.51730000  0.06761000  1.0
  H  H27  1  0.65163000  0.98269000  0.56762000  1.0
  H  H28  1  0.38828000  0.47986000  0.56068000  1.0
  H  H29  1  0.61170000  0.02016000  0.06069000  1.0
  H  H30  1  0.61172000  0.52014000  0.43932000  1.0
  H  H31  1  0.38828000  0.97986000  0.93932000  1.0
  H  H32  1  0.19717000  0.58329000  0.58924000  1.0
  H  H33  1  0.80282000  0.91674000  0.08924000  1.0
  H  H34  1  0.80282000  0.41671000  0.41076000  1.0
  H  H35  1  0.19718000  0.08328000  0.91076000  1.0
  H  H36  1  0.22161000  0.75610000  0.72448000  1.0
  H  H37  1  0.77839000  0.74392000  0.22447000  1.0
  H  H38  1  0.77840000  0.24390000  0.27552000  1.0
  H  H39  1  0.22161000  0.25609000  0.77552000  1.0
  C  C40  1  0.96627000  0.56368000  0.20309000  1.0
  C  C41  1  0.03374000  0.93631000  0.70308000  1.0
  C  C42  1  0.03373000  0.43632000  0.79692000  1.0
  C  C43  1  0.96627000  0.06367000  0.29692000  1.0
  C  C44  1  0.66737000  0.72739000  0.79657000  1.0
  C  C45  1  0.33262000  0.77261000  0.29658000  1.0
  C  C46  1  0.33264000  0.27258000  0.20342000  1.0
  C  C47  1  0.66737000  0.22740000  0.70342000  1.0
  C  C48  1  0.90175000  0.17167000  0.99499000  1.0
  C  C49  1  0.09826000  0.32833000  0.49499000  1.0
  C  C50  1  0.09825000  0.82833000  0.00501000  1.0
  C  C51  1  0.90175000  0.67167000  0.50501000  1.0
  C  C52  1  0.85668000  0.29629000  0.01572000  1.0
  C  C53  1  0.14332000  0.20371000  0.51572000  1.0
  C  C54  1  0.14332000  0.70370000  0.98428000  1.0
  C  C55  1  0.85668000  0.79630000  0.48428000  1.0
  C  C56  1  0.75657000  0.33124000  0.95805000  1.0
  C  C57  1  0.24343000  0.16876000  0.45805000  1.0
  C  C58  1  0.24343000  0.66876000  0.04195000  1.0
  C  C59  1  0.75657000  0.83124000  0.54196000  1.0
  C  C60  1  0.79472000  0.53166000  0.05706000  1.0
  C  C61  1  0.20529000  0.96834000  0.55706000  1.0
  C  C62  1  0.20529000  0.46834000  0.94294000  1.0
  C  C63  1  0.79471000  0.03166000  0.44294000  1.0
  C  C64  1  0.88979000  0.48687000  0.11361000  1.0
  C  C65  1  0.11022000  0.01314000  0.61361000  1.0
  C  C66  1  0.11022000  0.51313000  0.88639000  1.0
  C  C67  1  0.88978000  0.98687000  0.38639000  1.0
  C  C68  1  0.52905000  0.68532000  0.74413000  1.0
  C  C69  1  0.47094000  0.81468000  0.24413000  1.0
  C  C70  1  0.47095000  0.31468000  0.25587000  1.0
  C  C71  1  0.52906000  0.18531000  0.75587000  1.0
  C  C72  1  0.42654000  0.74706000  0.76526000  1.0
  C  C73  1  0.57345000  0.75294000  0.26525000  1.0
  C  C74  1  0.57346000  0.25293000  0.23474000  1.0
  C  C75  1  0.42655000  0.24706000  0.73474000  1.0
  C  C76  1  0.72592000  0.45117000  0.97862000  1.0
  C  C77  1  0.27409000  0.04883000  0.47862000  1.0
  C  C78  1  0.27409000  0.54883000  0.02138000  1.0
  C  C79  1  0.72591000  0.95117000  0.52138000  1.0
  C  C80  1  0.39698000  0.55574000  0.61921000  1.0
  C  C81  1  0.60300000  0.94427000  0.11921000  1.0
  C  C82  1  0.60301000  0.44425000  0.38078000  1.0
  C  C83  1  0.39699000  0.05574000  0.88079000  1.0
  C  C84  1  0.29005000  0.61370000  0.63491000  1.0
  C  C85  1  0.70995000  0.88631000  0.13491000  1.0
  C  C86  1  0.70995000  0.38630000  0.36509000  1.0
  C  C87  1  0.29005000  0.11369000  0.86509000  1.0
  C  C88  1  0.30447000  0.71025000  0.71020000  1.0
  C  C89  1  0.69552000  0.78976000  0.21019000  1.0
  C  C90  1  0.69554000  0.28974000  0.28981000  1.0
  C  C91  1  0.30447000  0.21025000  0.78981000  1.0
  N  N92  1  0.92047000  0.37250000  0.09262000  1.0
  N  N93  1  0.07954000  0.12750000  0.59261000  1.0
  N  N94  1  0.07954000  0.62750000  0.90739000  1.0
  N  N95  1  0.92046000  0.87250000  0.40739000  1.0
  N  N96  1  0.51405000  0.58904000  0.67297000  1.0
  N  N97  1  0.48594000  0.91097000  0.17298000  1.0
  N  N98  1  0.48596000  0.41096000  0.32702000  1.0
  N  N99  1  0.51405000  0.08903000  0.82703000  1.0
  O  O100  1  0.74492000  0.65108000  0.78539000  1.0
  O  O101  1  0.25507000  0.84892000  0.28540000  1.0
  O  O102  1  0.25507000  0.34893000  0.21461000  1.0
  O  O103  1  0.74494000  0.15107000  0.71461000  1.0
  O  O104  1  0.82703000  0.08361000  0.93617000  1.0
  O  O105  1  0.17298000  0.41639000  0.43617000  1.0
  O  O106  1  0.17296000  0.91638000  0.06383000  1.0
  O  O107  1  0.82704000  0.58362000  0.56383000  1.0
  O  O108  1  0.03609000  0.50297000  0.25545000  1.0
  O  O109  1  0.96391000  0.99703000  0.75545000  1.0
  O  O110  1  0.96391000  0.49702000  0.74456000  1.0
  O  O111  1  0.03608000  0.00298000  0.24455000  1.0
  O  O112  1  0.95545000  0.67976000  0.21904000  1.0
  O  O113  1  0.04455000  0.82025000  0.71904000  1.0
  O  O114  1  0.04455000  0.32023000  0.78096000  1.0
  O  O115  1  0.95545000  0.17978000  0.28096000  1.0
  O  O116  1  0.69751000  0.83669000  0.84547000  1.0
  O  O117  1  0.30248000  0.66331000  0.34547000  1.0
  O  O118  1  0.30249000  0.16331000  0.15454000  1.0
  O  O119  1  0.69751000  0.33668000  0.65453000  1.0
  O  O120  1  0.00927000  0.16268000  0.03848000  1.0
  O  O121  1  0.99073000  0.33732000  0.53848000  1.0
  O  O122  1  0.99072000  0.83731000  0.96152000  1.0
  O  O123  1  0.00929000  0.66270000  0.46152000  1.0
