# generated using pymatgen
data_TbH5(C3O2)3
_symmetry_space_group_name_H-M   'P 1'
_cell_length_a   6.61359000
_cell_length_b   10.70970000
_cell_length_c   12.93290000
_cell_angle_alpha   90.00000000
_cell_angle_beta   90.00020000
_cell_angle_gamma   95.42470000
_symmetry_Int_Tables_number   1
_chemical_formula_structural   TbH5(C3O2)3
_chemical_formula_sum   'Tb4 H20 C36 O24'
_cell_volume   911.92904996
_cell_formula_units_Z   4
loop_
 _symmetry_equiv_pos_site_id
 _symmetry_equiv_pos_as_xyz
  1  'x, y, z'
loop_
 _atom_site_type_symbol
 _atom_site_label
 _atom_site_symmetry_multiplicity
 _atom_site_fract_x
 _atom_site_fract_y
 _atom_site_fract_z
 _atom_site_occupancy
  Tb  Tb0  1  0.10020000  0.42571000  0.87300000  1.0
  Tb  Tb1  1  0.39980000  0.57429000  0.37300000  1.0
  Tb  Tb2  1  0.89980000  0.57430000  0.12700000  1.0
  Tb  Tb3  1  0.60020000  0.42571000  0.62700000  1.0
  H  H4  1  0.75479000  0.15650000  0.49791000  1.0
  H  H5  1  0.74520000  0.84350000  0.99791000  1.0
  H  H6  1  0.24521000  0.84350000  0.50209000  1.0
  H  H7  1  0.25480000  0.15650000  0.00209000  1.0
  H  H8  1  0.65533000  0.93371000  0.44559000  1.0
  H  H9  1  0.84467000  0.06629000  0.94559000  1.0
  H  H10  1  0.34467000  0.06629000  0.55441000  1.0
  H  H11  1  0.15533000  0.93371000  0.05441000  1.0
  H  H12  1  0.90945000  0.80460000  0.72716000  1.0
  H  H13  1  0.59055000  0.19540000  0.22715000  1.0
  H  H14  1  0.09055000  0.19540000  0.27285000  1.0
  H  H15  1  0.40945000  0.80460000  0.77285000  1.0
  H  H16  1  0.01355000  0.02730000  0.77842000  1.0
  H  H17  1  0.48645000  0.97270000  0.27842000  1.0
  H  H18  1  0.98645000  0.97270000  0.22158000  1.0
  H  H19  1  0.51355000  0.02730000  0.72158000  1.0
  H  H20  1  0.56877000  0.58320000  0.86723000  1.0
  H  H21  1  0.93123000  0.41680000  0.36723000  1.0
  H  H22  1  0.43123000  0.41680000  0.13277000  1.0
  H  H23  1  0.06877000  0.58320000  0.63277000  1.0
  C  C24  1  0.89089000  0.10495000  0.64109000  1.0
  C  C25  1  0.60911000  0.89505000  0.14109000  1.0
  C  C26  1  0.10911000  0.89505000  0.35891000  1.0
  C  C27  1  0.39089000  0.10495000  0.85891000  1.0
  C  C28  1  0.78947000  0.07896000  0.54722000  1.0
  C  C29  1  0.71053000  0.92105000  0.04722000  1.0
  C  C30  1  0.21053000  0.92104000  0.45278000  1.0
  C  C31  1  0.28947000  0.07895000  0.95278000  1.0
  C  C32  1  0.73302000  0.95577000  0.51840000  1.0
  C  C33  1  0.76698000  0.04423000  0.01840000  1.0
  C  C34  1  0.26699000  0.04423000  0.48160000  1.0
  C  C35  1  0.23302000  0.95577000  0.98160000  1.0
  C  C36  1  0.77491000  0.85654000  0.58339000  1.0
  C  C37  1  0.72509000  0.14346000  0.08339000  1.0
  C  C38  1  0.22509000  0.14345000  0.41661000  1.0
  C  C39  1  0.27491000  0.85654000  0.91661000  1.0
  C  C40  1  0.87734000  0.88221000  0.67710000  1.0
  C  C41  1  0.62266000  0.11780000  0.17710000  1.0
  C  C42  1  0.12266000  0.11779000  0.32290000  1.0
  C  C43  1  0.37734000  0.88221000  0.82290000  1.0
  C  C44  1  0.93555000  0.00579000  0.70555000  1.0
  C  C45  1  0.56445000  0.99421000  0.20555000  1.0
  C  C46  1  0.06445000  0.99421000  0.29445000  1.0
  C  C47  1  0.43555000  0.00579000  0.79445000  1.0
  C  C48  1  0.94058000  0.23804000  0.67422000  1.0
  C  C49  1  0.55941000  0.76196000  0.17422000  1.0
  C  C50  1  0.05942000  0.76196000  0.32578000  1.0
  C  C51  1  0.44059000  0.23804000  0.82578000  1.0
  C  C52  1  0.70508000  0.72533000  0.55116000  1.0
  C  C53  1  0.79493000  0.27467000  0.05116000  1.0
  C  C54  1  0.29492000  0.27467000  0.44884000  1.0
  C  C55  1  0.20507000  0.72533000  0.94884000  1.0
  C  C56  1  0.71579000  0.54216000  0.86863000  1.0
  C  C57  1  0.78421000  0.45784000  0.36862000  1.0
  C  C58  1  0.28422000  0.45784000  0.13138000  1.0
  C  C59  1  0.21579000  0.54216000  0.63138000  1.0
  O  O60  1  0.03174000  0.25932000  0.75919000  1.0
  O  O61  1  0.46826000  0.74068000  0.25919000  1.0
  O  O62  1  0.96826000  0.74068000  0.24081000  1.0
  O  O63  1  0.53174000  0.25932000  0.74081000  1.0
  O  O64  1  0.88310000  0.32493000  0.61537000  1.0
  O  O65  1  0.61690000  0.67507000  0.11537000  1.0
  O  O66  1  0.11690000  0.67507000  0.38463000  1.0
  O  O67  1  0.38310000  0.32493000  0.88463000  1.0
  O  O68  1  0.62152000  0.71173000  0.46273000  1.0
  O  O69  1  0.87849000  0.28827000  0.96273000  1.0
  O  O70  1  0.37848000  0.28827000  0.53727000  1.0
  O  O71  1  0.12151000  0.71173000  0.03727000  1.0
  O  O72  1  0.72985000  0.63608000  0.61434000  1.0
  O  O73  1  0.77016000  0.36392000  0.11434000  1.0
  O  O74  1  0.27015000  0.36392000  0.38567000  1.0
  O  O75  1  0.22984000  0.63608000  0.88566000  1.0
  O  O76  1  0.77988000  0.48945000  0.78806000  1.0
  O  O77  1  0.72013000  0.51055000  0.28806000  1.0
  O  O78  1  0.22012000  0.51055000  0.21194000  1.0
  O  O79  1  0.27987000  0.48945000  0.71194000  1.0
  O  O80  1  0.82173000  0.54888000  0.95038000  1.0
  O  O81  1  0.67827000  0.45111000  0.45038000  1.0
  O  O82  1  0.17827000  0.45112000  0.04962000  1.0
  O  O83  1  0.32173000  0.54888000  0.54962000  1.0
