# generated using pymatgen
data_ZnH12C18N11O6
_symmetry_space_group_name_H-M   'P 1'
_cell_length_a   9.02382000
_cell_length_b   12.42880000
_cell_length_c   12.64550000
_cell_angle_alpha   111.21900000
_cell_angle_beta   107.01100000
_cell_angle_gamma   100.97400000
_symmetry_Int_Tables_number   1
_chemical_formula_structural   ZnH12C18N11O6
_chemical_formula_sum   'Zn2 H24 C36 N22 O12'
_cell_volume   1192.40402598
_cell_formula_units_Z   2
loop_
 _symmetry_equiv_pos_site_id
 _symmetry_equiv_pos_as_xyz
  1  'x, y, z'
loop_
 _atom_site_type_symbol
 _atom_site_label
 _atom_site_symmetry_multiplicity
 _atom_site_fract_x
 _atom_site_fract_y
 _atom_site_fract_z
 _atom_site_occupancy
  Zn  Zn0  1  0.73224000  0.17944000  0.83919000  1.0
  Zn  Zn1  1  0.26776000  0.82056000  0.16081000  1.0
  H  H2  1  0.45110000  0.15253000  0.60461000  1.0
  H  H3  1  0.54891000  0.84746000  0.39539000  1.0
  H  H4  1  0.60568000  0.47167000  0.55105000  1.0
  H  H5  1  0.39432000  0.52833000  0.44895000  1.0
  H  H6  1  0.85798000  0.55173000  0.74673000  1.0
  H  H7  1  0.14201000  0.44827000  0.25327000  1.0
  H  H8  1  0.88982000  0.42829000  0.86253000  1.0
  H  H9  1  0.11017000  0.57172000  0.13747000  1.0
  H  H10  1  0.00966000  0.20784000  0.06348000  1.0
  H  H11  1  0.99033000  0.79216000  0.93652000  1.0
  H  H12  1  0.82703000  0.95770000  0.19553000  1.0
  H  H13  1  0.17297000  0.04230000  0.80447000  1.0
  H  H14  1  0.57935000  0.85043000  0.99391000  1.0
  H  H15  1  0.42065000  0.14957000  0.00608000  1.0
  H  H16  1  0.55434000  0.93695000  0.84285000  1.0
  H  H17  1  0.44566000  0.06305000  0.15714000  1.0
  H  H18  1  0.89351000  0.67981000  0.03210000  1.0
  H  H19  1  0.10650000  0.32019000  0.96790000  1.0
  H  H20  1  0.71934000  0.72428000  0.32246000  1.0
  H  H21  1  0.28067000  0.27572000  0.67754000  1.0
  H  H22  1  0.99211000  0.88712000  0.47154000  1.0
  H  H23  1  0.00789000  0.11288000  0.52847000  1.0
  H  H24  1  0.20507000  0.93371000  0.39085000  1.0
  H  H25  1  0.79493000  0.06630000  0.60915000  1.0
  C  C26  1  0.08855000  0.15317000  0.25725000  1.0
  C  C27  1  0.91145000  0.84682000  0.74274000  1.0
  C  C28  1  0.35558000  0.25502000  0.45475000  1.0
  C  C29  1  0.64442000  0.74498000  0.54525000  1.0
  C  C30  1  0.53873000  0.24142000  0.63441000  1.0
  C  C31  1  0.46127000  0.75858000  0.36559000  1.0
  C  C32  1  0.50900000  0.30580000  0.56409000  1.0
  C  C33  1  0.49100000  0.69420000  0.43591000  1.0
  C  C34  1  0.62586000  0.41905000  0.60324000  1.0
  C  C35  1  0.37413000  0.58094000  0.39676000  1.0
  C  C36  1  0.76453000  0.46377000  0.71136000  1.0
  C  C37  1  0.23547000  0.53623000  0.28864000  1.0
  C  C38  1  0.78335000  0.39475000  0.77673000  1.0
  C  C39  1  0.21665000  0.60525000  0.22327000  1.0
  C  C40  1  0.91680000  0.12878000  0.05051000  1.0
  C  C41  1  0.08320000  0.87122000  0.94948000  1.0
  C  C42  1  0.94004000  0.08825000  0.14222000  1.0
  C  C43  1  0.05996000  0.91175000  0.85778000  1.0
  C  C44  1  0.81584000  0.98771000  0.12351000  1.0
  C  C45  1  0.18416000  0.01229000  0.87649000  1.0
  C  C46  1  0.67770000  0.92982000  0.01309000  1.0
  C  C47  1  0.32229000  0.07018000  0.98691000  1.0
  C  C48  1  0.66360000  0.97760000  0.92796000  1.0
  C  C49  1  0.33640000  0.02240000  0.07204000  1.0
  C  C50  1  0.63261000  0.59014000  0.07716000  1.0
  C  C51  1  0.36740000  0.40987000  0.92285000  1.0
  C  C52  1  0.91081000  0.72540000  0.12839000  1.0
  C  C53  1  0.08920000  0.27461000  0.87161000  1.0
  C  C54  1  0.78588000  0.69087000  0.16594000  1.0
  C  C55  1  0.21413000  0.30913000  0.83407000  1.0
  C  C56  1  0.81419000  0.75038000  0.29116000  1.0
  C  C57  1  0.18582000  0.24962000  0.70885000  1.0
  C  C58  1  0.96460000  0.84019000  0.37337000  1.0
  C  C59  1  0.03541000  0.15982000  0.62664000  1.0
  C  C60  1  0.08363000  0.86720000  0.32895000  1.0
  C  C61  1  0.91638000  0.13280000  0.67106000  1.0
  N  N62  1  0.34358000  0.29911000  0.37041000  1.0
  N  N63  1  0.65642000  0.70089000  0.62959000  1.0
  N  N64  1  0.20698000  0.24737000  0.26981000  1.0
  N  N65  1  0.79301000  0.75263000  0.73019000  1.0
  N  N66  1  0.09207000  0.12157000  0.34937000  1.0
  N  N67  1  0.90793000  0.87842000  0.65062000  1.0
  N  N68  1  0.22705000  0.17394000  0.44995000  1.0
  N  N69  1  0.77295000  0.82605000  0.55004000  1.0
  N  N70  1  0.45560000  0.98501000  0.66857000  1.0
  N  N71  1  0.54440000  0.01499000  0.33143000  1.0
  N  N72  1  0.77584000  0.36130000  0.06777000  1.0
  N  N73  1  0.22416000  0.63870000  0.93223000  1.0
  N  N74  1  0.67282000  0.28467000  0.73850000  1.0
  N  N75  1  0.32718000  0.71533000  0.26150000  1.0
  N  N76  1  0.77939000  0.07682000  0.94677000  1.0
  N  N77  1  0.22061000  0.92318000  0.05322000  1.0
  N  N78  1  0.61532000  0.53465000  0.95845000  1.0
  N  N79  1  0.38468000  0.46536000  0.04155000  1.0
  N  N80  1  0.52010000  0.55730000  0.12046000  1.0
  N  N81  1  0.47990000  0.44270000  0.87954000  1.0
  N  N82  1  0.05735000  0.81126000  0.20844000  1.0
  N  N83  1  0.94265000  0.18874000  0.79156000  1.0
  O  O84  1  0.58760000  0.97878000  0.65214000  1.0
  O  O85  1  0.41240000  0.02123000  0.34785000  1.0
  O  O86  1  0.47077000  0.08054000  0.76386000  1.0
  O  O87  1  0.52924000  0.91946000  0.23614000  1.0
  O  O88  1  0.31994000  0.90517000  0.59890000  1.0
  O  O89  1  0.68007000  0.09482000  0.40110000  1.0
  O  O90  1  0.87268000  0.34304000  0.00820000  1.0
  O  O91  1  0.12732000  0.65695000  0.99180000  1.0
  O  O92  1  0.62870000  0.29061000  0.01255000  1.0
  O  O93  1  0.37130000  0.70939000  0.98745000  1.0
  O  O94  1  0.83230000  0.44605000  0.17375000  1.0
  O  O95  1  0.16771000  0.55394000  0.82625000  1.0
