# generated using pymatgen
data_CuH6C10(NO)4
_symmetry_space_group_name_H-M   'P 1'
_cell_length_a   7.90124000
_cell_length_b   24.83370000
_cell_length_c   24.84240000
_cell_angle_alpha   118.88700000
_cell_angle_beta   96.08360000
_cell_angle_gamma   96.08210000
_symmetry_Int_Tables_number   1
_chemical_formula_structural   CuH6C10(NO)4
_chemical_formula_sum   'Cu12 H72 C120 N48 O48'
_cell_volume   4174.24553335
_cell_formula_units_Z   12
loop_
 _symmetry_equiv_pos_site_id
 _symmetry_equiv_pos_as_xyz
  1  'x, y, z'
loop_
 _atom_site_type_symbol
 _atom_site_label
 _atom_site_symmetry_multiplicity
 _atom_site_fract_x
 _atom_site_fract_y
 _atom_site_fract_z
 _atom_site_occupancy
  Cu  Cu0  1  0.24654000  0.99428000  0.24684000  1.0
  Cu  Cu1  1  0.49376000  0.74191000  0.24195000  1.0
  Cu  Cu2  1  0.99987000  0.75320000  0.74768000  1.0
  Cu  Cu3  1  0.25160000  0.75802000  0.50030000  1.0
  Cu  Cu4  1  0.25150000  0.25235000  0.00556000  1.0
  Cu  Cu5  1  0.75164000  0.49997000  0.25809000  1.0
  Cu  Cu6  1  0.75344000  0.00573000  0.75317000  1.0
  Cu  Cu7  1  0.50625000  0.25809000  0.75804000  1.0
  Cu  Cu8  1  0.00012000  0.24680000  0.25233000  1.0
  Cu  Cu9  1  0.74839000  0.24197000  0.49970000  1.0
  Cu  Cu10  1  0.74851000  0.74765000  0.99444000  1.0
  Cu  Cu11  1  0.24835000  0.50003000  0.74191000  1.0
  H  H12  1  0.92637000  0.91889000  0.23502000  1.0
  H  H13  1  0.44151000  0.91421000  0.28574000  1.0
  H  H14  1  0.06453000  0.79419000  0.29997000  1.0
  H  H15  1  0.06849000  0.57397000  0.26475000  1.0
  H  H16  1  0.55082000  0.57262000  0.21029000  1.0
  H  H17  1  0.92125000  0.68536000  0.18419000  1.0
  H  H18  1  0.76552000  0.00118000  0.19387000  1.0
  H  H19  1  0.02351000  0.86692000  0.07432000  1.0
  H  H20  1  0.50368000  0.81134000  0.06948000  1.0
  H  H21  1  0.99516000  0.17673000  0.42692000  1.0
  H  H22  1  0.47314000  0.12256000  0.42062000  1.0
  H  H23  1  0.72840000  0.98810000  0.29995000  1.0
  H  H24  1  0.69114000  0.76502000  0.68422000  1.0
  H  H25  1  0.15565000  0.71436000  0.62886000  1.0
  H  H26  1  0.76440000  0.70002000  0.49461000  1.0
  H  H27  1  0.80402000  0.73516000  0.30923000  1.0
  H  H28  1  0.34079000  0.78956000  0.36245000  1.0
  H  H29  1  0.73750000  0.81560000  0.50115000  1.0
  H  H30  1  0.57206000  0.80647000  0.80757000  1.0
  H  H31  1  0.94897000  0.92599000  0.79258000  1.0
  H  H32  1  0.43380000  0.93039000  0.74158000  1.0
  H  H33  1  0.56782000  0.57289000  0.74959000  1.0
  H  H34  1  0.05220000  0.57938000  0.70183000  1.0
  H  H35  1  0.42829000  0.70034000  0.68851000  1.0
  H  H36  1  0.00661000  0.31599000  0.08080000  1.0
  H  H37  1  0.52664000  0.37127000  0.08565000  1.0
  H  H38  1  0.26986000  0.50553000  0.20573000  1.0
  H  H39  1  0.49451000  0.69082000  0.42645000  1.0
  H  H40  1  0.97801000  0.63752000  0.42745000  1.0
  H  H41  1  0.23593000  0.49891000  0.31446000  1.0
  H  H42  1  0.76348000  0.19265000  0.99894000  1.0
  H  H43  1  0.15567000  0.20746000  0.13320000  1.0
  H  H44  1  0.69131000  0.25814000  0.18875000  1.0
  H  H45  1  0.81797000  0.25038000  0.82324000  1.0
  H  H46  1  0.34999000  0.29808000  0.87743000  1.0
  H  H47  1  0.73940000  0.31144000  0.01169000  1.0
  H  H48  1  0.07362000  0.08111000  0.76498000  1.0
  H  H49  1  0.55849000  0.08580000  0.71426000  1.0
  H  H50  1  0.93548000  0.20581000  0.70003000  1.0
  H  H51  1  0.93152000  0.42603000  0.73524000  1.0
  H  H52  1  0.44919000  0.42737000  0.78970000  1.0
  H  H53  1  0.07874000  0.31463000  0.81580000  1.0
  H  H54  1  0.23447000  0.99883000  0.80614000  1.0
  H  H55  1  0.97649000  0.13309000  0.92569000  1.0
  H  H56  1  0.49632000  0.18866000  0.93053000  1.0
  H  H57  1  0.00483000  0.82328000  0.57307000  1.0
  H  H58  1  0.52684000  0.87745000  0.57937000  1.0
  H  H59  1  0.27159000  0.01190000  0.70004000  1.0
  H  H60  1  0.30884000  0.23497000  0.31578000  1.0
  H  H61  1  0.84433000  0.28562000  0.37114000  1.0
  H  H62  1  0.23560000  0.29996000  0.50538000  1.0
  H  H63  1  0.19600000  0.26484000  0.69077000  1.0
  H  H64  1  0.65924000  0.21045000  0.63754000  1.0
  H  H65  1  0.26252000  0.18441000  0.49885000  1.0
  H  H66  1  0.42795000  0.19354000  0.19244000  1.0
  H  H67  1  0.05103000  0.07403000  0.20744000  1.0
  H  H68  1  0.56620000  0.06962000  0.25844000  1.0
  H  H69  1  0.43218000  0.42710000  0.25041000  1.0
  H  H70  1  0.94780000  0.42061000  0.29817000  1.0
  H  H71  1  0.57171000  0.29965000  0.31149000  1.0
  H  H72  1  0.99339000  0.68401000  0.91920000  1.0
  H  H73  1  0.47337000  0.62874000  0.91436000  1.0
  H  H74  1  0.73013000  0.49448000  0.79427000  1.0
  H  H75  1  0.50549000  0.30917000  0.57355000  1.0
  H  H76  1  0.02199000  0.36248000  0.57256000  1.0
  H  H77  1  0.76407000  0.50108000  0.68555000  1.0
  H  H78  1  0.23653000  0.80736000  0.00107000  1.0
  H  H79  1  0.84433000  0.79254000  0.86680000  1.0
  H  H80  1  0.30869000  0.74186000  0.81126000  1.0
  H  H81  1  0.18204000  0.74962000  0.17675000  1.0
  H  H82  1  0.65002000  0.70192000  0.12256000  1.0
  H  H83  1  0.26060000  0.68856000  0.98831000  1.0
  C  C84  1  0.77424000  0.82856000  0.25255000  1.0
  C  C85  1  0.96579000  0.85121000  0.26352000  1.0
  C  C86  1  0.02015000  0.89858000  0.25129000  1.0
  C  C87  1  0.30509000  0.89702000  0.28106000  1.0
  C  C88  1  0.09532000  0.82993000  0.28712000  1.0
  C  C89  1  0.21567000  0.65660000  0.23651000  1.0
  C  C90  1  0.02440000  0.63447000  0.22736000  1.0
  C  C91  1  0.97284000  0.59121000  0.24531000  1.0
  C  C92  1  0.68655000  0.58960000  0.21376000  1.0
  C  C93  1  0.89270000  0.65246000  0.20076000  1.0
  C  C94  1  0.44061000  0.91917000  0.15907000  1.0
  C  C95  1  0.61001000  0.90772000  0.13669000  1.0
  C  C96  1  0.76076000  0.95262000  0.15807000  1.0
  C  C97  1  0.90410000  0.87943000  0.09135000  1.0
  C  C98  1  0.61753000  0.84801000  0.08963000  1.0
  C  C99  1  0.05495000  0.06918000  0.33550000  1.0
  C  C100  1  0.88623000  0.08096000  0.35830000  1.0
  C  C101  1  0.88025000  0.14046000  0.40613000  1.0
  C  C102  1  0.59254000  0.10977000  0.40370000  1.0
  C  C103  1  0.73432000  0.03649000  0.33635000  1.0
  C  C104  1  0.52146000  0.74742000  0.57633000  1.0
  C  C105  1  0.70202000  0.73644000  0.58803000  1.0
  C  C106  1  0.76861000  0.74871000  0.64763000  1.0
  C  C107  1  0.02389000  0.71899000  0.61632000  1.0
  C  C108  1  0.80801000  0.71287000  0.54319000  1.0
  C  C109  1  0.97943000  0.76329000  0.42015000  1.0
  C  C110  1  0.79738000  0.77246000  0.40711000  1.0
  C  C111  1  0.72783000  0.75456000  0.34593000  1.0
  C  C112  1  0.47306000  0.78608000  0.37591000  1.0
  C  C113  1  0.69231000  0.79904000  0.45170000  1.0
  C  C114  1  0.28158000  0.84095000  0.76008000  1.0
  C  C115  1  0.47332000  0.86333000  0.77093000  1.0
  C  C116  1  0.60285000  0.84216000  0.79464000  1.0
  C  C117  1  0.81260000  0.90888000  0.78804000  1.0
  C  C118  1  0.52765000  0.91034000  0.75816000  1.0
  C  C119  1  0.71930000  0.66449000  0.73382000  1.0
  C  C120  1  0.52770000  0.64173000  0.72273000  1.0
  C  C121  1  0.47376000  0.59377000  0.73420000  1.0
  C  C122  1  0.18854000  0.59630000  0.70600000  1.0
  C  C123  1  0.39782000  0.66381000  0.70033000  1.0
  C  C124  1  0.94513000  0.42389000  0.17131000  1.0
  C  C125  1  0.11390000  0.41214000  0.14859000  1.0
  C  C126  1  0.12075000  0.35255000  0.10116000  1.0
  C  C127  1  0.40742000  0.38381000  0.10282000  1.0
  C  C128  1  0.26484000  0.45695000  0.16994000  1.0
  C  C129  1  0.55908000  0.58001000  0.34344000  1.0
  C  C130  1  0.38997000  0.59295000  0.36561000  1.0
  C  C131  1  0.38163000  0.65409000  0.40905000  1.0
  C  C132  1  0.09684000  0.62407000  0.41050000  1.0
  C  C133  1  0.24025000  0.54833000  0.34749000  1.0
  C  C134  1  0.52039000  0.23977000  0.08084000  1.0
  C  C135  1  0.70132000  0.22894000  0.09236000  1.0
  C  C136  1  0.80721000  0.20543000  0.04749000  1.0
  C  C137  1  0.02376000  0.21196000  0.12067000  1.0
  C  C138  1  0.76853000  0.24164000  0.15208000  1.0
  C  C139  1  0.98509000  0.26618000  0.93066000  1.0
  C  C140  1  0.80458000  0.27720000  0.91890000  1.0
  C  C141  1  0.73924000  0.26573000  0.85948000  1.0
  C  C142  1  0.48213000  0.29390000  0.89017000  1.0
  C  C143  1  0.69702000  0.29959000  0.96335000  1.0
  C  C144  1  0.22576000  0.17144000  0.74745000  1.0
  C  C145  1  0.03421000  0.14879000  0.73647000  1.0
  C  C146  1  0.97985000  0.10142000  0.74871000  1.0
  C  C147  1  0.69491000  0.10299000  0.71894000  1.0
  C  C148  1  0.90468000  0.17007000  0.71288000  1.0
  C  C149  1  0.78433000  0.34341000  0.76349000  1.0
  C  C150  1  0.97560000  0.36553000  0.77264000  1.0
  C  C151  1  0.02717000  0.40878000  0.75469000  1.0
  C  C152  1  0.31346000  0.41039000  0.78623000  1.0
  C  C153  1  0.10729000  0.34753000  0.79923000  1.0
  C  C154  1  0.55937000  0.08083000  0.84093000  1.0
  C  C155  1  0.38998000  0.09228000  0.86331000  1.0
  C  C156  1  0.23924000  0.04738000  0.84194000  1.0
  C  C157  1  0.09590000  0.12057000  0.90865000  1.0
  C  C158  1  0.38247000  0.15199000  0.91037000  1.0
  C  C159  1  0.94504000  0.93082000  0.66450000  1.0
  C  C160  1  0.11375000  0.91904000  0.64169000  1.0
  C  C161  1  0.11974000  0.85954000  0.59387000  1.0
  C  C162  1  0.40744000  0.89024000  0.59629000  1.0
  C  C163  1  0.26566000  0.96351000  0.66364000  1.0
  C  C164  1  0.47853000  0.25257000  0.42366000  1.0
  C  C165  1  0.29797000  0.26355000  0.41197000  1.0
  C  C166  1  0.23138000  0.25128000  0.35237000  1.0
  C  C167  1  0.97610000  0.28099000  0.38368000  1.0
  C  C168  1  0.19198000  0.28712000  0.45681000  1.0
  C  C169  1  0.02059000  0.23671000  0.57985000  1.0
  C  C170  1  0.20263000  0.22755000  0.59289000  1.0
  C  C171  1  0.27219000  0.24544000  0.65406000  1.0
  C  C172  1  0.52697000  0.21393000  0.62408000  1.0
  C  C173  1  0.30770000  0.20096000  0.54830000  1.0
  C  C174  1  0.71842000  0.15905000  0.23993000  1.0
  C  C175  1  0.52669000  0.13667000  0.22908000  1.0
  C  C176  1  0.39716000  0.15785000  0.20537000  1.0
  C  C177  1  0.18740000  0.09113000  0.21197000  1.0
  C  C178  1  0.47235000  0.08967000  0.24185000  1.0
  C  C179  1  0.28070000  0.33551000  0.26619000  1.0
  C  C180  1  0.47230000  0.35826000  0.27728000  1.0
  C  C181  1  0.52624000  0.40623000  0.26580000  1.0
  C  C182  1  0.81146000  0.40369000  0.29400000  1.0
  C  C183  1  0.60218000  0.33618000  0.29966000  1.0
  C  C184  1  0.05488000  0.57611000  0.82869000  1.0
  C  C185  1  0.88610000  0.58786000  0.85141000  1.0
  C  C186  1  0.87925000  0.64745000  0.89885000  1.0
  C  C187  1  0.59258000  0.61619000  0.89718000  1.0
  C  C188  1  0.73517000  0.54305000  0.83007000  1.0
  C  C189  1  0.44092000  0.41999000  0.65657000  1.0
  C  C190  1  0.61003000  0.40705000  0.63439000  1.0
  C  C191  1  0.61837000  0.34591000  0.59095000  1.0
  C  C192  1  0.90317000  0.37592000  0.58951000  1.0
  C  C193  1  0.75975000  0.45166000  0.65252000  1.0
  C  C194  1  0.47962000  0.76024000  0.91917000  1.0
  C  C195  1  0.29869000  0.77107000  0.90765000  1.0
  C  C196  1  0.19279000  0.79458000  0.95251000  1.0
  C  C197  1  0.97625000  0.78805000  0.87934000  1.0
  C  C198  1  0.23147000  0.75836000  0.84793000  1.0
  C  C199  1  0.01492000  0.73383000  0.06934000  1.0
  C  C200  1  0.19542000  0.72280000  0.08109000  1.0
  C  C201  1  0.26076000  0.73427000  0.14051000  1.0
  C  C202  1  0.51787000  0.70610000  0.10982000  1.0
  C  C203  1  0.30298000  0.70041000  0.03665000  1.0
  N  N204  1  0.18834000  0.92171000  0.26020000  1.0
  N  N205  1  0.26421000  0.85260000  0.29546000  1.0
  N  N206  1  0.80546000  0.56841000  0.23824000  1.0
  N  N207  1  0.72450000  0.63032000  0.19442000  1.0
  N  N208  1  0.76281000  0.83378000  0.06672000  1.0
  N  N209  1  0.90730000  0.93828000  0.13561000  1.0
  N  N210  1  0.73489000  0.15501000  0.42888000  1.0
  N  N211  1  0.58812000  0.05102000  0.35896000  1.0
  N  N212  1  0.92794000  0.73985000  0.66185000  1.0
  N  N213  1  0.96862000  0.70458000  0.55752000  1.0
  N  N214  1  0.56749000  0.76164000  0.33023000  1.0
  N  N215  1  0.53042000  0.80540000  0.43595000  1.0
  N  N216  1  0.69576000  0.93336000  0.76690000  1.0
  N  N217  1  0.77181000  0.86471000  0.80278000  1.0
  N  N218  1  0.30564000  0.57097000  0.72591000  1.0
  N  N219  1  0.22897000  0.64118000  0.69220000  1.0
  N  N220  1  0.26585000  0.33830000  0.07806000  1.0
  N  N221  1  0.41107000  0.44260000  0.14729000  1.0
  N  N222  1  0.23699000  0.66975000  0.43187000  1.0
  N  N223  1  0.09414000  0.56405000  0.36962000  1.0
  N  N224  1  0.92808000  0.23300000  0.16632000  1.0
  N  N225  1  0.96813000  0.19732000  0.06184000  1.0
  N  N226  1  0.57937000  0.27401000  0.84497000  1.0
  N  N227  1  0.53630000  0.30770000  0.94885000  1.0
  N  N228  1  0.81166000  0.07830000  0.73981000  1.0
  N  N229  1  0.73580000  0.14741000  0.70454000  1.0
  N  N230  1  0.19454000  0.43159000  0.76175000  1.0
  N  N231  1  0.27550000  0.36967000  0.80557000  1.0
  N  N232  1  0.23719000  0.16623000  0.93329000  1.0
  N  N233  1  0.09269000  0.06172000  0.86440000  1.0
  N  N234  1  0.26510000  0.84499000  0.57111000  1.0
  N  N235  1  0.41186000  0.94898000  0.64103000  1.0
  N  N236  1  0.07205000  0.26014000  0.33815000  1.0
  N  N237  1  0.03137000  0.29541000  0.44248000  1.0
  N  N238  1  0.43253000  0.23836000  0.66977000  1.0
  N  N239  1  0.46960000  0.19461000  0.56405000  1.0
  N  N240  1  0.30423000  0.06664000  0.23311000  1.0
  N  N241  1  0.22819000  0.13530000  0.19723000  1.0
  N  N242  1  0.69436000  0.42903000  0.27409000  1.0
  N  N243  1  0.77104000  0.35881000  0.30780000  1.0
  N  N244  1  0.73416000  0.66170000  0.92194000  1.0
  N  N245  1  0.58892000  0.55741000  0.85271000  1.0
  N  N246  1  0.76301000  0.33024000  0.56814000  1.0
  N  N247  1  0.90587000  0.43594000  0.63039000  1.0
  N  N248  1  0.07192000  0.76701000  0.83369000  1.0
  N  N249  1  0.03188000  0.80268000  0.93817000  1.0
  N  N250  1  0.42063000  0.72599000  0.15502000  1.0
  N  N251  1  0.46370000  0.69230000  0.05114000  1.0
  O  O252  1  0.73508000  0.77279000  0.24434000  1.0
  O  O253  1  0.67176000  0.86317000  0.25200000  1.0
  O  O254  1  0.25312000  0.70957000  0.23833000  1.0
  O  O255  1  0.31922000  0.62422000  0.24172000  1.0
  O  O256  1  0.45651000  0.96669000  0.21478000  1.0
  O  O257  1  0.30404000  0.88376000  0.12432000  1.0
  O  O258  1  0.03743000  0.02209000  0.27940000  1.0
  O  O259  1  0.19234000  0.10392000  0.37017000  1.0
  O  O260  1  0.49065000  0.75569000  0.52882000  1.0
  O  O261  1  0.41938000  0.74793000  0.61142000  1.0
  O  O262  1  0.01476000  0.76156000  0.47134000  1.0
  O  O263  1  0.07801000  0.75803000  0.38263000  1.0
  O  O264  1  0.24183000  0.78524000  0.75195000  1.0
  O  O265  1  0.17973000  0.87571000  0.75945000  1.0
  O  O266  1  0.75819000  0.72070000  0.74310000  1.0
  O  O267  1  0.82178000  0.62966000  0.73367000  1.0
  O  O268  1  0.96200000  0.47137000  0.22712000  1.0
  O  O269  1  0.80788000  0.38886000  0.13675000  1.0
  O  O270  1  0.54349000  0.52886000  0.29048000  1.0
  O  O271  1  0.69503000  0.61759000  0.37576000  1.0
  O  O272  1  0.48891000  0.24795000  0.03331000  1.0
  O  O273  1  0.41906000  0.24033000  0.11616000  1.0
  O  O274  1  0.01462000  0.25706000  0.97767000  1.0
  O  O275  1  0.08779000  0.26623000  0.89597000  1.0
  O  O276  1  0.26493000  0.22720000  0.75565000  1.0
  O  O277  1  0.32824000  0.13683000  0.74799000  1.0
  O  O278  1  0.74687000  0.29044000  0.76167000  1.0
  O  O279  1  0.68079000  0.37579000  0.75828000  1.0
  O  O280  1  0.54347000  0.03331000  0.78522000  1.0
  O  O281  1  0.69595000  0.11624000  0.87568000  1.0
  O  O282  1  0.96256000  0.97791000  0.72060000  1.0
  O  O283  1  0.80764000  0.89609000  0.62983000  1.0
  O  O284  1  0.50935000  0.24431000  0.47119000  1.0
  O  O285  1  0.58059000  0.25204000  0.38857000  1.0
  O  O286  1  0.98524000  0.23842000  0.52865000  1.0
  O  O287  1  0.92202000  0.24198000  0.61738000  1.0
  O  O288  1  0.75817000  0.21476000  0.24805000  1.0
  O  O289  1  0.82027000  0.12430000  0.24058000  1.0
  O  O290  1  0.24181000  0.27931000  0.25692000  1.0
  O  O291  1  0.17822000  0.37033000  0.26632000  1.0
  O  O292  1  0.03800000  0.52863000  0.77288000  1.0
  O  O293  1  0.19213000  0.61113000  0.86325000  1.0
  O  O294  1  0.45652000  0.47114000  0.70951000  1.0
  O  O295  1  0.30498000  0.38240000  0.62424000  1.0
  O  O296  1  0.51110000  0.75206000  0.96670000  1.0
  O  O297  1  0.58095000  0.75968000  0.88384000  1.0
  O  O298  1  0.98538000  0.74295000  0.02233000  1.0
  O  O299  1  0.91223000  0.73378000  0.10403000  1.0
