# generated using pymatgen
data_Zn4H23C48Cl7O13
_symmetry_space_group_name_H-M   'P 1'
_cell_length_a   19.51900000
_cell_length_b   19.54670000
_cell_length_c   19.67900000
_cell_angle_alpha   90.67010000
_cell_angle_beta   95.58160000
_cell_angle_gamma   95.77960000
_symmetry_Int_Tables_number   1
_chemical_formula_structural   Zn4H23C48Cl7O13
_chemical_formula_sum   'Zn4 H23 C48 Cl7 O13'
_cell_volume   7432.83346879
_cell_formula_units_Z   1
loop_
 _symmetry_equiv_pos_site_id
 _symmetry_equiv_pos_as_xyz
  1  'x, y, z'
loop_
 _atom_site_type_symbol
 _atom_site_label
 _atom_site_symmetry_multiplicity
 _atom_site_fract_x
 _atom_site_fract_y
 _atom_site_fract_z
 _atom_site_occupancy
  Zn  Zn0  1  0.44330000  0.44326000  0.56091000  1.0
  Zn  Zn1  1  0.44389000  0.55163000  0.43738000  1.0
  Zn  Zn2  1  0.55037000  0.44344000  0.44687000  1.0
  Zn  Zn3  1  0.56767000  0.56384000  0.56182000  1.0
  H  H4  1  0.47355000  0.40925000  0.76502000  1.0
  H  H5  1  0.88406000  0.45546000  0.41100000  1.0
  H  H6  1  0.52242000  0.38261000  0.23969000  1.0
  H  H7  1  0.47438000  0.41173000  0.00143000  1.0
  H  H8  1  0.54523000  0.62001000  0.90581000  1.0
  H  H9  1  0.50926000  0.56866000  0.00317000  1.0
  H  H10  1  0.49333000  0.75569000  0.38233000  1.0
  H  H11  1  0.53659000  0.91088000  0.58606000  1.0
  H  H12  1  0.44166000  0.99072000  0.52310000  1.0
  H  H13  1  0.23267000  0.51017000  0.37644000  1.0
  H  H14  1  0.99271000  0.47989000  0.41295000  1.0
  H  H15  1  0.51652000  0.37384000  0.11281000  1.0
  H  H16  1  0.10173000  0.45659000  0.57650000  1.0
  H  H17  1  0.78326000  0.55622000  0.60719000  1.0
  H  H18  1  0.00887000  0.51334000  0.56728000  1.0
  H  H19  1  0.46683000  0.40521000  0.88961000  1.0
  H  H20  1  0.52084000  0.23745000  0.40543000  1.0
  H  H21  1  0.44236000  0.22535000  0.60204000  1.0
  H  H22  1  0.51667000  0.11002000  0.39930000  1.0
  H  H23  1  0.43337000  0.57464000  0.22353000  1.0
  H  H24  1  0.75743000  0.45956000  0.40798000  1.0
  H  H25  1  0.22967000  0.45562000  0.58716000  1.0
  H  H26  1  0.91075000  0.55030000  0.61226000  1.0
  C  C27  1  0.50954000  0.68447000  0.49533000  1.0
  C  C28  1  0.49857000  0.51699000  0.98061000  1.0
  C  C29  1  0.48121000  0.46455000  0.02186000  1.0
  C  C30  1  0.48817000  0.31586000  0.50769000  1.0
  C  C31  1  0.48033000  0.48029000  0.23949000  1.0
  C  C32  1  0.48308000  0.23921000  0.50445000  1.0
  C  C33  1  0.50375000  0.20635000  0.44729000  1.0
  C  C34  1  0.50213000  0.13534000  0.44448000  1.0
  C  C35  1  0.48180000  0.09452000  0.49903000  1.0
  C  C36  1  0.45932000  0.12880000  0.55521000  1.0
  C  C37  1  0.45930000  0.20000000  0.55800000  1.0
  C  C38  1  0.50541000  0.51280000  0.90769000  1.0
  C  C39  1  0.52790000  0.87687000  0.54115000  1.0
  C  C40  1  0.52431000  0.80579000  0.54926000  1.0
  C  C41  1  0.50443000  0.78998000  0.42687000  1.0
  C  C42  1  0.31601000  0.48686000  0.48902000  1.0
  C  C43  1  0.50926000  0.86085000  0.41888000  1.0
  C  C44  1  0.52133000  0.90565000  0.47629000  1.0
  C  C45  1  0.48220000  0.01995000  0.49772000  1.0
  C  C46  1  0.52704000  0.98141000  0.47113000  1.0
  C  C47  1  0.51306000  0.76139000  0.49171000  1.0
  C  C48  1  0.76263000  0.50830000  0.50734000  1.0
  C  C49  1  0.53022000  0.57287000  0.87556000  1.0
  C  C50  1  0.79166000  0.48005000  0.45210000  1.0
  C  C51  1  0.86260000  0.47800000  0.45414000  1.0
  C  C52  1  0.90697000  0.50310000  0.51188000  1.0
  C  C53  1  0.87713000  0.53090000  0.56712000  1.0
  C  C54  1  0.68623000  0.50873000  0.50540000  1.0
  C  C55  1  0.80614000  0.53430000  0.56467000  1.0
  C  C56  1  0.13055000  0.46913000  0.53275000  1.0
  C  C57  1  0.20181000  0.46814000  0.53902000  1.0
  C  C58  1  0.20368000  0.49821000  0.42006000  1.0
  C  C59  1  0.13206000  0.49731000  0.41403000  1.0
  C  C60  1  0.53545000  0.57431000  0.80534000  1.0
  C  C61  1  0.09333000  0.48453000  0.47056000  1.0
  C  C62  1  0.98160000  0.50079000  0.51674000  1.0
  C  C63  1  0.01882000  0.48711000  0.46452000  1.0
  C  C64  1  0.23905000  0.48386000  0.48275000  1.0
  C  C65  1  0.48657000  0.48771000  0.31535000  1.0
  C  C66  1  0.51302000  0.51146000  0.68811000  1.0
  C  C67  1  0.51433000  0.51503000  0.76419000  1.0
  C  C68  1  0.49021000  0.45484000  0.79704000  1.0
  C  C69  1  0.48635000  0.45291000  0.86682000  1.0
  C  C70  1  0.45092000  0.52698000  0.12832000  1.0
  C  C71  1  0.45287000  0.53129000  0.19913000  1.0
  C  C72  1  0.50239000  0.42279000  0.20801000  1.0
  C  C73  1  0.49896000  0.41836000  0.13736000  1.0
  C  C74  1  0.47609000  0.47122000  0.09517000  1.0
  Cl  Cl75  1  0.53058000  0.77522000  0.63129000  1.0
  Cl  Cl76  1  0.60007000  0.01556000  0.43440000  1.0
  Cl  Cl77  1  0.43293000  0.08205000  0.62427000  1.0
  Cl  Cl78  1  0.49681000  0.89281000  0.33758000  1.0
  Cl  Cl79  1  0.09081000  0.51509000  0.33491000  1.0
  Cl  Cl80  1  0.41335000  0.59165000  0.08295000  1.0
  Cl  Cl81  1  0.56509000  0.65236000  0.77276000  1.0
  O  O82  1  0.50089000  0.50144000  0.50325000  1.0
  O  O83  1  0.46019000  0.53815000  0.34104000  1.0
  O  O84  1  0.55495000  0.55306000  0.65920000  1.0
  O  O85  1  0.51869000  0.44313000  0.34884000  1.0
  O  O86  1  0.46901000  0.46517000  0.65821000  1.0
  O  O87  1  0.34520000  0.45905000  0.54110000  1.0
  O  O88  1  0.66315000  0.54487000  0.55099000  1.0
  O  O89  1  0.46195000  0.65142000  0.45521000  1.0
  O  O90  1  0.52882000  0.34654000  0.46823000  1.0
  O  O91  1  0.55470000  0.65958000  0.53605000  1.0
  O  O92  1  0.45252000  0.34424000  0.54905000  1.0
  O  O93  1  0.34640000  0.51771000  0.44160000  1.0
  O  O94  1  0.64961000  0.47227000  0.45803000  1.0
