# generated using pymatgen
data_Zn3H14C22(N2O3)3
_symmetry_space_group_name_H-M   'P 1'
_cell_length_a   10.18070000
_cell_length_b   13.72380000
_cell_length_c   19.55510000
_cell_angle_alpha   90.02320000
_cell_angle_beta   90.00080000
_cell_angle_gamma   89.99910000
_symmetry_Int_Tables_number   1
_chemical_formula_structural   Zn3H14C22(N2O3)3
_chemical_formula_sum   'Zn12 H56 C88 N24 O36'
_cell_volume   2732.19709906
_cell_formula_units_Z   4
loop_
 _symmetry_equiv_pos_site_id
 _symmetry_equiv_pos_as_xyz
  1  'x, y, z'
loop_
 _atom_site_type_symbol
 _atom_site_label
 _atom_site_symmetry_multiplicity
 _atom_site_fract_x
 _atom_site_fract_y
 _atom_site_fract_z
 _atom_site_occupancy
  Zn  Zn0  1  0.43706000  0.39597000  0.19819000  1.0
  Zn  Zn1  1  0.06309000  0.10289000  0.19834000  1.0
  Zn  Zn2  1  0.56310000  0.89712000  0.30168000  1.0
  Zn  Zn3  1  0.93706000  0.60404000  0.30180000  1.0
  Zn  Zn4  1  0.56285000  0.60391000  0.80185000  1.0
  Zn  Zn5  1  0.93710000  0.89707000  0.80164000  1.0
  Zn  Zn6  1  0.43709000  0.10292000  0.69836000  1.0
  Zn  Zn7  1  0.06285000  0.39609000  0.69814000  1.0
  Zn  Zn8  1  0.75265000  0.25077000  0.42439000  1.0
  Zn  Zn9  1  0.25268000  0.74925000  0.07560000  1.0
  Zn  Zn10  1  0.24740000  0.74939000  0.57560000  1.0
  Zn  Zn11  1  0.74744000  0.25060000  0.92437000  1.0
  H  H12  1  0.73300000  0.31155000  0.55070000  1.0
  H  H13  1  0.68455000  0.20272000  0.54691000  1.0
  H  H14  1  0.18449000  0.79736000  0.95312000  1.0
  H  H15  1  0.23288000  0.68853000  0.94928000  1.0
  H  H16  1  0.26578000  0.68807000  0.44956000  1.0
  H  H17  1  0.31542000  0.79682000  0.45284000  1.0
  H  H18  1  0.81549000  0.20311000  0.04712000  1.0
  H  H19  1  0.76594000  0.31188000  0.05047000  1.0
  H  H20  1  0.69043000  0.56311000  0.18301000  1.0
  H  H21  1  0.80903000  0.93659000  0.18326000  1.0
  H  H22  1  0.30901000  0.06343000  0.31675000  1.0
  H  H23  1  0.19044000  0.43690000  0.31698000  1.0
  H  H24  1  0.30954000  0.43679000  0.81686000  1.0
  H  H25  1  0.19110000  0.06343000  0.81671000  1.0
  H  H26  1  0.69108000  0.93654000  0.68329000  1.0
  H  H27  1  0.80955000  0.56322000  0.68314000  1.0
  H  H28  1  0.51698000  0.19312000  0.23053000  1.0
  H  H29  1  0.98527000  0.30670000  0.23050000  1.0
  H  H30  1  0.48530000  0.69330000  0.26952000  1.0
  H  H31  1  0.01704000  0.80688000  0.26948000  1.0
  H  H32  1  0.48332000  0.80680000  0.76950000  1.0
  H  H33  1  0.01491000  0.69327000  0.76947000  1.0
  H  H34  1  0.51490000  0.30671000  0.73054000  1.0
  H  H35  1  0.98333000  0.19318000  0.73051000  1.0
  H  H36  1  0.55849000  0.03938000  0.16627000  1.0
  H  H37  1  0.94302000  0.46061000  0.16650000  1.0
  H  H38  1  0.44306000  0.53940000  0.33351000  1.0
  H  H39  1  0.05854000  0.96060000  0.33374000  1.0
  H  H40  1  0.44187000  0.96054000  0.83374000  1.0
  H  H41  1  0.05719000  0.53938000  0.83349000  1.0
  H  H42  1  0.55718000  0.46061000  0.66651000  1.0
  H  H43  1  0.94187000  0.03944000  0.66626000  1.0
  H  H44  1  0.41630000  0.18652000  0.98466000  1.0
  H  H45  1  0.07725000  0.31174000  0.98354000  1.0
  H  H46  1  0.57718000  0.68828000  0.51648000  1.0
  H  H47  1  0.91618000  0.81350000  0.51531000  1.0
  H  H48  1  0.58330000  0.81319000  0.01544000  1.0
  H  H49  1  0.92244000  0.68816000  0.01638000  1.0
  H  H50  1  0.42248000  0.31183000  0.48362000  1.0
  H  H51  1  0.08330000  0.18680000  0.48456000  1.0
  H  H52  1  0.39015000  0.33500000  0.05560000  1.0
  H  H53  1  0.10661000  0.16369000  0.05489000  1.0
  H  H54  1  0.60656000  0.83633000  0.44514000  1.0
  H  H55  1  0.89007000  0.66501000  0.44439000  1.0
  H  H56  1  0.60942000  0.66472000  0.94448000  1.0
  H  H57  1  0.89317000  0.83621000  0.94502000  1.0
  H  H58  1  0.39320000  0.16377000  0.55497000  1.0
  H  H59  1  0.10945000  0.33526000  0.55552000  1.0
  H  H60  1  0.54775000  0.94722000  0.06498000  1.0
  H  H61  1  0.95089000  0.55236000  0.06489000  1.0
  H  H62  1  0.45089000  0.44765000  0.43511000  1.0
  H  H63  1  0.04775000  0.05279000  0.43501000  1.0
  H  H64  1  0.45238000  0.05265000  0.93505000  1.0
  H  H65  1  0.04903000  0.44758000  0.93506000  1.0
  H  H66  1  0.54904000  0.55241000  0.56496000  1.0
  H  H67  1  0.95238000  0.94734000  0.56495000  1.0
  C  C68  1  0.54735000  0.32862000  0.32949000  1.0
  C  C69  1  0.95279000  0.17269000  0.32815000  1.0
  C  C70  1  0.45278000  0.82733000  0.17188000  1.0
  C  C71  1  0.04735000  0.67141000  0.17050000  1.0
  C  C72  1  0.45261000  0.67151000  0.67051000  1.0
  C  C73  1  0.04741000  0.82734000  0.67183000  1.0
  C  C74  1  0.54741000  0.17263000  0.82817000  1.0
  C  C75  1  0.95266000  0.32849000  0.82948000  1.0
  C  C76  1  0.63871000  0.40334000  0.30172000  1.0
  C  C77  1  0.86093000  0.09759000  0.30128000  1.0
  C  C78  1  0.36093000  0.90242000  0.19874000  1.0
  C  C79  1  0.13872000  0.59668000  0.19827000  1.0
  C  C80  1  0.36124000  0.59677000  0.69826000  1.0
  C  C81  1  0.13927000  0.90237000  0.69872000  1.0
  C  C82  1  0.63926000  0.09760000  0.80128000  1.0
  C  C83  1  0.86125000  0.40324000  0.80173000  1.0
  C  C84  1  0.74825000  0.45387000  0.32652000  1.0
  C  C85  1  0.75141000  0.04732000  0.32636000  1.0
  C  C86  1  0.25140000  0.95270000  0.17366000  1.0
  C  C87  1  0.24826000  0.54614000  0.17347000  1.0
  C  C88  1  0.25168000  0.54626000  0.67343000  1.0
  C  C89  1  0.24883000  0.95268000  0.67363000  1.0
  C  C90  1  0.74883000  0.04729000  0.82636000  1.0
  C  C91  1  0.75169000  0.45374000  0.82656000  1.0
  C  C92  1  0.82866000  0.45287000  0.39045000  1.0
  C  C93  1  0.67028000  0.04875000  0.39008000  1.0
  C  C94  1  0.17029000  0.95127000  0.10993000  1.0
  C  C95  1  0.32864000  0.54714000  0.10954000  1.0
  C  C96  1  0.17141000  0.54728000  0.60945000  1.0
  C  C97  1  0.32994000  0.95131000  0.60991000  1.0
  C  C98  1  0.82993000  0.04866000  0.89008000  1.0
  C  C99  1  0.67137000  0.45272000  0.89053000  1.0
  C  C100  1  0.69204000  0.51604000  0.22767000  1.0
  C  C101  1  0.80760000  0.98408000  0.22773000  1.0
  C  C102  1  0.30759000  0.01594000  0.27228000  1.0
  C  C103  1  0.19204000  0.48398000  0.27233000  1.0
  C  C104  1  0.30791000  0.48398000  0.77226000  1.0
  C  C105  1  0.19257000  0.01590000  0.77226000  1.0
  C  C106  1  0.69256000  0.98407000  0.72773000  1.0
  C  C107  1  0.80790000  0.51603000  0.72774000  1.0
  C  C108  1  0.49772000  0.18813000  0.17585000  1.0
  C  C109  1  0.00274000  0.31147000  0.17565000  1.0
  C  C110  1  0.50275000  0.68854000  0.32436000  1.0
  C  C111  1  0.99773000  0.81187000  0.32415000  1.0
  C  C112  1  0.50242000  0.81177000  0.82417000  1.0
  C  C113  1  0.99735000  0.68846000  0.82430000  1.0
  C  C114  1  0.49734000  0.31152000  0.67570000  1.0
  C  C115  1  0.00243000  0.18822000  0.67583000  1.0
  C  C116  1  0.51873000  0.10271000  0.13985000  1.0
  C  C117  1  0.98104000  0.39696000  0.13971000  1.0
  C  C118  1  0.48105000  0.60305000  0.36029000  1.0
  C  C119  1  0.01875000  0.89727000  0.36014000  1.0
  C  C120  1  0.48144000  0.89718000  0.86016000  1.0
  C  C121  1  0.01905000  0.60300000  0.86027000  1.0
  C  C122  1  0.51905000  0.39699000  0.63974000  1.0
  C  C123  1  0.98145000  0.10282000  0.63983000  1.0
  C  C124  1  0.48832000  0.09793000  0.06981000  1.0
  C  C125  1  0.00967000  0.40144000  0.06940000  1.0
  C  C126  1  0.50966000  0.59857000  0.43062000  1.0
  C  C127  1  0.98830000  0.90207000  0.43018000  1.0
  C  C128  1  0.51171000  0.90191000  0.93023000  1.0
  C  C129  1  0.99028000  0.59850000  0.93057000  1.0
  C  C130  1  0.49029000  0.40150000  0.56943000  1.0
  C  C131  1  0.01170000  0.09807000  0.56976000  1.0
  C  C132  1  0.43872000  0.18303000  0.03904000  1.0
  C  C133  1  0.05710000  0.31570000  0.03817000  1.0
  C  C134  1  0.55706000  0.68433000  0.46185000  1.0
  C  C135  1  0.93863000  0.81697000  0.46094000  1.0
  C  C136  1  0.56106000  0.81672000  0.96103000  1.0
  C  C137  1  0.94274000  0.68423000  0.96177000  1.0
  C  C138  1  0.44276000  0.31577000  0.53823000  1.0
  C  C139  1  0.06107000  0.18326000  0.53897000  1.0
  C  C140  1  0.42292000  0.26646000  0.07794000  1.0
  C  C141  1  0.07406000  0.23241000  0.07722000  1.0
  C  C142  1  0.57402000  0.76761000  0.42280000  1.0
  C  C143  1  0.92287000  0.73355000  0.42204000  1.0
  C  C144  1  0.57683000  0.73331000  0.92211000  1.0
  C  C145  1  0.92579000  0.76751000  0.92271000  1.0
  C  C146  1  0.42581000  0.23248000  0.57729000  1.0
  C  C147  1  0.07685000  0.26667000  0.57788000  1.0
  C  C148  1  0.51078000  0.00711000  0.03370000  1.0
  C  C149  1  0.98821000  0.49264000  0.03353000  1.0
  C  C150  1  0.48821000  0.50737000  0.46649000  1.0
  C  C151  1  0.01075000  0.99290000  0.46632000  1.0
  C  C152  1  0.48934000  0.99274000  0.96637000  1.0
  C  C153  1  0.01168000  0.50729000  0.96644000  1.0
  C  C154  1  0.51169000  0.49270000  0.53358000  1.0
  C  C155  1  0.98933000  0.00725000  0.53362000  1.0
  N  N156  1  0.60578000  0.44394000  0.23935000  1.0
  N  N157  1  0.89368000  0.05630000  0.23906000  1.0
  N  N158  1  0.39368000  0.94370000  0.26096000  1.0
  N  N159  1  0.10579000  0.55608000  0.26064000  1.0
  N  N160  1  0.39415000  0.55608000  0.76061000  1.0
  N  N161  1  0.10650000  0.94365000  0.76093000  1.0
  N  N162  1  0.60649000  0.05631000  0.73906000  1.0
  N  N163  1  0.89416000  0.44392000  0.73938000  1.0
  N  N164  1  0.77909000  0.52429000  0.27896000  1.0
  N  N165  1  0.72074000  0.97641000  0.27911000  1.0
  N  N166  1  0.22075000  0.02361000  0.22091000  1.0
  N  N167  1  0.27910000  0.47572000  0.22104000  1.0
  N  N168  1  0.22083000  0.47579000  0.72097000  1.0
  N  N169  1  0.27943000  0.02358000  0.72091000  1.0
  N  N170  1  0.77944000  0.97638000  0.77909000  1.0
  N  N171  1  0.72084000  0.52422000  0.77903000  1.0
  N  N172  1  0.45074000  0.26936000  0.14557000  1.0
  N  N173  1  0.04828000  0.22998000  0.14511000  1.0
  N  N174  1  0.54827000  0.77003000  0.35491000  1.0
  N  N175  1  0.95073000  0.73065000  0.35443000  1.0
  N  N176  1  0.54921000  0.73052000  0.85448000  1.0
  N  N177  1  0.95172000  0.76993000  0.85483000  1.0
  N  N178  1  0.45172000  0.23004000  0.64516000  1.0
  N  N179  1  0.04923000  0.26949000  0.64552000  1.0
  O  O180  1  0.43841000  0.31921000  0.29846000  1.0
  O  O181  1  0.06127000  0.18171000  0.29655000  1.0
  O  O182  1  0.56127000  0.81829000  0.20348000  1.0
  O  O183  1  0.93841000  0.68080000  0.20153000  1.0
  O  O184  1  0.56149000  0.68101000  0.70160000  1.0
  O  O185  1  0.93900000  0.81817000  0.70349000  1.0
  O  O186  1  0.43898000  0.18177000  0.79653000  1.0
  O  O187  1  0.06151000  0.31900000  0.79838000  1.0
  O  O188  1  0.57665000  0.27853000  0.38255000  1.0
  O  O189  1  0.92482000  0.22414000  0.38070000  1.0
  O  O190  1  0.42485000  0.77587000  0.11932000  1.0
  O  O191  1  0.07667000  0.72148000  0.11745000  1.0
  O  O192  1  0.42337000  0.72149000  0.61741000  1.0
  O  O193  1  0.07523000  0.77606000  0.61916000  1.0
  O  O194  1  0.57526000  0.22392000  0.88084000  1.0
  O  O195  1  0.92342000  0.27849000  0.88258000  1.0
  O  O196  1  0.80174000  0.39386000  0.43879000  1.0
  O  O197  1  0.69510000  0.10899000  0.43788000  1.0
  O  O198  1  0.19512000  0.89103000  0.06214000  1.0
  O  O199  1  0.30171000  0.60615000  0.06120000  1.0
  O  O200  1  0.19854000  0.60620000  0.56109000  1.0
  O  O201  1  0.30517000  0.89109000  0.56209000  1.0
  O  O202  1  0.80517000  0.10890000  0.93790000  1.0
  O  O203  1  0.69847000  0.39377000  0.93889000  1.0
  O  O204  1  0.92046000  0.51569000  0.39322000  1.0
  O  O205  1  0.57942000  0.98500000  0.39321000  1.0
  O  O206  1  0.07943000  0.01502000  0.10681000  1.0
  O  O207  1  0.42045000  0.48433000  0.10677000  1.0
  O  O208  1  0.07954000  0.48451000  0.60664000  1.0
  O  O209  1  0.42070000  0.01515000  0.60678000  1.0
  O  O210  1  0.92071000  0.98484000  0.89320000  1.0
  O  O211  1  0.57955000  0.51551000  0.89334000  1.0
  O  O212  1  0.75499000  0.24693000  0.53349000  1.0
  O  O213  1  0.25494000  0.75313000  0.96650000  1.0
  O  O214  1  0.24458000  0.75304000  0.46643000  1.0
  O  O215  1  0.74469000  0.24694000  0.03356000  1.0
