# generated using pymatgen
data_CdH22C22N6O7
_symmetry_space_group_name_H-M   'P 1'
_cell_length_a   10.69370000
_cell_length_b   14.21800000
_cell_length_c   18.10290000
_cell_angle_alpha   80.74320000
_cell_angle_beta   89.99990000
_cell_angle_gamma   89.99950000
_symmetry_Int_Tables_number   1
_chemical_formula_structural   CdH22C22N6O7
_chemical_formula_sum   'Cd4 H88 C88 N24 O28'
_cell_volume   2716.57572130
_cell_formula_units_Z   4
loop_
 _symmetry_equiv_pos_site_id
 _symmetry_equiv_pos_as_xyz
  1  'x, y, z'
loop_
 _atom_site_type_symbol
 _atom_site_label
 _atom_site_symmetry_multiplicity
 _atom_site_fract_x
 _atom_site_fract_y
 _atom_site_fract_z
 _atom_site_occupancy
  Cd  Cd0  1  0.85622000  0.60931000  0.81859000  1.0
  Cd  Cd1  1  0.35622000  0.39069000  0.68141000  1.0
  Cd  Cd2  1  0.14378000  0.39070000  0.18141000  1.0
  Cd  Cd3  1  0.64379000  0.60931000  0.31858000  1.0
  H  H4  1  0.15717000  0.57579000  0.77266000  1.0
  H  H5  1  0.65717000  0.42421000  0.72734000  1.0
  H  H6  1  0.84283000  0.42421000  0.22734000  1.0
  H  H7  1  0.34283000  0.57579000  0.27266000  1.0
  H  H8  1  0.32583000  0.65601000  0.69038000  1.0
  H  H9  1  0.82584000  0.34399000  0.80961000  1.0
  H  H10  1  0.67417000  0.34400000  0.30962000  1.0
  H  H11  1  0.17417000  0.65600000  0.19038000  1.0
  H  H12  1  0.27799000  0.81218000  0.60794000  1.0
  H  H13  1  0.77799000  0.18782000  0.89206000  1.0
  H  H14  1  0.72201000  0.18782000  0.39205000  1.0
  H  H15  1  0.22201000  0.81218000  0.10794000  1.0
  H  H16  1  0.89969000  0.78477000  0.69553000  1.0
  H  H17  1  0.39970000  0.21523000  0.80448000  1.0
  H  H18  1  0.10030000  0.21523000  0.30448000  1.0
  H  H19  1  0.60030000  0.78477000  0.19552000  1.0
  H  H20  1  0.64977000  0.75100000  0.86505000  1.0
  H  H21  1  0.14977000  0.24901000  0.63495000  1.0
  H  H22  1  0.35024000  0.24901000  0.13495000  1.0
  H  H23  1  0.85024000  0.75099000  0.36505000  1.0
  H  H24  1  0.61967000  0.88055000  0.94052000  1.0
  H  H25  1  0.11967000  0.11946000  0.55948000  1.0
  H  H26  1  0.38032000  0.11946000  0.05948000  1.0
  H  H27  1  0.88032000  0.88055000  0.44052000  1.0
  H  H28  1  0.80986000  0.94319000  0.00173000  1.0
  H  H29  1  0.30985000  0.05680000  0.49827000  1.0
  H  H30  1  0.19014000  0.05681000  0.99828000  1.0
  H  H31  1  0.69014000  0.94319000  0.50172000  1.0
  H  H32  1  0.02972000  0.73760000  0.90803000  1.0
  H  H33  1  0.52973000  0.26239000  0.59197000  1.0
  H  H34  1  0.97028000  0.26240000  0.09198000  1.0
  H  H35  1  0.47028000  0.73761000  0.40802000  1.0
  H  H36  1  0.56318000  0.59030000  0.81323000  1.0
  H  H37  1  0.06318000  0.40970000  0.68677000  1.0
  H  H38  1  0.43681000  0.40969000  0.18677000  1.0
  H  H39  1  0.93680000  0.59031000  0.31323000  1.0
  H  H40  1  0.38860000  0.47773000  0.85813000  1.0
  H  H41  1  0.88860000  0.52227000  0.64188000  1.0
  H  H42  1  0.61140000  0.52226000  0.14188000  1.0
  H  H43  1  0.11140000  0.47774000  0.35812000  1.0
  H  H44  1  0.42921000  0.34994000  0.97046000  1.0
  H  H45  1  0.92920000  0.65005000  0.52955000  1.0
  H  H46  1  0.57080000  0.65005000  0.02955000  1.0
  H  H47  1  0.07080000  0.34995000  0.47045000  1.0
  H  H48  1  0.80601000  0.45591000  0.97453000  1.0
  H  H49  1  0.30601000  0.54408000  0.52547000  1.0
  H  H50  1  0.19399000  0.54409000  0.02547000  1.0
  H  H51  1  0.69399000  0.45592000  0.47453000  1.0
  H  H52  1  0.07758000  0.37294000  0.98294000  1.0
  H  H53  1  0.57758000  0.62705000  0.51706000  1.0
  H  H54  1  0.92242000  0.62705000  0.01706000  1.0
  H  H55  1  0.42242000  0.37294000  0.48294000  1.0
  H  H56  1  0.21155000  0.42883000  0.94032000  1.0
  H  H57  1  0.71155000  0.57117000  0.55968000  1.0
  H  H58  1  0.78844000  0.57118000  0.05968000  1.0
  H  H59  1  0.28845000  0.42883000  0.44031000  1.0
  H  H60  1  0.19095000  0.25996000  0.91565000  1.0
  H  H61  1  0.69095000  0.74003000  0.58435000  1.0
  H  H62  1  0.80905000  0.74004000  0.08435000  1.0
  H  H63  1  0.30905000  0.25997000  0.41565000  1.0
  H  H64  1  0.04665000  0.28605000  0.87212000  1.0
  H  H65  1  0.54666000  0.71395000  0.62788000  1.0
  H  H66  1  0.95335000  0.71396000  0.12788000  1.0
  H  H67  1  0.45334000  0.28604000  0.37211000  1.0
  H  H68  1  0.16548000  0.85051000  0.91404000  1.0
  H  H69  1  0.66546000  0.14949000  0.58596000  1.0
  H  H70  1  0.83451000  0.14949000  0.08597000  1.0
  H  H71  1  0.33452000  0.85051000  0.41404000  1.0
  H  H72  1  0.87648000  0.91243000  0.63325000  1.0
  H  H73  1  0.37649000  0.08757000  0.86675000  1.0
  H  H74  1  0.12352000  0.08756000  0.36675000  1.0
  H  H75  1  0.62352000  0.91243000  0.13325000  1.0
  H  H76  1  0.73730000  0.28547000  0.14463000  1.0
  H  H77  1  0.23729000  0.71452000  0.35537000  1.0
  H  H78  1  0.26270000  0.71453000  0.85537000  1.0
  H  H79  1  0.76270000  0.28547000  0.64463000  1.0
  H  H80  1  0.80441000  0.38156000  0.08522000  1.0
  H  H81  1  0.30441000  0.61843000  0.41478000  1.0
  H  H82  1  0.19558000  0.61844000  0.91478000  1.0
  H  H83  1  0.69558000  0.38156000  0.58522000  1.0
  H  H84  1  0.91222000  0.99057000  0.54951000  1.0
  H  H85  1  0.41222000  0.00943000  0.95049000  1.0
  H  H86  1  0.08777000  0.00943000  0.45048000  1.0
  H  H87  1  0.58778000  0.99057000  0.04952000  1.0
  H  H88  1  0.23919000  0.88581000  0.99171000  1.0
  H  H89  1  0.73919000  0.11419000  0.50829000  1.0
  H  H90  1  0.76081000  0.11418000  0.00829000  1.0
  H  H91  1  0.26081000  0.88582000  0.49171000  1.0
  C  C92  1  0.13971000  0.64389000  0.73680000  1.0
  C  C93  1  0.63972000  0.35611000  0.76320000  1.0
  C  C94  1  0.86029000  0.35611000  0.26320000  1.0
  C  C95  1  0.36029000  0.64389000  0.23680000  1.0
  C  C96  1  0.23369000  0.68898000  0.69059000  1.0
  C  C97  1  0.73370000  0.31102000  0.80941000  1.0
  C  C98  1  0.76631000  0.31103000  0.30941000  1.0
  C  C99  1  0.26631000  0.68897000  0.19059000  1.0
  C  C100  1  0.20609000  0.77388000  0.64351000  1.0
  C  C101  1  0.70609000  0.22611000  0.85649000  1.0
  C  C102  1  0.79391000  0.22612000  0.35649000  1.0
  C  C103  1  0.29391000  0.77388000  0.14351000  1.0
  C  C104  1  0.08403000  0.81015000  0.64255000  1.0
  C  C105  1  0.58404000  0.18985000  0.85744000  1.0
  C  C106  1  0.91596000  0.18986000  0.35744000  1.0
  C  C107  1  0.41596000  0.81015000  0.14256000  1.0
  C  C108  1  0.99681000  0.76165000  0.69235000  1.0
  C  C109  1  0.49681000  0.23835000  0.80765000  1.0
  C  C110  1  0.00319000  0.23835000  0.30765000  1.0
  C  C111  1  0.50319000  0.76165000  0.19235000  1.0
  C  C112  1  0.04949000  0.89508000  0.58644000  1.0
  C  C113  1  0.54950000  0.10492000  0.91356000  1.0
  C  C114  1  0.95050000  0.10492000  0.41355000  1.0
  C  C115  1  0.45050000  0.89508000  0.08645000  1.0
  C  C116  1  0.72903000  0.77954000  0.89205000  1.0
  C  C117  1  0.22903000  0.22046000  0.60795000  1.0
  C  C118  1  0.27098000  0.22046000  0.10795000  1.0
  C  C119  1  0.77098000  0.77954000  0.39205000  1.0
  C  C120  1  0.71320000  0.85279000  0.93412000  1.0
  C  C121  1  0.21320000  0.14721000  0.56588000  1.0
  C  C122  1  0.28680000  0.14722000  0.06588000  1.0
  C  C123  1  0.78680000  0.85279000  0.43412000  1.0
  C  C124  1  0.81714000  0.88703000  0.96759000  1.0
  C  C125  1  0.31714000  0.11297000  0.53241000  1.0
  C  C126  1  0.18286000  0.11298000  0.03241000  1.0
  C  C127  1  0.68287000  0.88702000  0.46759000  1.0
  C  C128  1  0.93475000  0.84774000  0.95749000  1.0
  C  C129  1  0.43475000  0.15226000  0.54251000  1.0
  C  C130  1  0.06524000  0.15227000  0.04251000  1.0
  C  C131  1  0.56525000  0.84773000  0.45750000  1.0
  C  C132  1  0.94194000  0.77441000  0.91486000  1.0
  C  C133  1  0.44194000  0.22559000  0.58515000  1.0
  C  C134  1  0.05807000  0.22560000  0.08515000  1.0
  C  C135  1  0.55807000  0.77441000  0.41485000  1.0
  C  C136  1  0.04648000  0.87817000  0.99790000  1.0
  C  C137  1  0.54648000  0.12183000  0.50210000  1.0
  C  C138  1  0.95352000  0.12182000  0.00210000  1.0
  C  C139  1  0.45352000  0.87818000  0.49790000  1.0
  C  C140  1  0.57582000  0.53381000  0.86106000  1.0
  C  C141  1  0.07583000  0.46619000  0.63894000  1.0
  C  C142  1  0.42417000  0.46619000  0.13894000  1.0
  C  C143  1  0.92417000  0.53382000  0.36106000  1.0
  C  C144  1  0.47873000  0.47178000  0.88672000  1.0
  C  C145  1  0.97873000  0.52822000  0.61329000  1.0
  C  C146  1  0.52128000  0.52821000  0.11329000  1.0
  C  C147  1  0.02127000  0.47179000  0.38672000  1.0
  C  C148  1  0.50107000  0.40095000  0.94770000  1.0
  C  C149  1  0.00107000  0.59904000  0.55230000  1.0
  C  C150  1  0.49893000  0.59905000  0.05230000  1.0
  C  C151  1  0.99892000  0.40096000  0.44770000  1.0
  C  C152  1  0.61860000  0.39479000  0.98220000  1.0
  C  C153  1  0.11860000  0.60520000  0.51780000  1.0
  C  C154  1  0.38140000  0.60521000  0.01780000  1.0
  C  C155  1  0.88139000  0.39480000  0.48220000  1.0
  C  C156  1  0.71134000  0.45892000  0.95165000  1.0
  C  C157  1  0.21134000  0.54107000  0.54835000  1.0
  C  C158  1  0.28866000  0.54108000  0.04835000  1.0
  C  C159  1  0.78865000  0.45893000  0.45165000  1.0
  C  C160  1  0.63558000  0.32069000  0.05069000  1.0
  C  C161  1  0.13558000  0.67930000  0.44931000  1.0
  C  C162  1  0.36442000  0.67930000  0.94931000  1.0
  C  C163  1  0.86442000  0.32070000  0.55069000  1.0
  C  C164  1  0.03787000  0.47968000  0.89175000  1.0
  C  C165  1  0.53786000  0.52032000  0.60825000  1.0
  C  C166  1  0.96213000  0.52032000  0.10825000  1.0
  C  C167  1  0.46214000  0.47968000  0.39175000  1.0
  C  C168  1  0.12062000  0.39894000  0.92819000  1.0
  C  C169  1  0.62062000  0.60106000  0.57181000  1.0
  C  C170  1  0.87938000  0.60106000  0.07181000  1.0
  C  C171  1  0.37939000  0.39894000  0.42819000  1.0
  C  C172  1  0.13663000  0.31825000  0.88328000  1.0
  C  C173  1  0.63663000  0.68175000  0.61672000  1.0
  C  C174  1  0.86337000  0.68176000  0.11672000  1.0
  C  C175  1  0.36337000  0.31825000  0.38327000  1.0
  C  C176  1  0.20395000  0.34656000  0.80921000  1.0
  C  C177  1  0.70395000  0.65344000  0.69079000  1.0
  C  C178  1  0.79605000  0.65345000  0.19079000  1.0
  C  C179  1  0.29605000  0.34656000  0.30920000  1.0
  N  N180  1  0.02407000  0.68099000  0.73888000  1.0
  N  N181  1  0.52407000  0.31901000  0.76112000  1.0
  N  N182  1  0.97594000  0.31901000  0.26112000  1.0
  N  N183  1  0.47593000  0.68099000  0.23888000  1.0
  N  N184  1  0.93819000  0.93680000  0.59221000  1.0
  N  N185  1  0.43820000  0.06320000  0.90779000  1.0
  N  N186  1  0.06181000  0.06320000  0.40779000  1.0
  N  N187  1  0.56182000  0.93680000  0.09221000  1.0
  N  N188  1  0.84143000  0.74061000  0.88315000  1.0
  N  N189  1  0.34144000  0.25940000  0.61685000  1.0
  N  N190  1  0.15857000  0.25941000  0.11685000  1.0
  N  N191  1  0.65857000  0.74060000  0.38315000  1.0
  N  N192  1  0.15851000  0.87345000  0.96389000  1.0
  N  N193  1  0.65851000  0.12655000  0.53610000  1.0
  N  N194  1  0.84149000  0.12655000  0.03612000  1.0
  N  N195  1  0.34149000  0.87345000  0.46389000  1.0
  N  N196  1  0.69034000  0.52687000  0.89217000  1.0
  N  N197  1  0.19033000  0.47313000  0.60784000  1.0
  N  N198  1  0.30967000  0.47313000  0.10783000  1.0
  N  N199  1  0.80966000  0.52687000  0.39217000  1.0
  N  N200  1  0.73561000  0.32976000  0.09477000  1.0
  N  N201  1  0.23561000  0.67023000  0.40523000  1.0
  N  N202  1  0.26439000  0.67023000  0.90522000  1.0
  N  N203  1  0.76439000  0.32977000  0.59478000  1.0
  O  O204  1  0.12347000  0.92579000  0.53417000  1.0
  O  O205  1  0.62348000  0.07422000  0.96583000  1.0
  O  O206  1  0.87652000  0.07421000  0.46583000  1.0
  O  O207  1  0.37653000  0.92579000  0.03417000  1.0
  O  O208  1  0.03484000  0.90358000  0.06008000  1.0
  O  O209  1  0.53485000  0.09641000  0.43992000  1.0
  O  O210  1  0.96516000  0.09639000  0.93994000  1.0
  O  O211  1  0.46515000  0.90361000  0.56006000  1.0
  O  O212  1  0.55748000  0.25567000  0.06625000  1.0
  O  O213  1  0.05747000  0.74432000  0.43375000  1.0
  O  O214  1  0.44252000  0.74432000  0.93374000  1.0
  O  O215  1  0.94253000  0.25568000  0.56625000  1.0
  O  O216  1  0.95682000  0.46293000  0.84372000  1.0
  O  O217  1  0.45681000  0.53707000  0.65628000  1.0
  O  O218  1  0.04318000  0.53707000  0.15628000  1.0
  O  O219  1  0.54319000  0.46293000  0.34372000  1.0
  O  O220  1  0.04867000  0.56122000  0.91220000  1.0
  O  O221  1  0.54867000  0.43877000  0.58780000  1.0
  O  O222  1  0.95133000  0.43878000  0.08780000  1.0
  O  O223  1  0.45133000  0.56123000  0.41219000  1.0
  O  O224  1  0.21723000  0.28366000  0.76695000  1.0
  O  O225  1  0.71723000  0.71634000  0.73305000  1.0
  O  O226  1  0.78277000  0.71634000  0.23305000  1.0
  O  O227  1  0.28277000  0.28366000  0.26695000  1.0
  O  O228  1  0.24838000  0.43077000  0.79219000  1.0
  O  O229  1  0.74838000  0.56923000  0.70781000  1.0
  O  O230  1  0.75162000  0.56923000  0.20781000  1.0
  O  O231  1  0.25162000  0.43078000  0.29219000  1.0
