# generated using pymatgen
data_TbH3C12(NO4)3
_symmetry_space_group_name_H-M   'P 1'
_cell_length_a   9.48192000
_cell_length_b   9.48197000
_cell_length_c   9.48195000
_cell_angle_alpha   92.04000000
_cell_angle_beta   92.04250000
_cell_angle_gamma   92.04200000
_symmetry_Int_Tables_number   1
_chemical_formula_structural   TbH3C12(NO4)3
_chemical_formula_sum   'Tb2 H6 C24 N6 O24'
_cell_volume   850.83342489
_cell_formula_units_Z   2
loop_
 _symmetry_equiv_pos_site_id
 _symmetry_equiv_pos_as_xyz
  1  'x, y, z'
loop_
 _atom_site_type_symbol
 _atom_site_label
 _atom_site_symmetry_multiplicity
 _atom_site_fract_x
 _atom_site_fract_y
 _atom_site_fract_z
 _atom_site_occupancy
  Tb  Tb0  1  0.68229000  0.68228000  0.68228000  1.0
  Tb  Tb1  1  0.31771000  0.31772000  0.31772000  1.0
  H  H2  1  0.83084000  0.51525000  0.15774000  1.0
  H  H3  1  0.51525000  0.15774000  0.83086000  1.0
  H  H4  1  0.15774000  0.83084000  0.51525000  1.0
  H  H5  1  0.16915000  0.48474000  0.84226000  1.0
  H  H6  1  0.48476000  0.84226000  0.16914000  1.0
  H  H7  1  0.84226000  0.16916000  0.48476000  1.0
  C  C8  1  0.88922000  0.54764000  0.42175000  1.0
  C  C9  1  0.54764000  0.42175000  0.88921000  1.0
  C  C10  1  0.42175000  0.88922000  0.54765000  1.0
  C  C11  1  0.11078000  0.45236000  0.57825000  1.0
  C  C12  1  0.45236000  0.57825000  0.11078000  1.0
  C  C13  1  0.57825000  0.11080000  0.45238000  1.0
  C  C14  1  0.99704000  0.47184000  0.35739000  1.0
  C  C15  1  0.47184000  0.35739000  0.99705000  1.0
  C  C16  1  0.35738000  0.99705000  0.47185000  1.0
  C  C17  1  0.00295000  0.52816000  0.64261000  1.0
  C  C18  1  0.52817000  0.64260000  0.00294000  1.0
  C  C19  1  0.64260000  0.00296000  0.52818000  1.0
  C  C20  1  0.75724000  0.60617000  0.35215000  1.0
  C  C21  1  0.60616000  0.35215000  0.75724000  1.0
  C  C22  1  0.35216000  0.75723000  0.60616000  1.0
  C  C23  1  0.24276000  0.39383000  0.64784000  1.0
  C  C24  1  0.39385000  0.64785000  0.24276000  1.0
  C  C25  1  0.64784000  0.24277000  0.39385000  1.0
  C  C26  1  0.00997000  0.42440000  0.20263000  1.0
  C  C27  1  0.42440000  0.20263000  0.00998000  1.0
  C  C28  1  0.20262000  0.00998000  0.42440000  1.0
  C  C29  1  0.99003000  0.57559000  0.79737000  1.0
  C  C30  1  0.57560000  0.79737000  0.99000000  1.0
  C  C31  1  0.79737000  0.99003000  0.57561000  1.0
  N  N32  1  0.89673000  0.57266000  0.56141000  1.0
  N  N33  1  0.57266000  0.56141000  0.89672000  1.0
  N  N34  1  0.56141000  0.89673000  0.57266000  1.0
  N  N35  1  0.10328000  0.42734000  0.43858000  1.0
  N  N36  1  0.42734000  0.43859000  0.10327000  1.0
  N  N37  1  0.43858000  0.10329000  0.42736000  1.0
  O  O38  1  0.67044000  0.65986000  0.43403000  1.0
  O  O39  1  0.65985000  0.43404000  0.67043000  1.0
  O  O40  1  0.43405000  0.67042000  0.65984000  1.0
  O  O41  1  0.32956000  0.34014000  0.56596000  1.0
  O  O42  1  0.34016000  0.56596000  0.32956000  1.0
  O  O43  1  0.56595000  0.32958000  0.34016000  1.0
  O  O44  1  0.74176000  0.60027000  0.21856000  1.0
  O  O45  1  0.60026000  0.21856000  0.74176000  1.0
  O  O46  1  0.21857000  0.74174000  0.60026000  1.0
  O  O47  1  0.25824000  0.39972000  0.78143000  1.0
  O  O48  1  0.39975000  0.78143000  0.25824000  1.0
  O  O49  1  0.78143000  0.25825000  0.39974000  1.0
  O  O50  1  0.11949000  0.36370000  0.17007000  1.0
  O  O51  1  0.36370000  0.17007000  0.11951000  1.0
  O  O52  1  0.17006000  0.11950000  0.36369000  1.0
  O  O53  1  0.88051000  0.63631000  0.82993000  1.0
  O  O54  1  0.63630000  0.82993000  0.88048000  1.0
  O  O55  1  0.82994000  0.88050000  0.63631000  1.0
  O  O56  1  0.90887000  0.44496000  0.11235000  1.0
  O  O57  1  0.44496000  0.11234000  0.90889000  1.0
  O  O58  1  0.11234000  0.90888000  0.44497000  1.0
  O  O59  1  0.09113000  0.55503000  0.88765000  1.0
  O  O60  1  0.55504000  0.88765000  0.09110000  1.0
  O  O61  1  0.88766000  0.09113000  0.55505000  1.0
