# generated using pymatgen
data_ZnH6C8N4O3
_symmetry_space_group_name_H-M   'P 1'
_cell_length_a   7.15523000
_cell_length_b   10.25240000
_cell_length_c   14.54956710
_cell_angle_alpha   98.15403274
_cell_angle_beta   104.22681827
_cell_angle_gamma   110.40600000
_symmetry_Int_Tables_number   1
_chemical_formula_structural   ZnH6C8N4O3
_chemical_formula_sum   'Zn4 H24 C32 N16 O12'
_cell_volume   938.76978764
_cell_formula_units_Z   4
loop_
 _symmetry_equiv_pos_site_id
 _symmetry_equiv_pos_as_xyz
  1  'x, y, z'
loop_
 _atom_site_type_symbol
 _atom_site_label
 _atom_site_symmetry_multiplicity
 _atom_site_fract_x
 _atom_site_fract_y
 _atom_site_fract_z
 _atom_site_occupancy
  Zn  Zn0  1  0.93104000  0.24994000  0.24995000  1.0
  Zn  Zn1  1  0.06896000  0.75006000  0.75005000  1.0
  Zn  Zn2  1  0.50000000  0.50000000  0.50000000  1.0
  Zn  Zn3  1  0.00000000  0.00000000  0.00000000  1.0
  H  H4  1  0.03963000  0.56195000  0.30434000  1.0
  H  H5  1  0.67373000  0.93765000  0.19602000  1.0
  H  H6  1  0.96038000  0.43805000  0.69567000  1.0
  H  H7  1  0.32626000  0.06236000  0.80398000  1.0
  H  H8  1  0.01921000  0.68090000  0.16632000  1.0
  H  H9  1  0.67178000  0.81896000  0.33415000  1.0
  H  H10  1  0.98080000  0.31910000  0.83368000  1.0
  H  H11  1  0.32822000  0.18105000  0.66585000  1.0
  H  H12  1  0.67738000  0.68105000  0.07392000  1.0
  H  H13  1  0.42147000  0.81875000  0.42615000  1.0
  H  H14  1  0.32262000  0.31895000  0.92608000  1.0
  H  H15  1  0.57853000  0.18125000  0.57385000  1.0
  H  H16  1  0.35857000  0.56280000  0.11948000  1.0
  H  H17  1  0.17531000  0.93695000  0.38013000  1.0
  H  H18  1  0.64143000  0.43720000  0.88052000  1.0
  H  H19  1  0.82469000  0.06305000  0.61987000  1.0
  H  H20  1  0.75389000  0.77933000  0.56792000  1.0
  H  H21  1  0.90709000  0.72049000  0.93230000  1.0
  H  H22  1  0.24611000  0.22067000  0.43208000  1.0
  H  H23  1  0.09292000  0.27951000  0.06770000  1.0
  H  H24  1  0.85569000  0.71627000  0.50326000  1.0
  H  H25  1  0.13654000  0.78378000  0.99689000  1.0
  H  H26  1  0.14430000  0.28373000  0.49673000  1.0
  H  H27  1  0.86345000  0.21622000  0.00311000  1.0
  C  C28  1  0.73914000  0.41290000  0.36395000  1.0
  C  C29  1  0.46239000  0.08671000  0.13599000  1.0
  C  C30  1  0.26086000  0.58710000  0.63605000  1.0
  C  C31  1  0.53761000  0.91329000  0.86401000  1.0
  C  C32  1  0.71050000  0.49325000  0.28922000  1.0
  C  C33  1  0.42810000  0.00635000  0.21072000  1.0
  C  C34  1  0.28950000  0.50675000  0.71078000  1.0
  C  C35  1  0.57190000  0.99365000  0.78928000  1.0
  C  C36  1  0.88982000  0.56054000  0.26233000  1.0
  C  C37  1  0.56705000  0.93912000  0.23787000  1.0
  C  C38  1  0.11018000  0.43946000  0.73767000  1.0
  C  C39  1  0.43295000  0.06088000  0.76213000  1.0
  C  C40  1  0.87871000  0.62787000  0.18566000  1.0
  C  C41  1  0.56492000  0.87189000  0.31459000  1.0
  C  C42  1  0.12129000  0.37213000  0.81434000  1.0
  C  C43  1  0.43508000  0.12811000  0.68541000  1.0
  C  C44  1  0.68704000  0.62748000  0.13327000  1.0
  C  C45  1  0.42560000  0.87223000  0.36674000  1.0
  C  C46  1  0.31297000  0.37252000  0.86673000  1.0
  C  C47  1  0.57440000  0.12777000  0.63326000  1.0
  C  C48  1  0.50842000  0.56201000  0.15939000  1.0
  C  C49  1  0.28630000  0.93762000  0.34038000  1.0
  C  C50  1  0.49158000  0.43798000  0.84061000  1.0
  C  C51  1  0.71369000  0.06238000  0.65962000  1.0
  C  C52  1  0.51781000  0.49727000  0.23810000  1.0
  C  C53  1  0.28220000  0.00236000  0.26167000  1.0
  C  C54  1  0.48219000  0.50273000  0.76190000  1.0
  C  C55  1  0.71778000  0.99764000  0.73832000  1.0
  C  C56  1  0.32211000  0.43746000  0.26455000  1.0
  C  C57  1  0.12025000  0.06251000  0.23526000  1.0
  C  C58  1  0.67789000  0.56254000  0.73545000  1.0
  C  C59  1  0.87975000  0.93749000  0.76474000  1.0
  N  N60  1  0.68732000  0.41417000  0.44699000  1.0
  N  N61  1  0.32620000  0.08565000  0.05306000  1.0
  N  N62  1  0.31268000  0.58583000  0.55301000  1.0
  N  N63  1  0.67380000  0.91435000  0.94694000  1.0
  N  N64  1  0.77230000  0.33520000  0.49567000  1.0
  N  N65  1  0.44130000  0.16483000  0.00443000  1.0
  N  N66  1  0.22770000  0.66480000  0.50432000  1.0
  N  N67  1  0.55870000  0.83517000  0.99557000  1.0
  N  N68  1  0.87008000  0.28520000  0.44460000  1.0
  N  N69  1  0.64013000  0.21475000  0.05543000  1.0
  N  N70  1  0.12992000  0.71480000  0.55540000  1.0
  N  N71  1  0.35986000  0.78525000  0.94457000  1.0
  N  N72  1  0.85134000  0.33112000  0.36158000  1.0
  N  N73  1  0.65862000  0.16855000  0.13834000  1.0
  N  N74  1  0.14866000  0.66888000  0.63842000  1.0
  N  N75  1  0.34137000  0.83145000  0.86166000  1.0
  O  O76  1  0.14887000  0.36382000  0.19320000  1.0
  O  O77  1  0.09253000  0.13645000  0.30666000  1.0
  O  O78  1  0.85113000  0.63618000  0.80680000  1.0
  O  O79  1  0.90746000  0.86354000  0.69333000  1.0
  O  O80  1  0.32129000  0.45936000  0.35173000  1.0
  O  O81  1  0.01016000  0.04062000  0.14814000  1.0
  O  O82  1  0.67871000  0.54063000  0.64827000  1.0
  O  O83  1  0.98984000  0.95939000  0.85186000  1.0
  O  O84  1  0.71675000  0.71645000  0.50210000  1.0
  O  O85  1  0.99855000  0.78351000  0.99807000  1.0
  O  O86  1  0.28325000  0.28355000  0.49790000  1.0
  O  O87  1  0.00145000  0.21649000  0.00193000  1.0
