# generated using pymatgen
data_Cu3H2(CN3)3
_symmetry_space_group_name_H-M   'P 1'
_cell_length_a   8.61095000
_cell_length_b   8.61103000
_cell_length_c   12.32970000
_cell_angle_alpha   77.36490000
_cell_angle_beta   77.36470000
_cell_angle_gamma   79.96230000
_symmetry_Int_Tables_number   1
_chemical_formula_structural   Cu3H2(CN3)3
_chemical_formula_sum   'Cu12 H8 C12 N36'
_cell_volume   862.78167892
_cell_formula_units_Z   4
loop_
 _symmetry_equiv_pos_site_id
 _symmetry_equiv_pos_as_xyz
  1  'x, y, z'
loop_
 _atom_site_type_symbol
 _atom_site_label
 _atom_site_symmetry_multiplicity
 _atom_site_fract_x
 _atom_site_fract_y
 _atom_site_fract_z
 _atom_site_occupancy
  Cu  Cu0  1  0.63446000  0.63447000  0.98107000  1.0
  Cu  Cu1  1  0.36554000  0.36554000  0.01893000  1.0
  Cu  Cu2  1  0.24541000  0.24541000  0.86331000  1.0
  Cu  Cu3  1  0.75459000  0.75459000  0.13669000  1.0
  Cu  Cu4  1  0.05395000  0.05395000  0.13392000  1.0
  Cu  Cu5  1  0.94606000  0.94605000  0.86608000  1.0
  Cu  Cu6  1  0.62290000  0.62290000  0.66690000  1.0
  Cu  Cu7  1  0.37709000  0.37710000  0.33310000  1.0
  Cu  Cu8  1  0.09747000  0.09747000  0.45528000  1.0
  Cu  Cu9  1  0.90253000  0.90252000  0.54472000  1.0
  Cu  Cu10  1  0.27823000  0.27823000  0.64043000  1.0
  Cu  Cu11  1  0.72177000  0.72177000  0.35958000  1.0
  H  H12  1  0.30758000  0.89957000  0.66045000  1.0
  H  H13  1  0.10043000  0.69239000  0.33956000  1.0
  H  H14  1  0.69241000  0.10044000  0.33956000  1.0
  H  H15  1  0.89956000  0.30759000  0.66045000  1.0
  H  H16  1  0.74637000  0.33411000  0.15516000  1.0
  H  H17  1  0.66590000  0.25363000  0.84484000  1.0
  H  H18  1  0.25364000  0.66589000  0.84484000  1.0
  H  H19  1  0.33411000  0.74637000  0.15516000  1.0
  C  C20  1  0.42140000  0.94512000  0.64564000  1.0
  C  C21  1  0.05487000  0.57860000  0.35437000  1.0
  C  C22  1  0.57859000  0.05488000  0.35437000  1.0
  C  C23  1  0.94512000  0.42140000  0.64563000  1.0
  C  C24  1  0.38738000  0.38738000  0.78153000  1.0
  C  C25  1  0.61261000  0.61262000  0.21847000  1.0
  C  C26  1  0.82331000  0.34468000  0.07242000  1.0
  C  C27  1  0.65534000  0.17669000  0.92759000  1.0
  C  C28  1  0.17669000  0.65533000  0.92758000  1.0
  C  C29  1  0.34467000  0.82330000  0.07242000  1.0
  C  C30  1  0.96239000  0.96238000  0.38612000  1.0
  C  C31  1  0.03759000  0.03760000  0.61388000  1.0
  N  N32  1  0.79959000  0.46210000  0.98327000  1.0
  N  N33  1  0.53791000  0.20041000  0.01673000  1.0
  N  N34  1  0.20041000  0.53790000  0.01673000  1.0
  N  N35  1  0.46210000  0.79960000  0.98327000  1.0
  N  N36  1  0.92268000  0.43698000  0.89700000  1.0
  N  N37  1  0.56302000  0.07732000  0.10300000  1.0
  N  N38  1  0.07733000  0.56302000  0.10300000  1.0
  N  N39  1  0.43698000  0.92268000  0.89700000  1.0
  N  N40  1  0.01612000  0.30744000  0.93378000  1.0
  N  N41  1  0.69256000  0.98389000  0.06622000  1.0
  N  N42  1  0.98389000  0.69256000  0.06622000  1.0
  N  N43  1  0.30744000  0.01612000  0.93378000  1.0
  N  N44  1  0.95639000  0.24635000  0.04378000  1.0
  N  N45  1  0.75367000  0.04362000  0.95621000  1.0
  N  N46  1  0.04362000  0.75367000  0.95621000  1.0
  N  N47  1  0.24634000  0.95639000  0.04378000  1.0
  N  N48  1  0.98506000  0.98505000  0.28591000  1.0
  N  N49  1  0.01495000  0.01495000  0.71407000  1.0
  N  N50  1  0.47935000  0.47935000  0.73581000  1.0
  N  N51  1  0.52065000  0.52065000  0.26419000  1.0
  N  N52  1  0.56518000  0.85662000  0.63552000  1.0
  N  N53  1  0.14338000  0.43481000  0.36448000  1.0
  N  N54  1  0.43482000  0.14339000  0.36448000  1.0
  N  N55  1  0.85661000  0.56518000  0.63552000  1.0
  N  N56  1  0.43822000  0.10057000  0.63293000  1.0
  N  N57  1  0.89941000  0.56177000  0.36708000  1.0
  N  N58  1  0.56178000  0.89943000  0.36708000  1.0
  N  N59  1  0.10057000  0.43822000  0.63293000  1.0
  N  N60  1  0.59758000  0.10951000  0.61446000  1.0
  N  N61  1  0.89048000  0.40241000  0.38555000  1.0
  N  N62  1  0.40242000  0.89049000  0.38554000  1.0
  N  N63  1  0.10951000  0.59757000  0.61446000  1.0
  N  N64  1  0.67255000  0.96329000  0.61533000  1.0
  N  N65  1  0.03670000  0.32744000  0.38467000  1.0
  N  N66  1  0.32745000  0.03671000  0.38467000  1.0
  N  N67  1  0.96329000  0.67255000  0.61533000  1.0
