# generated using pymatgen
data_AgBiH16C24(IN)4
_symmetry_space_group_name_H-M   'P 1'
_cell_length_a   7.69390000
_cell_length_b   9.92003000
_cell_length_c   9.91991000
_cell_angle_alpha   68.21530000
_cell_angle_beta   78.18190000
_cell_angle_gamma   78.18200000
_symmetry_Int_Tables_number   1
_chemical_formula_structural   AgBiH16C24(IN)4
_chemical_formula_sum   'Ag1 Bi1 H16 C24 I4 N4'
_cell_volume   681.20730169
_cell_formula_units_Z   1
loop_
 _symmetry_equiv_pos_site_id
 _symmetry_equiv_pos_as_xyz
  1  'x, y, z'
loop_
 _atom_site_type_symbol
 _atom_site_label
 _atom_site_symmetry_multiplicity
 _atom_site_fract_x
 _atom_site_fract_y
 _atom_site_fract_z
 _atom_site_occupancy
  Ag  Ag0  1  0.50000000  0.34174000  0.65827000  1.0
  Bi  Bi1  1  0.00001000  0.48287000  0.51713000  1.0
  H  H2  1  0.32021000  0.41698000  0.25147000  1.0
  H  H3  1  0.67980000  0.74853000  0.58302000  1.0
  H  H4  1  0.44155000  0.52811000  0.98427000  1.0
  H  H5  1  0.55845000  0.01572000  0.47189000  1.0
  H  H6  1  0.31838000  0.78594000  0.84509000  1.0
  H  H7  1  0.68162000  0.15490000  0.21406000  1.0
  H  H8  1  0.11655000  0.01857000  0.84752000  1.0
  H  H9  1  0.88345000  0.15247000  0.98143000  1.0
  H  H10  1  0.17255000  0.41176000  0.91669000  1.0
  H  H11  1  0.82744000  0.08331000  0.58823000  1.0
  H  H12  1  0.05305000  0.30070000  0.18412000  1.0
  H  H13  1  0.94694000  0.81589000  0.69930000  1.0
  H  H14  1  0.18134000  0.04453000  0.32329000  1.0
  H  H15  1  0.81866000  0.67671000  0.95547000  1.0
  H  H16  1  0.38421000  0.81411000  0.31988000  1.0
  H  H17  1  0.61578000  0.68012000  0.18589000  1.0
  C  C18  1  0.26896000  0.52845000  0.18593000  1.0
  C  C19  1  0.73105000  0.81406000  0.47155000  1.0
  C  C20  1  0.33614000  0.59133000  0.03723000  1.0
  C  C21  1  0.66387000  0.96276000  0.40867000  1.0
  C  C22  1  0.26834000  0.73379000  0.96067000  1.0
  C  C23  1  0.73167000  0.03932000  0.26621000  1.0
  C  C24  1  0.13451000  0.81405000  0.03293000  1.0
  C  C25  1  0.86549000  0.96706000  0.18595000  1.0
  C  C26  1  0.07007000  0.74075000  0.18259000  1.0
  C  C27  1  0.92994000  0.81741000  0.25925000  1.0
  C  C28  1  0.06434000  0.96395000  0.96210000  1.0
  C  C29  1  0.93567000  0.03790000  0.03605000  1.0
  C  C30  1  0.22731000  0.30118000  0.98180000  1.0
  C  C31  1  0.77268000  0.01820000  0.69883000  1.0
  C  C32  1  0.16009000  0.23860000  0.13101000  1.0
  C  C33  1  0.83990000  0.86900000  0.76140000  1.0
  C  C34  1  0.23029000  0.09699000  0.20752000  1.0
  C  C35  1  0.76970000  0.79248000  0.90301000  1.0
  C  C36  1  0.36548000  0.01850000  0.13434000  1.0
  C  C37  1  0.63452000  0.86567000  0.98149000  1.0
  C  C38  1  0.42882000  0.09262000  0.98422000  1.0
  C  C39  1  0.57117000  0.01578000  0.90739000  1.0
  C  C40  1  0.43603000  0.86886000  0.20526000  1.0
  C  C41  1  0.56397000  0.79474000  0.13114000  1.0
  I  I42  1  0.26432000  0.62211000  0.60461000  1.0
  I  I43  1  0.73569000  0.39540000  0.37789000  1.0
  I  I44  1  0.24073000  0.18923000  0.55185000  1.0
  I  I45  1  0.75928000  0.44815000  0.81077000  1.0
  N  N46  1  0.13842000  0.60030000  0.25517000  1.0
  N  N47  1  0.86159000  0.74482000  0.39969000  1.0
  N  N48  1  0.35868000  0.23184000  0.91125000  1.0
  N  N49  1  0.64131000  0.08876000  0.76816000  1.0
