# generated using pymatgen
data_InH5C4NClO4
_symmetry_space_group_name_H-M   'P 1'
_cell_length_a   5.94489000
_cell_length_b   8.90006000
_cell_length_c   13.66430000
_cell_angle_alpha   89.99960000
_cell_angle_beta   89.99820000
_cell_angle_gamma   89.99960000
_symmetry_Int_Tables_number   1
_chemical_formula_structural   InH5C4NClO4
_chemical_formula_sum   'In4 H20 C16 N4 Cl4 O16'
_cell_volume   722.97644137
_cell_formula_units_Z   4
loop_
 _symmetry_equiv_pos_site_id
 _symmetry_equiv_pos_as_xyz
  1  'x, y, z'
loop_
 _atom_site_type_symbol
 _atom_site_label
 _atom_site_symmetry_multiplicity
 _atom_site_fract_x
 _atom_site_fract_y
 _atom_site_fract_z
 _atom_site_occupancy
  In  In0  1  0.39651000  0.75000000  0.81797000  1.0
  In  In1  1  0.89653000  0.25001000  0.68200000  1.0
  In  In2  1  0.10350000  0.75000000  0.31801000  1.0
  In  In3  1  0.60346000  0.25000000  0.18203000  1.0
  H  H4  1  0.13509000  0.74999000  0.64033000  1.0
  H  H5  1  0.63508000  0.25000000  0.85967000  1.0
  H  H6  1  0.36492000  0.75000000  0.14032000  1.0
  H  H7  1  0.86492000  0.24999000  0.35965000  1.0
  H  H8  1  0.47462000  0.63556000  0.53524000  1.0
  H  H9  1  0.97461000  0.36443000  0.96475000  1.0
  H  H10  1  0.02540000  0.86444000  0.03525000  1.0
  H  H11  1  0.52540000  0.13557000  0.46475000  1.0
  H  H12  1  0.52540000  0.36443000  0.46475000  1.0
  H  H13  1  0.02541000  0.63556000  0.03525000  1.0
  H  H14  1  0.97459000  0.13557000  0.96476000  1.0
  H  H15  1  0.47461000  0.86443000  0.53524000  1.0
  H  H16  1  0.25611000  0.53317000  0.59021000  1.0
  H  H17  1  0.75610000  0.46683000  0.90978000  1.0
  H  H18  1  0.24389000  0.96683000  0.09023000  1.0
  H  H19  1  0.74391000  0.03318000  0.40979000  1.0
  H  H20  1  0.74391000  0.46681000  0.40978000  1.0
  H  H21  1  0.24389000  0.53317000  0.09023000  1.0
  H  H22  1  0.75610000  0.03317000  0.90978000  1.0
  H  H23  1  0.25609000  0.96682000  0.59021000  1.0
  C  C24  1  0.56248000  0.52662000  0.66852000  1.0
  C  C25  1  0.06249000  0.47338000  0.83147000  1.0
  C  C26  1  0.93751000  0.97338000  0.16853000  1.0
  C  C27  1  0.43754000  0.02662000  0.33149000  1.0
  C  C28  1  0.43753000  0.47338000  0.33149000  1.0
  C  C29  1  0.93750000  0.52663000  0.16853000  1.0
  C  C30  1  0.06248000  0.02662000  0.83148000  1.0
  C  C31  1  0.56248000  0.97338000  0.66851000  1.0
  C  C32  1  0.39460000  0.61090000  0.60582000  1.0
  C  C33  1  0.89458000  0.38908000  0.89418000  1.0
  C  C34  1  0.10541000  0.88908000  0.10583000  1.0
  C  C35  1  0.60541000  0.11090000  0.39418000  1.0
  C  C36  1  0.60541000  0.38910000  0.39418000  1.0
  C  C37  1  0.10541000  0.61092000  0.10583000  1.0
  C  C38  1  0.89458000  0.11092000  0.89418000  1.0
  C  C39  1  0.39459000  0.88909000  0.60582000  1.0
  N  N40  1  0.30551000  0.75000000  0.65084000  1.0
  N  N41  1  0.80550000  0.25000000  0.84915000  1.0
  N  N42  1  0.19450000  0.75000000  0.15085000  1.0
  N  N43  1  0.69449000  0.24999000  0.34915000  1.0
  Cl  Cl44  1  0.59931000  0.75000000  0.97334000  1.0
  Cl  Cl45  1  0.09933000  0.24999000  0.52665000  1.0
  Cl  Cl46  1  0.90069000  0.75001000  0.47336000  1.0
  Cl  Cl47  1  0.40066000  0.24999000  0.02666000  1.0
  O  O48  1  0.60948000  0.56919000  0.75500000  1.0
  O  O49  1  0.10949000  0.43080000  0.74498000  1.0
  O  O50  1  0.89052000  0.93080000  0.25502000  1.0
  O  O51  1  0.39052000  0.06917000  0.24501000  1.0
  O  O52  1  0.39051000  0.43083000  0.24500000  1.0
  O  O53  1  0.89051000  0.56921000  0.25502000  1.0
  O  O54  1  0.10949000  0.06920000  0.74499000  1.0
  O  O55  1  0.60949000  0.93081000  0.75500000  1.0
  O  O56  1  0.64899000  0.41201000  0.62769000  1.0
  O  O57  1  0.14900000  0.58799000  0.87230000  1.0
  O  O58  1  0.85100000  0.08799000  0.12770000  1.0
  O  O59  1  0.35104000  0.91200000  0.37231000  1.0
  O  O60  1  0.35102000  0.58799000  0.37231000  1.0
  O  O61  1  0.85097000  0.41203000  0.12770000  1.0
  O  O62  1  0.14899000  0.91201000  0.87231000  1.0
  O  O63  1  0.64899000  0.08799000  0.62769000  1.0
