# generated using pymatgen
data_Er2PH19C11NO16
_symmetry_space_group_name_H-M   'P 1'
_cell_length_a   9.50014000
_cell_length_b   10.41600000
_cell_length_c   12.00670000
_cell_angle_alpha   72.81360000
_cell_angle_beta   69.32760000
_cell_angle_gamma   67.16310000
_symmetry_Int_Tables_number   1
_chemical_formula_structural   Er2PH19C11NO16
_chemical_formula_sum   'Er4 P2 H38 C22 N2 O32'
_cell_volume   1007.02274194
_cell_formula_units_Z   2
loop_
 _symmetry_equiv_pos_site_id
 _symmetry_equiv_pos_as_xyz
  1  'x, y, z'
loop_
 _atom_site_type_symbol
 _atom_site_label
 _atom_site_symmetry_multiplicity
 _atom_site_fract_x
 _atom_site_fract_y
 _atom_site_fract_z
 _atom_site_occupancy
  Er  Er0  1  0.94076000  0.18197000  0.75334000  1.0
  Er  Er1  1  0.05925000  0.81802000  0.24665000  1.0
  Er  Er2  1  0.41562000  0.17107000  0.29101000  1.0
  Er  Er3  1  0.58438000  0.82892000  0.70899000  1.0
  P  P4  1  0.34536000  0.17624000  0.60810000  1.0
  P  P5  1  0.65463000  0.82377000  0.39190000  1.0
  H  H6  1  0.46910000  0.35606000  0.58121000  1.0
  H  H7  1  0.53089000  0.64394000  0.41880000  1.0
  H  H8  1  0.28588000  0.42910000  0.54064000  1.0
  H  H9  1  0.71411000  0.57090000  0.45937000  1.0
  H  H10  1  0.14756000  0.39096000  0.75026000  1.0
  H  H11  1  0.85244000  0.60904000  0.24975000  1.0
  H  H12  1  0.46127000  0.31436000  0.79574000  1.0
  H  H13  1  0.53872000  0.68564000  0.20427000  1.0
  H  H14  1  0.35567000  0.19413000  0.82332000  1.0
  H  H15  1  0.64433000  0.80587000  0.17669000  1.0
  H  H16  1  0.12987000  0.32932000  0.96988000  1.0
  H  H17  1  0.87012000  0.67069000  0.03013000  1.0
  H  H18  1  0.30555000  0.27529000  0.01376000  1.0
  H  H19  1  0.69444000  0.72472000  0.98625000  1.0
  H  H20  1  0.14675000  0.53335000  0.02745000  1.0
  H  H21  1  0.85325000  0.46667000  0.97256000  1.0
  H  H22  1  0.33767000  0.51357000  0.92542000  1.0
  H  H23  1  0.66233000  0.48644000  0.07459000  1.0
  H  H24  1  0.13725000  0.70756000  0.83034000  1.0
  H  H25  1  0.86275000  0.29244000  0.16966000  1.0
  H  H26  1  0.02505000  0.59503000  0.85923000  1.0
  H  H27  1  0.97494000  0.40498000  0.14078000  1.0
  H  H28  1  0.17811000  0.61266000  0.64887000  1.0
  H  H29  1  0.82189000  0.38734000  0.35113000  1.0
  H  H30  1  0.36016000  0.56255000  0.68930000  1.0
  H  H31  1  0.63984000  0.43745000  0.31071000  1.0
  H  H32  1  0.86848000  0.30652000  0.52759000  1.0
  H  H33  1  0.13154000  0.69349000  0.47239000  1.0
  H  H34  1  0.04490000  0.21091000  0.48328000  1.0
  H  H35  1  0.95511000  0.78909000  0.51670000  1.0
  H  H36  1  0.67556000  0.09060000  0.40425000  1.0
  H  H37  1  0.32443000  0.90940000  0.59576000  1.0
  H  H38  1  0.76155000  0.10786000  0.26457000  1.0
  H  H39  1  0.23845000  0.89213000  0.73545000  1.0
  H  H40  1  0.57861000  0.15416000  0.03712000  1.0
  H  H41  1  0.42140000  0.84582000  0.96289000  1.0
  H  H42  1  0.67959000  0.23090000  0.05367000  1.0
  H  H43  1  0.32041000  0.76910000  0.94634000  1.0
  C  C44  1  0.34736000  0.35297000  0.60719000  1.0
  C  C45  1  0.65264000  0.64703000  0.39282000  1.0
  C  C46  1  0.34256000  0.30331000  0.82358000  1.0
  C  C47  1  0.65743000  0.69670000  0.17643000  1.0
  C  C48  1  0.24538000  0.34649000  0.94503000  1.0
  C  C49  1  0.75461000  0.65352000  0.05498000  1.0
  C  C50  1  0.22179000  0.50122000  0.94080000  1.0
  C  C51  1  0.77820000  0.49879000  0.05921000  1.0
  C  C52  1  0.14650000  0.59690000  0.83941000  1.0
  C  C53  1  0.85350000  0.40310000  0.16059000  1.0
  C  C54  1  0.24144000  0.55153000  0.71830000  1.0
  C  C55  1  0.75856000  0.44848000  0.28170000  1.0
  C  C56  1  0.84694000  0.96365000  0.68428000  1.0
  C  C57  1  0.15306000  0.03636000  0.31570000  1.0
  C  C58  1  0.72134000  0.99414000  0.80655000  1.0
  C  C59  1  0.27866000  0.00587000  0.19344000  1.0
  C  C60  1  0.68623000  0.48925000  0.73346000  1.0
  C  C61  1  0.31378000  0.51074000  0.26653000  1.0
  C  C62  1  0.82463000  0.51423000  0.75432000  1.0
  C  C63  1  0.17537000  0.48576000  0.24568000  1.0
  C  C64  1  0.94799000  0.06525000  0.03031000  1.0
  C  C65  1  0.05202000  0.93475000  0.96966000  1.0
  N  N66  1  0.26223000  0.39825000  0.72660000  1.0
  N  N67  1  0.73777000  0.60175000  0.27341000  1.0
  O  O68  1  0.19101000  0.16215000  0.70252000  1.0
  O  O69  1  0.80899000  0.83784000  0.29748000  1.0
  O  O70  1  0.34173000  0.18497000  0.48041000  1.0
  O  O71  1  0.65827000  0.81503000  0.51959000  1.0
  O  O72  1  0.49262000  0.06583000  0.64230000  1.0
  O  O73  1  0.50739000  0.93417000  0.35771000  1.0
  O  O74  1  0.95981000  0.01417000  0.65190000  1.0
  O  O75  1  0.04019000  0.98583000  0.34808000  1.0
  O  O76  1  0.17445000  0.10958000  0.37206000  1.0
  O  O77  1  0.82555000  0.89042000  0.62793000  1.0
  O  O78  1  0.73397000  0.07854000  0.85738000  1.0
  O  O79  1  0.26603000  0.92147000  0.14260000  1.0
  O  O80  1  0.38130000  0.06878000  0.15448000  1.0
  O  O81  1  0.61870000  0.93122000  0.84551000  1.0
  O  O82  1  0.70499000  0.36248000  0.72903000  1.0
  O  O83  1  0.29503000  0.63751000  0.27095000  1.0
  O  O84  1  0.43253000  0.40351000  0.27806000  1.0
  O  O85  1  0.56747000  0.59649000  0.72193000  1.0
  O  O86  1  0.94682000  0.40589000  0.76183000  1.0
  O  O87  1  0.05318000  0.59410000  0.23816000  1.0
  O  O88  1  0.19487000  0.36191000  0.23783000  1.0
  O  O89  1  0.80512000  0.63809000  0.76217000  1.0
  O  O90  1  0.88940000  0.17961000  0.96300000  1.0
  O  O91  1  0.11061000  0.82039000  0.03699000  1.0
  O  O92  1  0.07117000  0.95280000  0.85738000  1.0
  O  O93  1  0.92883000  0.04720000  0.14260000  1.0
  O  O94  1  0.97324000  0.27930000  0.53920000  1.0
  O  O95  1  0.02678000  0.72069000  0.46078000  1.0
  O  O96  1  0.66234000  0.14673000  0.32545000  1.0
  O  O97  1  0.33766000  0.85326000  0.67456000  1.0
  O  O98  1  0.57776000  0.21113000  0.08965000  1.0
  O  O99  1  0.42225000  0.78885000  0.91036000  1.0
