# generated using pymatgen
data_ZnH10C5NClO5
_symmetry_space_group_name_H-M   'P 1'
_cell_length_a   6.01214000
_cell_length_b   8.35992000
_cell_length_c   17.72240000
_cell_angle_alpha   89.99960000
_cell_angle_beta   89.99970000
_cell_angle_gamma   74.52500000
_symmetry_Int_Tables_number   1
_chemical_formula_structural   ZnH10C5NClO5
_chemical_formula_sum   'Zn4 H40 C20 N4 Cl4 O20'
_cell_volume   858.45347903
_cell_formula_units_Z   4
loop_
 _symmetry_equiv_pos_site_id
 _symmetry_equiv_pos_as_xyz
  1  'x, y, z'
loop_
 _atom_site_type_symbol
 _atom_site_label
 _atom_site_symmetry_multiplicity
 _atom_site_fract_x
 _atom_site_fract_y
 _atom_site_fract_z
 _atom_site_occupancy
  Zn  Zn0  1  0.99138000  0.83491000  0.35575000  1.0
  Zn  Zn1  1  0.00862000  0.66510000  0.85576000  1.0
  Zn  Zn2  1  0.00861000  0.16511000  0.64425000  1.0
  Zn  Zn3  1  0.99139000  0.33489000  0.14425000  1.0
  H  H4  1  0.89905000  0.32597000  0.39765000  1.0
  H  H5  1  0.10094000  0.17403000  0.89765000  1.0
  H  H6  1  0.10094000  0.67405000  0.60235000  1.0
  H  H7  1  0.89907000  0.82594000  0.10235000  1.0
  H  H8  1  0.74694000  0.42665000  0.47582000  1.0
  H  H9  1  0.25305000  0.07335000  0.97583000  1.0
  H  H10  1  0.25304000  0.57337000  0.52418000  1.0
  H  H11  1  0.74698000  0.92662000  0.02417000  1.0
  H  H12  1  0.37871000  0.50395000  0.39389000  1.0
  H  H13  1  0.62128000  0.99605000  0.89390000  1.0
  H  H14  1  0.62127000  0.49606000  0.60611000  1.0
  H  H15  1  0.37875000  0.00394000  0.10610000  1.0
  H  H16  1  0.43226000  0.26751000  0.47760000  1.0
  H  H17  1  0.56774000  0.23248000  0.97760000  1.0
  H  H18  1  0.56774000  0.73250000  0.52240000  1.0
  H  H19  1  0.43227000  0.76749000  0.02240000  1.0
  H  H20  1  0.31555000  0.22415000  0.39088000  1.0
  H  H21  1  0.68445000  0.27584000  0.89088000  1.0
  H  H22  1  0.68445000  0.77586000  0.60912000  1.0
  H  H23  1  0.31555000  0.72415000  0.10912000  1.0
  H  H24  1  0.55175000  0.49221000  0.27494000  1.0
  H  H25  1  0.44825000  0.00779000  0.77495000  1.0
  H  H26  1  0.44826000  0.50779000  0.72505000  1.0
  H  H27  1  0.55174000  0.99222000  0.22505000  1.0
  H  H28  1  0.67977000  0.28729000  0.28159000  1.0
  H  H29  1  0.32022000  0.21271000  0.78160000  1.0
  H  H30  1  0.32022000  0.71272000  0.71841000  1.0
  H  H31  1  0.67978000  0.78729000  0.21841000  1.0
  H  H32  1  0.26538000  0.93288000  0.45272000  1.0
  H  H33  1  0.73462000  0.56712000  0.95272000  1.0
  H  H34  1  0.73461000  0.06713000  0.54728000  1.0
  H  H35  1  0.26538000  0.43288000  0.04729000  1.0
  H  H36  1  0.39155000  0.35354000  0.27755000  1.0
  H  H37  1  0.60844000  0.14646000  0.77756000  1.0
  H  H38  1  0.60844000  0.64647000  0.72244000  1.0
  H  H39  1  0.39156000  0.85354000  0.22244000  1.0
  H  H40  1  0.41238000  0.82490000  0.38187000  1.0
  H  H41  1  0.58762000  0.67510000  0.88188000  1.0
  H  H42  1  0.58761000  0.17512000  0.61812000  1.0
  H  H43  1  0.41240000  0.32489000  0.11812000  1.0
  C  C44  1  0.79044000  0.58963000  0.38739000  1.0
  C  C45  1  0.20955000  0.91037000  0.88740000  1.0
  C  C46  1  0.20956000  0.41038000  0.61261000  1.0
  C  C47  1  0.79047000  0.08961000  0.11260000  1.0
  C  C48  1  0.74831000  0.42734000  0.41373000  1.0
  C  C49  1  0.25168000  0.07265000  0.91373000  1.0
  C  C50  1  0.25167000  0.57267000  0.58627000  1.0
  C  C51  1  0.74835000  0.92732000  0.08627000  1.0
  C  C52  1  0.52620000  0.39671000  0.38288000  1.0
  C  C53  1  0.47379000  0.10329000  0.88289000  1.0
  C  C54  1  0.47380000  0.60330000  0.61711000  1.0
  C  C55  1  0.52621000  0.89670000  0.11711000  1.0
  C  C56  1  0.47106000  0.24404000  0.41760000  1.0
  C  C57  1  0.52893000  0.25594000  0.91760000  1.0
  C  C58  1  0.52894000  0.75596000  0.58240000  1.0
  C  C59  1  0.47107000  0.74405000  0.08240000  1.0
  C  C60  1  0.66231000  0.08593000  0.40823000  1.0
  C  C61  1  0.33769000  0.41407000  0.90823000  1.0
  C  C62  1  0.33768000  0.91408000  0.59177000  1.0
  C  C63  1  0.66232000  0.58591000  0.09177000  1.0
  N  N64  1  0.53919000  0.38184000  0.29841000  1.0
  N  N65  1  0.46080000  0.11816000  0.79842000  1.0
  N  N66  1  0.46081000  0.61816000  0.70158000  1.0
  N  N67  1  0.53920000  0.88184000  0.20158000  1.0
  Cl  Cl68  1  0.11617000  0.73396000  0.23926000  1.0
  Cl  Cl69  1  0.88383000  0.76605000  0.73926000  1.0
  Cl  Cl70  1  0.88382000  0.26605000  0.76074000  1.0
  Cl  Cl71  1  0.11617000  0.23395000  0.26074000  1.0
  O  O72  1  0.97536000  0.62340000  0.40960000  1.0
  O  O73  1  0.02461000  0.87661000  0.90960000  1.0
  O  O74  1  0.02462000  0.37661000  0.59040000  1.0
  O  O75  1  0.97541000  0.12337000  0.09040000  1.0
  O  O76  1  0.26247000  0.90112000  0.39739000  1.0
  O  O77  1  0.73753000  0.59888000  0.89740000  1.0
  O  O78  1  0.73752000  0.09890000  0.60260000  1.0
  O  O79  1  0.26248000  0.40111000  0.10261000  1.0
  O  O80  1  0.64314000  0.68475000  0.34472000  1.0
  O  O81  1  0.35684000  0.81524000  0.84474000  1.0
  O  O82  1  0.35684000  0.31526000  0.65527000  1.0
  O  O83  1  0.64318000  0.18474000  0.15526000  1.0
  O  O84  1  0.75513000  0.00054000  0.46425000  1.0
  O  O85  1  0.24486000  0.49946000  0.96426000  1.0
  O  O86  1  0.24484000  0.99947000  0.53574000  1.0
  O  O87  1  0.75514000  0.50053000  0.03575000  1.0
  O  O88  1  0.72829000  0.04186000  0.34026000  1.0
  O  O89  1  0.27170000  0.45814000  0.84027000  1.0
  O  O90  1  0.27170000  0.95816000  0.65973000  1.0
  O  O91  1  0.72829000  0.54184000  0.15974000  1.0
