# generated using pymatgen
data_NiH18C22(NO3)2
_symmetry_space_group_name_H-M   'P 1'
_cell_length_a   9.41914000
_cell_length_b   9.58543000
_cell_length_c   11.16730000
_cell_angle_alpha   89.99990000
_cell_angle_beta   89.99980000
_cell_angle_gamma   74.13200000
_symmetry_Int_Tables_number   1
_chemical_formula_structural   NiH18C22(NO3)2
_chemical_formula_sum   'Ni2 H36 C44 N4 O12'
_cell_volume   969.83605707
_cell_formula_units_Z   2
loop_
 _symmetry_equiv_pos_site_id
 _symmetry_equiv_pos_as_xyz
  1  'x, y, z'
loop_
 _atom_site_type_symbol
 _atom_site_label
 _atom_site_symmetry_multiplicity
 _atom_site_fract_x
 _atom_site_fract_y
 _atom_site_fract_z
 _atom_site_occupancy
  Ni  Ni0  1  0.75000000  0.50000000  0.08601000  1.0
  Ni  Ni1  1  0.25000000  0.50000000  0.91399000  1.0
  H  H2  1  0.80586000  0.73056000  0.11940000  1.0
  H  H3  1  0.30585000  0.73057000  0.88060000  1.0
  H  H4  1  0.19415000  0.26943000  0.88061000  1.0
  H  H5  1  0.69414000  0.26944000  0.11940000  1.0
  H  H6  1  0.93319000  0.66069000  0.01802000  1.0
  H  H7  1  0.43318000  0.66070000  0.98198000  1.0
  H  H8  1  0.06682000  0.33930000  0.98198000  1.0
  H  H9  1  0.56681000  0.33931000  0.01802000  1.0
  H  H10  1  0.89793000  0.62462000  0.28057000  1.0
  H  H11  1  0.39794000  0.62463000  0.71944000  1.0
  H  H12  1  0.10205000  0.37537000  0.71944000  1.0
  H  H13  1  0.60206000  0.37538000  0.28057000  1.0
  H  H14  1  0.89412000  0.64024000  0.50334000  1.0
  H  H15  1  0.39410000  0.64024000  0.49666000  1.0
  H  H16  1  0.10588000  0.35976000  0.49666000  1.0
  H  H17  1  0.60588000  0.35975000  0.50335000  1.0
  H  H18  1  0.80219000  0.26588000  0.67402000  1.0
  H  H19  1  0.30217000  0.26589000  0.32597000  1.0
  H  H20  1  0.19781000  0.73411000  0.32598000  1.0
  H  H21  1  0.69782000  0.73411000  0.67402000  1.0
  H  H22  1  0.80317000  0.27538000  0.89664000  1.0
  H  H23  1  0.30316000  0.27538000  0.10335000  1.0
  H  H24  1  0.19682000  0.72463000  0.10336000  1.0
  H  H25  1  0.69685000  0.72461000  0.89664000  1.0
  H  H26  1  0.37590000  0.92020000  0.95507000  1.0
  H  H27  1  0.87589000  0.92020000  0.04493000  1.0
  H  H28  1  0.62410000  0.07980000  0.04493000  1.0
  H  H29  1  0.12411000  0.07978000  0.95507000  1.0
  H  H30  1  0.51280000  0.85132000  0.36961000  1.0
  H  H31  1  0.01278000  0.85134000  0.63038000  1.0
  H  H32  1  0.48720000  0.14867000  0.63039000  1.0
  H  H33  1  0.98723000  0.14866000  0.36962000  1.0
  H  H34  1  0.38121000  0.92748000  0.56202000  1.0
  H  H35  1  0.88118000  0.92749000  0.43798000  1.0
  H  H36  1  0.61880000  0.07252000  0.43797000  1.0
  H  H37  1  0.11883000  0.07253000  0.56203000  1.0
  C  C38  1  0.83090000  0.57138000  0.33333333  1.0
  C  C39  1  0.33090000  0.57139000  0.66673000  1.0
  C  C40  1  0.16909000  0.42861000  0.66673000  1.0
  C  C41  1  0.66910000  0.42862000  0.33333333  1.0
  C  C42  1  0.83003000  0.57760000  0.45760000  1.0
  C  C43  1  0.33002000  0.57760000  0.54239000  1.0
  C  C44  1  0.16997000  0.42241000  0.54240000  1.0
  C  C45  1  0.66997000  0.42240000  0.45760000  1.0
  C  C46  1  0.75001000  0.50000000  0.52271000  1.0
  C  C47  1  0.24999000  0.50000000  0.47728000  1.0
  C  C48  1  0.75001000  0.50000000  0.65494000  1.0
  C  C49  1  0.24998000  0.50000000  0.34507000  1.0
  C  C50  1  0.77867000  0.37017000  0.71965000  1.0
  C  C51  1  0.27865000  0.37017000  0.28035000  1.0
  C  C52  1  0.22133000  0.62983000  0.28035000  1.0
  C  C53  1  0.72135000  0.62984000  0.71966000  1.0
  C  C54  1  0.77911000  0.37471000  0.84405000  1.0
  C  C55  1  0.27910000  0.37471000  0.15595000  1.0
  C  C56  1  0.22088000  0.62529000  0.15595000  1.0
  C  C57  1  0.72090000  0.62529000  0.84405000  1.0
  C  C58  1  0.54824000  0.80592000  0.13970000  1.0
  C  C59  1  0.04824000  0.80593000  0.86029000  1.0
  C  C60  1  0.45176000  0.19407000  0.86030000  1.0
  C  C61  1  0.95179000  0.19406000  0.13971000  1.0
  C  C62  1  0.39617000  0.90901000  0.14686000  1.0
  C  C63  1  0.89617000  0.90900000  0.85313000  1.0
  C  C64  1  0.60382000  0.09101000  0.85314000  1.0
  C  C65  1  0.10384000  0.09098000  0.14687000  1.0
  C  C66  1  0.32210000  0.95378000  0.04071000  1.0
  C  C67  1  0.82210000  0.95379000  0.95928000  1.0
  C  C68  1  0.67789000  0.04621000  0.95929000  1.0
  C  C69  1  0.17789000  0.04621000  0.04071000  1.0
  C  C70  1  0.32536000  0.95569000  0.25864000  1.0
  C  C71  1  0.82536000  0.95570000  0.74136000  1.0
  C  C72  1  0.67464000  0.04431000  0.74136000  1.0
  C  C73  1  0.17465000  0.04431000  0.25865000  1.0
  C  C74  1  0.39755000  0.91515000  0.37023000  1.0
  C  C75  1  0.89753000  0.91517000  0.62976000  1.0
  C  C76  1  0.60246000  0.08484000  0.62976000  1.0
  C  C77  1  0.10248000  0.08484000  0.37025000  1.0
  C  C78  1  0.32450000  0.95789000  0.47691000  1.0
  C  C79  1  0.82447000  0.95789000  0.52309000  1.0
  C  C80  1  0.67552000  0.04211000  0.52309000  1.0
  C  C81  1  0.17554000  0.04212000  0.47692000  1.0
  N  N82  1  0.75000000  0.50000000  0.27097000  1.0
  N  N83  1  0.24999000  0.50000000  0.72903000  1.0
  N  N84  1  0.75001000  0.50000000  0.90580000  1.0
  N  N85  1  0.25000000  0.50000000  0.09420000  1.0
  O  O86  1  0.55467000  0.68581000  0.08509000  1.0
  O  O87  1  0.05468000  0.68582000  0.91491000  1.0
  O  O88  1  0.44531000  0.31419000  0.91491000  1.0
  O  O89  1  0.94533000  0.31417000  0.08510000  1.0
  O  O90  1  0.65710000  0.84092000  0.18316000  1.0
  O  O91  1  0.15709000  0.84091000  0.81683000  1.0
  O  O92  1  0.34290000  0.15910000  0.81684000  1.0
  O  O93  1  0.84291000  0.15910000  0.18316000  1.0
  O  O94  1  0.88129000  0.64017000  0.09144000  1.0
  O  O95  1  0.38129000  0.64019000  0.90856000  1.0
  O  O96  1  0.11871000  0.35982000  0.90856000  1.0
  O  O97  1  0.61871000  0.35982000  0.09144000  1.0
