# generated using pymatgen
data_CuH7C9S2N3
_symmetry_space_group_name_H-M   'P 1'
_cell_length_a   10.24580000
_cell_length_b   10.24580000
_cell_length_c   10.38250000
_cell_angle_alpha   94.13100000
_cell_angle_beta   94.13150000
_cell_angle_gamma   111.09400000
_symmetry_Int_Tables_number   1
_chemical_formula_structural   CuH7C9S2N3
_chemical_formula_sum   'Cu4 H28 C36 S8 N12'
_cell_volume   1008.60496926
_cell_formula_units_Z   4
loop_
 _symmetry_equiv_pos_site_id
 _symmetry_equiv_pos_as_xyz
  1  'x, y, z'
loop_
 _atom_site_type_symbol
 _atom_site_label
 _atom_site_symmetry_multiplicity
 _atom_site_fract_x
 _atom_site_fract_y
 _atom_site_fract_z
 _atom_site_occupancy
  Cu  Cu0  1  0.86002000  0.13997000  0.25000000  1.0
  Cu  Cu1  1  0.13998000  0.86002000  0.75000000  1.0
  Cu  Cu2  1  0.03057000  0.96944000  0.25000000  1.0
  Cu  Cu3  1  0.96943000  0.03056000  0.75000000  1.0
  H  H4  1  0.35377000  0.28373000  0.35733000  1.0
  H  H5  1  0.71627000  0.64622000  0.14268000  1.0
  H  H6  1  0.64623000  0.71627000  0.64267000  1.0
  H  H7  1  0.28373000  0.35378000  0.85733000  1.0
  H  H8  1  0.12607000  0.30797000  0.42018000  1.0
  H  H9  1  0.69203000  0.87393000  0.07981000  1.0
  H  H10  1  0.87393000  0.69203000  0.57981000  1.0
  H  H11  1  0.30797000  0.12607000  0.92019000  1.0
  H  H12  1  0.32384000  0.50935000  0.32745000  1.0
  H  H13  1  0.49065000  0.67616000  0.17255000  1.0
  H  H14  1  0.67616000  0.49065000  0.67254000  1.0
  H  H15  1  0.50935000  0.32384000  0.82746000  1.0
  H  H16  1  0.43411000  0.14532000  0.51956000  1.0
  H  H17  1  0.85468000  0.56588000  0.98043000  1.0
  H  H18  1  0.56588000  0.85468000  0.48043000  1.0
  H  H19  1  0.14532000  0.43412000  0.01957000  1.0
  H  H20  1  0.58767000  0.23512000  0.63080000  1.0
  H  H21  1  0.76488000  0.41233000  0.86919000  1.0
  H  H22  1  0.41233000  0.76488000  0.36919000  1.0
  H  H23  1  0.23511000  0.58767000  0.13081000  1.0
  H  H24  1  0.18514000  0.42914000  0.64692000  1.0
  H  H25  1  0.57085000  0.81485000  0.85308000  1.0
  H  H26  1  0.81485000  0.57086000  0.35308000  1.0
  H  H27  1  0.42914000  0.18514000  0.14692000  1.0
  H  H28  1  0.98036000  0.44146000  0.76655000  1.0
  H  H29  1  0.55854000  0.01964000  0.73344000  1.0
  H  H30  1  0.01964000  0.55854000  0.23344000  1.0
  H  H31  1  0.44146000  0.98036000  0.26656000  1.0
  C  C32  1  0.41840000  0.37865000  0.42021000  1.0
  C  C33  1  0.62135000  0.58160000  0.07979000  1.0
  C  C34  1  0.58160000  0.62135000  0.57978000  1.0
  C  C35  1  0.37865000  0.41840000  0.92022000  1.0
  C  C36  1  0.05002000  0.17110000  0.02430000  1.0
  C  C37  1  0.82890000  0.94997000  0.47571000  1.0
  C  C38  1  0.94998000  0.82890000  0.97571000  1.0
  C  C39  1  0.17110000  0.05003000  0.52430000  1.0
  C  C40  1  0.80910000  0.27008000  0.49283000  1.0
  C  C41  1  0.72992000  0.19091000  0.00717000  1.0
  C  C42  1  0.19090000  0.72992000  0.50717000  1.0
  C  C43  1  0.27008000  0.80910000  0.99283000  1.0
  C  C44  1  0.04397000  0.31652000  0.47732000  1.0
  C  C45  1  0.68348000  0.95603000  0.02268000  1.0
  C  C46  1  0.95603000  0.68348000  0.52268000  1.0
  C  C47  1  0.31652000  0.04397000  0.97732000  1.0
  C  C48  1  0.40148000  0.50546000  0.40298000  1.0
  C  C49  1  0.49454000  0.59852000  0.09702000  1.0
  C  C50  1  0.59852000  0.49454000  0.59701000  1.0
  C  C51  1  0.50546000  0.40148000  0.90299000  1.0
  C  C52  1  0.53497000  0.23437000  0.53481000  1.0
  C  C53  1  0.76563000  0.46503000  0.96519000  1.0
  C  C54  1  0.46503000  0.76563000  0.46518000  1.0
  C  C55  1  0.23437000  0.53497000  0.03482000  1.0
  C  C56  1  0.51694000  0.37117000  0.51751000  1.0
  C  C57  1  0.62883000  0.48306000  0.98249000  1.0
  C  C58  1  0.48306000  0.62883000  0.48249000  1.0
  C  C59  1  0.37117000  0.51694000  0.01751000  1.0
  C  C60  1  0.07673000  0.38331000  0.60302000  1.0
  C  C61  1  0.61669000  0.92327000  0.89698000  1.0
  C  C62  1  0.92327000  0.61669000  0.39697000  1.0
  C  C63  1  0.38331000  0.07673000  0.10303000  1.0
  C  C64  1  0.96441000  0.38932000  0.66810000  1.0
  C  C65  1  0.61068000  0.03559000  0.83190000  1.0
  C  C66  1  0.03558000  0.61068000  0.33190000  1.0
  C  C67  1  0.38932000  0.96441000  0.16810000  1.0
  S  S68  1  0.09452000  0.20978000  0.18070000  1.0
  S  S69  1  0.79023000  0.90548000  0.31931000  1.0
  S  S70  1  0.90549000  0.79023000  0.81931000  1.0
  S  S71  1  0.20977000  0.09452000  0.68070000  1.0
  S  S72  1  0.63902000  0.18901000  0.41517000  1.0
  S  S73  1  0.81099000  0.36098000  0.08483000  1.0
  S  S74  1  0.36098000  0.81098000  0.58482000  1.0
  S  S75  1  0.18902000  0.63902000  0.91517000  1.0
  N  N76  1  0.01545000  0.14131000  0.91157000  1.0
  N  N77  1  0.85869000  0.98455000  0.58843000  1.0
  N  N78  1  0.98455000  0.85869000  0.08843000  1.0
  N  N79  1  0.14132000  0.01546000  0.41157000  1.0
  N  N80  1  0.91095000  0.26013000  0.41959000  1.0
  N  N81  1  0.73987000  0.08905000  0.08041000  1.0
  N  N82  1  0.08905000  0.73987000  0.58041000  1.0
  N  N83  1  0.26014000  0.91095000  0.91959000  1.0
  N  N84  1  0.83128000  0.33318000  0.61354000  1.0
  N  N85  1  0.66681000  0.16871000  0.88646000  1.0
  N  N86  1  0.16871000  0.66681000  0.38645000  1.0
  N  N87  1  0.33319000  0.83129000  0.11354000  1.0
