# generated using pymatgen
data_CaH9C10(NO2)3
_symmetry_space_group_name_H-M   'P 1'
_cell_length_a   6.79057000
_cell_length_b   7.67197000
_cell_length_c   12.61754078
_cell_angle_alpha   105.76552556
_cell_angle_beta   97.01011136
_cell_angle_gamma   105.88700000
_symmetry_Int_Tables_number   1
_chemical_formula_structural   CaH9C10(NO2)3
_chemical_formula_sum   'Ca2 H18 C20 N6 O12'
_cell_volume   594.58820499
_cell_formula_units_Z   2
loop_
 _symmetry_equiv_pos_site_id
 _symmetry_equiv_pos_as_xyz
  1  'x, y, z'
loop_
 _atom_site_type_symbol
 _atom_site_label
 _atom_site_symmetry_multiplicity
 _atom_site_fract_x
 _atom_site_fract_y
 _atom_site_fract_z
 _atom_site_occupancy
  Ca  Ca0  1  0.24374000  0.04570000  0.43632000  1.0
  Ca  Ca1  1  0.75625000  0.95430000  0.56368000  1.0
  H  H2  1  0.44326000  0.15641000  0.23229000  1.0
  H  H3  1  0.55674000  0.84359000  0.76771000  1.0
  H  H4  1  0.75740000  0.35822000  0.94931000  1.0
  H  H5  1  0.24260000  0.64179000  0.05070000  1.0
  H  H6  1  0.21967000  0.13518000  0.08230000  1.0
  H  H7  1  0.78033000  0.86482000  0.91769000  1.0
  H  H8  1  0.99672000  0.16213000  0.92167000  1.0
  H  H9  1  0.00328000  0.83787000  0.07833000  1.0
  H  H10  1  0.51001000  0.36726000  0.79047000  1.0
  H  H11  1  0.48999000  0.63274000  0.20953000  1.0
  H  H12  1  0.11060000  0.63264000  0.29831000  1.0
  H  H13  1  0.88940000  0.36735000  0.70169000  1.0
  H  H14  1  0.93582000  0.72104000  0.24985000  1.0
  H  H15  1  0.06418000  0.27896000  0.75015000  1.0
  H  H16  1  0.20838000  0.35199000  0.61678000  1.0
  H  H17  1  0.79162000  0.64800000  0.38322000  1.0
  H  H18  1  0.45941000  0.42553000  0.62628000  1.0
  H  H19  1  0.54059000  0.57447000  0.37372000  1.0
  C  C20  1  0.51034000  0.24744000  0.03078000  1.0
  C  C21  1  0.48966000  0.75256000  0.96922000  1.0
  C  C22  1  0.93253000  0.26065000  0.23453000  1.0
  C  C23  1  0.06746000  0.73935000  0.76547000  1.0
  C  C24  1  0.65187000  0.24410000  0.12595000  1.0
  C  C25  1  0.34813000  0.75590000  0.87405000  1.0
  C  C26  1  0.16224000  0.30952000  0.27725000  1.0
  C  C27  1  0.83776000  0.69048000  0.72275000  1.0
  C  C28  1  0.58937000  0.31066000  0.94518000  1.0
  C  C29  1  0.41063000  0.68934000  0.05482000  1.0
  C  C30  1  0.29211000  0.18902000  0.02036000  1.0
  C  C31  1  0.70790000  0.81097000  0.97963000  1.0
  C  C32  1  0.16609000  0.20256000  0.92972000  1.0
  C  C33  1  0.83391000  0.79744000  0.07028000  1.0
  C  C34  1  0.45065000  0.31693000  0.85687000  1.0
  C  C35  1  0.54935000  0.68308000  0.14313000  1.0
  C  C36  1  0.75170000  0.10863000  0.37531000  1.0
  C  C37  1  0.24830000  0.89137000  0.62469000  1.0
  C  C38  1  0.76409000  0.18257000  0.27971000  1.0
  C  C39  1  0.23591000  0.81743000  0.72029000  1.0
  N  N40  1  0.58904000  0.17730000  0.21008000  1.0
  N  N41  1  0.41096000  0.82270000  0.78992000  1.0
  N  N42  1  0.86172000  0.29859000  0.14006000  1.0
  N  N43  1  0.13828000  0.70141000  0.85994000  1.0
  N  N44  1  0.24188000  0.26599000  0.84895000  1.0
  N  N45  1  0.75813000  0.73401000  0.15105000  1.0
  O  O46  1  0.27410000  0.48118000  0.29763000  1.0
  O  O47  1  0.72590000  0.51883000  0.70237000  1.0
  O  O48  1  0.23075000  0.17341000  0.28656000  1.0
  O  O49  1  0.76925000  0.82659000  0.71344000  1.0
  O  O50  1  0.91660000  0.09473000  0.42732000  1.0
  O  O51  1  0.08339000  0.90527000  0.57268000  1.0
  O  O52  1  0.57567000  0.05532000  0.40352000  1.0
  O  O53  1  0.42433000  0.94468000  0.59648000  1.0
  O  O54  1  0.03950000  0.73047000  0.31886000  1.0
  O  O55  1  0.96050000  0.26952000  0.68114000  1.0
  O  O56  1  0.32173000  0.34679000  0.57533000  1.0
  O  O57  1  0.67827000  0.65321000  0.42467000  1.0
