# generated using pymatgen
data_CoH19C25N5O6
_symmetry_space_group_name_H-M   'P 1'
_cell_length_a   9.64411000
_cell_length_b   11.47430000
_cell_length_c   11.62500000
_cell_angle_alpha   64.18720000
_cell_angle_beta   89.82990000
_cell_angle_gamma   77.48050000
_symmetry_Int_Tables_number   1
_chemical_formula_structural   CoH19C25N5O6
_chemical_formula_sum   'Co2 H38 C50 N10 O12'
_cell_volume   1124.38937251
_cell_formula_units_Z   2
loop_
 _symmetry_equiv_pos_site_id
 _symmetry_equiv_pos_as_xyz
  1  'x, y, z'
loop_
 _atom_site_type_symbol
 _atom_site_label
 _atom_site_symmetry_multiplicity
 _atom_site_fract_x
 _atom_site_fract_y
 _atom_site_fract_z
 _atom_site_occupancy
  Co  Co0  1  0.12029000  0.32423000  0.12412000  1.0
  Co  Co1  1  0.87971000  0.67577000  0.87588000  1.0
  H  H2  1  0.95479000  0.36597000  0.86659000  1.0
  H  H3  1  0.04522000  0.63403000  0.13341000  1.0
  H  H4  1  0.19186000  0.91723000  0.87786000  1.0
  H  H5  1  0.80815000  0.08276000  0.12215000  1.0
  H  H6  1  0.39930000  0.77630000  0.03474000  1.0
  H  H7  1  0.60070000  0.22369000  0.96527000  1.0
  H  H8  1  0.49778000  0.84918000  0.18251000  1.0
  H  H9  1  0.50220000  0.15081000  0.81751000  1.0
  H  H10  1  0.38298000  0.06701000  0.18083000  1.0
  H  H11  1  0.61701000  0.93298000  0.81919000  1.0
  H  H12  1  0.86582000  0.27226000  0.74532000  1.0
  H  H13  1  0.13419000  0.72774000  0.25468000  1.0
  H  H14  1  0.90378000  0.09638000  0.81895000  1.0
  H  H15  1  0.09623000  0.90361000  0.18105000  1.0
  H  H16  1  0.05784000  0.27549000  0.60311000  1.0
  H  H17  1  0.94216000  0.72452000  0.39688000  1.0
  H  H18  1  0.11397000  0.10143000  0.67609000  1.0
  H  H19  1  0.88603000  0.89858000  0.32390000  1.0
  H  H20  1  0.81342000  0.25787000  0.53712000  1.0
  H  H21  1  0.18659000  0.74213000  0.46288000  1.0
  H  H22  1  0.95964000  0.20856000  0.46207000  1.0
  H  H23  1  0.04036000  0.79144000  0.53792000  1.0
  H  H24  1  0.00163000  0.92417000  0.77705000  1.0
  H  H25  1  0.99838000  0.07583000  0.22295000  1.0
  H  H26  1  0.68979000  0.73655000  0.59013000  1.0
  H  H27  1  0.31021000  0.26345000  0.40986000  1.0
  H  H28  1  0.54961000  0.88253000  0.37993000  1.0
  H  H29  1  0.45040000  0.11747000  0.62006000  1.0
  H  H30  1  0.56254000  0.11957000  0.25732000  1.0
  H  H31  1  0.43746000  0.88044000  0.74268000  1.0
  H  H32  1  0.71471000  0.21633000  0.34612000  1.0
  H  H33  1  0.28529000  0.78369000  0.65388000  1.0
  H  H34  1  0.37078000  0.56788000  0.32484000  1.0
  H  H35  1  0.62922000  0.43212000  0.67517000  1.0
  H  H36  1  0.81876000  0.52684000  0.26755000  1.0
  H  H37  1  0.18124000  0.47315000  0.73246000  1.0
  H  H38  1  0.55405000  0.37252000  0.09874000  1.0
  H  H39  1  0.44595000  0.62749000  0.90125000  1.0
  C  C40  1  0.03899000  0.27429000  0.90830000  1.0
  C  C41  1  0.96102000  0.72570000  0.09170000  1.0
  C  C42  1  0.16971000  0.07584000  0.93922000  1.0
  C  C43  1  0.83029000  0.92415000  0.06079000  1.0
  C  C44  1  0.23126000  0.95293000  0.94101000  1.0
  C  C45  1  0.76874000  0.04706000  0.05898000  1.0
  C  C46  1  0.34901000  0.87272000  0.03093000  1.0
  C  C47  1  0.65099000  0.12727000  0.96908000  1.0
  C  C48  1  0.40362000  0.91329000  0.11591000  1.0
  C  C49  1  0.59637000  0.08670000  0.88410000  1.0
  C  C50  1  0.34135000  0.03499000  0.11528000  1.0
  C  C51  1  0.65864000  0.96501000  0.88472000  1.0
  C  C52  1  0.22310000  0.11659000  0.02578000  1.0
  C  C53  1  0.77690000  0.88341000  0.97423000  1.0
  C  C54  1  0.95175000  0.18212000  0.77124000  1.0
  C  C55  1  0.04825000  0.81787000  0.22876000  1.0
  C  C56  1  0.01914000  0.18424000  0.65124000  1.0
  C  C57  1  0.98086000  0.81576000  0.34875000  1.0
  C  C58  1  0.91429000  0.18281000  0.55446000  1.0
  C  C59  1  0.08571000  0.81719000  0.44554000  1.0
  C  C60  1  0.92408000  0.93828000  0.70218000  1.0
  C  C61  1  0.07592000  0.06171000  0.29782000  1.0
  C  C62  1  0.77620000  0.89618000  0.59162000  1.0
  C  C63  1  0.22380000  0.10383000  0.40838000  1.0
  C  C64  1  0.69244000  0.84098000  0.54049000  1.0
  C  C65  1  0.30756000  0.15902000  0.45950000  1.0
  C  C66  1  0.61641000  0.92378000  0.42029000  1.0
  C  C67  1  0.38358000  0.07623000  0.57971000  1.0
  C  C68  1  0.62345000  0.05766000  0.35111000  1.0
  C  C69  1  0.37655000  0.94235000  0.64889000  1.0
  C  C70  1  0.70782000  0.11353000  0.39984000  1.0
  C  C71  1  0.29219000  0.88648000  0.60016000  1.0
  C  C72  1  0.78307000  0.03081000  0.52029000  1.0
  C  C73  1  0.21693000  0.96919000  0.47972000  1.0
  C  C74  1  0.44619000  0.47211000  0.20577000  1.0
  C  C75  1  0.55380000  0.52789000  0.79423000  1.0
  C  C76  1  0.46193000  0.53613000  0.28138000  1.0
  C  C77  1  0.53807000  0.46387000  0.71862000  1.0
  C  C78  1  0.59600000  0.55371000  0.30291000  1.0
  C  C79  1  0.40400000  0.44629000  0.69709000  1.0
  C  C80  1  0.71488000  0.51220000  0.24919000  1.0
  C  C81  1  0.28511000  0.48779000  0.75081000  1.0
  C  C82  1  0.69841000  0.44774000  0.17404000  1.0
  C  C83  1  0.30159000  0.55226000  0.82597000  1.0
  C  C84  1  0.56461000  0.42707000  0.15360000  1.0
  C  C85  1  0.43539000  0.57293000  0.84640000  1.0
  C  C86  1  0.30308000  0.44635000  0.19036000  1.0
  C  C87  1  0.69692000  0.55366000  0.80964000  1.0
  C  C88  1  0.82608000  0.38704000  0.12693000  1.0
  C  C89  1  0.17392000  0.61297000  0.87307000  1.0
  N  N90  1  0.13801000  0.24068000  0.00408000  1.0
  N  N91  1  0.86199000  0.75932000  0.99592000  1.0
  N  N92  1  0.05289000  0.17915000  0.86616000  1.0
  N  N93  1  0.94712000  0.82084000  0.13384000  1.0
  N  N94  1  0.86540000  0.84147000  0.70654000  1.0
  N  N95  1  0.13461000  0.15854000  0.29345000  1.0
  N  N96  1  0.87774000  0.05408000  0.59341000  1.0
  N  N97  1  0.12226000  0.94592000  0.40660000  1.0
  N  N98  1  0.61322000  0.61367000  0.38886000  1.0
  N  N99  1  0.38678000  0.38633000  0.61115000  1.0
  O  O100  1  0.29656000  0.37968000  0.12541000  1.0
  O  O101  1  0.70343000  0.62033000  0.87458000  1.0
  O  O102  1  0.20135000  0.48537000  0.24208000  1.0
  O  O103  1  0.79865000  0.51465000  0.75791000  1.0
  O  O104  1  0.93572000  0.43812000  0.11816000  1.0
  O  O105  1  0.06428000  0.56188000  0.88182000  1.0
  O  O106  1  0.82235000  0.29027000  0.10507000  1.0
  O  O107  1  0.17764000  0.70974000  0.89493000  1.0
  O  O108  1  0.50386000  0.66065000  0.42670000  1.0
  O  O109  1  0.49614000  0.33935000  0.57330000  1.0
  O  O110  1  0.73605000  0.61426000  0.42009000  1.0
  O  O111  1  0.26395000  0.38573000  0.57992000  1.0
