# generated using pymatgen
data_ZnH37C31(NO)9
_symmetry_space_group_name_H-M   'P 1'
_cell_length_a   9.58012000
_cell_length_b   10.61980000
_cell_length_c   23.48370000
_cell_angle_alpha   89.42120000
_cell_angle_beta   88.20210000
_cell_angle_gamma   85.50430000
_symmetry_Int_Tables_number   1
_chemical_formula_structural   ZnH37C31(NO)9
_chemical_formula_sum   'Zn2 H74 C62 N18 O18'
_cell_volume   2380.61352238
_cell_formula_units_Z   2
loop_
 _symmetry_equiv_pos_site_id
 _symmetry_equiv_pos_as_xyz
  1  'x, y, z'
loop_
 _atom_site_type_symbol
 _atom_site_label
 _atom_site_symmetry_multiplicity
 _atom_site_fract_x
 _atom_site_fract_y
 _atom_site_fract_z
 _atom_site_occupancy
  Zn  Zn0  1  0.35689000  0.50907000  0.50037000  1.0
  Zn  Zn1  1  0.65761000  0.49910000  0.49623000  1.0
  H  H2  1  0.70079000  0.41724000  0.68898000  1.0
  H  H3  1  0.28711000  0.67394000  0.33228000  1.0
  H  H4  1  0.34779000  0.10134000  0.42698000  1.0
  H  H5  1  0.66460000  0.90896000  0.56934000  1.0
  H  H6  1  0.35757000  0.04978000  0.10386000  1.0
  H  H7  1  0.34847000  0.89932000  0.13653000  1.0
  H  H8  1  0.18466000  0.99179000  0.03075000  1.0
  H  H9  1  0.17356000  0.84408000  0.06415000  1.0
  H  H10  1  0.07709000  0.94956000  0.15470000  1.0
  H  H11  1  0.97133000  0.99205000  0.09588000  1.0
  H  H12  1  0.08639000  0.09986000  0.12178000  1.0
  H  H13  1  0.18121000  0.19133000  0.87202000  1.0
  H  H14  1  0.16371000  0.35790000  0.87894000  1.0
  H  H15  1  0.03679000  0.16850000  0.96205000  1.0
  H  H16  1  0.02654000  0.33405000  0.97186000  1.0
  H  H17  1  0.89368000  0.36613000  0.88080000  1.0
  H  H18  1  0.80592000  0.26899000  0.93000000  1.0
  H  H19  1  0.90258000  0.19977000  0.87105000  1.0
  H  H20  1  0.16146000  0.68595000  0.41072000  1.0
  H  H21  1  0.17153000  0.75319000  0.47215000  1.0
  H  H22  1  0.84045000  0.30834000  0.57948000  1.0
  H  H23  1  0.87363000  0.22365000  0.52080000  1.0
  H  H24  1  0.95217000  0.87339000  0.55492000  1.0
  H  H25  1  0.07743000  0.74998000  0.57619000  1.0
  H  H26  1  0.80947000  0.83111000  0.64522000  1.0
  H  H27  1  0.94417000  0.71968000  0.66623000  1.0
  H  H28  1  0.11549000  0.89625000  0.66121000  1.0
  H  H29  1  0.97461000  0.92808000  0.71182000  1.0
  H  H30  1  0.97396000  0.00505000  0.64420000  1.0
  H  H31  1  0.29636000  0.28473000  0.39040000  1.0
  H  H32  1  0.18148000  0.41910000  0.37862000  1.0
  H  H33  1  0.12987000  0.14671000  0.34711000  1.0
  H  H34  1  0.00344000  0.27711000  0.34139000  1.0
  H  H35  1  0.15908000  0.38414000  0.27116000  1.0
  H  H36  1  0.13431000  0.23034000  0.24677000  1.0
  H  H37  1  0.29328000  0.26174000  0.27843000  1.0
  H  H38  1  0.20280000  0.48546000  0.61035000  1.0
  H  H39  1  0.09416000  0.37264000  0.61906000  1.0
  H  H40  1  0.96789000  0.53810000  0.35744000  1.0
  H  H41  1  0.80702000  0.55478000  0.38909000  1.0
  H  H42  1  0.49285000  0.98432000  0.97041000  1.0
  H  H43  1  0.50362000  0.90815000  0.90223000  1.0
  H  H44  1  0.27438000  0.24779000  0.09316000  1.0
  H  H45  1  0.24889000  0.18054000  0.02419000  1.0
  H  H46  1  0.75735000  0.36216000  0.78330000  1.0
  H  H47  1  0.65571000  0.40210000  0.83985000  1.0
  H  H48  1  0.20699000  0.70756000  0.18272000  1.0
  H  H49  1  0.17294000  0.76380000  0.24857000  1.0
  H  H50  1  0.20188000  0.66413000  0.66703000  1.0
  H  H51  1  0.32283000  0.67363000  0.61539000  1.0
  H  H52  1  0.69263000  0.40124000  0.34814000  1.0
  H  H53  1  0.67753000  0.29993000  0.29390000  1.0
  H  H54  1  0.30683000  0.77023000  0.80503000  1.0
  H  H55  1  0.24226000  0.77620000  0.73957000  1.0
  H  H56  1  0.56944000  0.33814000  0.16497000  1.0
  H  H57  1  0.70408000  0.35406000  0.20894000  1.0
  H  H58  1  0.19896000  0.89588000  0.53027000  1.0
  H  H59  1  0.15996000  0.05335000  0.52844000  1.0
  H  H60  1  0.84483000  0.95037000  0.46066000  1.0
  H  H61  1  0.80086000  0.09441000  0.43531000  1.0
  H  H62  1  0.53537000  0.23628000  0.65753000  1.0
  H  H63  1  0.65724000  0.13358000  0.61788000  1.0
  H  H64  1  0.43158000  0.04461000  0.70125000  1.0
  H  H65  1  0.56483000  0.94633000  0.66726000  1.0
  H  H66  1  0.74799000  0.05979000  0.72025000  1.0
  H  H67  1  0.63065000  0.98512000  0.76716000  1.0
  H  H68  1  0.60894000  0.15144000  0.75610000  1.0
  H  H69  1  0.66373000  0.88300000  0.32617000  1.0
  H  H70  1  0.61469000  0.03017000  0.35972000  1.0
  H  H71  1  0.41654000  0.86056000  0.30236000  1.0
  H  H72  1  0.36293000  0.00527000  0.33646000  1.0
  H  H73  1  0.51662000  0.11990000  0.26549000  1.0
  H  H74  1  0.38755000  0.04095000  0.23109000  1.0
  H  H75  1  0.56259000  0.97320000  0.23062000  1.0
  C  C76  1  0.46779000  0.74708000  0.51304000  1.0
  C  C77  1  0.53936000  0.26580000  0.48234000  1.0
  C  C78  1  0.59794000  0.49142000  0.76601000  1.0
  C  C79  1  0.32412000  0.61795000  0.24496000  1.0
  C  C80  1  0.61278000  0.47648000  0.70717000  1.0
  C  C81  1  0.35430000  0.61714000  0.30251000  1.0
  C  C82  1  0.51184000  0.53101000  0.67048000  1.0
  C  C83  1  0.47019000  0.54489000  0.32403000  1.0
  C  C84  1  0.40047000  0.61329000  0.69168000  1.0
  C  C85  1  0.55859000  0.46726000  0.28761000  1.0
  C  C86  1  0.38889000  0.63535000  0.75113000  1.0
  C  C87  1  0.52890000  0.46712000  0.22872000  1.0
  C  C88  1  0.48282000  0.56943000  0.78753000  1.0
  C  C89  1  0.41500000  0.54352000  0.20835000  1.0
  C  C90  1  0.36843000  0.99712000  0.51667000  1.0
  C  C91  1  0.64413000  0.01684000  0.48126000  1.0
  C  C92  1  0.41821000  0.05728000  0.45836000  1.0
  C  C93  1  0.59417000  0.95559000  0.53855000  1.0
  C  C94  1  0.52995000  0.12921000  0.48847000  1.0
  C  C95  1  0.48160000  0.88413000  0.50757000  1.0
  C  C96  1  0.48077000  0.06857000  0.54890000  1.0
  C  C97  1  0.52957000  0.94272000  0.44879000  1.0
  C  C98  1  0.52265000  0.49403000  0.60923000  1.0
  C  C99  1  0.48789000  0.54592000  0.38690000  1.0
  C  C100  1  0.95402000  0.59945000  0.52691000  1.0
  C  C101  1  0.06075000  0.39566000  0.46869000  1.0
  C  C102  1  0.05369000  0.60555000  0.47311000  1.0
  C  C103  1  0.96403000  0.38995000  0.52249000  1.0
  C  C104  1  0.04965000  0.48580000  0.55249000  1.0
  C  C105  1  0.96603000  0.50864000  0.44353000  1.0
  C  C106  1  0.35784000  0.45033000  0.11828000  1.0
  C  C107  1  0.46980000  0.68677000  0.87740000  1.0
  C  C108  1  0.44041000  0.66704000  0.12186000  1.0
  C  C109  1  0.40713000  0.46329000  0.87345000  1.0
  C  C110  1  0.42310000  0.67957000  0.05990000  1.0
  C  C111  1  0.37695000  0.46624000  0.93546000  1.0
  C  C112  1  0.39715000  0.57038000  0.02789000  1.0
  C  C113  1  0.40770000  0.57414000  0.96743000  1.0
  C  C114  1  0.36012000  0.45877000  0.05642000  1.0
  C  C115  1  0.44816000  0.68501000  0.93905000  1.0
  C  C116  1  0.44211000  0.79334000  0.03125000  1.0
  C  C117  1  0.32721000  0.36130000  0.96375000  1.0
  C  C118  1  0.46147000  0.79672000  0.97032000  1.0
  C  C119  1  0.32188000  0.35498000  0.02470000  1.0
  C  C120  1  0.33559000  0.95171000  0.09627000  1.0
  C  C121  1  0.19040000  0.94348000  0.07251000  1.0
  C  C122  1  0.07522000  0.99951000  0.11343000  1.0
  C  C123  1  0.16536000  0.26853000  0.90285000  1.0
  C  C124  1  0.03201000  0.25986000  0.93921000  1.0
  C  C125  1  0.90140000  0.27454000  0.90320000  1.0
  C  C126  1  0.96615000  0.78506000  0.57993000  1.0
  C  C127  1  0.92352000  0.80810000  0.64198000  1.0
  C  C128  1  0.00126000  0.91506000  0.66630000  1.0
  C  C129  1  0.18515000  0.31660000  0.38650000  1.0
  C  C130  1  0.11662000  0.24944000  0.33930000  1.0
  C  C131  1  0.17913000  0.28299000  0.28090000  1.0
  C  C132  1  0.55264000  0.14113000  0.63926000  1.0
  C  C133  1  0.54141000  0.04088000  0.68572000  1.0
  C  C134  1  0.63776000  0.06051000  0.73505000  1.0
  C  C135  1  0.57754000  0.93752000  0.34925000  1.0
  C  C136  1  0.44960000  0.95471000  0.31209000  1.0
  C  C137  1  0.48120000  0.02592000  0.25686000  1.0
  N  N138  1  0.39775000  0.55470000  0.14782000  1.0
  N  N139  1  0.45562000  0.57422000  0.84829000  1.0
  N  N140  1  0.14929000  0.49226000  0.49884000  1.0
  N  N141  1  0.86742000  0.50725000  0.49605000  1.0
  N  N142  1  0.10337000  0.71195000  0.44663000  1.0
  N  N143  1  0.91471000  0.28409000  0.54842000  1.0
  N  N144  1  0.10030000  0.46498000  0.60733000  1.0
  N  N145  1  0.90510000  0.50929000  0.38999000  1.0
  N  N146  1  0.48857000  0.90765000  0.94550000  1.0
  N  N147  1  0.27886000  0.24918000  0.04962000  1.0
  N  N148  1  0.69726000  0.43364000  0.80252000  1.0
  N  N149  1  0.20454000  0.68661000  0.22495000  1.0
  N  N150  1  0.30283000  0.68424000  0.65804000  1.0
  N  N151  1  0.67624000  0.39214000  0.30563000  1.0
  N  N152  1  0.27918000  0.71820000  0.77160000  1.0
  N  N153  1  0.61762000  0.39635000  0.19078000  1.0
  N  N154  1  0.23215000  0.98198000  0.53880000  1.0
  N  N155  1  0.78797000  0.03409000  0.46884000  1.0
  O  O156  1  0.34596000  0.70655000  0.52073000  1.0
  O  O157  1  0.65914000  0.31039000  0.48407000  1.0
  O  O158  1  0.58197000  0.67862000  0.50769000  1.0
  O  O159  1  0.42254000  0.33082000  0.47809000  1.0
  O  O160  1  0.40630000  0.48766000  0.58405000  1.0
  O  O161  1  0.60952000  0.51915000  0.40667000  1.0
  O  O162  1  0.64269000  0.46925000  0.58572000  1.0
  O  O163  1  0.37713000  0.57121000  0.41743000  1.0
  O  O164  1  0.32778000  0.35434000  0.14605000  1.0
  O  O165  1  0.49983000  0.78255000  0.84961000  1.0
  O  O166  1  0.49095000  0.74623000  0.15141000  1.0
  O  O167  1  0.39787000  0.36950000  0.84370000  1.0
  O  O168  1  0.44647000  0.90863000  0.05561000  1.0
  O  O169  1  0.28783000  0.25526000  0.93833000  1.0
  O  O170  1  0.87940000  0.69483000  0.55515000  1.0
  O  O171  1  0.11688000  0.29157000  0.44138000  1.0
  O  O172  1  0.44515000  0.13298000  0.59802000  1.0
  O  O173  1  0.55038000  0.86760000  0.40095000  1.0
