# generated using pymatgen
data_CuH8C6N2Cl
_symmetry_space_group_name_H-M   'P 1'
_cell_length_a   9.17636000
_cell_length_b   11.44200000
_cell_length_c   13.06620000
_cell_angle_alpha   89.99990000
_cell_angle_beta   89.99980000
_cell_angle_gamma   89.99980000
_symmetry_Int_Tables_number   1
_chemical_formula_structural   CuH8C6N2Cl
_chemical_formula_sum   'Cu8 H64 C48 N16 Cl8'
_cell_volume   1371.89757386
_cell_formula_units_Z   8
loop_
 _symmetry_equiv_pos_site_id
 _symmetry_equiv_pos_as_xyz
  1  'x, y, z'
loop_
 _atom_site_type_symbol
 _atom_site_label
 _atom_site_symmetry_multiplicity
 _atom_site_fract_x
 _atom_site_fract_y
 _atom_site_fract_z
 _atom_site_occupancy
  Cu  Cu0  1  0.41862000  0.53121000  0.38815000  1.0
  Cu  Cu1  1  0.58138000  0.96879000  0.88815000  1.0
  Cu  Cu2  1  0.91862000  0.46879000  0.11185000  1.0
  Cu  Cu3  1  0.08138000  0.03121000  0.61185000  1.0
  Cu  Cu4  1  0.58139000  0.46879000  0.61185000  1.0
  Cu  Cu5  1  0.41862000  0.03121000  0.11185000  1.0
  Cu  Cu6  1  0.08138000  0.53121000  0.88815000  1.0
  Cu  Cu7  1  0.91861000  0.96879000  0.38815000  1.0
  H  H8  1  0.25503000  0.11895000  0.29573000  1.0
  H  H9  1  0.74497000  0.38105000  0.79573000  1.0
  H  H10  1  0.75503000  0.88105000  0.20427000  1.0
  H  H11  1  0.24497000  0.61895000  0.70426000  1.0
  H  H12  1  0.74497000  0.88105000  0.70427000  1.0
  H  H13  1  0.25503000  0.61895000  0.20426000  1.0
  H  H14  1  0.24497000  0.11895000  0.79574000  1.0
  H  H15  1  0.75503000  0.38105000  0.29574000  1.0
  H  H16  1  0.25946000  0.30339000  0.39788000  1.0
  H  H17  1  0.74054000  0.19661000  0.89788000  1.0
  H  H18  1  0.75946000  0.69661000  0.10212000  1.0
  H  H19  1  0.24054000  0.80339000  0.60212000  1.0
  H  H20  1  0.74054000  0.69661000  0.60212000  1.0
  H  H21  1  0.25946000  0.80339000  0.10212000  1.0
  H  H22  1  0.24054000  0.30339000  0.89788000  1.0
  H  H23  1  0.75946000  0.19661000  0.39788000  1.0
  H  H24  1  0.47853000  0.54026000  0.11817000  1.0
  H  H25  1  0.52147000  0.95974000  0.61817000  1.0
  H  H26  1  0.97853000  0.45974000  0.38183000  1.0
  H  H27  1  0.02147000  0.04026000  0.88183000  1.0
  H  H28  1  0.52147000  0.45974000  0.88183000  1.0
  H  H29  1  0.47853000  0.04026000  0.38183000  1.0
  H  H30  1  0.02147000  0.54026000  0.61817000  1.0
  H  H31  1  0.97853000  0.95974000  0.11817000  1.0
  H  H32  1  0.64520000  0.46289000  0.12468000  1.0
  H  H33  1  0.35480000  0.03711000  0.62468000  1.0
  H  H34  1  0.14520000  0.53711000  0.37532000  1.0
  H  H35  1  0.85480000  0.96289000  0.87532000  1.0
  H  H36  1  0.35480000  0.53711000  0.87532000  1.0
  H  H37  1  0.64519000  0.96289000  0.37532000  1.0
  H  H38  1  0.85480000  0.46289000  0.62468000  1.0
  H  H39  1  0.14520000  0.03711000  0.12468000  1.0
  H  H40  1  0.58096000  0.54191000  0.23406000  1.0
  H  H41  1  0.41904000  0.95809000  0.73406000  1.0
  H  H42  1  0.08096000  0.45809000  0.26594000  1.0
  H  H43  1  0.91904000  0.04191000  0.76594000  1.0
  H  H44  1  0.41904000  0.45809000  0.76594000  1.0
  H  H45  1  0.58096000  0.04191000  0.26594000  1.0
  H  H46  1  0.91904000  0.54191000  0.73406000  1.0
  H  H47  1  0.08096000  0.95809000  0.23406000  1.0
  H  H48  1  0.48249000  0.20471000  0.99623000  1.0
  H  H49  1  0.51751000  0.29529000  0.49623000  1.0
  H  H50  1  0.98249000  0.79529000  0.50377000  1.0
  H  H51  1  0.01751000  0.70471000  0.00377000  1.0
  H  H52  1  0.51752000  0.79529000  0.00377000  1.0
  H  H53  1  0.48249000  0.70471000  0.50377000  1.0
  H  H54  1  0.01751000  0.20471000  0.49623000  1.0
  H  H55  1  0.98249000  0.29529000  0.99623000  1.0
  H  H56  1  0.63666000  0.28424000  0.04088000  1.0
  H  H57  1  0.36334000  0.21576000  0.54089000  1.0
  H  H58  1  0.13666000  0.71576000  0.45911000  1.0
  H  H59  1  0.86334000  0.78424000  0.95912000  1.0
  H  H60  1  0.36334000  0.71576000  0.95912000  1.0
  H  H61  1  0.63666000  0.78424000  0.45911000  1.0
  H  H62  1  0.86334000  0.28424000  0.54088000  1.0
  H  H63  1  0.13666000  0.21576000  0.04089000  1.0
  H  H64  1  0.48230000  0.36156000  0.99635000  1.0
  H  H65  1  0.51770000  0.13844000  0.49636000  1.0
  H  H66  1  0.98230000  0.63844000  0.50364000  1.0
  H  H67  1  0.01770000  0.86156000  0.00365000  1.0
  H  H68  1  0.51770000  0.63844000  0.00364000  1.0
  H  H69  1  0.48230000  0.86156000  0.50364000  1.0
  H  H70  1  0.01770000  0.36156000  0.49635000  1.0
  H  H71  1  0.98230000  0.13844000  0.99636000  1.0
  C  C72  1  0.46363000  0.38443000  0.20444000  1.0
  C  C73  1  0.53638000  0.11557000  0.70443000  1.0
  C  C74  1  0.96363000  0.61557000  0.29557000  1.0
  C  C75  1  0.03637000  0.88443000  0.79557000  1.0
  C  C76  1  0.53638000  0.61557000  0.79556000  1.0
  C  C77  1  0.46362000  0.88443000  0.29557000  1.0
  C  C78  1  0.03637000  0.38443000  0.70444000  1.0
  C  C79  1  0.96363000  0.11557000  0.20444000  1.0
  C  C80  1  0.45237000  0.28397000  0.14238000  1.0
  C  C81  1  0.54763000  0.21603000  0.64238000  1.0
  C  C82  1  0.95237000  0.71603000  0.35762000  1.0
  C  C83  1  0.04763000  0.78397000  0.85762000  1.0
  C  C84  1  0.54763000  0.71603000  0.85762000  1.0
  C  C85  1  0.45237000  0.78397000  0.35762000  1.0
  C  C86  1  0.04763000  0.28397000  0.64238000  1.0
  C  C87  1  0.95237000  0.21603000  0.14238000  1.0
  C  C88  1  0.31201000  0.19589000  0.26715000  1.0
  C  C89  1  0.68798000  0.30411000  0.76715000  1.0
  C  C90  1  0.81202000  0.80411000  0.23285000  1.0
  C  C91  1  0.18798000  0.69588000  0.73285000  1.0
  C  C92  1  0.68799000  0.80411000  0.73285000  1.0
  C  C93  1  0.31202000  0.69589000  0.23285000  1.0
  C  C94  1  0.18798000  0.19589000  0.76715000  1.0
  C  C95  1  0.81201000  0.30411000  0.26715000  1.0
  C  C96  1  0.31657000  0.29682000  0.32502000  1.0
  C  C97  1  0.68343000  0.20318000  0.82502000  1.0
  C  C98  1  0.81657000  0.70318000  0.17498000  1.0
  C  C99  1  0.18343000  0.79682000  0.67498000  1.0
  C  C100  1  0.68343000  0.70318000  0.67498000  1.0
  C  C101  1  0.31657000  0.79682000  0.17498000  1.0
  C  C102  1  0.18343000  0.29682000  0.82502000  1.0
  C  C103  1  0.81657000  0.20318000  0.32502000  1.0
  C  C104  1  0.54812000  0.48766000  0.16885000  1.0
  C  C105  1  0.45188000  0.01234000  0.66884000  1.0
  C  C106  1  0.04812000  0.51234000  0.33116000  1.0
  C  C107  1  0.95188000  0.98766000  0.83116000  1.0
  C  C108  1  0.45188000  0.51234000  0.83115000  1.0
  C  C109  1  0.54812000  0.98766000  0.33115000  1.0
  C  C110  1  0.95188000  0.48766000  0.66884000  1.0
  C  C111  1  0.04812000  0.01234000  0.16885000  1.0
  C  C112  1  0.51694000  0.28307000  0.03797000  1.0
  C  C113  1  0.48306000  0.21693000  0.53797000  1.0
  C  C114  1  0.01694000  0.71693000  0.46203000  1.0
  C  C115  1  0.98306000  0.78307000  0.96203000  1.0
  C  C116  1  0.48306000  0.71693000  0.96203000  1.0
  C  C117  1  0.51694000  0.78307000  0.46203000  1.0
  C  C118  1  0.98306000  0.28307000  0.53797000  1.0
  C  C119  1  0.01694000  0.21693000  0.03797000  1.0
  N  N120  1  0.39622000  0.39080000  0.29628000  1.0
  N  N121  1  0.60378000  0.10919000  0.79628000  1.0
  N  N122  1  0.89622000  0.60919000  0.20372000  1.0
  N  N123  1  0.10378000  0.89080000  0.70372000  1.0
  N  N124  1  0.60378000  0.60920000  0.70372000  1.0
  N  N125  1  0.39622000  0.89080000  0.20372000  1.0
  N  N126  1  0.10378000  0.39080000  0.79628000  1.0
  N  N127  1  0.89622000  0.10920000  0.29628000  1.0
  N  N128  1  0.38204000  0.18713000  0.17586000  1.0
  N  N129  1  0.61796000  0.31287000  0.67586000  1.0
  N  N130  1  0.88204000  0.81286000  0.32414000  1.0
  N  N131  1  0.11796000  0.68713000  0.82414000  1.0
  N  N132  1  0.61796000  0.81287000  0.82414000  1.0
  N  N133  1  0.38204000  0.68713000  0.32414000  1.0
  N  N134  1  0.11796000  0.18713000  0.67586000  1.0
  N  N135  1  0.88204000  0.31287000  0.17586000  1.0
  Cl  Cl136  1  0.32502000  0.48583000  0.55106000  1.0
  Cl  Cl137  1  0.67498000  0.01417000  0.05106000  1.0
  Cl  Cl138  1  0.82502000  0.51417000  0.94894000  1.0
  Cl  Cl139  1  0.17498000  0.98583000  0.44894000  1.0
  Cl  Cl140  1  0.67498000  0.51417000  0.44894000  1.0
  Cl  Cl141  1  0.32502000  0.98583000  0.94894000  1.0
  Cl  Cl142  1  0.17498000  0.48583000  0.05106000  1.0
  Cl  Cl143  1  0.82502000  0.01417000  0.55106000  1.0
