# generated using pymatgen
data_ErH9C14(NO5)2
_symmetry_space_group_name_H-M   'P 1'
_cell_length_a   9.07378000
_cell_length_b   9.20992000
_cell_length_c   9.49608000
_cell_angle_alpha   86.23420000
_cell_angle_beta   86.93030000
_cell_angle_gamma   86.30680000
_symmetry_Int_Tables_number   1
_chemical_formula_structural   ErH9C14(NO5)2
_chemical_formula_sum   'Er2 H18 C28 N4 O20'
_cell_volume   789.24808698
_cell_formula_units_Z   2
loop_
 _symmetry_equiv_pos_site_id
 _symmetry_equiv_pos_as_xyz
  1  'x, y, z'
loop_
 _atom_site_type_symbol
 _atom_site_label
 _atom_site_symmetry_multiplicity
 _atom_site_fract_x
 _atom_site_fract_y
 _atom_site_fract_z
 _atom_site_occupancy
  Er  Er0  1  0.36472000  0.41480000  0.14125000  1.0
  Er  Er1  1  0.63528000  0.58520000  0.85875000  1.0
  H  H2  1  0.46601000  0.53583000  0.37750000  1.0
  H  H3  1  0.53399000  0.46418000  0.62250000  1.0
  H  H4  1  0.31577000  0.47968000  0.44185000  1.0
  H  H5  1  0.68423000  0.52033000  0.55815000  1.0
  H  H6  1  0.29396000  0.19976000  0.94687000  1.0
  H  H7  1  0.70603000  0.80024000  0.05313000  1.0
  H  H8  1  0.40311000  0.13019000  0.05487000  1.0
  H  H9  1  0.59689000  0.86981000  0.94513000  1.0
  H  H10  1  0.66093000  0.87574000  0.38670000  1.0
  H  H11  1  0.33908000  0.12425000  0.61331000  1.0
  H  H12  1  0.97668000  0.06545000  0.41820000  1.0
  H  H13  1  0.02332000  0.93456000  0.58180000  1.0
  H  H14  1  0.74618000  0.20131000  0.33292000  1.0
  H  H15  1  0.25382000  0.79869000  0.66708000  1.0
  H  H16  1  0.90267000  0.95997000  0.19465000  1.0
  H  H17  1  0.09733000  0.04003000  0.80536000  1.0
  H  H18  1  0.15863000  0.98692000  0.07801000  1.0
  H  H19  1  0.84137000  0.01308000  0.92198000  1.0
  C  C20  1  0.26747000  0.16357000  0.36986000  1.0
  C  C21  1  0.73253000  0.83643000  0.63015000  1.0
  C  C22  1  0.11741000  0.23234000  0.32857000  1.0
  C  C23  1  0.88259000  0.76766000  0.67143000  1.0
  C  C24  1  0.98200000  0.17166000  0.36184000  1.0
  C  C25  1  0.01800000  0.82834000  0.63816000  1.0
  C  C26  1  0.85365000  0.24827000  0.31720000  1.0
  C  C27  1  0.14635000  0.75174000  0.68280000  1.0
  C  C28  1  0.86108000  0.38842000  0.25138000  1.0
  C  C29  1  0.13892000  0.61159000  0.74862000  1.0
  C  C30  1  0.00001000  0.44931000  0.23752000  1.0
  C  C31  1  0.99998000  0.55069000  0.76248000  1.0
  C  C32  1  0.02961000  0.60425000  0.19814000  1.0
  C  C33  1  0.97039000  0.39575000  0.80185000  1.0
  C  C34  1  0.93242000  0.72724000  0.22367000  1.0
  C  C35  1  0.06758000  0.27275000  0.77633000  1.0
  C  C36  1  0.97794000  0.86542000  0.17675000  1.0
  C  C37  1  0.02206000  0.13458000  0.82325000  1.0
  C  C38  1  0.11778000  0.88106000  0.11281000  1.0
  C  C39  1  0.88222000  0.11893000  0.88718000  1.0
  C  C40  1  0.21010000  0.75546000  0.10033000  1.0
  C  C41  1  0.78990000  0.24454000  0.89967000  1.0
  C  C42  1  0.36414000  0.76206000  0.03400000  1.0
  C  C43  1  0.63586000  0.23794000  0.96600000  1.0
  C  C44  1  0.79548000  0.72372000  0.31809000  1.0
  C  C45  1  0.20453000  0.27628000  0.68191000  1.0
  C  C46  1  0.72626000  0.45944000  0.18429000  1.0
  C  C47  1  0.27373000  0.54057000  0.81570000  1.0
  N  N48  1  0.16675000  0.62212000  0.14209000  1.0
  N  N49  1  0.83325000  0.37788000  0.85790000  1.0
  N  N50  1  0.12397000  0.36676000  0.26554000  1.0
  N  N51  1  0.87602000  0.63325000  0.73446000  1.0
  O  O52  1  0.35996000  0.54046000  0.36332000  1.0
  O  O53  1  0.64004000  0.45954000  0.63667000  1.0
  O  O54  1  0.30545000  0.18665000  0.04857000  1.0
  O  O55  1  0.69455000  0.81335000  0.95143000  1.0
  O  O56  1  0.37966000  0.22381000  0.31112000  1.0
  O  O57  1  0.62035000  0.77619000  0.68890000  1.0
  O  O58  1  0.26918000  0.06116000  0.46468000  1.0
  O  O59  1  0.73081000  0.93884000  0.53533000  1.0
  O  O60  1  0.44532000  0.64032000  0.04207000  1.0
  O  O61  1  0.55469000  0.35968000  0.95794000  1.0
  O  O62  1  0.40233000  0.87859000  0.97317000  1.0
  O  O63  1  0.59768000  0.12140000  0.02683000  1.0
  O  O64  1  0.70035000  0.83833000  0.29286000  1.0
  O  O65  1  0.29965000  0.16166000  0.70714000  1.0
  O  O66  1  0.77904000  0.63028000  0.41559000  1.0
  O  O67  1  0.22097000  0.36971000  0.58441000  1.0
  O  O68  1  0.74881000  0.54726000  0.07759000  1.0
  O  O69  1  0.25118000  0.45274000  0.92241000  1.0
  O  O70  1  0.60106000  0.42003000  0.23313000  1.0
  O  O71  1  0.39894000  0.57997000  0.76688000  1.0
