# generated using pymatgen
data_CoH28C20(N2O3)2
_symmetry_space_group_name_H-M   'P 1'
_cell_length_a   8.73641000
_cell_length_b   9.66475000
_cell_length_c   12.35100000
_cell_angle_alpha   90.00000000
_cell_angle_beta   90.00000000
_cell_angle_gamma   96.18160000
_symmetry_Int_Tables_number   1
_chemical_formula_structural   CoH28C20(N2O3)2
_chemical_formula_sum   'Co2 H56 C40 N8 O12'
_cell_volume   1036.79577817
_cell_formula_units_Z   2
loop_
 _symmetry_equiv_pos_site_id
 _symmetry_equiv_pos_as_xyz
  1  'x, y, z'
loop_
 _atom_site_type_symbol
 _atom_site_label
 _atom_site_symmetry_multiplicity
 _atom_site_fract_x
 _atom_site_fract_y
 _atom_site_fract_z
 _atom_site_occupancy
  Co  Co0  1  0.00000000  0.00000000  0.00000000  1.0
  Co  Co1  1  0.50000000  0.00000000  0.50000000  1.0
  H  H2  1  0.10070000  0.11346000  0.22093000  1.0
  H  H3  1  0.39930000  0.88653000  0.72093000  1.0
  H  H4  1  0.89930000  0.88654000  0.77907000  1.0
  H  H5  1  0.60070000  0.11347000  0.27906000  1.0
  H  H6  1  0.92756000  0.11971000  0.17748000  1.0
  H  H7  1  0.57244000  0.88030000  0.67749000  1.0
  H  H8  1  0.07244000  0.88029000  0.82252000  1.0
  H  H9  1  0.42756000  0.11970000  0.32251000  1.0
  H  H10  1  0.84750000  0.72232000  0.98245000  1.0
  H  H11  1  0.65251000  0.27768000  0.48245000  1.0
  H  H12  1  0.15251000  0.27768000  0.01755000  1.0
  H  H13  1  0.34749000  0.72231000  0.51755000  1.0
  H  H14  1  0.84211000  0.50302000  0.09029000  1.0
  H  H15  1  0.65789000  0.49698000  0.59029000  1.0
  H  H16  1  0.15789000  0.49698000  0.90971000  1.0
  H  H17  1  0.34211000  0.50302000  0.40971000  1.0
  H  H18  1  0.19515000  0.71164000  0.29378000  1.0
  H  H19  1  0.30486000  0.28837000  0.79378000  1.0
  H  H20  1  0.80484000  0.28836000  0.70623000  1.0
  H  H21  1  0.69514000  0.71163000  0.20622000  1.0
  H  H22  1  0.19058000  0.92071000  0.17562000  1.0
  H  H23  1  0.30943000  0.07930000  0.67562000  1.0
  H  H24  1  0.80942000  0.07929000  0.82438000  1.0
  H  H25  1  0.69057000  0.92070000  0.32438000  1.0
  H  H26  1  0.90059000  0.39671000  0.25976000  1.0
  H  H27  1  0.59942000  0.60329000  0.75976000  1.0
  H  H28  1  0.09942000  0.60329000  0.74023000  1.0
  H  H29  1  0.40058000  0.39670000  0.24024000  1.0
  H  H30  1  0.10155000  0.39666000  0.24931000  1.0
  H  H31  1  0.39845000  0.60334000  0.74931000  1.0
  H  H32  1  0.89845000  0.60334000  0.75069000  1.0
  H  H33  1  0.60155000  0.39666000  0.25069000  1.0
  H  H34  1  0.79874000  0.50773000  0.42630000  1.0
  H  H35  1  0.70126000  0.49228000  0.92631000  1.0
  H  H36  1  0.20125000  0.49227000  0.57370000  1.0
  H  H37  1  0.29874000  0.50772000  0.07369000  1.0
  H  H38  1  0.89904000  0.66557000  0.37871000  1.0
  H  H39  1  0.60097000  0.33444000  0.87870000  1.0
  H  H40  1  0.10096000  0.33443000  0.62129000  1.0
  H  H41  1  0.39903000  0.66556000  0.12130000  1.0
  H  H42  1  0.15033000  0.32645000  0.42209000  1.0
  H  H43  1  0.34966000  0.67355000  0.92209000  1.0
  H  H44  1  0.84966000  0.67355000  0.57791000  1.0
  H  H45  1  0.65034000  0.32645000  0.07790000  1.0
  H  H46  1  0.95029000  0.30295000  0.45365000  1.0
  H  H47  1  0.54970000  0.69705000  0.95366000  1.0
  H  H48  1  0.04970000  0.69705000  0.54635000  1.0
  H  H49  1  0.45030000  0.30295000  0.04634000  1.0
  H  H50  1  0.52058000  0.11093000  0.91020000  1.0
  H  H51  1  0.97941000  0.88908000  0.41020000  1.0
  H  H52  1  0.47942000  0.88907000  0.08979000  1.0
  H  H53  1  0.02059000  0.11092000  0.58981000  1.0
  H  H54  1  0.54242000  0.93369000  0.89191000  1.0
  H  H55  1  0.95759000  0.06633000  0.39192000  1.0
  H  H56  1  0.45758000  0.06631000  0.10808000  1.0
  H  H57  1  0.04241000  0.93367000  0.60808000  1.0
  C  C58  1  0.92305000  0.71393000  0.05153000  1.0
  C  C59  1  0.57696000  0.28606000  0.55153000  1.0
  C  C60  1  0.07695000  0.28606000  0.94847000  1.0
  C  C61  1  0.42304000  0.71394000  0.44847000  1.0
  C  C62  1  0.92257000  0.59263000  0.11177000  1.0
  C  C63  1  0.57744000  0.40737000  0.61176000  1.0
  C  C64  1  0.07743000  0.40737000  0.88823000  1.0
  C  C65  1  0.42256000  0.59263000  0.38824000  1.0
  C  C66  1  0.01832000  0.58882000  0.20197000  1.0
  C  C67  1  0.48169000  0.41118000  0.70197000  1.0
  C  C68  1  0.98168000  0.41117000  0.79803000  1.0
  C  C69  1  0.51831000  0.58883000  0.29802000  1.0
  C  C70  1  0.11796000  0.70890000  0.22440000  1.0
  C  C71  1  0.38204000  0.29110000  0.72441000  1.0
  C  C72  1  0.88204000  0.29110000  0.77560000  1.0
  C  C73  1  0.61795000  0.70889000  0.27559000  1.0
  C  C74  1  0.11517000  0.82593000  0.15989000  1.0
  C  C75  1  0.38483000  0.17407000  0.65989000  1.0
  C  C76  1  0.88483000  0.17407000  0.84012000  1.0
  C  C77  1  0.61517000  0.82594000  0.34011000  1.0
  C  C78  1  0.01153000  0.46227000  0.27357000  1.0
  C  C79  1  0.48848000  0.53773000  0.77357000  1.0
  C  C80  1  0.98847000  0.53773000  0.72643000  1.0
  C  C81  1  0.51153000  0.46227000  0.22643000  1.0
  C  C82  1  0.91086000  0.57419000  0.42959000  1.0
  C  C83  1  0.58914000  0.42581000  0.92959000  1.0
  C  C84  1  0.08913000  0.42581000  0.57041000  1.0
  C  C85  1  0.41086000  0.57419000  0.07041000  1.0
  C  C86  1  0.05489000  0.37956000  0.45454000  1.0
  C  C87  1  0.44511000  0.62043000  0.95454000  1.0
  C  C88  1  0.94511000  0.62043000  0.54546000  1.0
  C  C89  1  0.55489000  0.37957000  0.04546000  1.0
  C  C90  1  0.30963000  0.97951000  0.91549000  1.0
  C  C91  1  0.19036000  0.02049000  0.41549000  1.0
  C  C92  1  0.69037000  0.02049000  0.08451000  1.0
  C  C93  1  0.80964000  0.97952000  0.58452000  1.0
  C  C94  1  0.48103000  0.00555000  0.93985000  1.0
  C  C95  1  0.01897000  0.99446000  0.43986000  1.0
  C  C96  1  0.51898000  0.99445000  0.06014000  1.0
  C  C97  1  0.98102000  0.00555000  0.56015000  1.0
  N  N98  1  0.01616000  0.83049000  0.07599000  1.0
  N  N99  1  0.48385000  0.16951000  0.57599000  1.0
  N  N100  1  0.98384000  0.16951000  0.92401000  1.0
  N  N101  1  0.51614000  0.83049000  0.42401000  1.0
  N  N102  1  0.03490000  0.49996000  0.38692000  1.0
  N  N103  1  0.46510000  0.50004000  0.88692000  1.0
  N  N104  1  0.96510000  0.50003000  0.61308000  1.0
  N  N105  1  0.53490000  0.49996000  0.11308000  1.0
  O  O106  1  0.22155000  0.02493000  0.98735000  1.0
  O  O107  1  0.27845000  0.97507000  0.48736000  1.0
  O  O108  1  0.77845000  0.97507000  0.01265000  1.0
  O  O109  1  0.72155000  0.02493000  0.51264000  1.0
  O  O110  1  0.26593000  0.91771000  0.82830000  1.0
  O  O111  1  0.23407000  0.08228000  0.32831000  1.0
  O  O112  1  0.73407000  0.08229000  0.17170000  1.0
  O  O113  1  0.76593000  0.91773000  0.67170000  1.0
  O  O114  1  0.03875000  0.13732000  0.15775000  1.0
  O  O115  1  0.46125000  0.86268000  0.65776000  1.0
  O  O116  1  0.96125000  0.86268000  0.84225000  1.0
  O  O117  1  0.53875000  0.13732000  0.34224000  1.0
