# generated using pymatgen
data_NiH6(C4N5)2
_symmetry_space_group_name_H-M   'P 1'
_cell_length_a   7.81399000
_cell_length_b   10.33510000
_cell_length_c   10.86010000
_cell_angle_alpha   72.69300000
_cell_angle_beta   89.74690000
_cell_angle_gamma   78.60800000
_symmetry_Int_Tables_number   1
_chemical_formula_structural   NiH6(C4N5)2
_chemical_formula_sum   'Ni3 H18 C24 N30'
_cell_volume   819.45389262
_cell_formula_units_Z   3
loop_
 _symmetry_equiv_pos_site_id
 _symmetry_equiv_pos_as_xyz
  1  'x, y, z'
loop_
 _atom_site_type_symbol
 _atom_site_label
 _atom_site_symmetry_multiplicity
 _atom_site_fract_x
 _atom_site_fract_y
 _atom_site_fract_z
 _atom_site_occupancy
  Ni  Ni0  1  0.50000000  0.00000000  0.50000000  1.0
  Ni  Ni1  1  0.12284000  0.99668000  0.12729000  1.0
  Ni  Ni2  1  0.87717000  0.00332000  0.87271000  1.0
  H  H3  1  0.12219000  0.70672000  0.30602000  1.0
  H  H4  1  0.87781000  0.29328000  0.69398000  1.0
  H  H5  1  0.46421000  0.44036000  0.12602000  1.0
  H  H6  1  0.53580000  0.55964000  0.87398000  1.0
  H  H7  1  0.50339000  0.29011000  0.33255000  1.0
  H  H8  1  0.49661000  0.70990000  0.66746000  1.0
  H  H9  1  0.17458000  0.28251000  0.00003000  1.0
  H  H10  1  0.82541000  0.71748000  0.99996000  1.0
  H  H11  1  0.41322000  0.86700000  0.99962000  1.0
  H  H12  1  0.58678000  0.13300000  0.00038000  1.0
  H  H13  1  0.15079000  0.11216000  0.57986000  1.0
  H  H14  1  0.84921000  0.88784000  0.42014000  1.0
  H  H15  1  0.81477000  0.12396000  0.25210000  1.0
  H  H16  1  0.18523000  0.87603000  0.74789000  1.0
  H  H17  1  0.98486000  0.52221000  0.35954000  1.0
  H  H18  1  0.01514000  0.47779000  0.64047000  1.0
  H  H19  1  0.77222000  0.54903000  0.13801000  1.0
  H  H20  1  0.22780000  0.45097000  0.86200000  1.0
  C  C21  1  0.21400000  0.68608000  0.23470000  1.0
  C  C22  1  0.78600000  0.31392000  0.76530000  1.0
  C  C23  1  0.25088000  0.42834000  0.33074000  1.0
  C  C24  1  0.74912000  0.57166000  0.66926000  1.0
  C  C25  1  0.97343000  0.43912000  0.04425000  1.0
  C  C26  1  0.02657000  0.56089000  0.95574000  1.0
  C  C27  1  0.40691000  0.54068000  0.13845000  1.0
  C  C28  1  0.59309000  0.45932000  0.86155000  1.0
  C  C29  1  0.29103000  0.55136000  0.23567000  1.0
  C  C30  1  0.70897000  0.44864000  0.76433000  1.0
  C  C31  1  0.37231000  0.30221000  0.36874000  1.0
  C  C32  1  0.62768000  0.69779000  0.63126000  1.0
  C  C33  1  0.05786000  0.30408000  0.05152000  1.0
  C  C34  1  0.94214000  0.69592000  0.94847000  1.0
  C  C35  1  0.37519000  0.77558000  0.06372000  1.0
  C  C36  1  0.62481000  0.22443000  0.93628000  1.0
  C  C37  1  0.17749000  0.20330000  0.50738000  1.0
  C  C38  1  0.82251000  0.79669000  0.49262000  1.0
  C  C39  1  0.86328000  0.21440000  0.19611000  1.0
  C  C40  1  0.13671000  0.78560000  0.80389000  1.0
  C  C41  1  0.08908000  0.42937000  0.38767000  1.0
  C  C42  1  0.91092000  0.57064000  0.61233000  1.0
  C  C43  1  0.83845000  0.44910000  0.12908000  1.0
  C  C44  1  0.16155000  0.55090000  0.87093000  1.0
  N  N45  1  0.54730000  0.03306000  0.30615000  1.0
  N  N46  1  0.45271000  0.96694000  0.69385000  1.0
  N  N47  1  0.09152000  0.93794000  0.32039000  1.0
  N  N48  1  0.90848000  0.06206000  0.67961000  1.0
  N  N49  1  0.12138000  0.04715000  0.91741000  1.0
  N  N50  1  0.87862000  0.95284000  0.08258000  1.0
  N  N51  1  0.19794000  0.92135000  0.40456000  1.0
  N  N52  1  0.80206000  0.07865000  0.59544000  1.0
  N  N53  1  0.00137000  0.19298000  0.12454000  1.0
  N  N54  1  0.99863000  0.80702000  0.87546000  1.0
  N  N55  1  0.25193000  0.79724000  0.14639000  1.0
  N  N56  1  0.74807000  0.20276000  0.85361000  1.0
  N  N57  1  0.33316000  0.18971000  0.45413000  1.0
  N  N58  1  0.66684000  0.81029000  0.54587000  1.0
  N  N59  1  0.17651000  0.14504000  0.85198000  1.0
  N  N60  1  0.82349000  0.85496000  0.14802000  1.0
  N  N61  1  0.05373000  0.31882000  0.47734000  1.0
  N  N62  1  0.94627000  0.68118000  0.52266000  1.0
  N  N63  1  0.78382000  0.33817000  0.20386000  1.0
  N  N64  1  0.21619000  0.66183000  0.79614000  1.0
  N  N65  1  0.29667000  0.90110000  0.49391000  1.0
  N  N66  1  0.70334000  0.09890000  0.50609000  1.0
  N  N67  1  0.45264000  0.65152000  0.05553000  1.0
  N  N68  1  0.54736000  0.34848000  0.94447000  1.0
  N  N69  1  0.23098000  0.24000000  0.78934000  1.0
  N  N70  1  0.76902000  0.76000000  0.21065000  1.0
  N  N71  1  0.44819000  0.04172000  0.22044000  1.0
  N  N72  1  0.55181000  0.95828000  0.77956000  1.0
  N  N73  1  0.35735000  0.05400000  0.12835000  1.0
  N  N74  1  0.64265000  0.94600000  0.87165000  1.0
