# generated using pymatgen
data_Ag2H10C12SN2O5
_symmetry_space_group_name_H-M   'P 1'
_cell_length_a   5.59012000
_cell_length_b   9.94744713
_cell_length_c   12.55610000
_cell_angle_alpha   83.07963602
_cell_angle_beta   89.81090000
_cell_angle_gamma   77.19977630
_symmetry_Int_Tables_number   1
_chemical_formula_structural   Ag2H10C12SN2O5
_chemical_formula_sum   'Ag4 H20 C24 S2 N4 O10'
_cell_volume   675.70297724
_cell_formula_units_Z   2
loop_
 _symmetry_equiv_pos_site_id
 _symmetry_equiv_pos_as_xyz
  1  'x, y, z'
loop_
 _atom_site_type_symbol
 _atom_site_label
 _atom_site_symmetry_multiplicity
 _atom_site_fract_x
 _atom_site_fract_y
 _atom_site_fract_z
 _atom_site_occupancy
  Ag  Ag0  1  0.50000000  0.00000000  0.50000000  1.0
  Ag  Ag1  1  0.47678000  0.43108000  0.13036000  1.0
  Ag  Ag2  1  0.52321000  0.56892000  0.86964000  1.0
  Ag  Ag3  1  0.99999000  0.50000000  0.00000000  1.0
  H  H4  1  0.79339000  0.61581000  0.45966000  1.0
  H  H5  1  0.20662000  0.38419000  0.54033000  1.0
  H  H6  1  0.81969000  0.48908000  0.29907000  1.0
  H  H7  1  0.18032000  0.51092000  0.70092000  1.0
  H  H8  1  0.03949000  0.80436000  0.36578000  1.0
  H  H9  1  0.96051000  0.19564000  0.63423000  1.0
  H  H10  1  0.09465000  0.66700000  0.21016000  1.0
  H  H11  1  0.90534000  0.33300000  0.78984000  1.0
  H  H12  1  0.83242000  0.86339000  0.19638000  1.0
  H  H13  1  0.16757000  0.13661000  0.80362000  1.0
  H  H14  1  0.63643000  0.05837000  0.29663000  1.0
  H  H15  1  0.36356000  0.94164000  0.70337000  1.0
  H  H16  1  0.15355000  0.89294000  0.02844000  1.0
  H  H17  1  0.84645000  0.10705000  0.97156000  1.0
  H  H18  1  0.95264000  0.09117000  0.12862000  1.0
  H  H19  1  0.04736000  0.90883000  0.87138000  1.0
  H  H20  1  0.20888000  0.82195000  0.53998000  1.0
  H  H21  1  0.79114000  0.17805000  0.46002000  1.0
  H  H22  1  0.50419000  0.74376000  0.57947000  1.0
  H  H23  1  0.49583000  0.25624000  0.42053000  1.0
  C  C24  1  0.27909000  0.08147000  0.22087000  1.0
  C  C25  1  0.72092000  0.91853000  0.77913000  1.0
  C  C26  1  0.41232000  0.72089000  0.42650000  1.0
  C  C27  1  0.58768000  0.27911000  0.57350000  1.0
  C  C28  1  0.63455000  0.63070000  0.40585000  1.0
  C  C29  1  0.36546000  0.36930000  0.59415000  1.0
  C  C30  1  0.65017000  0.56000000  0.31666000  1.0
  C  C31  1  0.34982000  0.43999000  0.68334000  1.0
  C  C32  1  0.21525000  0.73494000  0.35391000  1.0
  C  C33  1  0.78475000  0.26506000  0.64609000  1.0
  C  C34  1  0.24519000  0.65891000  0.26735000  1.0
  C  C35  1  0.75480000  0.34109000  0.73266000  1.0
  C  C36  1  0.50409000  0.86602000  0.10646000  1.0
  C  C37  1  0.49591000  0.13398000  0.89354000  1.0
  C  C38  1  0.63887000  0.91159000  0.18310000  1.0
  C  C39  1  0.36112000  0.08841000  0.81690000  1.0
  C  C40  1  0.52780000  0.01971000  0.24018000  1.0
  C  C41  1  0.47219000  0.98029000  0.75982000  1.0
  C  C42  1  0.25667000  0.93093000  0.08686000  1.0
  C  C43  1  0.74334000  0.06906000  0.91314000  1.0
  C  C44  1  0.14441000  0.03893000  0.14317000  1.0
  C  C45  1  0.85559000  0.96107000  0.85683000  1.0
  C  C46  1  0.61557000  0.74844000  0.04491000  1.0
  C  C47  1  0.38443000  0.25156000  0.95509000  1.0
  S  S48  1  0.11709000  0.20840000  0.29933000  1.0
  S  S49  1  0.88292000  0.79160000  0.70067000  1.0
  N  N50  1  0.45876000  0.57182000  0.24800000  1.0
  N  N51  1  0.54123000  0.42819000  0.75199000  1.0
  N  N52  1  0.38849000  0.79393000  0.51555000  1.0
  N  N53  1  0.61153000  0.20607000  0.48445000  1.0
  O  O54  1  0.08568000  0.12686000  0.40400000  1.0
  O  O55  1  0.91432000  0.87314000  0.59600000  1.0
  O  O56  1  0.27276000  0.30769000  0.31123000  1.0
  O  O57  1  0.72726000  0.69230000  0.68877000  1.0
  O  O58  1  0.88329000  0.27030000  0.24315000  1.0
  O  O59  1  0.11671000  0.72971000  0.75686000  1.0
  O  O60  1  0.47474000  0.72158000  0.97502000  1.0
  O  O61  1  0.52525000  0.27840000  0.02499000  1.0
  O  O62  1  0.83747000  0.68458000  0.06802000  1.0
  O  O63  1  0.16253000  0.31542000  0.93198000  1.0
