# generated using pymatgen
data_AlH15(C2O)12
_symmetry_space_group_name_H-M   'P 1'
_cell_length_a   3.96768000
_cell_length_b   28.49078063
_cell_length_c   28.49060000
_cell_angle_alpha   120.00137080
_cell_angle_beta   90.00010000
_cell_angle_gamma   89.99880003
_symmetry_Int_Tables_number   1
_chemical_formula_structural   AlH15(C2O)12
_chemical_formula_sum   'Al2 H30 C48 O24'
_cell_volume   2789.12009738
_cell_formula_units_Z   2
loop_
 _symmetry_equiv_pos_site_id
 _symmetry_equiv_pos_as_xyz
  1  'x, y, z'
loop_
 _atom_site_type_symbol
 _atom_site_label
 _atom_site_symmetry_multiplicity
 _atom_site_fract_x
 _atom_site_fract_y
 _atom_site_fract_z
 _atom_site_occupancy
  Al  Al0  1  0.01043000  0.50000000  0.00000000  1.0
  Al  Al1  1  0.01045000  0.83333000  0.66666000  1.0
  H  H2  1  0.19690000  0.65534000  0.41230000  1.0
  H  H3  1  0.77120000  0.78926000  0.42105000  1.0
  H  H4  1  0.77116000  0.54407000  0.24562000  1.0
  H  H5  1  0.19685000  0.67799000  0.25436000  1.0
  H  H6  1  0.50452000  0.72127000  0.33461000  1.0
  H  H7  1  0.50443000  0.61206000  0.33205000  1.0
  H  H8  1  0.19690000  0.75697000  0.84466000  1.0
  H  H9  1  0.77117000  0.63178000  0.71074000  1.0
  H  H10  1  0.77116000  0.70155000  0.95593000  1.0
  H  H11  1  0.19681000  0.57638000  0.82202000  1.0
  H  H12  1  0.50448000  0.61334000  0.77873000  1.0
  H  H13  1  0.50443000  0.72000000  0.88794000  1.0
  H  H14  1  0.19691000  0.08768000  0.74303000  1.0
  H  H15  1  0.77120000  0.07896000  0.86822000  1.0
  H  H16  1  0.77115000  0.25438000  0.79844000  1.0
  H  H17  1  0.19689000  0.24564000  0.92362000  1.0
  H  H18  1  0.50451000  0.16539000  0.88665000  1.0
  H  H19  1  0.50447000  0.16794000  0.78000000  1.0
  H  H20  1  0.85471000  0.84850000  0.56192000  1.0
  H  H21  1  0.16354000  0.71850000  0.55383000  1.0
  H  H22  1  0.16353000  0.61483000  0.11283000  1.0
  H  H23  1  0.85470000  0.48483000  0.10475000  1.0
  H  H24  1  0.85469000  0.71341000  0.65150000  1.0
  H  H25  1  0.16353000  0.83533000  0.78149000  1.0
  H  H26  1  0.16351000  0.49800000  0.88517000  1.0
  H  H27  1  0.85466000  0.61992000  0.01517000  1.0
  H  H28  1  0.85470000  0.93808000  0.78659000  1.0
  H  H29  1  0.16352000  0.94617000  0.66467000  1.0
  H  H30  1  0.16354000  0.38717000  0.00200000  1.0
  H  H31  1  0.85468000  0.39525000  0.88008000  1.0
  C  C32  1  0.50961000  0.41522000  0.95409000  1.0
  C  C33  1  0.50959000  0.53887000  0.08478000  1.0
  C  C34  1  0.50958000  0.54591000  0.96113000  1.0
  C  C35  1  0.50960000  0.79446000  0.58188000  1.0
  C  C36  1  0.50960000  0.78742000  0.70554000  1.0
  C  C37  1  0.50959000  0.91811000  0.71257000  1.0
  C  C38  1  0.50566000  0.76850000  0.52363000  1.0
  C  C39  1  0.33122000  0.71826000  0.49150000  1.0
  C  C40  1  0.33475000  0.69319000  0.43535000  1.0
  C  C41  1  0.48846000  0.71878000  0.40963000  1.0
  C  C42  1  0.64794000  0.76914000  0.44038000  1.0
  C  C43  1  0.67095000  0.79282000  0.49640000  1.0
  C  C44  1  0.48718000  0.69367000  0.35077000  1.0
  C  C45  1  0.48712000  0.63966000  0.31590000  1.0
  C  C46  1  0.64789000  0.56418000  0.22627000  1.0
  C  C47  1  0.48840000  0.61455000  0.25703000  1.0
  C  C48  1  0.33468000  0.64014000  0.23131000  1.0
  C  C49  1  0.33118000  0.61506000  0.17515000  1.0
  C  C50  1  0.50564000  0.56483000  0.14303000  1.0
  C  C51  1  0.67092000  0.54051000  0.17026000  1.0
  C  C52  1  0.50566000  0.75513000  0.73150000  1.0
  C  C53  1  0.33120000  0.77325000  0.78174000  1.0
  C  C54  1  0.33471000  0.74216000  0.80680000  1.0
  C  C55  1  0.48843000  0.69085000  0.78122000  1.0
  C  C56  1  0.64789000  0.67124000  0.73085000  1.0
  C  C57  1  0.67092000  0.70357000  0.70717000  1.0
  C  C58  1  0.48713000  0.65710000  0.80633000  1.0
  C  C59  1  0.48711000  0.67625000  0.86034000  1.0
  C  C60  1  0.64784000  0.66210000  0.93582000  1.0
  C  C61  1  0.48839000  0.64249000  0.88545000  1.0
  C  C62  1  0.33465000  0.59118000  0.85987000  1.0
  C  C63  1  0.33113000  0.56010000  0.88494000  1.0
  C  C64  1  0.50561000  0.57821000  0.93517000  1.0
  C  C65  1  0.67089000  0.62976000  0.95950000  1.0
  C  C66  1  0.50566000  0.97637000  0.74487000  1.0
  C  C67  1  0.33120000  0.00849000  0.72676000  1.0
  C  C68  1  0.33474000  0.06464000  0.75783000  1.0
  C  C69  1  0.48846000  0.09036000  0.80914000  1.0
  C  C70  1  0.64793000  0.05961000  0.82875000  1.0
  C  C71  1  0.67094000  0.00360000  0.79642000  1.0
  C  C72  1  0.48716000  0.14923000  0.84289000  1.0
  C  C73  1  0.48715000  0.18409000  0.82375000  1.0
  C  C74  1  0.64788000  0.27372000  0.83790000  1.0
  C  C75  1  0.48845000  0.24297000  0.85752000  1.0
  C  C76  1  0.33472000  0.26869000  0.90883000  1.0
  C  C77  1  0.33119000  0.32484000  0.93990000  1.0
  C  C78  1  0.50564000  0.35696000  0.92179000  1.0
  C  C79  1  0.67092000  0.32974000  0.87024000  1.0
  O  O80  1  0.74217000  0.55439000  0.99673000  1.0
  O  O81  1  0.74219000  0.44234000  0.94561000  1.0
  O  O82  1  0.74218000  0.50327000  0.05766000  1.0
  O  O83  1  0.28016000  0.50889000  0.94881000  1.0
  O  O84  1  0.28016000  0.55119000  0.06008000  1.0
  O  O85  1  0.28017000  0.43992000  0.99111000  1.0
  O  O86  1  0.74217000  0.89099000  0.72105000  1.0
  O  O87  1  0.74219000  0.83006000  0.60901000  1.0
  O  O88  1  0.74219000  0.77894000  0.66994000  1.0
  O  O89  1  0.28015000  0.89341000  0.67556000  1.0
  O  O90  1  0.28016000  0.82444000  0.71786000  1.0
  O  O91  1  0.28018000  0.78214000  0.60658000  1.0
  O  O92  1  0.84226000  0.83992000  0.52371000  1.0
  O  O93  1  0.16577000  0.69313000  0.51425000  1.0
  O  O94  1  0.16575000  0.64020000  0.15241000  1.0
  O  O95  1  0.84225000  0.49341000  0.14295000  1.0
  O  O96  1  0.84223000  0.68378000  0.66007000  1.0
  O  O97  1  0.16575000  0.82112000  0.80686000  1.0
  O  O98  1  0.16570000  0.51222000  0.85981000  1.0
  O  O99  1  0.84220000  0.64955000  0.00659000  1.0
  O  O100  1  0.84226000  0.97629000  0.81621000  1.0
  O  O101  1  0.16573000  0.98575000  0.67889000  1.0
  O  O102  1  0.16575000  0.34759000  0.98779000  1.0
  O  O103  1  0.84222000  0.35704000  0.85045000  1.0
