# generated using pymatgen
data_Cu2H22C36N4O9
_symmetry_space_group_name_H-M   'P 1'
_cell_length_a   11.39900000
_cell_length_b   12.77740000
_cell_length_c   14.76308666
_cell_angle_alpha   80.08478733
_cell_angle_beta   67.28643235
_cell_angle_gamma   63.51620000
_symmetry_Int_Tables_number   1
_chemical_formula_structural   Cu2H22C36N4O9
_chemical_formula_sum   'Cu4 H44 C72 N8 O18'
_cell_volume   1775.33400043
_cell_formula_units_Z   2
loop_
 _symmetry_equiv_pos_site_id
 _symmetry_equiv_pos_as_xyz
  1  'x, y, z'
loop_
 _atom_site_type_symbol
 _atom_site_label
 _atom_site_symmetry_multiplicity
 _atom_site_fract_x
 _atom_site_fract_y
 _atom_site_fract_z
 _atom_site_occupancy
  Cu  Cu0  1  0.32900000  0.34071000  0.01331000  1.0
  Cu  Cu1  1  0.68323000  0.65923000  0.98658000  1.0
  Cu  Cu2  1  0.09234000  0.84078000  0.48668000  1.0
  Cu  Cu3  1  0.41973000  0.15926000  0.51341000  1.0
  H  H4  1  0.55986000  0.39971000  0.00695000  1.0
  H  H5  1  0.96669000  0.60031000  0.99302000  1.0
  H  H6  1  0.31684000  0.89968000  0.49309000  1.0
  H  H7  1  0.70962000  0.10026000  0.50688000  1.0
  H  H8  1  0.79944000  0.36092000  0.90098000  1.0
  H  H9  1  0.06138000  0.63905000  0.09911000  1.0
  H  H10  1  0.45043000  0.86085000  0.59908000  1.0
  H  H11  1  0.91031000  0.13919000  0.40091000  1.0
  H  H12  1  0.76108000  0.15628000  0.71531000  1.0
  H  H13  1  0.63266000  0.84349000  0.28480000  1.0
  H  H14  1  0.22627000  0.65627000  0.78475000  1.0
  H  H15  1  0.66723000  0.34379000  0.21531000  1.0
  H  H16  1  0.51677000  0.21142000  0.82779000  1.0
  H  H17  1  0.55613000  0.78835000  0.17221000  1.0
  H  H18  1  0.09442000  0.71151000  0.67227000  1.0
  H  H19  1  0.47816000  0.28851000  0.32778000  1.0
  H  H20  1  0.25615000  0.22336000  0.72207000  1.0
  H  H21  1  0.20153000  0.77657000  0.27811000  1.0
  H  H22  1  0.72820000  0.72341000  0.77792000  1.0
  H  H23  1  0.22955000  0.27658000  0.22195000  1.0
  H  H24  1  0.01506000  0.26995000  0.83670000  1.0
  H  H25  1  0.12177000  0.72997000  0.16343000  1.0
  H  H26  1  0.60175000  0.76991000  0.66329000  1.0
  H  H27  1  0.03493000  0.23020000  0.33665000  1.0
  H  H28  1  0.93901000  0.16609000  0.60659000  1.0
  H  H29  1  0.71168000  0.83392000  0.39346000  1.0
  H  H30  1  0.29564000  0.66601000  0.89346000  1.0
  H  H31  1  0.85495000  0.33416000  0.10660000  1.0
  H  H32  1  0.17732000  0.13303000  0.50125000  1.0
  H  H33  1  0.81148000  0.86699000  0.49885000  1.0
  H  H34  1  0.42862000  0.63301000  0.99877000  1.0
  H  H35  1  0.06025000  0.36712000  0.00120000  1.0
  H  H36  1  0.18491000  0.43305000  0.33279000  1.0
  H  H37  1  0.95105000  0.56702000  0.66696000  1.0
  H  H38  1  0.26803000  0.93303000  0.16700000  1.0
  H  H39  1  0.36791000  0.06700000  0.83305000  1.0
  H  H40  1  0.47273000  0.64102000  0.31369000  1.0
  H  H41  1  0.42765000  0.35896000  0.68622000  1.0
  H  H42  1  0.53661000  0.14102000  0.18641000  1.0
  H  H43  1  0.86381000  0.85897000  0.81360000  1.0
  H  H44  1  0.31630000  0.60622000  0.47519000  1.0
  H  H45  1  0.39798000  0.39378000  0.52468000  1.0
  H  H46  1  0.54176000  0.10628000  0.02486000  1.0
  H  H47  1  0.67270000  0.89382000  0.97519000  1.0
  C  C48  1  0.60624000  0.34729000  0.94144000  1.0
  C  C49  1  0.89509000  0.65267000  0.05856000  1.0
  C  C50  1  0.29766000  0.84728000  0.55863000  1.0
  C  C51  1  0.70354000  0.15271000  0.44138000  1.0
  C  C52  1  0.74380000  0.32282000  0.88132000  1.0
  C  C53  1  0.94800000  0.67710000  0.11874000  1.0
  C  C54  1  0.37508000  0.82278000  0.61876000  1.0
  C  C55  1  0.81656000  0.17726000  0.38127000  1.0
  C  C56  1  0.80533000  0.25260000  0.79775000  1.0
  C  C57  1  0.85572000  0.74731000  0.20233000  1.0
  C  C58  1  0.35305000  0.75254000  0.70232000  1.0
  C  C59  1  0.80783000  0.24753000  0.29773000  1.0
  C  C60  1  0.72144000  0.21178000  0.77840000  1.0
  C  C61  1  0.71164000  0.78804000  0.22169000  1.0
  C  C62  1  0.24973000  0.71178000  0.72167000  1.0
  C  C63  1  0.68312000  0.28827000  0.27839000  1.0
  C  C64  1  0.58426000  0.24112000  0.84141000  1.0
  C  C65  1  0.66691000  0.75871000  0.15861000  1.0
  C  C66  1  0.17556000  0.74117000  0.65866000  1.0
  C  C67  1  0.57533000  0.25886000  0.34141000  1.0
  C  C68  1  0.18162000  0.21276000  0.69983000  1.0
  C  C69  1  0.09414000  0.78725000  0.30029000  1.0
  C  C70  1  0.63148000  0.71273000  0.80015000  1.0
  C  C71  1  0.14433000  0.28732000  0.19975000  1.0
  C  C72  1  0.04601000  0.23727000  0.76383000  1.0
  C  C73  1  0.04709000  0.76275000  0.23626000  1.0
  C  C74  1  0.55989000  0.73716000  0.73615000  1.0
  C  C75  1  0.03315000  0.26292000  0.26380000  1.0
  C  C76  1  0.95188000  0.22347000  0.73263000  1.0
  C  C77  1  0.90798000  0.77652000  0.26743000  1.0
  C  C78  1  0.43458000  0.72334000  0.76738000  1.0
  C  C79  1  0.92522000  0.27671000  0.23263000  1.0
  C  C80  1  0.00291000  0.18230000  0.63667000  1.0
  C  C81  1  0.82188000  0.81770000  0.36341000  1.0
  C  C82  1  0.38964000  0.68222000  0.86336000  1.0
  C  C83  1  0.93513000  0.31785000  0.13665000  1.0
  C  C84  1  0.13936000  0.16161000  0.57631000  1.0
  C  C85  1  0.87723000  0.83839000  0.42380000  1.0
  C  C86  1  0.46575000  0.66155000  0.92370000  1.0
  C  C87  1  0.05089000  0.33852000  0.07626000  1.0
  C  C88  1  0.24914000  0.47805000  0.32740000  1.0
  C  C89  1  0.05483000  0.52199000  0.67242000  1.0
  C  C90  1  0.32684000  0.97800000  0.17249000  1.0
  C  C91  1  0.47716000  0.02203000  0.82756000  1.0
  C  C92  1  0.33725000  0.49810000  0.23626000  1.0
  C  C93  1  0.07179000  0.50194000  0.76357000  1.0
  C  C94  1  0.32366000  0.99808000  0.26365000  1.0
  C  C95  1  0.58524000  0.00192000  0.73639000  1.0
  C  C96  1  0.42055000  0.55537000  0.23097000  1.0
  C  C97  1  0.20707000  0.44459000  0.76888000  1.0
  C  C98  1  0.40162000  0.05538000  0.26903000  1.0
  C  C99  1  0.72586000  0.94465000  0.73100000  1.0
  C  C100  1  0.41134000  0.59402000  0.31743000  1.0
  C  C101  1  0.32302000  0.40598000  0.68245000  1.0
  C  C102  1  0.47893000  0.09406000  0.18263000  1.0
  C  C103  1  0.75540000  0.90602000  0.81741000  1.0
  C  C104  1  0.32251000  0.57548000  0.40850000  1.0
  C  C105  1  0.30674000  0.42455000  0.59136000  1.0
  C  C106  1  0.48129000  0.07551000  0.09152000  1.0
  C  C107  1  0.64811000  0.92460000  0.90853000  1.0
  C  C108  1  0.24222000  0.51670000  0.41306000  1.0
  C  C109  1  0.17225000  0.48321000  0.58678000  1.0
  C  C110  1  0.40556000  0.01677000  0.08691000  1.0
  C  C111  1  0.50903000  0.98337000  0.91316000  1.0
  C  C112  1  0.33281000  0.46852000  0.14347000  1.0
  C  C113  1  0.94494000  0.53158000  0.85635000  1.0
  C  C114  1  0.22635000  0.96857000  0.35644000  1.0
  C  C115  1  0.55112000  0.03146000  0.64364000  1.0
  C  C116  1  0.52707000  0.56619000  0.13495000  1.0
  C  C117  1  0.22822000  0.43368000  0.86499000  1.0
  C  C118  1  0.41198000  0.06616000  0.36510000  1.0
  C  C119  1  0.84312000  0.93378000  0.63491000  1.0
  N  N120  1  0.52676000  0.30739000  0.92251000  1.0
  N  N121  1  0.75681000  0.69254000  0.07746000  1.0
  N  N122  1  0.19925000  0.80739000  0.57753000  1.0
  N  N123  1  0.58413000  0.19259000  0.42250000  1.0
  N  N124  1  0.22813000  0.17689000  0.60659000  1.0
  N  N125  1  0.01155000  0.82309000  0.39355000  1.0
  N  N126  1  0.58478000  0.67686000  0.89340000  1.0
  N  N127  1  0.15500000  0.32315000  0.10650000  1.0
  O  O128  1  0.36695000  0.35981000  0.13032000  1.0
  O  O129  1  0.85727000  0.64030000  0.86950000  1.0
  O  O130  1  0.24732000  0.85985000  0.36961000  1.0
  O  O131  1  0.47671000  0.14022000  0.63047000  1.0
  O  O132  1  0.29534000  0.54939000  0.08547000  1.0
  O  O133  1  0.93025000  0.45073000  0.91437000  1.0
  O  O134  1  0.13087000  0.04944000  0.41444000  1.0
  O  O135  1  0.59432000  0.95063000  0.58566000  1.0
  O  O136  1  0.62365000  0.47513000  0.08957000  1.0
  O  O137  1  0.18809000  0.52469000  0.91053000  1.0
  O  O138  1  0.46297000  0.97512000  0.41056000  1.0
  O  O139  1  0.84854000  0.02479000  0.58938000  1.0
  O  O140  1  0.51338000  0.67110000  0.10524000  1.0
  O  O141  1  0.28979000  0.32874000  0.89462000  1.0
  O  O142  1  0.36851000  0.17109000  0.39480000  1.0
  O  O143  1  0.93435000  0.82884000  0.60532000  1.0
  O  O144  1  0.14660000  0.49980000  0.49993000  1.0
  O  O145  1  0.39656000  0.00018000  0.00004000  1.0
