# generated using pymatgen
data_NiH24(C5N3)6
_symmetry_space_group_name_H-M   'P 1'
_cell_length_a   9.33848000
_cell_length_b   11.97760000
_cell_length_c   13.52470000
_cell_angle_alpha   90.00080000
_cell_angle_beta   74.84200000
_cell_angle_gamma   90.00010000
_symmetry_Int_Tables_number   1
_chemical_formula_structural   NiH24(C5N3)6
_chemical_formula_sum   'Ni2 H48 C60 N36'
_cell_volume   1460.14082951
_cell_formula_units_Z   2
loop_
 _symmetry_equiv_pos_site_id
 _symmetry_equiv_pos_as_xyz
  1  'x, y, z'
loop_
 _atom_site_type_symbol
 _atom_site_label
 _atom_site_symmetry_multiplicity
 _atom_site_fract_x
 _atom_site_fract_y
 _atom_site_fract_z
 _atom_site_occupancy
  Ni  Ni0  1  0.00000000  0.00000000  0.00000000  1.0
  Ni  Ni1  1  0.50000000  0.49999000  0.50000000  1.0
  H  H2  1  0.62101000  0.15048000  0.68758000  1.0
  H  H3  1  0.12101000  0.34951000  0.18759000  1.0
  H  H4  1  0.37899000  0.84953000  0.31241000  1.0
  H  H5  1  0.87899000  0.65049000  0.81241000  1.0
  H  H6  1  0.76205000  0.98810000  0.39296000  1.0
  H  H7  1  0.26202000  0.51190000  0.89298000  1.0
  H  H8  1  0.23795000  0.01190000  0.60704000  1.0
  H  H9  1  0.73799000  0.48808000  0.10702000  1.0
  H  H10  1  0.87867000  0.84873000  0.65643000  1.0
  H  H11  1  0.37867000  0.65125000  0.15642000  1.0
  H  H12  1  0.12134000  0.15128000  0.34357000  1.0
  H  H13  1  0.62133000  0.34874000  0.84357000  1.0
  H  H14  1  0.98501000  0.95151000  0.77542000  1.0
  H  H15  1  0.48503000  0.54849000  0.27543000  1.0
  H  H16  1  0.01497000  0.04850000  0.22458000  1.0
  H  H17  1  0.51498000  0.45151000  0.72458000  1.0
  H  H18  1  0.66491000  0.08418000  0.02634000  1.0
  H  H19  1  0.16491000  0.41585000  0.52635000  1.0
  H  H20  1  0.33511000  0.91584000  0.97366000  1.0
  H  H21  1  0.83509000  0.58416000  0.47365000  1.0
  H  H22  1  0.54742000  0.08594000  0.85474000  1.0
  H  H23  1  0.04741000  0.41407000  0.35475000  1.0
  H  H24  1  0.45260000  0.91408000  0.14526000  1.0
  H  H25  1  0.95259000  0.58593000  0.64524000  1.0
  H  H26  1  0.66167000  0.30087000  0.58791000  1.0
  H  H27  1  0.16165000  0.19913000  0.08792000  1.0
  H  H28  1  0.33833000  0.69913000  0.41209000  1.0
  H  H29  1  0.83833000  0.80087000  0.91209000  1.0
  H  H30  1  0.44697000  0.29969000  0.34977000  1.0
  H  H31  1  0.94697000  0.20030000  0.84977000  1.0
  H  H32  1  0.55304000  0.70032000  0.65022000  1.0
  H  H33  1  0.05305000  0.79970000  0.15024000  1.0
  H  H34  1  0.54685000  0.08501000  0.37245000  1.0
  H  H35  1  0.04684000  0.41498000  0.87246000  1.0
  H  H36  1  0.45315000  0.91499000  0.62754000  1.0
  H  H37  1  0.95317000  0.58501000  0.12754000  1.0
  H  H38  1  0.07308000  0.78695000  0.54018000  1.0
  H  H39  1  0.57309000  0.71304000  0.04018000  1.0
  H  H40  1  0.92691000  0.21304000  0.45982000  1.0
  H  H41  1  0.42690000  0.28697000  0.95982000  1.0
  H  H42  1  0.01918000  0.64931000  0.26714000  1.0
  H  H43  1  0.51915000  0.85069000  0.76714000  1.0
  H  H44  1  0.98081000  0.35068000  0.73287000  1.0
  H  H45  1  0.48083000  0.14931000  0.23286000  1.0
  H  H46  1  0.79757000  0.80676000  0.33505000  1.0
  H  H47  1  0.29756000  0.69323000  0.83506000  1.0
  H  H48  1  0.20242000  0.19324000  0.66495000  1.0
  H  H49  1  0.70244000  0.30676000  0.16494000  1.0
  C  C50  1  0.75710000  0.00397000  0.68102000  1.0
  C  C51  1  0.25712000  0.49602000  0.18104000  1.0
  C  C52  1  0.24289000  0.99604000  0.31897000  1.0
  C  C53  1  0.74289000  0.50397000  0.81897000  1.0
  C  C54  1  0.68138000  0.08408000  0.63995000  1.0
  C  C55  1  0.18138000  0.41591000  0.13998000  1.0
  C  C56  1  0.31860000  0.91591000  0.36005000  1.0
  C  C57  1  0.81862000  0.58408000  0.86003000  1.0
  C  C58  1  0.68391000  0.07734000  0.53652000  1.0
  C  C59  1  0.18388000  0.42266000  0.03653000  1.0
  C  C60  1  0.31610000  0.92266000  0.46347000  1.0
  C  C61  1  0.81611000  0.57734000  0.96347000  1.0
  C  C62  1  0.75822000  0.99120000  0.47411000  1.0
  C  C63  1  0.25822000  0.50879000  0.97412000  1.0
  C  C64  1  0.24178000  0.00880000  0.52589000  1.0
  C  C65  1  0.74178000  0.49120000  0.02589000  1.0
  C  C66  1  0.82980000  0.90976000  0.51805000  1.0
  C  C67  1  0.32980000  0.59024000  0.01806000  1.0
  C  C68  1  0.17021000  0.09024000  0.48195000  1.0
  C  C69  1  0.67021000  0.40976000  0.98195000  1.0
  C  C70  1  0.82841000  0.91476000  0.62168000  1.0
  C  C71  1  0.32841000  0.58522000  0.12168000  1.0
  C  C72  1  0.17162000  0.08524000  0.37832000  1.0
  C  C73  1  0.67160000  0.41477000  0.87832000  1.0
  C  C74  1  0.88039000  0.98494000  0.82061000  1.0
  C  C75  1  0.38040000  0.51506000  0.32062000  1.0
  C  C76  1  0.11962000  0.01506000  0.17938000  1.0
  C  C77  1  0.61960000  0.48494000  0.67938000  1.0
  C  C78  1  0.71257000  0.05770000  0.94808000  1.0
  C  C79  1  0.21257000  0.44231000  0.44810000  1.0
  C  C80  1  0.28743000  0.94231000  0.05191000  1.0
  C  C81  1  0.78743000  0.55769000  0.55191000  1.0
  C  C82  1  0.65502000  0.06132000  0.86454000  1.0
  C  C83  1  0.15501000  0.43870000  0.36455000  1.0
  C  C84  1  0.34499000  0.93869000  0.13546000  1.0
  C  C85  1  0.84498000  0.56131000  0.63546000  1.0
  C  C86  1  0.60837000  0.27319000  0.53012000  1.0
  C  C87  1  0.10836000  0.22681000  0.03015000  1.0
  C  C88  1  0.39163000  0.72682000  0.46987000  1.0
  C  C89  1  0.89163000  0.77318000  0.96987000  1.0
  C  C90  1  0.50437000  0.26842000  0.40378000  1.0
  C  C91  1  0.00437000  0.23156000  0.90378000  1.0
  C  C92  1  0.49563000  0.73159000  0.59621000  1.0
  C  C93  1  0.99562000  0.76842000  0.09621000  1.0
  C  C94  1  0.55316000  0.16203000  0.41338000  1.0
  C  C95  1  0.05316000  0.33796000  0.91338000  1.0
  C  C96  1  0.44684000  0.83798000  0.58662000  1.0
  C  C97  1  0.94685000  0.66203000  0.08662000  1.0
  C  C98  1  0.03087000  0.76869000  0.47451000  1.0
  C  C99  1  0.53087000  0.73130000  0.97450000  1.0
  C  C100  1  0.96913000  0.23130000  0.52550000  1.0
  C  C101  1  0.46913000  0.26870000  0.02549000  1.0
  C  C102  1  0.00018000  0.70364000  0.33326000  1.0
  C  C103  1  0.50016000  0.79636000  0.83325000  1.0
  C  C104  1  0.99981000  0.29636000  0.66675000  1.0
  C  C105  1  0.49982000  0.20364000  0.16675000  1.0
  C  C106  1  0.88917000  0.78116000  0.36574000  1.0
  C  C107  1  0.38915000  0.71884000  0.86575000  1.0
  C  C108  1  0.11082000  0.21883000  0.63426000  1.0
  C  C109  1  0.61084000  0.28116000  0.13425000  1.0
  N  N110  1  0.18180000  0.95599000  0.84303000  1.0
  N  N111  1  0.68182000  0.54401000  0.34302000  1.0
  N  N112  1  0.81819000  0.04401000  0.15698000  1.0
  N  N113  1  0.31819000  0.45599000  0.65698000  1.0
  N  N114  1  0.26909000  0.02528000  0.80251000  1.0
  N  N115  1  0.76909000  0.47472000  0.30251000  1.0
  N  N116  1  0.73091000  0.97472000  0.19750000  1.0
  N  N117  1  0.23090000  0.52530000  0.69749000  1.0
  N  N118  1  0.35676000  0.09369000  0.76117000  1.0
  N  N119  1  0.85676000  0.40630000  0.26116000  1.0
  N  N120  1  0.64325000  0.90631000  0.23884000  1.0
  N  N121  1  0.14324000  0.59371000  0.73883000  1.0
  N  N122  1  0.76244000  0.01437000  0.78426000  1.0
  N  N123  1  0.26244000  0.48563000  0.28427000  1.0
  N  N124  1  0.23756000  0.98564000  0.21573000  1.0
  N  N125  1  0.73755000  0.51437000  0.71574000  1.0
  N  N126  1  0.85285000  0.01102000  0.91931000  1.0
  N  N127  1  0.35287000  0.48897000  0.41930000  1.0
  N  N128  1  0.14714000  0.98898000  0.08070000  1.0
  N  N129  1  0.64714000  0.51102000  0.58069000  1.0
  N  N130  1  0.61764000  0.16562000  0.49481000  1.0
  N  N131  1  0.11761000  0.33439000  0.99483000  1.0
  N  N132  1  0.38238000  0.83439000  0.50518000  1.0
  N  N133  1  0.88239000  0.66561000  0.00517000  1.0
  N  N134  1  0.54015000  0.33685000  0.47647000  1.0
  N  N135  1  0.04013000  0.16313000  0.97648000  1.0
  N  N136  1  0.45986000  0.66315000  0.52353000  1.0
  N  N137  1  0.95986000  0.83687000  0.02353000  1.0
  N  N138  1  0.90951000  0.82299000  0.45698000  1.0
  N  N139  1  0.40949000  0.67700000  0.95697000  1.0
  N  N140  1  0.09050000  0.17701000  0.54302000  1.0
  N  N141  1  0.59051000  0.32300000  0.04302000  1.0
  N  N142  1  0.08857000  0.69730000  0.40069000  1.0
  N  N143  1  0.58856000  0.80269000  0.90070000  1.0
  N  N144  1  0.91141000  0.30269000  0.59931000  1.0
  N  N145  1  0.41142000  0.19732000  0.09930000  1.0
