# generated using pymatgen
data_MgH18C14(NO4)2
_symmetry_space_group_name_H-M   'P 1'
_cell_length_a   9.50658000
_cell_length_b   10.13150000
_cell_length_c   10.13160000
_cell_angle_alpha   70.66220000
_cell_angle_beta   70.73350000
_cell_angle_gamma   70.73380000
_symmetry_Int_Tables_number   1
_chemical_formula_structural   MgH18C14(NO4)2
_chemical_formula_sum   'Mg2 H36 C28 N4 O16'
_cell_volume   842.10896136
_cell_formula_units_Z   2
loop_
 _symmetry_equiv_pos_site_id
 _symmetry_equiv_pos_as_xyz
  1  'x, y, z'
loop_
 _atom_site_type_symbol
 _atom_site_label
 _atom_site_symmetry_multiplicity
 _atom_site_fract_x
 _atom_site_fract_y
 _atom_site_fract_z
 _atom_site_occupancy
  Mg  Mg0  1  0.00000000  0.00000000  0.00000000  1.0
  Mg  Mg1  1  0.50000000  0.00000000  0.00000000  1.0
  H  H2  1  0.68571000  0.26651000  0.94115000  1.0
  H  H3  1  0.81430000  0.05885000  0.73348000  1.0
  H  H4  1  0.31429000  0.73348000  0.05885000  1.0
  H  H5  1  0.18570000  0.94115000  0.26652000  1.0
  H  H6  1  0.53944000  0.48166000  0.86823000  1.0
  H  H7  1  0.96057000  0.13177000  0.51833000  1.0
  H  H8  1  0.46056000  0.51834000  0.13177000  1.0
  H  H9  1  0.03943000  0.86823000  0.48167000  1.0
  H  H10  1  0.61024000  0.59183000  0.69650000  1.0
  H  H11  1  0.88976000  0.30350000  0.40817000  1.0
  H  H12  1  0.38976000  0.40817000  0.30350000  1.0
  H  H13  1  0.11024000  0.69650000  0.59183000  1.0
  H  H14  1  0.63153000  0.61573000  0.85490000  1.0
  H  H15  1  0.86847000  0.14510000  0.38426000  1.0
  H  H16  1  0.36847000  0.38427000  0.14510000  1.0
  H  H17  1  0.13153000  0.85490000  0.61574000  1.0
  H  H18  1  0.96142000  0.52325000  0.74979000  1.0
  H  H19  1  0.53858000  0.25021000  0.47675000  1.0
  H  H20  1  0.03858000  0.47675000  0.25021000  1.0
  H  H21  1  0.46141000  0.74979000  0.52325000  1.0
  H  H22  1  0.88176000  0.56271000  0.60001000  1.0
  H  H23  1  0.61824000  0.39999000  0.43729000  1.0
  H  H24  1  0.11824000  0.43729000  0.39999000  1.0
  H  H25  1  0.38176000  0.60001000  0.56271000  1.0
  H  H26  1  0.00265000  0.38651000  0.65813000  1.0
  H  H27  1  0.49736000  0.34187000  0.61349000  1.0
  H  H28  1  0.99735000  0.61349000  0.34187000  1.0
  H  H29  1  0.50264000  0.65813000  0.38651000  1.0
  H  H30  1  0.64419000  0.85941000  0.68794000  1.0
  H  H31  1  0.85582000  0.31206000  0.14059000  1.0
  H  H32  1  0.35581000  0.14059000  0.31206000  1.0
  H  H33  1  0.14419000  0.68794000  0.85941000  1.0
  H  H34  1  0.15531000  0.08669000  0.68541000  1.0
  H  H35  1  0.34469000  0.31459000  0.91331000  1.0
  H  H36  1  0.84469000  0.91331000  0.31459000  1.0
  H  H37  1  0.65531000  0.68541000  0.08669000  1.0
  C  C38  1  0.79398000  0.29330000  0.87003000  1.0
  C  C39  1  0.70603000  0.12997000  0.70669000  1.0
  C  C40  1  0.20602000  0.70670000  0.12997000  1.0
  C  C41  1  0.29397000  0.87003000  0.29330000  1.0
  C  C42  1  0.63211000  0.53527000  0.80358000  1.0
  C  C43  1  0.86789000  0.19642000  0.46472000  1.0
  C  C44  1  0.36789000  0.46473000  0.19642000  1.0
  C  C45  1  0.13211000  0.80358000  0.53528000  1.0
  C  C46  1  0.91453000  0.47827000  0.69317000  1.0
  C  C47  1  0.58548000  0.30683000  0.52173000  1.0
  C  C48  1  0.08547000  0.52173000  0.30683000  1.0
  C  C49  1  0.41452000  0.69317000  0.47827000  1.0
  C  C50  1  0.34490000  0.95572000  0.80372000  1.0
  C  C51  1  0.15510000  0.19628000  0.04428000  1.0
  C  C52  1  0.65510000  0.04428000  0.19628000  1.0
  C  C53  1  0.84490000  0.80372000  0.95572000  1.0
  C  C54  1  0.58186000  0.92012000  0.60468000  1.0
  C  C55  1  0.91814000  0.39532000  0.07988000  1.0
  C  C56  1  0.41814000  0.07988000  0.39532000  1.0
  C  C57  1  0.08186000  0.60468000  0.92012000  1.0
  C  C58  1  0.42345000  0.97890000  0.64699000  1.0
  C  C59  1  0.07655000  0.35301000  0.02109000  1.0
  C  C60  1  0.57655000  0.02110000  0.35301000  1.0
  C  C61  1  0.92345000  0.64699000  0.97891000  1.0
  C  C62  1  0.33979000  0.06059000  0.54063000  1.0
  C  C63  1  0.16021000  0.45938000  0.93941000  1.0
  C  C64  1  0.66021000  0.93941000  0.45937000  1.0
  C  C65  1  0.83979000  0.54063000  0.06059000  1.0
  N  N66  1  0.77943000  0.42902000  0.78867000  1.0
  N  N67  1  0.72057000  0.21133000  0.57098000  1.0
  N  N68  1  0.22057000  0.57098000  0.21133000  1.0
  N  N69  1  0.27943000  0.78867000  0.42902000  1.0
  O  O70  1  0.19700000  0.99324000  0.83494000  1.0
  O  O71  1  0.30300000  0.16506000  0.00675000  1.0
  O  O72  1  0.80300000  0.00676000  0.16506000  1.0
  O  O73  1  0.69700000  0.83494000  0.99325000  1.0
  O  O74  1  0.42395000  0.90035000  0.89633000  1.0
  O  O75  1  0.07605000  0.10367000  0.09964000  1.0
  O  O76  1  0.57605000  0.09965000  0.10367000  1.0
  O  O77  1  0.92395000  0.89633000  0.90036000  1.0
  O  O78  1  0.92041000  0.20077000  0.86574000  1.0
  O  O79  1  0.57960000  0.13426000  0.79923000  1.0
  O  O80  1  0.07959000  0.79923000  0.13426000  1.0
  O  O81  1  0.42040000  0.86574000  0.20077000  1.0
  O  O82  1  0.18612000  0.12151000  0.57622000  1.0
  O  O83  1  0.31388000  0.42379000  0.87849000  1.0
  O  O84  1  0.81388000  0.87849000  0.42379000  1.0
  O  O85  1  0.68612000  0.57621000  0.12151000  1.0
