# generated using pymatgen
data_KH4C3(N3O)3
_symmetry_space_group_name_H-M   'P 1'
_cell_length_a   7.52629000
_cell_length_b   7.73409000
_cell_length_c   17.51060000
_cell_angle_alpha   84.47660000
_cell_angle_beta   78.47860000
_cell_angle_gamma   69.97580000
_symmetry_Int_Tables_number   1
_chemical_formula_structural   KH4C3(N3O)3
_chemical_formula_sum   'K4 H16 C12 N36 O12'
_cell_volume   937.93107080
_cell_formula_units_Z   4
loop_
 _symmetry_equiv_pos_site_id
 _symmetry_equiv_pos_as_xyz
  1  'x, y, z'
loop_
 _atom_site_type_symbol
 _atom_site_label
 _atom_site_symmetry_multiplicity
 _atom_site_fract_x
 _atom_site_fract_y
 _atom_site_fract_z
 _atom_site_occupancy
  K  K0  1  0.85111000  0.79519000  0.00231000  1.0
  K  K1  1  0.14888000  0.20482000  0.99769000  1.0
  K  K2  1  0.34977000  0.86255000  0.56791000  1.0
  K  K3  1  0.65022000  0.13744000  0.43209000  1.0
  H  H4  1  0.77045000  0.94416000  0.71173000  1.0
  H  H5  1  0.22955000  0.05584000  0.28827000  1.0
  H  H6  1  0.81552000  0.42981000  0.86404000  1.0
  H  H7  1  0.18448000  0.57020000  0.13596000  1.0
  H  H8  1  0.77053000  0.81393000  0.80236000  1.0
  H  H9  1  0.22947000  0.18607000  0.19764000  1.0
  H  H10  1  0.64940000  0.30637000  0.88580000  1.0
  H  H11  1  0.35060000  0.69363000  0.11420000  1.0
  H  H12  1  0.82186000  0.46861000  0.09333000  1.0
  H  H13  1  0.17814000  0.53139000  0.90668000  1.0
  H  H14  1  0.91458000  0.50539000  0.16135000  1.0
  H  H15  1  0.08542000  0.49461000  0.83865000  1.0
  H  H16  1  0.19891000  0.30923000  0.52983000  1.0
  H  H17  1  0.80109000  0.69077000  0.47017000  1.0
  H  H18  1  0.17971000  0.24081000  0.45133000  1.0
  H  H19  1  0.82029000  0.75918000  0.54867000  1.0
  C  C20  1  0.96870000  0.66976000  0.70313000  1.0
  C  C21  1  0.03130000  0.33024000  0.29687000  1.0
  C  C22  1  0.86035000  0.84009000  0.74774000  1.0
  C  C23  1  0.13965000  0.15991000  0.25226000  1.0
  C  C24  1  0.20276000  0.02746000  0.77267000  1.0
  C  C25  1  0.79725000  0.97254000  0.22733000  1.0
  C  C26  1  0.66977000  0.39567000  0.66687000  1.0
  C  C27  1  0.33023000  0.60433000  0.33313000  1.0
  C  C28  1  0.52672000  0.59577000  0.90702000  1.0
  C  C29  1  0.47328000  0.40423000  0.09298000  1.0
  C  C30  1  0.66798000  0.43726000  0.86261000  1.0
  C  C31  1  0.33202000  0.56274000  0.13739000  1.0
  N  N32  1  0.98971000  0.92076000  0.77214000  1.0
  N  N33  1  0.01029000  0.07924000  0.22786000  1.0
  N  N34  1  0.14199000  0.94245000  0.72582000  1.0
  N  N35  1  0.85801000  0.05755000  0.27418000  1.0
  N  N36  1  0.09350000  0.05722000  0.84410000  1.0
  N  N37  1  0.90650000  0.94278000  0.15590000  1.0
  N  N38  1  0.37613000  0.07415000  0.74902000  1.0
  N  N39  1  0.62387000  0.92585000  0.25098000  1.0
  N  N40  1  0.95683000  0.98767000  0.84350000  1.0
  N  N41  1  0.04317000  0.01233000  0.15650000  1.0
  N  N42  1  0.26582000  0.76850000  0.97214000  1.0
  N  N43  1  0.73418000  0.23150000  0.02786000  1.0
  N  N44  1  0.97406000  0.65131000  0.62689000  1.0
  N  N45  1  0.02595000  0.34869000  0.37311000  1.0
  N  N46  1  0.07492000  0.51282000  0.73508000  1.0
  N  N47  1  0.92508000  0.48718000  0.26492000  1.0
  N  N48  1  0.14863000  0.39364000  0.67686000  1.0
  N  N49  1  0.85137000  0.60636000  0.32314000  1.0
  N  N50  1  0.08802000  0.47555000  0.61245000  1.0
  N  N51  1  0.91198000  0.52445000  0.38755000  1.0
  N  N52  1  0.64450000  0.45359000  0.78049000  1.0
  N  N53  1  0.35550000  0.54642000  0.21951000  1.0
  N  N54  1  0.53750000  0.56492000  0.67648000  1.0
  N  N55  1  0.46250000  0.43508000  0.32352000  1.0
  N  N56  1  0.74028000  0.32132000  0.73089000  1.0
  N  N57  1  0.25972000  0.67868000  0.26911000  1.0
  N  N58  1  0.52196000  0.60185000  0.74979000  1.0
  N  N59  1  0.47804000  0.39815000  0.25021000  1.0
  N  N60  1  0.72549000  0.29931000  0.59485000  1.0
  N  N61  1  0.27451000  0.70069000  0.40515000  1.0
  N  N62  1  0.34327000  0.60889000  0.93474000  1.0
  N  N63  1  0.65673000  0.39111000  0.06526000  1.0
  N  N64  1  0.56556000  0.74184000  0.92570000  1.0
  N  N65  1  0.43444000  0.25816000  0.07429000  1.0
  N  N66  1  0.39900000  0.84759000  0.96693000  1.0
  N  N67  1  0.60100000  0.15241000  0.03307000  1.0
  O  O68  1  0.93526000  0.49658000  0.10378000  1.0
  O  O69  1  0.06474000  0.50342000  0.89622000  1.0
  O  O70  1  0.47134000  0.02661000  0.68332000  1.0
  O  O71  1  0.52866000  0.97339000  0.31668000  1.0
  O  O72  1  0.26031000  0.20751000  0.49252000  1.0
  O  O73  1  0.73969000  0.79249000  0.50748000  1.0
  O  O74  1  0.41869000  0.15492000  0.79634000  1.0
  O  O75  1  0.58131000  0.84508000  0.20366000  1.0
  O  O76  1  0.84704000  0.14346000  0.59263000  1.0
  O  O77  1  0.15296000  0.85654000  0.40737000  1.0
  O  O78  1  0.64314000  0.38092000  0.54053000  1.0
  O  O79  1  0.35686000  0.61908000  0.45947000  1.0
