# generated using pymatgen
data_CdH7C9N2O5
_symmetry_space_group_name_H-M   'P 1'
_cell_length_a   14.27940000
_cell_length_b   14.28940000
_cell_length_c   17.02350000
_cell_angle_alpha   109.92100000
_cell_angle_beta   105.03000000
_cell_angle_gamma   106.52600000
_symmetry_Int_Tables_number   1
_chemical_formula_structural   CdH7C9N2O5
_chemical_formula_sum   'Cd8 H56 C72 N16 O40'
_cell_volume   2875.87339018
_cell_formula_units_Z   8
loop_
 _symmetry_equiv_pos_site_id
 _symmetry_equiv_pos_as_xyz
  1  'x, y, z'
loop_
 _atom_site_type_symbol
 _atom_site_label
 _atom_site_symmetry_multiplicity
 _atom_site_fract_x
 _atom_site_fract_y
 _atom_site_fract_z
 _atom_site_occupancy
  Cd  Cd0  1  0.92261000  0.15271000  0.77658000  1.0
  Cd  Cd1  1  0.09509000  0.39758000  0.71598000  1.0
  Cd  Cd2  1  0.37613000  0.64582000  0.72329000  1.0
  Cd  Cd3  1  0.68156000  0.87924000  0.78415000  1.0
  Cd  Cd4  1  0.07738000  0.84729000  0.22342000  1.0
  Cd  Cd5  1  0.90491000  0.60243000  0.28402000  1.0
  Cd  Cd6  1  0.62386000  0.35418000  0.27671000  1.0
  Cd  Cd7  1  0.31844000  0.12075000  0.21586000  1.0
  H  H8  1  0.74500000  0.09040000  0.62785000  1.0
  H  H9  1  0.82678000  0.19998000  0.63865000  1.0
  H  H10  1  0.25415000  0.33481000  0.71376000  1.0
  H  H11  1  0.24594000  0.37745000  0.63881000  1.0
  H  H12  1  0.92694000  0.76184000  0.80556000  1.0
  H  H13  1  0.17936000  0.01354000  0.80454000  1.0
  H  H14  1  0.94874000  0.97351000  0.85509000  1.0
  H  H15  1  0.04452000  0.97197000  0.94492000  1.0
  H  H16  1  0.31904000  0.31768000  0.00443000  1.0
  H  H17  1  0.25663000  0.79377000  0.00323000  1.0
  H  H18  1  0.92165000  0.49419000  0.92923000  1.0
  H  H19  1  0.93147000  0.40523000  0.83105000  1.0
  H  H20  1  0.84050000  0.62610000  0.91845000  1.0
  H  H21  1  0.84008000  0.38736000  0.68201000  1.0
  H  H22  1  0.46235000  0.61674000  0.87209000  1.0
  H  H23  1  0.56115000  0.68795000  0.86142000  1.0
  H  H24  1  0.62106000  0.04040000  0.78611000  1.0
  H  H25  1  0.73861000  0.10717000  0.86110000  1.0
  H  H26  1  0.95592000  0.62185000  0.69469000  1.0
  H  H27  1  0.20883000  0.87461000  0.69521000  1.0
  H  H28  1  0.11829000  0.59384000  0.64523000  1.0
  H  H29  1  0.02689000  0.59950000  0.55525000  1.0
  H  H30  1  0.31305000  0.81436000  0.49549000  1.0
  H  H31  1  0.79064000  0.75354000  0.49676000  1.0
  H  H32  1  0.56475000  0.49278000  0.57074000  1.0
  H  H33  1  0.57360000  0.60071000  0.66873000  1.0
  H  H34  1  0.70680000  0.42208000  0.58167000  1.0
  H  H35  1  0.70535000  0.65898000  0.81811000  1.0
  H  H36  1  0.25500000  0.90960000  0.37215000  1.0
  H  H37  1  0.17322000  0.80003000  0.36135000  1.0
  H  H38  1  0.74586000  0.66520000  0.28624000  1.0
  H  H39  1  0.75406000  0.62255000  0.36119000  1.0
  H  H40  1  0.07306000  0.23816000  0.19444000  1.0
  H  H41  1  0.82064000  0.98646000  0.19546000  1.0
  H  H42  1  0.05127000  0.02649000  0.14491000  1.0
  H  H43  1  0.95548000  0.02803000  0.05508000  1.0
  H  H44  1  0.68096000  0.68232000  0.99557000  1.0
  H  H45  1  0.74337000  0.20623000  0.99677000  1.0
  H  H46  1  0.07835000  0.50581000  0.07077000  1.0
  H  H47  1  0.06853000  0.59477000  0.16895000  1.0
  H  H48  1  0.15950000  0.37390000  0.08155000  1.0
  H  H49  1  0.15992000  0.61264000  0.31799000  1.0
  H  H50  1  0.53765000  0.38327000  0.12791000  1.0
  H  H51  1  0.43885000  0.31205000  0.13858000  1.0
  H  H52  1  0.37895000  0.95960000  0.21389000  1.0
  H  H53  1  0.26139000  0.89282000  0.13890000  1.0
  H  H54  1  0.04408000  0.37815000  0.30532000  1.0
  H  H55  1  0.79116000  0.12539000  0.30479000  1.0
  H  H56  1  0.88171000  0.40616000  0.35477000  1.0
  H  H57  1  0.97311000  0.40050000  0.44475000  1.0
  H  H58  1  0.68695000  0.18564000  0.50451000  1.0
  H  H59  1  0.20936000  0.24646000  0.50324000  1.0
  H  H60  1  0.43525000  0.50722000  0.42926000  1.0
  H  H61  1  0.42641000  0.39929000  0.33127000  1.0
  H  H62  1  0.29321000  0.57792000  0.41832000  1.0
  H  H63  1  0.29465000  0.34102000  0.18189000  1.0
  C  C64  1  0.98902000  0.78723000  0.78150000  1.0
  C  C65  1  0.12974000  0.92792000  0.78135000  1.0
  C  C66  1  0.05119000  0.89859000  0.81370000  1.0
  C  C67  1  0.03081000  0.98198000  0.88248000  1.0
  C  C68  1  0.20007000  0.15866000  0.97756000  1.0
  C  C69  1  0.24299000  0.24850000  0.96246000  1.0
  C  C70  1  0.16402000  0.23316000  0.88448000  1.0
  C  C71  1  0.25627000  0.64481000  0.82868000  1.0
  C  C72  1  0.16093000  0.30255000  0.83645000  1.0
  C  C73  1  0.07019000  0.70804000  0.04709000  1.0
  C  C74  1  0.09977000  0.66579000  0.96874000  1.0
  C  C75  1  0.19167000  0.71456000  0.95770000  1.0
  C  C76  1  0.18286000  0.63860000  0.87532000  1.0
  C  C77  1  0.24251000  0.13963000  0.05709000  1.0
  C  C78  1  0.93309000  0.48599000  0.86651000  1.0
  C  C79  1  0.85059000  0.50613000  0.80649000  1.0
  C  C80  1  0.81187000  0.58236000  0.84463000  1.0
  C  C81  1  0.81193000  0.44853000  0.71176000  1.0
  C  C82  1  0.00542000  0.70787000  0.71860000  1.0
  C  C83  1  0.14636000  0.84835000  0.71847000  1.0
  C  C84  1  0.08461000  0.73758000  0.68630000  1.0
  C  C85  1  0.09931000  0.64833000  0.61767000  1.0
  C  C86  1  0.18090000  0.72232000  0.52246000  1.0
  C  C87  1  0.28586000  0.78033000  0.53750000  1.0
  C  C88  1  0.34857000  0.77936000  0.61547000  1.0
  C  C89  1  0.81612000  0.92758000  0.67131000  1.0
  C  C90  1  0.46603000  0.82431000  0.66346000  1.0
  C  C91  1  0.66115000  0.52340000  0.45299000  1.0
  C  C92  1  0.69709000  0.63126000  0.53128000  1.0
  C  C93  1  0.75691000  0.73412000  0.54230000  1.0
  C  C94  1  0.76319000  0.80762000  0.62463000  1.0
  C  C95  1  0.08232000  0.68506000  0.44288000  1.0
  C  C96  1  0.61910000  0.56692000  0.63345000  1.0
  C  C97  1  0.69922000  0.54455000  0.69361000  1.0
  C  C98  1  0.73705000  0.46746000  0.65549000  1.0
  C  C99  1  0.73663000  0.60093000  0.78836000  1.0
  C  C100  1  0.01098000  0.21277000  0.21850000  1.0
  C  C101  1  0.87026000  0.07208000  0.21865000  1.0
  C  C102  1  0.94881000  0.10141000  0.18630000  1.0
  C  C103  1  0.96919000  0.01802000  0.11752000  1.0
  C  C104  1  0.79993000  0.84135000  0.02244000  1.0
  C  C105  1  0.75701000  0.75150000  0.03753000  1.0
  C  C106  1  0.83598000  0.76684000  0.11552000  1.0
  C  C107  1  0.74373000  0.35519000  0.17132000  1.0
  C  C108  1  0.83906000  0.69745000  0.16355000  1.0
  C  C109  1  0.92981000  0.29196000  0.95291000  1.0
  C  C110  1  0.90023000  0.33421000  0.03126000  1.0
  C  C111  1  0.80833000  0.28544000  0.04230000  1.0
  C  C112  1  0.81714000  0.36141000  0.12468000  1.0
  C  C113  1  0.75749000  0.86038000  0.94291000  1.0
  C  C114  1  0.06691000  0.51401000  0.13349000  1.0
  C  C115  1  0.14941000  0.49387000  0.19350000  1.0
  C  C116  1  0.18813000  0.41764000  0.15537000  1.0
  C  C117  1  0.18807000  0.55147000  0.28824000  1.0
  C  C118  1  0.99458000  0.29213000  0.28140000  1.0
  C  C119  1  0.85364000  0.15165000  0.28153000  1.0
  C  C120  1  0.91539000  0.26242000  0.31370000  1.0
  C  C121  1  0.90069000  0.35167000  0.38232000  1.0
  C  C122  1  0.81910000  0.27769000  0.47754000  1.0
  C  C123  1  0.71414000  0.21968000  0.46250000  1.0
  C  C124  1  0.65143000  0.22064000  0.38453000  1.0
  C  C125  1  0.18388000  0.07242000  0.32869000  1.0
  C  C126  1  0.53396000  0.17569000  0.33655000  1.0
  C  C127  1  0.33885000  0.47660000  0.54701000  1.0
  C  C128  1  0.30292000  0.36874000  0.46872000  1.0
  C  C129  1  0.24309000  0.26588000  0.45770000  1.0
  C  C130  1  0.23682000  0.19238000  0.37537000  1.0
  C  C131  1  0.91768000  0.31494000  0.55712000  1.0
  C  C132  1  0.38090000  0.43308000  0.36655000  1.0
  C  C133  1  0.30079000  0.45545000  0.30638000  1.0
  C  C134  1  0.26295000  0.53254000  0.34451000  1.0
  C  C135  1  0.26338000  0.39906000  0.21164000  1.0
  N  N136  1  0.07855000  0.13898000  0.85301000  1.0
  N  N137  1  0.10043000  0.09441000  0.90923000  1.0
  N  N138  1  0.09108000  0.54815000  0.83730000  1.0
  N  N139  1  0.04147000  0.56526000  0.89416000  1.0
  N  N140  1  0.28587000  0.72539000  0.64700000  1.0
  N  N141  1  0.18503000  0.69104000  0.59082000  1.0
  N  N142  1  0.71064000  0.75392000  0.66264000  1.0
  N  N143  1  0.67094000  0.64754000  0.60581000  1.0
  N  N144  1  0.92145000  0.86102000  0.14699000  1.0
  N  N145  1  0.89957000  0.90559000  0.09077000  1.0
  N  N146  1  0.90892000  0.45185000  0.16270000  1.0
  N  N147  1  0.95854000  0.43474000  0.10584000  1.0
  N  N148  1  0.71413000  0.27461000  0.35300000  1.0
  N  N149  1  0.81497000  0.30896000  0.40918000  1.0
  N  N150  1  0.28936000  0.24608000  0.33736000  1.0
  N  N151  1  0.32906000  0.35246000  0.39418000  1.0
  O  O152  1  0.24412000  0.37619000  0.84981000  1.0
  O  O153  1  0.06707000  0.27951000  0.77906000  1.0
  O  O154  1  0.22885000  0.55995000  0.75292000  1.0
  O  O155  1  0.34056000  0.72865000  0.86029000  1.0
  O  O156  1  0.14130000  0.80056000  0.11373000  1.0
  O  O157  1  0.98399000  0.65628000  0.04812000  1.0
  O  O158  1  0.18300000  0.06815000  0.07132000  1.0
  O  O159  1  0.33901000  0.20218000  0.11327000  1.0
  O  O160  1  0.78989000  0.16637000  0.67148000  1.0
  O  O161  1  0.20432000  0.32530000  0.65707000  1.0
  O  O162  1  0.52634000  0.89421000  0.65019000  1.0
  O  O163  1  0.50041000  0.78776000  0.72077000  1.0
  O  O164  1  0.80727000  0.97587000  0.74723000  1.0
  O  O165  1  0.86818000  0.98023000  0.63955000  1.0
  O  O166  1  0.68704000  0.52780000  0.38631000  1.0
  O  O167  1  0.60845000  0.43622000  0.45203000  1.0
  O  O168  1  0.99664000  0.61136000  0.42870000  1.0
  O  O169  1  0.08873000  0.72523000  0.38659000  1.0
  O  O170  1  0.49479000  0.61820000  0.82851000  1.0
  O  O171  1  0.66817000  0.04738000  0.84288000  1.0
  O  O172  1  0.75587000  0.62381000  0.15019000  1.0
  O  O173  1  0.93292000  0.72049000  0.22094000  1.0
  O  O174  1  0.77114000  0.44005000  0.24707000  1.0
  O  O175  1  0.65944000  0.27135000  0.13971000  1.0
  O  O176  1  0.85870000  0.19944000  0.88628000  1.0
  O  O177  1  0.01601000  0.34371000  0.95188000  1.0
  O  O178  1  0.81700000  0.93185000  0.92868000  1.0
  O  O179  1  0.66099000  0.79782000  0.88672000  1.0
  O  O180  1  0.21011000  0.83363000  0.32852000  1.0
  O  O181  1  0.79568000  0.67470000  0.34293000  1.0
  O  O182  1  0.47366000  0.10578000  0.34981000  1.0
  O  O183  1  0.49959000  0.21224000  0.27923000  1.0
  O  O184  1  0.19273000  0.02413000  0.25277000  1.0
  O  O185  1  0.13183000  0.01978000  0.36046000  1.0
  O  O186  1  0.31296000  0.47220000  0.61369000  1.0
  O  O187  1  0.39155000  0.56378000  0.54798000  1.0
  O  O188  1  0.00336000  0.38864000  0.57130000  1.0
  O  O189  1  0.91127000  0.27477000  0.61341000  1.0
  O  O190  1  0.50520000  0.38180000  0.17149000  1.0
  O  O191  1  0.33183000  0.95262000  0.15712000  1.0
