# generated using pymatgen
data_CdH9C10N5O3
_symmetry_space_group_name_H-M   'P 1'
_cell_length_a   7.08993000
_cell_length_b   10.01590000
_cell_length_c   16.91192250
_cell_angle_alpha   89.99941078
_cell_angle_beta   99.08984223
_cell_angle_gamma   89.99970000
_symmetry_Int_Tables_number   1
_chemical_formula_structural   CdH9C10N5O3
_chemical_formula_sum   'Cd4 H36 C40 N20 O12'
_cell_volume   1185.86821266
_cell_formula_units_Z   4
loop_
 _symmetry_equiv_pos_site_id
 _symmetry_equiv_pos_as_xyz
  1  'x, y, z'
loop_
 _atom_site_type_symbol
 _atom_site_label
 _atom_site_symmetry_multiplicity
 _atom_site_fract_x
 _atom_site_fract_y
 _atom_site_fract_z
 _atom_site_occupancy
  Cd  Cd0  1  0.89999000  0.02389000  0.89189000  1.0
  Cd  Cd1  1  0.60000000  0.52389000  0.60811000  1.0
  Cd  Cd2  1  0.10001000  0.97611000  0.10811000  1.0
  Cd  Cd3  1  0.40000000  0.47611000  0.39189000  1.0
  H  H4  1  0.11925000  0.61808000  0.91933000  1.0
  H  H5  1  0.38074000  0.11808000  0.58067000  1.0
  H  H6  1  0.88076000  0.38192000  0.08067000  1.0
  H  H7  1  0.61926000  0.88192000  0.41933000  1.0
  H  H8  1  0.36265000  0.44151000  0.96721000  1.0
  H  H9  1  0.13734000  0.94152000  0.53279000  1.0
  H  H10  1  0.63735000  0.55848000  0.03279000  1.0
  H  H11  1  0.86266000  0.05849000  0.46721000  1.0
  H  H12  1  0.26862000  0.20116000  0.94359000  1.0
  H  H13  1  0.23136000  0.70116000  0.55640000  1.0
  H  H14  1  0.73138000  0.79884000  0.05641000  1.0
  H  H15  1  0.76863000  0.29884000  0.44359000  1.0
  H  H16  1  0.46090000  0.98973000  0.82928000  1.0
  H  H17  1  0.03910000  0.48973000  0.67072000  1.0
  H  H18  1  0.53910000  0.01028000  0.17072000  1.0
  H  H19  1  0.96089000  0.51027000  0.32928000  1.0
  H  H20  1  0.19392000  0.10611000  0.73896000  1.0
  H  H21  1  0.30608000  0.60611000  0.76103000  1.0
  H  H22  1  0.80608000  0.89390000  0.26104000  1.0
  H  H23  1  0.69392000  0.39389000  0.23897000  1.0
  H  H24  1  0.25377000  0.34095000  0.69633000  1.0
  H  H25  1  0.24622000  0.84095000  0.80367000  1.0
  H  H26  1  0.74623000  0.65906000  0.30367000  1.0
  H  H27  1  0.75378000  0.15905000  0.19633000  1.0
  H  H28  1  0.76706000  0.73585000  0.87074000  1.0
  H  H29  1  0.73293000  0.23585000  0.62926000  1.0
  H  H30  1  0.23295000  0.26415000  0.12927000  1.0
  H  H31  1  0.26707000  0.76415000  0.37074000  1.0
  H  H32  1  0.62131000  0.81524000  0.91453000  1.0
  H  H33  1  0.87869000  0.31525000  0.58548000  1.0
  H  H34  1  0.37868000  0.18475000  0.08547000  1.0
  H  H35  1  0.12132000  0.68475000  0.41453000  1.0
  H  H36  1  0.67263000  0.53633000  0.79672000  1.0
  H  H37  1  0.82736000  0.03632000  0.70328000  1.0
  H  H38  1  0.32738000  0.46368000  0.20328000  1.0
  H  H39  1  0.17264000  0.96368000  0.29672000  1.0
  C  C40  1  0.08612000  0.51240000  0.91024000  1.0
  C  C41  1  0.41387000  0.01240000  0.58976000  1.0
  C  C42  1  0.91389000  0.48760000  0.08976000  1.0
  C  C43  1  0.58613000  0.98760000  0.41024000  1.0
  C  C44  1  0.22051000  0.41551000  0.93675000  1.0
  C  C45  1  0.27948000  0.91551000  0.56325000  1.0
  C  C46  1  0.77949000  0.58448000  0.06325000  1.0
  C  C47  1  0.72052000  0.08449000  0.43675000  1.0
  C  C48  1  0.16934000  0.28193000  0.92396000  1.0
  C  C49  1  0.33065000  0.78193000  0.57604000  1.0
  C  C50  1  0.83066000  0.71807000  0.07604000  1.0
  C  C51  1  0.66935000  0.21807000  0.42396000  1.0
  C  C52  1  0.86034000  0.33759000  0.85943000  1.0
  C  C53  1  0.63966000  0.83759000  0.64057000  1.0
  C  C54  1  0.13966000  0.66241000  0.14057000  1.0
  C  C55  1  0.36034000  0.16241000  0.35943000  1.0
  C  C56  1  0.90341000  0.47594000  0.87107000  1.0
  C  C57  1  0.59657000  0.97594000  0.62892000  1.0
  C  C58  1  0.09659000  0.52406000  0.12893000  1.0
  C  C59  1  0.40342000  0.02406000  0.37107000  1.0
  C  C60  1  0.47278000  0.09354000  0.81150000  1.0
  C  C61  1  0.02721000  0.59354000  0.68850000  1.0
  C  C62  1  0.52722000  0.90646000  0.18850000  1.0
  C  C63  1  0.97279000  0.40646000  0.31150000  1.0
  C  C64  1  0.32773000  0.15752000  0.76017000  1.0
  C  C65  1  0.17226000  0.65751000  0.73983000  1.0
  C  C66  1  0.67227000  0.84249000  0.23983000  1.0
  C  C67  1  0.82774000  0.34248000  0.26017000  1.0
  C  C68  1  0.36017000  0.28728000  0.73787000  1.0
  C  C69  1  0.13982000  0.78728000  0.76213000  1.0
  C  C70  1  0.63983000  0.71273000  0.26213000  1.0
  C  C71  1  0.86018000  0.21271000  0.23787000  1.0
  C  C72  1  0.53277000  0.35307000  0.76671000  1.0
  C  C73  1  0.96721000  0.85307000  0.73329000  1.0
  C  C74  1  0.46723000  0.64693000  0.23329000  1.0
  C  C75  1  0.03278000  0.14693000  0.26671000  1.0
  C  C76  1  0.67158000  0.28292000  0.82193000  1.0
  C  C77  1  0.82841000  0.78292000  0.67807000  1.0
  C  C78  1  0.32843000  0.71708000  0.17808000  1.0
  C  C79  1  0.17159000  0.21708000  0.32193000  1.0
  N  N80  1  0.99604000  0.24621000  0.88721000  1.0
  N  N81  1  0.50395000  0.74621000  0.61278000  1.0
  N  N82  1  0.00396000  0.75379000  0.11279000  1.0
  N  N83  1  0.49605000  0.25379000  0.38721000  1.0
  N  N84  1  0.63646000  0.15469000  0.84051000  1.0
  N  N85  1  0.86354000  0.65469000  0.65949000  1.0
  N  N86  1  0.36354000  0.84531000  0.15949000  1.0
  N  N87  1  0.13647000  0.34531000  0.34051000  1.0
  N  N88  1  0.17877000  0.95200000  0.97090000  1.0
  N  N89  1  0.32122000  0.45200000  0.52910000  1.0
  N  N90  1  0.82122000  0.04800000  0.02910000  1.0
  N  N91  1  0.67879000  0.54801000  0.47090000  1.0
  N  N92  1  0.29307000  0.86728000  0.96224000  1.0
  N  N93  1  0.20693000  0.36729000  0.53776000  1.0
  N  N94  1  0.70694000  0.13271000  0.03777000  1.0
  N  N95  1  0.79306000  0.63272000  0.46223000  1.0
  N  N96  1  0.40623000  0.78438000  0.95584000  1.0
  N  N97  1  0.09375000  0.28438000  0.54416000  1.0
  N  N98  1  0.59376000  0.21562000  0.04416000  1.0
  N  N99  1  0.90625000  0.71563000  0.45584000  1.0
  O  O100  1  0.72630000  0.82788000  0.88282000  1.0
  O  O101  1  0.77370000  0.32788000  0.61719000  1.0
  O  O102  1  0.27370000  0.17212000  0.11719000  1.0
  O  O103  1  0.22630000  0.67212000  0.38281000  1.0
  O  O104  1  0.56119000  0.47564000  0.74008000  1.0
  O  O105  1  0.93879000  0.97563000  0.75992000  1.0
  O  O106  1  0.43882000  0.52436000  0.25992000  1.0
  O  O107  1  0.06121000  0.02436000  0.24008000  1.0
  O  O108  1  0.77589000  0.57281000  0.84862000  1.0
  O  O109  1  0.72409000  0.07281000  0.65137000  1.0
  O  O110  1  0.22411000  0.42719000  0.15138000  1.0
  O  O111  1  0.27591000  0.92719000  0.34863000  1.0
