# generated using pymatgen
data_ZnH3(C2O)4
_symmetry_space_group_name_H-M   'P 1'
_cell_length_a   8.99887000
_cell_length_b   9.59041000
_cell_length_c   9.59041000
_cell_angle_alpha   100.99500000
_cell_angle_beta   101.74300000
_cell_angle_gamma   101.74300000
_symmetry_Int_Tables_number   1
_chemical_formula_structural   ZnH3(C2O)4
_chemical_formula_sum   'Zn4 H12 C32 O16'
_cell_volume   769.77868879
_cell_formula_units_Z   4
loop_
 _symmetry_equiv_pos_site_id
 _symmetry_equiv_pos_as_xyz
  1  'x, y, z'
loop_
 _atom_site_type_symbol
 _atom_site_label
 _atom_site_symmetry_multiplicity
 _atom_site_fract_x
 _atom_site_fract_y
 _atom_site_fract_z
 _atom_site_occupancy
  Zn  Zn0  1  0.10522000  0.89550000  0.82009000  1.0
  Zn  Zn1  1  0.39478000  0.17991000  0.10450000  1.0
  Zn  Zn2  1  0.89478000  0.10450000  0.17991000  1.0
  Zn  Zn3  1  0.60522000  0.82009000  0.89550000  1.0
  H  H4  1  0.96600000  0.37162000  0.91100000  1.0
  H  H5  1  0.53400000  0.08900000  0.62838000  1.0
  H  H6  1  0.03400000  0.62839000  0.08900000  1.0
  H  H7  1  0.46600000  0.91100000  0.37162000  1.0
  H  H8  1  0.96528000  0.54151000  0.74356000  1.0
  H  H9  1  0.53471000  0.25644000  0.45849000  1.0
  H  H10  1  0.03472000  0.45849000  0.25644000  1.0
  H  H11  1  0.46528000  0.74356000  0.54151000  1.0
  H  H12  1  0.81102000  0.87656000  0.49408000  1.0
  H  H13  1  0.68898000  0.50592000  0.12344000  1.0
  H  H14  1  0.18898000  0.12344000  0.50592000  1.0
  H  H15  1  0.31102000  0.49408000  0.87656000  1.0
  C  C16  1  0.75000000  0.11929000  0.88071000  1.0
  C  C17  1  0.25000000  0.88071000  0.11929000  1.0
  C  C18  1  0.75000000  0.22000000  0.78000000  1.0
  C  C19  1  0.25000000  0.78000000  0.22000000  1.0
  C  C20  1  0.87099000  0.34834000  0.81240000  1.0
  C  C21  1  0.62900000  0.18760000  0.65166000  1.0
  C  C22  1  0.12901000  0.65166000  0.18760000  1.0
  C  C23  1  0.37099000  0.81240000  0.34834000  1.0
  C  C24  1  0.86998000  0.44309000  0.71921000  1.0
  C  C25  1  0.63002000  0.28079000  0.55691000  1.0
  C  C26  1  0.13002000  0.55691000  0.28079000  1.0
  C  C27  1  0.36998000  0.71922000  0.44309000  1.0
  C  C28  1  0.75000000  0.41046000  0.58954000  1.0
  C  C29  1  0.25000000  0.58954000  0.41046000  1.0
  C  C30  1  0.75000000  0.51054000  0.48946000  1.0
  C  C31  1  0.25000000  0.48946000  0.51054000  1.0
  C  C32  1  0.77472000  0.66320000  0.54301000  1.0
  C  C33  1  0.72528000  0.45699000  0.33680000  1.0
  C  C34  1  0.22528000  0.33680000  0.45699000  1.0
  C  C35  1  0.27472000  0.54301000  0.66320000  1.0
  C  C36  1  0.76729000  0.73191000  0.69434000  1.0
  C  C37  1  0.73271000  0.30566000  0.26809000  1.0
  C  C38  1  0.23271000  0.26809000  0.30566000  1.0
  C  C39  1  0.26729000  0.69434000  0.73191000  1.0
  C  C40  1  0.78444000  0.75828000  0.44969000  1.0
  C  C41  1  0.71556000  0.55031000  0.24172000  1.0
  C  C42  1  0.21556000  0.24172000  0.55031000  1.0
  C  C43  1  0.28444000  0.44969000  0.75828000  1.0
  C  C44  1  0.75000000  0.70177000  0.29823000  1.0
  C  C45  1  0.25000000  0.29823000  0.70177000  1.0
  C  C46  1  0.75000000  0.80224000  0.19776000  1.0
  C  C47  1  0.25000000  0.19776000  0.80224000  1.0
  O  O48  1  0.87184000  0.14594000  0.98646000  1.0
  O  O49  1  0.62816000  0.01354000  0.85406000  1.0
  O  O50  1  0.12816000  0.85406000  0.01354000  1.0
  O  O51  1  0.37184000  0.98646000  0.14594000  1.0
  O  O52  1  0.87162000  0.84420000  0.77561000  1.0
  O  O53  1  0.62838000  0.22439000  0.15580000  1.0
  O  O54  1  0.12838000  0.15580000  0.22439000  1.0
  O  O55  1  0.37162000  0.77561000  0.84420000  1.0
  O  O56  1  0.64075000  0.68227000  0.72913000  1.0
  O  O57  1  0.85925000  0.27087000  0.31773000  1.0
  O  O58  1  0.35925000  0.31773000  0.27087000  1.0
  O  O59  1  0.14075000  0.72913000  0.68227000  1.0
  O  O60  1  0.82863000  0.93465000  0.25337000  1.0
  O  O61  1  0.67137000  0.74663000  0.06535000  1.0
  O  O62  1  0.17137000  0.06535000  0.74663000  1.0
  O  O63  1  0.32863000  0.25337000  0.93465000  1.0
