# generated using pymatgen
data_AgH11C14SN2O3
_symmetry_space_group_name_H-M   'P 1'
_cell_length_a   7.20141000
_cell_length_b   18.87540114
_cell_length_c   18.88580000
_cell_angle_alpha   118.34321547
_cell_angle_beta   97.35900000
_cell_angle_gamma   97.31061577
_symmetry_Int_Tables_number   1
_chemical_formula_structural   AgH11C14SN2O3
_chemical_formula_sum   'Ag6 H66 C84 S6 N12 O18'
_cell_volume   2188.15373732
_cell_formula_units_Z   6
loop_
 _symmetry_equiv_pos_site_id
 _symmetry_equiv_pos_as_xyz
  1  'x, y, z'
loop_
 _atom_site_type_symbol
 _atom_site_label
 _atom_site_symmetry_multiplicity
 _atom_site_fract_x
 _atom_site_fract_y
 _atom_site_fract_z
 _atom_site_occupancy
  Ag  Ag0  1  0.88783000  0.93457000  0.40781000  1.0
  Ag  Ag1  1  0.95439000  0.47340000  0.06528000  1.0
  Ag  Ag2  1  0.48024000  0.59214000  0.52667000  1.0
  Ag  Ag3  1  0.11218000  0.06543000  0.59219000  1.0
  Ag  Ag4  1  0.04562000  0.52660000  0.93472000  1.0
  Ag  Ag5  1  0.51977000  0.40786000  0.47333000  1.0
  H  H6  1  0.40334000  0.20584000  0.49658000  1.0
  H  H7  1  0.19765000  0.29115000  0.79419000  1.0
  H  H8  1  0.90826000  0.50346000  0.70893000  1.0
  H  H9  1  0.59663000  0.79416000  0.50341000  1.0
  H  H10  1  0.80235000  0.70885000  0.20582000  1.0
  H  H11  1  0.09174000  0.49654000  0.29108000  1.0
  H  H12  1  0.62410000  0.23881000  0.42108000  1.0
  H  H13  1  0.38609000  0.18300000  0.76133000  1.0
  H  H14  1  0.20452000  0.57894000  0.81743000  1.0
  H  H15  1  0.37588000  0.76120000  0.57892000  1.0
  H  H16  1  0.61391000  0.81700000  0.23866000  1.0
  H  H17  1  0.79549000  0.42106000  0.18258000  1.0
  H  H18  1  0.49051000  0.24760000  0.29666000  1.0
  H  H19  1  0.24523000  0.04982000  0.75298000  1.0
  H  H20  1  0.19554000  0.70319000  0.95052000  1.0
  H  H21  1  0.50947000  0.75241000  0.70334000  1.0
  H  H22  1  0.75477000  0.95018000  0.24702000  1.0
  H  H23  1  0.80447000  0.29681000  0.04948000  1.0
  H  H24  1  0.21795000  0.23027000  0.19576000  1.0
  H  H25  1  0.99083000  0.96597000  0.77036000  1.0
  H  H26  1  0.02410000  0.80400000  0.03395000  1.0
  H  H27  1  0.78203000  0.76973000  0.80423000  1.0
  H  H28  1  0.00918000  0.03403000  0.22964000  1.0
  H  H29  1  0.97592000  0.19600000  0.96605000  1.0
  H  H30  1  0.86745000  0.19355000  0.13989000  1.0
  H  H31  1  0.67693000  0.94636000  0.80676000  1.0
  H  H32  1  0.72928000  0.85971000  0.05301000  1.0
  H  H33  1  0.13254000  0.80644000  0.86009000  1.0
  H  H34  1  0.32306000  0.05363000  0.19323000  1.0
  H  H35  1  0.27073000  0.14029000  0.94699000  1.0
  H  H36  1  0.64326000  0.14970000  0.20954000  1.0
  H  H37  1  0.49546000  0.05936000  0.85003000  1.0
  H  H38  1  0.43526000  0.78992000  0.93954000  1.0
  H  H39  1  0.35672000  0.85029000  0.79045000  1.0
  H  H40  1  0.50453000  0.94063000  0.14996000  1.0
  H  H41  1  0.56476000  0.21008000  0.06046000  1.0
  H  H42  1  0.76757000  0.14711000  0.33587000  1.0
  H  H43  1  0.62117000  0.18837000  0.85250000  1.0
  H  H44  1  0.43310000  0.66373000  0.81078000  1.0
  H  H45  1  0.23243000  0.85290000  0.66413000  1.0
  H  H46  1  0.37882000  0.81162000  0.14749000  1.0
  H  H47  1  0.56691000  0.33627000  0.18923000  1.0
  H  H48  1  0.51748000  0.81367000  0.38934000  1.0
  H  H49  1  0.70587000  0.57576000  0.18585000  1.0
  H  H50  1  0.12828000  0.61046000  0.42424000  1.0
  H  H51  1  0.48252000  0.18633000  0.61066000  1.0
  H  H52  1  0.29413000  0.42424000  0.81415000  1.0
  H  H53  1  0.87172000  0.38954000  0.57576000  1.0
  H  H54  1  0.16738000  0.81323000  0.39135000  1.0
  H  H55  1  0.35634000  0.57839000  0.18671000  1.0
  H  H56  1  0.77603000  0.60838000  0.42169000  1.0
  H  H57  1  0.83262000  0.18678000  0.60866000  1.0
  H  H58  1  0.64365000  0.42160000  0.81329000  1.0
  H  H59  1  0.22397000  0.39162000  0.57831000  1.0
  H  H60  1  0.59507000  0.04133000  0.40162000  1.0
  H  H61  1  0.55390000  0.36026000  0.95876000  1.0
  H  H62  1  0.19392000  0.59852000  0.63971000  1.0
  H  H63  1  0.40495000  0.95867000  0.59838000  1.0
  H  H64  1  0.44611000  0.63974000  0.04124000  1.0
  H  H65  1  0.80609000  0.40147000  0.36028000  1.0
  H  H66  1  0.24089000  0.03991000  0.40052000  1.0
  H  H67  1  0.20140000  0.36072000  0.96059000  1.0
  H  H68  1  0.84092000  0.59965000  0.63936000  1.0
  H  H69  1  0.75912000  0.96009000  0.59948000  1.0
  H  H70  1  0.79860000  0.63928000  0.03941000  1.0
  H  H71  1  0.15909000  0.40035000  0.36065000  1.0
  C  C72  1  0.14883000  0.18865000  0.41357000  1.0
  C  C73  1  0.96095000  0.22515000  0.81150000  1.0
  C  C74  1  0.73663000  0.58623000  0.77473000  1.0
  C  C75  1  0.85115000  0.81136000  0.58643000  1.0
  C  C76  1  0.03906000  0.77485000  0.18851000  1.0
  C  C77  1  0.26337000  0.41377000  0.22527000  1.0
  C  C78  1  0.34517000  0.20669000  0.44097000  1.0
  C  C79  1  0.13909000  0.23469000  0.79346000  1.0
  C  C80  1  0.90566000  0.55898000  0.76536000  1.0
  C  C81  1  0.65481000  0.79332000  0.55904000  1.0
  C  C82  1  0.86091000  0.76531000  0.20655000  1.0
  C  C83  1  0.09433000  0.44101000  0.23464000  1.0
  C  C84  1  0.47024000  0.22695000  0.39834000  1.0
  C  C85  1  0.24438000  0.17198000  0.77330000  1.0
  C  C86  1  0.07344000  0.60163000  0.82824000  1.0
  C  C87  1  0.52973000  0.77306000  0.60166000  1.0
  C  C88  1  0.75562000  0.82802000  0.22670000  1.0
  C  C89  1  0.92657000  0.39837000  0.17177000  1.0
  C  C90  1  0.39603000  0.23008000  0.32904000  1.0
  C  C91  1  0.16786000  0.09957000  0.77038000  1.0
  C  C92  1  0.06859000  0.67080000  0.90063000  1.0
  C  C93  1  0.60396000  0.76993000  0.67096000  1.0
  C  C94  1  0.83215000  0.90043000  0.22962000  1.0
  C  C95  1  0.93141000  0.32920000  0.09938000  1.0
  C  C96  1  0.11849000  0.21245000  0.22629000  1.0
  C  C97  1  0.90871000  0.01415000  0.78801000  1.0
  C  C98  1  0.89394000  0.77343000  0.98565000  1.0
  C  C99  1  0.88150000  0.78756000  0.77371000  1.0
  C  C100  1  0.09129000  0.98584000  0.21198000  1.0
  C  C101  1  0.10606000  0.22657000  0.01435000  1.0
  C  C102  1  0.92348000  0.19176000  0.19531000  1.0
  C  C103  1  0.73436000  0.00360000  0.80850000  1.0
  C  C104  1  0.72989000  0.80432000  0.99587000  1.0
  C  C105  1  0.07651000  0.80823000  0.80467000  1.0
  C  C106  1  0.26564000  0.99639000  0.19149000  1.0
  C  C107  1  0.27013000  0.19568000  0.00412000  1.0
  C  C108  1  0.79718000  0.16778000  0.23528000  1.0
  C  C109  1  0.63135000  0.06729000  0.83217000  1.0
  C  C110  1  0.56350000  0.76429000  0.93194000  1.0
  C  C111  1  0.20281000  0.83222000  0.76472000  1.0
  C  C112  1  0.36864000  0.93270000  0.16782000  1.0
  C  C113  1  0.43652000  0.23572000  0.06807000  1.0
  C  C114  1  0.86624000  0.16650000  0.30625000  1.0
  C  C115  1  0.70108000  0.13960000  0.83342000  1.0
  C  C116  1  0.56147000  0.69336000  0.85978000  1.0
  C  C117  1  0.13374000  0.83350000  0.69374000  1.0
  C  C118  1  0.29891000  0.86039000  0.16658000  1.0
  C  C119  1  0.43855000  0.30665000  0.14024000  1.0
  C  C120  1  0.06627000  0.18875000  0.34058000  1.0
  C  C121  1  0.87893000  0.15198000  0.81143000  1.0
  C  C122  1  0.72719000  0.65913000  0.84777000  1.0
  C  C123  1  0.93372000  0.81126000  0.65942000  1.0
  C  C124  1  0.12107000  0.84802000  0.18857000  1.0
  C  C125  1  0.27282000  0.34088000  0.15224000  1.0
  C  C126  1  0.19483000  0.21102000  0.29857000  1.0
  C  C127  1  0.98588000  0.08792000  0.78940000  1.0
  C  C128  1  0.89788000  0.70119000  0.91203000  1.0
  C  C129  1  0.80516000  0.78899000  0.70143000  1.0
  C  C130  1  0.01413000  0.91208000  0.21060000  1.0
  C  C131  1  0.10213000  0.29881000  0.08797000  1.0
  C  C132  1  0.45573000  0.86468000  0.39284000  1.0
  C  C133  1  0.59265000  0.52827000  0.13507000  1.0
  C  C134  1  0.06304000  0.60699000  0.47172000  1.0
  C  C135  1  0.54427000  0.13532000  0.60717000  1.0
  C  C136  1  0.40735000  0.47173000  0.86493000  1.0
  C  C137  1  0.93697000  0.39301000  0.52828000  1.0
  C  C138  1  0.26206000  0.86419000  0.39322000  1.0
  C  C139  1  0.39955000  0.52923000  0.13579000  1.0
  C  C140  1  0.86895000  0.60660000  0.47083000  1.0
  C  C141  1  0.73795000  0.13581000  0.60678000  1.0
  C  C142  1  0.60045000  0.47077000  0.86421000  1.0
  C  C143  1  0.13105000  0.39340000  0.52918000  1.0
  C  C144  1  0.49722000  0.99056000  0.39890000  1.0
  C  C145  1  0.50731000  0.40838000  0.00952000  1.0
  C  C146  1  0.09869000  0.60115000  0.59161000  1.0
  C  C147  1  0.50280000  0.00944000  0.60109000  1.0
  C  C148  1  0.49270000  0.59162000  0.99048000  1.0
  C  C149  1  0.90132000  0.39884000  0.40838000  1.0
  C  C150  1  0.30394000  0.98979000  0.39874000  1.0
  C  C151  1  0.31491000  0.40905000  0.01051000  1.0
  C  C152  1  0.90559000  0.60132000  0.59098000  1.0
  C  C153  1  0.69607000  0.01021000  0.60125000  1.0
  C  C154  1  0.68509000  0.59095000  0.98949000  1.0
  C  C155  1  0.09441000  0.39867000  0.40901000  1.0
  S  S156  1  0.00158000  0.16161000  0.47019000  1.0
  S  S157  1  0.84032000  0.30867000  0.83842000  1.0
  S  S158  1  0.53249000  0.52951000  0.69122000  1.0
  S  S159  1  0.99840000  0.83839000  0.52981000  1.0
  S  S160  1  0.15969000  0.69133000  0.16159000  1.0
  S  S161  1  0.46751000  0.47049000  0.30878000  1.0
  N  N162  1  0.57409000  0.92862000  0.39766000  1.0
  N  N163  1  0.64652000  0.46908000  0.07117000  1.0
  N  N164  1  0.17666000  0.60226000  0.53087000  1.0
  N  N165  1  0.42592000  0.07137000  0.60232000  1.0
  N  N166  1  0.35348000  0.53092000  0.92883000  1.0
  N  N167  1  0.82335000  0.39774000  0.46913000  1.0
  N  N168  1  0.18734000  0.92754000  0.39780000  1.0
  N  N169  1  0.26105000  0.47044000  0.07270000  1.0
  N  N170  1  0.78980000  0.60212000  0.52962000  1.0
  N  N171  1  0.81268000  0.07247000  0.60221000  1.0
  N  N172  1  0.73895000  0.52956000  0.92730000  1.0
  N  N173  1  0.21021000  0.39788000  0.47038000  1.0
  O  O174  1  0.90166000  0.07522000  0.41105000  1.0
  O  O175  1  0.82697000  0.33582000  0.92475000  1.0
  O  O176  1  0.49148000  0.58861000  0.66386000  1.0
  O  O177  1  0.09835000  0.92478000  0.58895000  1.0
  O  O178  1  0.17303000  0.66418000  0.07526000  1.0
  O  O179  1  0.50855000  0.41141000  0.33616000  1.0
  O  O180  1  0.13582000  0.16986000  0.54074000  1.0
  O  O181  1  0.96592000  0.37105000  0.83014000  1.0
  O  O182  1  0.59597000  0.45895000  0.62904000  1.0
  O  O183  1  0.86414000  0.83014000  0.45925000  1.0
  O  O184  1  0.03410000  0.62896000  0.16989000  1.0
  O  O185  1  0.40404000  0.54106000  0.37097000  1.0
  O  O186  1  0.86979000  0.21798000  0.49436000  1.0
  O  O187  1  0.65207000  0.27646000  0.78200000  1.0
  O  O188  1  0.37671000  0.50530000  0.72350000  1.0
  O  O189  1  0.13016000  0.78201000  0.50563000  1.0
  O  O190  1  0.34794000  0.72354000  0.21800000  1.0
  O  O191  1  0.62328000  0.49470000  0.27650000  1.0
