# generated using pymatgen
data_Al2H11C22N2Cl3O10
_symmetry_space_group_name_H-M   'P 1'
_cell_length_a   6.64634000
_cell_length_b   11.12530000
_cell_length_c   16.86670000
_cell_angle_alpha   84.07500000
_cell_angle_beta   84.03240000
_cell_angle_gamma   73.02020000
_symmetry_Int_Tables_number   1
_chemical_formula_structural   Al2H11C22N2Cl3O10
_chemical_formula_sum   'Al2 H11 C22 N2 Cl3 O10'
_cell_volume   1182.85001643
_cell_formula_units_Z   1
loop_
 _symmetry_equiv_pos_site_id
 _symmetry_equiv_pos_as_xyz
  1  'x, y, z'
loop_
 _atom_site_type_symbol
 _atom_site_label
 _atom_site_symmetry_multiplicity
 _atom_site_fract_x
 _atom_site_fract_y
 _atom_site_fract_z
 _atom_site_occupancy
  Al  Al0  1  0.50301000  0.49348000  0.50274000  1.0
  Al  Al1  1  0.00132000  0.49658000  0.50456000  1.0
  H  H2  1  0.23839000  0.57375000  0.40865000  1.0
  H  H3  1  0.81902000  0.34205000  0.54349000  1.0
  H  H4  1  0.93107000  0.42825000  0.73892000  1.0
  H  H5  1  0.85797000  0.42556000  0.88787000  1.0
  H  H6  1  0.36173000  0.59221000  0.89981000  1.0
  H  H7  1  0.54663000  0.59556000  0.09836000  1.0
  H  H8  1  0.20806000  0.41591000  0.12161000  1.0
  H  H9  1  0.14099000  0.41536000  0.27073000  1.0
  H  H10  1  0.84411000  0.87838000  0.55515000  1.0
  H  H11  1  0.28947000  0.87064000  0.44787000  1.0
  H  H12  1  0.71078000  0.11420000  0.54998000  1.0
  C  C13  1  0.64560000  0.72033000  0.50561000  1.0
  C  C14  1  0.78302000  0.49902000  0.35805000  1.0
  C  C15  1  0.35873000  0.26603000  0.49928000  1.0
  C  C16  1  0.21715000  0.50424000  0.64637000  1.0
  C  C17  1  0.18443000  0.51178000  0.73500000  1.0
  C  C18  1  0.02392000  0.46392000  0.77524000  1.0
  C  C19  1  0.98264000  0.46249000  0.85743000  1.0
  C  C20  1  0.10641000  0.50911000  0.90218000  1.0
  C  C21  1  0.26800000  0.55626000  0.86398000  1.0
  C  C22  1  0.30434000  0.56047000  0.78088000  1.0
  C  C23  1  0.67604000  0.55548000  0.13661000  1.0
  C  C24  1  0.88055000  0.50619000  0.10161000  1.0
  C  C25  1  0.05024000  0.45485000  0.14969000  1.0
  C  C26  1  0.01226000  0.45468000  0.23206000  1.0
  C  C27  1  0.80862000  0.50474000  0.26877000  1.0
  C  C28  1  0.64083000  0.55674000  0.21946000  1.0
  C  C29  1  0.42793000  0.12591000  0.49588000  1.0
  C  C30  1  0.57221000  0.86085000  0.50304000  1.0
  C  C31  1  0.31077000  0.05593000  0.46543000  1.0
  C  C32  1  0.69407000  0.92880000  0.53096000  1.0
  C  C33  1  0.38140000  0.92455000  0.47037000  1.0
  C  C34  1  0.62021000  0.05932000  0.52775000  1.0
  N  N35  1  0.08220000  0.51093000  0.98636000  1.0
  N  N36  1  0.90011000  0.51113000  0.01713000  1.0
  Cl  Cl37  1  0.49459000  0.63106000  0.73951000  1.0
  Cl  Cl38  1  0.38630000  0.63140000  0.25674000  1.0
  Cl  Cl39  1  0.08114000  0.12467000  0.41781000  1.0
  O  O40  1  0.51010000  0.66457000  0.49458000  1.0
  O  O41  1  0.93597000  0.51208000  0.39285000  1.0
  O  O42  1  0.16312000  0.32204000  0.49631000  1.0
  O  O43  1  0.39246000  0.51029000  0.61108000  1.0
  O  O44  1  0.50148000  0.31843000  0.50780000  1.0
  O  O45  1  0.06521000  0.48802000  0.61270000  1.0
  O  O46  1  0.83855000  0.66707000  0.51708000  1.0
  O  O47  1  0.61362000  0.48054000  0.39192000  1.0
  O  O48  1  0.23551000  0.54924000  0.46562000  1.0
  O  O49  1  0.77352000  0.43349000  0.53724000  1.0
