# generated using pymatgen
data_AgH14C13(NO)3
_symmetry_space_group_name_H-M   'P 1'
_cell_length_a   4.41654000
_cell_length_b   11.74040000
_cell_length_c   25.02800000
_cell_angle_alpha   90.00000000
_cell_angle_beta   90.00000000
_cell_angle_gamma   90.00000000
_symmetry_Int_Tables_number   1
_chemical_formula_structural   AgH14C13(NO)3
_chemical_formula_sum   'Ag4 H56 C52 N12 O12'
_cell_volume   1297.75050989
_cell_formula_units_Z   4
loop_
 _symmetry_equiv_pos_site_id
 _symmetry_equiv_pos_as_xyz
  1  'x, y, z'
loop_
 _atom_site_type_symbol
 _atom_site_label
 _atom_site_symmetry_multiplicity
 _atom_site_fract_x
 _atom_site_fract_y
 _atom_site_fract_z
 _atom_site_occupancy
  Ag  Ag0  1  0.00000000  0.09337000  0.25000000  1.0
  Ag  Ag1  1  0.00000000  0.40663000  0.75000000  1.0
  Ag  Ag2  1  0.00000000  0.90664000  0.75000000  1.0
  Ag  Ag3  1  0.00000000  0.59336000  0.25000000  1.0
  H  H4  1  0.65306000  0.06144000  0.16344000  1.0
  H  H5  1  0.34694000  0.06144000  0.33656000  1.0
  H  H6  1  0.34694000  0.43856000  0.66344000  1.0
  H  H7  1  0.65306000  0.43856000  0.83656000  1.0
  H  H8  1  0.34694000  0.93856000  0.83656000  1.0
  H  H9  1  0.65306000  0.93856000  0.66344000  1.0
  H  H10  1  0.65306000  0.56144000  0.33656000  1.0
  H  H11  1  0.34694000  0.56144000  0.16344000  1.0
  H  H12  1  0.66332000  0.19629000  0.18433000  1.0
  H  H13  1  0.33668000  0.19629000  0.31567000  1.0
  H  H14  1  0.33668000  0.30371000  0.68433000  1.0
  H  H15  1  0.66333000  0.30371000  0.81567000  1.0
  H  H16  1  0.33667000  0.80371000  0.81567000  1.0
  H  H17  1  0.66333000  0.80371000  0.68433000  1.0
  H  H18  1  0.66333000  0.69629000  0.31567000  1.0
  H  H19  1  0.33667000  0.69629000  0.18433000  1.0
  H  H20  1  0.06815000  0.32744000  0.15926000  1.0
  H  H21  1  0.93185000  0.32744000  0.34074000  1.0
  H  H22  1  0.93185000  0.17256000  0.65926000  1.0
  H  H23  1  0.06815000  0.17256000  0.84074000  1.0
  H  H24  1  0.93185000  0.67256000  0.84074000  1.0
  H  H25  1  0.06815000  0.67256000  0.65926000  1.0
  H  H26  1  0.06815000  0.82744000  0.34074000  1.0
  H  H27  1  0.93185000  0.82744000  0.15926000  1.0
  H  H28  1  0.98159000  0.99083000  0.09284000  1.0
  H  H29  1  0.01841000  0.99083000  0.40716000  1.0
  H  H30  1  0.01841000  0.50917000  0.59284000  1.0
  H  H31  1  0.98159000  0.50917000  0.90716000  1.0
  H  H32  1  0.01841000  0.00917000  0.90716000  1.0
  H  H33  1  0.98159000  0.00917000  0.59284000  1.0
  H  H34  1  0.98159000  0.49083000  0.40716000  1.0
  H  H35  1  0.01841000  0.49083000  0.09284000  1.0
  H  H36  1  0.74293000  0.17922000  0.98840000  1.0
  H  H37  1  0.25707000  0.17922000  0.51160000  1.0
  H  H38  1  0.25707000  0.32078000  0.48840000  1.0
  H  H39  1  0.74293000  0.32078000  0.01160000  1.0
  H  H40  1  0.25707000  0.82078000  0.01160000  1.0
  H  H41  1  0.74293000  0.82078000  0.48840000  1.0
  H  H42  1  0.74293000  0.67922000  0.51160000  1.0
  H  H43  1  0.25707000  0.67922000  0.98840000  1.0
  H  H44  1  0.32301000  0.04428000  0.01903000  1.0
  H  H45  1  0.67699000  0.04428000  0.48097000  1.0
  H  H46  1  0.67699000  0.45572000  0.51903000  1.0
  H  H47  1  0.32301000  0.45572000  0.98097000  1.0
  H  H48  1  0.67699000  0.95572000  0.98097000  1.0
  H  H49  1  0.32301000  0.95572000  0.51903000  1.0
  H  H50  1  0.32301000  0.54428000  0.48097000  1.0
  H  H51  1  0.67699000  0.54428000  0.01903000  1.0
  H  H52  1  0.43054000  0.37800000  0.08691000  1.0
  H  H53  1  0.56946000  0.37800000  0.41309000  1.0
  H  H54  1  0.56946000  0.12200000  0.58691000  1.0
  H  H55  1  0.43054000  0.12200000  0.91309000  1.0
  H  H56  1  0.56946000  0.62200000  0.91309000  1.0
  H  H57  1  0.43054000  0.62200000  0.58691000  1.0
  H  H58  1  0.43054000  0.87800000  0.41309000  1.0
  H  H59  1  0.56946000  0.87800000  0.08691000  1.0
  C  C60  1  0.99678000  0.15671000  0.13022000  1.0
  C  C61  1  0.00322000  0.15671000  0.36978000  1.0
  C  C62  1  0.00322000  0.34329000  0.63022000  1.0
  C  C63  1  0.99678000  0.34329000  0.86978000  1.0
  C  C64  1  0.00322000  0.84329000  0.86978000  1.0
  C  C65  1  0.99678000  0.84329000  0.63022000  1.0
  C  C66  1  0.99678000  0.65671000  0.36978000  1.0
  C  C67  1  0.00322000  0.65671000  0.13022000  1.0
  C  C68  1  0.12660000  0.26550000  0.12843000  1.0
  C  C69  1  0.87340000  0.26550000  0.37157000  1.0
  C  C70  1  0.87340000  0.23450000  0.62843000  1.0
  C  C71  1  0.12660000  0.23450000  0.87157000  1.0
  C  C72  1  0.87340000  0.73450000  0.87157000  1.0
  C  C73  1  0.12660000  0.73450000  0.62843000  1.0
  C  C74  1  0.12660000  0.76550000  0.37157000  1.0
  C  C75  1  0.87340000  0.76550000  0.12843000  1.0
  C  C76  1  0.39969000  0.21567000  0.04706000  1.0
  C  C77  1  0.60031000  0.21567000  0.45294000  1.0
  C  C78  1  0.60031000  0.28433000  0.54706000  1.0
  C  C79  1  0.39969000  0.28433000  0.95294000  1.0
  C  C80  1  0.60031000  0.78433000  0.95294000  1.0
  C  C81  1  0.39969000  0.78433000  0.54706000  1.0
  C  C82  1  0.39969000  0.71567000  0.45294000  1.0
  C  C83  1  0.60031000  0.71567000  0.04706000  1.0
  C  C84  1  0.07633000  0.07648000  0.09134000  1.0
  C  C85  1  0.92367000  0.07648000  0.40866000  1.0
  C  C86  1  0.92367000  0.42353000  0.59134000  1.0
  C  C87  1  0.07633000  0.42353000  0.90866000  1.0
  C  C88  1  0.92367000  0.92352000  0.90866000  1.0
  C  C89  1  0.07633000  0.92352000  0.59134000  1.0
  C  C90  1  0.07634000  0.57648000  0.40866000  1.0
  C  C91  1  0.92366000  0.57648000  0.09134000  1.0
  C  C92  1  0.59415000  0.25000000  0.00000000  1.0
  C  C93  1  0.40585000  0.25000000  0.50000000  1.0
  C  C94  1  0.40585000  0.75000000  0.00000000  1.0
  C  C95  1  0.59415000  0.75000000  0.50000000  1.0
  C  C96  1  0.27246000  0.10665000  0.05010000  1.0
  C  C97  1  0.72754000  0.10665000  0.44990000  1.0
  C  C98  1  0.72754000  0.39335000  0.55010000  1.0
  C  C99  1  0.27246000  0.39335000  0.94990000  1.0
  C  C100  1  0.72754000  0.89335000  0.94990000  1.0
  C  C101  1  0.27246000  0.89335000  0.55010000  1.0
  C  C102  1  0.27246000  0.60665000  0.44990000  1.0
  C  C103  1  0.72754000  0.60665000  0.05010000  1.0
  C  C104  1  0.32672000  0.29359000  0.08744000  1.0
  C  C105  1  0.67328000  0.29359000  0.41256000  1.0
  C  C106  1  0.67328000  0.20641000  0.58744000  1.0
  C  C107  1  0.32672000  0.20641000  0.91256000  1.0
  C  C108  1  0.67328000  0.70641000  0.91256000  1.0
  C  C109  1  0.32672000  0.70641000  0.58744000  1.0
  C  C110  1  0.32672000  0.79359000  0.41256000  1.0
  C  C111  1  0.67328000  0.79359000  0.08744000  1.0
  N  N112  1  0.79310000  0.12828000  0.17209000  1.0
  N  N113  1  0.20690000  0.12828000  0.32791000  1.0
  N  N114  1  0.20690000  0.37172000  0.67209000  1.0
  N  N115  1  0.79310000  0.37172000  0.82791000  1.0
  N  N116  1  0.20690000  0.87172000  0.82791000  1.0
  N  N117  1  0.79311000  0.87172000  0.67209000  1.0
  N  N118  1  0.79311000  0.62828000  0.32791000  1.0
  N  N119  1  0.20690000  0.62828000  0.17209000  1.0
  N  N120  1  0.50000000  0.88398000  0.25000000  1.0
  N  N121  1  0.50000000  0.61602000  0.75000000  1.0
  N  N122  1  0.50000000  0.11602000  0.75000000  1.0
  N  N123  1  0.50000000  0.38398000  0.25000000  1.0
  O  O124  1  0.37852000  0.93740000  0.21130000  1.0
  O  O125  1  0.62148000  0.93740000  0.28870000  1.0
  O  O126  1  0.62148000  0.56260000  0.71130000  1.0
  O  O127  1  0.37852000  0.56261000  0.78870000  1.0
  O  O128  1  0.62148000  0.06260000  0.78870000  1.0
  O  O129  1  0.37852000  0.06260000  0.71130000  1.0
  O  O130  1  0.37852000  0.43740000  0.28870000  1.0
  O  O131  1  0.62148000  0.43740000  0.21130000  1.0
  O  O132  1  0.50000000  0.77575000  0.25000000  1.0
  O  O133  1  0.50000000  0.72425000  0.75000000  1.0
  O  O134  1  0.50000000  0.22425000  0.75000000  1.0
  O  O135  1  0.50000000  0.27575000  0.25000000  1.0
