# generated using pymatgen
data_CuH16C26S2N2(O2F3)2
_symmetry_space_group_name_H-M   'P 1'
_cell_length_a   9.30674000
_cell_length_b   9.56239000
_cell_length_c   11.07170000
_cell_angle_alpha   66.44410000
_cell_angle_beta   77.48520000
_cell_angle_gamma   69.13740000
_symmetry_Int_Tables_number   1
_chemical_formula_structural   CuH16C26S2N2(O2F3)2
_chemical_formula_sum   'Cu1 H16 C26 S2 N2 O4 F6'
_cell_volume   840.81169780
_cell_formula_units_Z   1
loop_
 _symmetry_equiv_pos_site_id
 _symmetry_equiv_pos_as_xyz
  1  'x, y, z'
loop_
 _atom_site_type_symbol
 _atom_site_label
 _atom_site_symmetry_multiplicity
 _atom_site_fract_x
 _atom_site_fract_y
 _atom_site_fract_z
 _atom_site_occupancy
  Cu  Cu0  1  0.00000000  0.00000000  0.00000000  1.0
  H  H1  1  0.77660000  0.52671000  0.93041000  1.0
  H  H2  1  0.22339000  0.47327000  0.06959000  1.0
  H  H3  1  0.61683000  0.04804000  0.77338000  1.0
  H  H4  1  0.38318000  0.95195000  0.22664000  1.0
  H  H5  1  0.38161000  0.20389000  0.78353000  1.0
  H  H6  1  0.61840000  0.79611000  0.21647000  1.0
  H  H7  1  0.85224000  0.78972000  0.78533000  1.0
  H  H8  1  0.14776000  0.21026000  0.21468000  1.0
  H  H9  1  0.18742000  0.79507000  0.84891000  1.0
  H  H10  1  0.81259000  0.20493000  0.15108000  1.0
  H  H11  1  0.19073000  0.78071000  0.63028000  1.0
  H  H12  1  0.80928000  0.21931000  0.36970000  1.0
  H  H13  1  0.82513000  0.23299000  0.54057000  1.0
  H  H14  1  0.17487000  0.76702000  0.45943000  1.0
  H  H15  1  0.84036000  0.22673000  0.76374000  1.0
  H  H16  1  0.15965000  0.77329000  0.23626000  1.0
  C  C17  1  0.70086000  0.64895000  0.90934000  1.0
  C  C18  1  0.29913000  0.35103000  0.09067000  1.0
  C  C19  1  0.73770000  0.78840000  0.83337000  1.0
  C  C20  1  0.26230000  0.21158000  0.16664000  1.0
  C  C21  1  0.61105000  0.92662000  0.82715000  1.0
  C  C22  1  0.38896000  0.07336000  0.17286000  1.0
  C  C23  1  0.47843000  0.89123000  0.89878000  1.0
  C  C24  1  0.52157000  0.10877000  0.10123000  1.0
  C  C25  1  0.32263000  0.99458000  0.91692000  1.0
  C  C26  1  0.67737000  0.00542000  0.08309000  1.0
  C  C27  1  0.28812000  0.16093000  0.84701000  1.0
  C  C28  1  0.71188000  0.83906000  0.15300000  1.0
  C  C29  1  0.14552000  0.27637000  0.85381000  1.0
  C  C30  1  0.85448000  0.72362000  0.14619000  1.0
  C  C31  1  0.13819000  0.45233000  0.76917000  1.0
  C  C32  1  0.86180000  0.54769000  0.23083000  1.0
  C  C33  1  0.11018000  0.88960000  0.77635000  1.0
  C  C34  1  0.88983000  0.11041000  0.22365000  1.0
  C  C35  1  0.11001000  0.88305000  0.65337000  1.0
  C  C36  1  0.88998000  0.11697000  0.34662000  1.0
  C  C37  1  0.00449000  0.00396000  0.56445000  1.0
  C  C38  1  0.99550000  0.99605000  0.43554000  1.0
  C  C39  1  0.90748000  0.13182000  0.60447000  1.0
  C  C40  1  0.09253000  0.86819000  0.39553000  1.0
  C  C41  1  0.91499000  0.13088000  0.72866000  1.0
  C  C42  1  0.08502000  0.86914000  0.27133000  1.0
  S  S43  1  0.51278000  0.68648000  0.97417000  1.0
  S  S44  1  0.48721000  0.31352000  0.02583000  1.0
  N  N45  1  0.01315000  0.01041000  0.81394000  1.0
  N  N46  1  0.98685000  0.98959000  0.18606000  1.0
  O  O47  1  0.22793000  0.92051000  0.99699000  1.0
  O  O48  1  0.77208000  0.07948000  0.00301000  1.0
  O  O49  1  0.01856000  0.26136000  0.91730000  1.0
  O  O50  1  0.98144000  0.73864000  0.08269000  1.0
  F  F51  1  0.27675000  0.47632000  0.70649000  1.0
  F  F52  1  0.72323000  0.52369000  0.29347000  1.0
  F  F53  1  0.08295000  0.54556000  0.84549000  1.0
  F  F54  1  0.91708000  0.45443000  0.15453000  1.0
  F  F55  1  0.04010000  0.51437000  0.67177000  1.0
  F  F56  1  0.95984000  0.48565000  0.32826000  1.0
