# generated using pymatgen
data_CdP2H9C7NO7
_symmetry_space_group_name_H-M   'P 1'
_cell_length_a   5.66835000
_cell_length_b   12.74600000
_cell_length_c   15.98110000
_cell_angle_alpha   90.00060000
_cell_angle_beta   90.00030000
_cell_angle_gamma   102.10100000
_symmetry_Int_Tables_number   1
_chemical_formula_structural   CdP2H9C7NO7
_chemical_formula_sum   'Cd4 P8 H36 C28 N4 O28'
_cell_volume   1128.95908819
_cell_formula_units_Z   4
loop_
 _symmetry_equiv_pos_site_id
 _symmetry_equiv_pos_as_xyz
  1  'x, y, z'
loop_
 _atom_site_type_symbol
 _atom_site_label
 _atom_site_symmetry_multiplicity
 _atom_site_fract_x
 _atom_site_fract_y
 _atom_site_fract_z
 _atom_site_occupancy
  Cd  Cd0  1  0.80630000  0.04024000  0.42031000  1.0
  Cd  Cd1  1  0.19371000  0.45975000  0.92031000  1.0
  Cd  Cd2  1  0.19372000  0.95976000  0.57970000  1.0
  Cd  Cd3  1  0.80628000  0.54024000  0.07970000  1.0
  P  P4  1  0.25411000  0.90429000  0.36936000  1.0
  P  P5  1  0.74590000  0.59571000  0.86936000  1.0
  P  P6  1  0.74592000  0.09571000  0.63064000  1.0
  P  P7  1  0.25407000  0.40429000  0.13064000  1.0
  P  P8  1  0.31997000  0.14499000  0.33252000  1.0
  P  P9  1  0.68004000  0.35501000  0.83252000  1.0
  P  P10  1  0.68006000  0.85501000  0.66748000  1.0
  P  P11  1  0.31995000  0.64498000  0.16748000  1.0
  H  H12  1  0.46271000  0.26185000  0.95913000  1.0
  H  H13  1  0.53728000  0.23816000  0.45913000  1.0
  H  H14  1  0.53726000  0.73816000  0.04086000  1.0
  H  H15  1  0.46275000  0.76184000  0.54086000  1.0
  H  H16  1  0.27966000  0.75435000  0.27695000  1.0
  H  H17  1  0.72035000  0.74565000  0.77695000  1.0
  H  H18  1  0.72037000  0.24566000  0.72305000  1.0
  H  H19  1  0.27962000  0.25434000  0.22305000  1.0
  H  H20  1  0.94013000  0.90792000  0.26094000  1.0
  H  H21  1  0.05988000  0.59208000  0.76094000  1.0
  H  H22  1  0.05988000  0.09208000  0.73907000  1.0
  H  H23  1  0.94012000  0.40792000  0.23907000  1.0
  H  H24  1  0.05544000  0.00796000  0.10090000  1.0
  H  H25  1  0.94458000  0.49205000  0.60091000  1.0
  H  H26  1  0.94457000  0.99204000  0.89910000  1.0
  H  H27  1  0.05543000  0.50794000  0.39910000  1.0
  H  H28  1  0.09739000  0.14002000  0.98081000  1.0
  H  H29  1  0.90262000  0.35999000  0.48080000  1.0
  H  H30  1  0.90263000  0.85998000  0.01920000  1.0
  H  H31  1  0.09740000  0.64001000  0.51920000  1.0
  H  H32  1  0.81065000  0.26742000  0.04006000  1.0
  H  H33  1  0.18932000  0.23259000  0.54004000  1.0
  H  H34  1  0.18929000  0.73258000  0.95995000  1.0
  H  H35  1  0.81069000  0.76743000  0.45995000  1.0
  H  H36  1  0.80102000  0.14290000  0.16153000  1.0
  H  H37  1  0.19896000  0.35711000  0.66152000  1.0
  H  H38  1  0.19893000  0.85710000  0.83848000  1.0
  H  H39  1  0.80104000  0.64290000  0.33848000  1.0
  H  H40  1  0.59655000  0.99674000  0.24020000  1.0
  H  H41  1  0.40344000  0.50326000  0.74019000  1.0
  H  H42  1  0.40345000  0.00327000  0.75979000  1.0
  H  H43  1  0.59654000  0.49673000  0.25980000  1.0
  H  H44  1  0.35383000  0.90608000  0.19385000  1.0
  H  H45  1  0.64620000  0.59391000  0.69384000  1.0
  H  H46  1  0.64621000  0.09391000  0.80614000  1.0
  H  H47  1  0.35381000  0.40608000  0.30615000  1.0
  C  C48  1  0.42696000  0.06280000  0.14034000  1.0
  C  C49  1  0.57303000  0.43720000  0.64033000  1.0
  C  C50  1  0.57301000  0.93720000  0.85968000  1.0
  C  C51  1  0.42699000  0.56280000  0.35967000  1.0
  C  C52  1  0.22741000  0.06153000  0.08786000  1.0
  C  C53  1  0.77259000  0.43848000  0.58786000  1.0
  C  C54  1  0.77258000  0.93847000  0.91214000  1.0
  C  C55  1  0.22740000  0.56151000  0.41214000  1.0
  C  C56  1  0.24659000  0.13325000  0.02198000  1.0
  C  C57  1  0.75344000  0.36676000  0.52197000  1.0
  C  C58  1  0.75344000  0.86675000  0.97802000  1.0
  C  C59  1  0.24659000  0.63324000  0.47802000  1.0
  C  C60  1  0.65255000  0.20561000  0.05503000  1.0
  C  C61  1  0.34743000  0.29439000  0.55502000  1.0
  C  C62  1  0.34739000  0.79438000  0.94498000  1.0
  C  C63  1  0.65260000  0.70562000  0.44498000  1.0
  C  C64  1  0.64265000  0.13576000  0.12170000  1.0
  C  C65  1  0.35735000  0.36425000  0.62169000  1.0
  C  C66  1  0.35734000  0.86425000  0.87832000  1.0
  C  C67  1  0.64267000  0.63576000  0.37831000  1.0
  C  C68  1  0.41422000  0.98987000  0.21465000  1.0
  C  C69  1  0.58576000  0.51013000  0.71465000  1.0
  C  C70  1  0.58577000  0.01013000  0.78535000  1.0
  C  C71  1  0.41423000  0.48987000  0.28535000  1.0
  C  C72  1  0.24384000  0.00729000  0.28687000  1.0
  C  C73  1  0.75616000  0.49272000  0.78686000  1.0
  C  C74  1  0.75616000  0.99271000  0.71314000  1.0
  C  C75  1  0.24382000  0.50728000  0.21314000  1.0
  N  N76  1  0.45620000  0.20231000  0.00687000  1.0
  N  N77  1  0.54381000  0.29769000  0.50687000  1.0
  N  N78  1  0.54381000  0.79769000  0.99314000  1.0
  N  N79  1  0.45620000  0.70232000  0.49313000  1.0
  O  O80  1  0.51470000  0.90375000  0.39315000  1.0
  O  O81  1  0.48530000  0.59624000  0.89314000  1.0
  O  O82  1  0.48532000  0.09625000  0.60685000  1.0
  O  O83  1  0.51467000  0.40375000  0.10686000  1.0
  O  O84  1  0.12455000  0.79977000  0.32713000  1.0
  O  O85  1  0.87548000  0.70022000  0.82713000  1.0
  O  O86  1  0.87550000  0.20023000  0.67287000  1.0
  O  O87  1  0.12450000  0.29977000  0.17287000  1.0
  O  O88  1  0.10093000  0.93340000  0.44280000  1.0
  O  O89  1  0.89907000  0.56660000  0.94280000  1.0
  O  O90  1  0.89911000  0.06661000  0.55719000  1.0
  O  O91  1  0.10091000  0.43339000  0.05720000  1.0
  O  O92  1  0.53370000  0.14746000  0.39203000  1.0
  O  O93  1  0.46630000  0.35255000  0.89203000  1.0
  O  O94  1  0.46632000  0.85255000  0.60797000  1.0
  O  O95  1  0.53367000  0.64745000  0.10796000  1.0
  O  O96  1  0.09726000  0.17063000  0.37443000  1.0
  O  O97  1  0.90274000  0.32937000  0.87444000  1.0
  O  O98  1  0.90276000  0.82936000  0.62557000  1.0
  O  O99  1  0.09722000  0.67063000  0.12558000  1.0
  O  O100  1  0.41122000  0.22622000  0.26048000  1.0
  O  O101  1  0.58878000  0.27378000  0.76048000  1.0
  O  O102  1  0.58877000  0.77378000  0.73952000  1.0
  O  O103  1  0.41124000  0.72623000  0.23951000  1.0
  O  O104  1  0.99363000  0.98677000  0.25961000  1.0
  O  O105  1  0.00637000  0.51322000  0.75962000  1.0
  O  O106  1  0.00637000  0.01322000  0.74038000  1.0
  O  O107  1  0.99362000  0.48677000  0.24039000  1.0
