# generated using pymatgen
data_LaH16C24S3NO7
_symmetry_space_group_name_H-M   'P 1'
_cell_length_a   8.25714000
_cell_length_b   14.03000000
_cell_length_c   14.03000000
_cell_angle_alpha   71.34410000
_cell_angle_beta   87.76650000
_cell_angle_gamma   87.76590000
_symmetry_Int_Tables_number   1
_chemical_formula_structural   LaH16C24S3NO7
_chemical_formula_sum   'La2 H32 C48 S6 N2 O14'
_cell_volume   1538.16855995
_cell_formula_units_Z   2
loop_
 _symmetry_equiv_pos_site_id
 _symmetry_equiv_pos_as_xyz
  1  'x, y, z'
loop_
 _atom_site_type_symbol
 _atom_site_label
 _atom_site_symmetry_multiplicity
 _atom_site_fract_x
 _atom_site_fract_y
 _atom_site_fract_z
 _atom_site_occupancy
  La  La0  1  0.99886000  0.22021000  0.25139000  1.0
  La  La1  1  0.49886000  0.25140000  0.22021000  1.0
  H  H2  1  0.49518000  0.60655000  0.42890000  1.0
  H  H3  1  0.99518000  0.42890000  0.60655000  1.0
  H  H4  1  0.57089000  0.39979000  0.72581000  1.0
  H  H5  1  0.07089000  0.72581000  0.39979000  1.0
  H  H6  1  0.73191000  0.70390000  0.64810000  1.0
  H  H7  1  0.23191000  0.64809000  0.70390000  1.0
  H  H8  1  0.53468000  0.95955000  0.25074000  1.0
  H  H9  1  0.03468000  0.25074000  0.95955000  1.0
  H  H10  1  0.46216000  0.76883000  0.34197000  1.0
  H  H11  1  0.96216000  0.34196000  0.76883000  1.0
  H  H12  1  0.20934000  0.20942000  0.60547000  1.0
  H  H13  1  0.70933000  0.60547000  0.20942000  1.0
  H  H14  1  0.36931000  0.31347000  0.69789000  1.0
  H  H15  1  0.86930000  0.69789000  0.31346000  1.0
  H  H16  1  0.95994000  0.57326000  0.97066000  1.0
  H  H17  1  0.45993000  0.97066000  0.57327000  1.0
  H  H18  1  0.87561000  0.65762000  0.78151000  1.0
  H  H19  1  0.37560000  0.78151000  0.65763000  1.0
  H  H20  1  0.79975000  0.12866000  0.06293000  1.0
  H  H21  1  0.29977000  0.06295000  0.12866000  1.0
  H  H22  1  0.78164000  0.91710000  0.99834000  1.0
  H  H23  1  0.28165000  0.99833000  0.91711000  1.0
  H  H24  1  0.67127000  0.02620000  0.00812000  1.0
  H  H25  1  0.17128000  0.00812000  0.02621000  1.0
  H  H26  1  0.64245000  0.90648000  0.10169000  1.0
  H  H27  1  0.14245000  0.10169000  0.90648000  1.0
  H  H28  1  0.04254000  0.91956000  0.21130000  1.0
  H  H29  1  0.54256000  0.21130000  0.91955000  1.0
  H  H30  1  0.00783000  0.84545000  0.13040000  1.0
  H  H31  1  0.50784000  0.13040000  0.84545000  1.0
  H  H32  1  0.86661000  0.84483000  0.23058000  1.0
  H  H33  1  0.36661000  0.23058000  0.84482000  1.0
  C  C34  1  0.61942000  0.66592000  0.52947000  1.0
  C  C35  1  0.11942000  0.52947000  0.66592000  1.0
  C  C36  1  0.54107000  0.59063000  0.50434000  1.0
  C  C37  1  0.04106000  0.50434000  0.59062000  1.0
  C  C38  1  0.51951000  0.49512000  0.57508000  1.0
  C  C39  1  0.01951000  0.57508000  0.49512000  1.0
  C  C40  1  0.58164000  0.47497000  0.67162000  1.0
  C  C41  1  0.08164000  0.67161000  0.47497000  1.0
  C  C42  1  0.65898000  0.54916000  0.69931000  1.0
  C  C43  1  0.15898000  0.69931000  0.54916000  1.0
  C  C44  1  0.67564000  0.64466000  0.62732000  1.0
  C  C45  1  0.17565000  0.62732000  0.64466000  1.0
  C  C46  1  0.63662000  0.76598000  0.45578000  1.0
  C  C47  1  0.13662000  0.45578000  0.76598000  1.0
  C  C48  1  0.70542000  0.94459000  0.36813000  1.0
  C  C49  1  0.20542000  0.36813000  0.94459000  1.0
  C  C50  1  0.59038000  0.91034000  0.31861000  1.0
  C  C51  1  0.09038000  0.31861000  0.91034000  1.0
  C  C52  1  0.55281000  0.80878000  0.36741000  1.0
  C  C53  1  0.05281000  0.36741000  0.80878000  1.0
  C  C54  1  0.77478000  0.04501000  0.33885000  1.0
  C  C55  1  0.27477000  0.33885000  0.04501000  1.0
  C  C56  1  0.43124000  0.41824000  0.55032000  1.0
  C  C57  1  0.93123000  0.55032000  0.41824000  1.0
  C  C58  1  0.27907000  0.32112000  0.46482000  1.0
  C  C59  1  0.77906000  0.46481000  0.32113000  1.0
  C  C60  1  0.27440000  0.27806000  0.56850000  1.0
  C  C61  1  0.77440000  0.56850000  0.27806000  1.0
  C  C62  1  0.36205000  0.33260000  0.61679000  1.0
  C  C63  1  0.86205000  0.61679000  0.33260000  1.0
  C  C64  1  0.20210000  0.28454000  0.39106000  1.0
  C  C65  1  0.70210000  0.39105000  0.28455000  1.0
  C  C66  1  0.72340000  0.52865000  0.79968000  1.0
  C  C67  1  0.22340000  0.79968000  0.52865000  1.0
  C  C68  1  0.80391000  0.45065000  0.97782000  1.0
  C  C69  1  0.30392000  0.97781000  0.45065000  1.0
  C  C70  1  0.87438000  0.54271000  0.93178000  1.0
  C  C71  1  0.37438000  0.93178000  0.54271000  1.0
  C  C72  1  0.82841000  0.58715000  0.83131000  1.0
  C  C73  1  0.32840000  0.83131000  0.58716000  1.0
  C  C74  1  0.83823000  0.37922000  0.07774000  1.0
  C  C75  1  0.33824000  0.07774000  0.37922000  1.0
  C  C76  1  0.88662000  0.07111000  0.10701000  1.0
  C  C77  1  0.38665000  0.10702000  0.07111000  1.0
  C  C78  1  0.73191000  0.95545000  0.05078000  1.0
  C  C79  1  0.23192000  0.05078000  0.95546000  1.0
  C  C80  1  0.95068000  0.89151000  0.17349000  1.0
  C  C81  1  0.45068000  0.17349000  0.89150000  1.0
  S  S82  1  0.76727000  0.85125000  0.47453000  1.0
  S  S83  1  0.26727000  0.47453000  0.85125000  1.0
  S  S84  1  0.39036000  0.42863000  0.42772000  1.0
  S  S85  1  0.89036000  0.42772000  0.42864000  1.0
  S  S86  1  0.67908000  0.42048000  0.89699000  1.0
  S  S87  1  0.17908000  0.89699000  0.42047000  1.0
  N  N88  1  0.86062000  0.97683000  0.10778000  1.0
  N  N89  1  0.36063000  0.10778000  0.97683000  1.0
  O  O90  1  0.71188000  0.11433000  0.26438000  1.0
  O  O91  1  0.21188000  0.26438000  0.11433000  1.0
  O  O92  1  0.89815000  0.05974000  0.38273000  1.0
  O  O93  1  0.39814000  0.38274000  0.05975000  1.0
  O  O94  1  0.08857000  0.22258000  0.42046000  1.0
  O  O95  1  0.58857000  0.42046000  0.22258000  1.0
  O  O96  1  0.24892000  0.31784000  0.29725000  1.0
  O  O97  1  0.74893000  0.29724000  0.31784000  1.0
  O  O98  1  0.94469000  0.40007000  0.13029000  1.0
  O  O99  1  0.44468000  0.13029000  0.40007000  1.0
  O  O100  1  0.76536000  0.29402000  0.10736000  1.0
  O  O101  1  0.26537000  0.10735000  0.29402000  1.0
  O  O102  1  0.00006000  0.09278000  0.15215000  1.0
  O  O103  1  0.50007000  0.15216000  0.09277000  1.0
