# generated using pymatgen
data_Zn3H22(C3O5)4
_symmetry_space_group_name_H-M   'P 1'
_cell_length_a   11.72190000
_cell_length_b   13.79600000
_cell_length_c   16.22990000
_cell_angle_alpha   90.00010000
_cell_angle_beta   90.00010000
_cell_angle_gamma   66.89000000
_symmetry_Int_Tables_number   1
_chemical_formula_structural   Zn3H22(C3O5)4
_chemical_formula_sum   'Zn12 H88 C48 O80'
_cell_volume   2414.00551726
_cell_formula_units_Z   4
loop_
 _symmetry_equiv_pos_site_id
 _symmetry_equiv_pos_as_xyz
  1  'x, y, z'
loop_
 _atom_site_type_symbol
 _atom_site_label
 _atom_site_symmetry_multiplicity
 _atom_site_fract_x
 _atom_site_fract_y
 _atom_site_fract_z
 _atom_site_occupancy
  Zn  Zn0  1  0.39589000  0.60095000  0.54670000  1.0
  Zn  Zn1  1  0.10411000  0.89905000  0.04670000  1.0
  Zn  Zn2  1  0.60411000  0.39905000  0.45330000  1.0
  Zn  Zn3  1  0.89589000  0.10095000  0.95330000  1.0
  Zn  Zn4  1  0.26101000  0.28349000  0.53237000  1.0
  Zn  Zn5  1  0.23899000  0.21651000  0.03237000  1.0
  Zn  Zn6  1  0.73899000  0.71651000  0.46763000  1.0
  Zn  Zn7  1  0.76101000  0.78349000  0.96763000  1.0
  Zn  Zn8  1  0.04900000  0.87301000  0.36950000  1.0
  Zn  Zn9  1  0.45100000  0.62699000  0.86950000  1.0
  Zn  Zn10  1  0.95100000  0.12699000  0.63050000  1.0
  Zn  Zn11  1  0.54900000  0.37301000  0.13050000  1.0
  H  H12  1  0.09298000  0.46068000  0.42187000  1.0
  H  H13  1  0.40702000  0.03932000  0.92187000  1.0
  H  H14  1  0.90702000  0.53932000  0.57813000  1.0
  H  H15  1  0.59298000  0.96068000  0.07813000  1.0
  H  H16  1  0.14798000  0.40386000  0.28504000  1.0
  H  H17  1  0.35202000  0.09614000  0.78504000  1.0
  H  H18  1  0.85202000  0.59615000  0.71496000  1.0
  H  H19  1  0.64798000  0.90386000  0.21496000  1.0
  H  H20  1  0.33521000  0.36924000  0.21574000  1.0
  H  H21  1  0.16479000  0.13076000  0.71574000  1.0
  H  H22  1  0.66479000  0.63076000  0.78426000  1.0
  H  H23  1  0.83521000  0.86924000  0.28426000  1.0
  H  H24  1  0.16423000  0.52446000  0.19395000  1.0
  H  H25  1  0.33577000  0.97554000  0.69395000  1.0
  H  H26  1  0.83577000  0.47554000  0.80605000  1.0
  H  H27  1  0.66423000  0.02446000  0.30605000  1.0
  H  H28  1  0.10773000  0.69167000  0.25330000  1.0
  H  H29  1  0.39226000  0.80833000  0.75331000  1.0
  H  H30  1  0.89227000  0.30833000  0.74670000  1.0
  H  H31  1  0.60773000  0.19167000  0.24669000  1.0
  H  H32  1  0.03279000  0.57125000  0.30275000  1.0
  H  H33  1  0.46721000  0.92875000  0.80275000  1.0
  H  H34  1  0.96721000  0.42875000  0.69725000  1.0
  H  H35  1  0.53279000  0.07125000  0.19725000  1.0
  H  H36  1  0.28932000  0.79774000  0.54952000  1.0
  H  H37  1  0.21068000  0.70226000  0.04952000  1.0
  H  H38  1  0.71068000  0.20226000  0.45048000  1.0
  H  H39  1  0.78932000  0.29774000  0.95048000  1.0
  H  H40  1  0.34895000  0.61711000  0.69356000  1.0
  H  H41  1  0.15105000  0.88289000  0.19356000  1.0
  H  H42  1  0.65105000  0.38289000  0.30644000  1.0
  H  H43  1  0.84895000  0.11711000  0.80644000  1.0
  H  H44  1  0.23681000  0.30163000  0.71111000  1.0
  H  H45  1  0.26319000  0.19837000  0.21111000  1.0
  H  H46  1  0.76319000  0.69837000  0.28889000  1.0
  H  H47  1  0.73681000  0.80163000  0.78889000  1.0
  H  H48  1  0.52901000  0.21820000  0.52568000  1.0
  H  H49  1  0.97099000  0.28181000  0.02568000  1.0
  H  H50  1  0.47099000  0.78181000  0.47432000  1.0
  H  H51  1  0.02901000  0.71820000  0.97432000  1.0
  H  H52  1  0.17253000  0.15640000  0.57572000  1.0
  H  H53  1  0.32747000  0.34360000  0.07571000  1.0
  H  H54  1  0.82747000  0.84360000  0.42429000  1.0
  H  H55  1  0.67253000  0.65640000  0.92429000  1.0
  H  H56  1  0.08115000  0.92638000  0.53864000  1.0
  H  H57  1  0.41885000  0.57362000  0.03864000  1.0
  H  H58  1  0.91885000  0.07361000  0.46136000  1.0
  H  H59  1  0.58115000  0.42638000  0.96136000  1.0
  H  H60  1  0.10107000  0.02871000  0.30875000  1.0
  H  H61  1  0.39893000  0.47129000  0.80875000  1.0
  H  H62  1  0.89893000  0.97129000  0.69125000  1.0
  H  H63  1  0.60107000  0.52871000  0.19125000  1.0
  H  H64  1  0.29175000  0.76254000  0.45262000  1.0
  H  H65  1  0.20825000  0.73746000  0.95262000  1.0
  H  H66  1  0.70825000  0.23746000  0.54738000  1.0
  H  H67  1  0.79175000  0.26254000  0.04738000  1.0
  H  H68  1  0.59352000  0.58211000  0.44645000  1.0
  H  H69  1  0.90648000  0.91789000  0.94645000  1.0
  H  H70  1  0.40648000  0.41789000  0.55355000  1.0
  H  H71  1  0.09352000  0.08211000  0.05355000  1.0
  H  H72  1  0.25591000  0.39465000  0.66304000  1.0
  H  H73  1  0.24409000  0.10535000  0.16304000  1.0
  H  H74  1  0.74409000  0.60535000  0.33696000  1.0
  H  H75  1  0.75591000  0.89465000  0.83696000  1.0
  H  H76  1  0.23498000  0.70415000  0.65292000  1.0
  H  H77  1  0.26502000  0.79585000  0.15292000  1.0
  H  H78  1  0.76502000  0.29585000  0.34708000  1.0
  H  H79  1  0.73498000  0.20415000  0.84708000  1.0
  H  H80  1  0.27920000  0.09817000  0.51002000  1.0
  H  H81  1  0.22080000  0.40183000  0.01002000  1.0
  H  H82  1  0.72080000  0.90183000  0.48998000  1.0
  H  H83  1  0.77920000  0.59817000  0.98998000  1.0
  H  H84  1  0.01719000  0.84465000  0.52780000  1.0
  H  H85  1  0.48281000  0.65535000  0.02781000  1.0
  H  H86  1  0.98281000  0.15535000  0.47219000  1.0
  H  H87  1  0.51719000  0.34465000  0.97219000  1.0
  H  H88  1  0.22622000  0.94920000  0.34305000  1.0
  H  H89  1  0.27378000  0.55080000  0.84305000  1.0
  H  H90  1  0.77378000  0.05080000  0.65695000  1.0
  H  H91  1  0.72622000  0.44920000  0.15695000  1.0
  H  H92  1  0.46341000  0.21729000  0.61034000  1.0
  H  H93  1  0.03659000  0.28271000  0.11034000  1.0
  H  H94  1  0.53659000  0.78271000  0.38966000  1.0
  H  H95  1  0.96341000  0.71729000  0.88966000  1.0
  H  H96  1  0.46972000  0.59226000  0.38595000  1.0
  H  H97  1  0.03028000  0.90774000  0.88595000  1.0
  H  H98  1  0.53028000  0.40774000  0.61405000  1.0
  H  H99  1  0.96972000  0.09226000  0.11405000  1.0
  C  C100  1  0.24272000  0.49472000  0.46289000  1.0
  C  C101  1  0.25728000  0.00528000  0.96289000  1.0
  C  C102  1  0.75728000  0.50528000  0.53711000  1.0
  C  C103  1  0.74272000  0.99472000  0.03711000  1.0
  C  C104  1  0.16362000  0.48281000  0.39205000  1.0
  C  C105  1  0.33638000  0.01719000  0.89205000  1.0
  C  C106  1  0.83638000  0.51719000  0.60795000  1.0
  C  C107  1  0.66362000  0.98281000  0.10795000  1.0
  C  C108  1  0.22721000  0.39844000  0.32479000  1.0
  C  C109  1  0.27279000  0.10156000  0.82479000  1.0
  C  C110  1  0.77279000  0.60156000  0.67521000  1.0
  C  C111  1  0.72721000  0.89844000  0.17521000  1.0
  C  C112  1  0.31326000  0.42639000  0.26641000  1.0
  C  C113  1  0.18674000  0.07361000  0.76641000  1.0
  C  C114  1  0.68674000  0.57361000  0.73359000  1.0
  C  C115  1  0.81326000  0.92639000  0.23359000  1.0
  C  C116  1  0.24023000  0.53588000  0.22784000  1.0
  C  C117  1  0.25977000  0.96412000  0.72784000  1.0
  C  C118  1  0.75977000  0.46412000  0.77216000  1.0
  C  C119  1  0.74023000  0.03588000  0.27216000  1.0
  C  C120  1  0.17413000  0.62619000  0.28923000  1.0
  C  C121  1  0.32587000  0.87381000  0.78923000  1.0
  C  C122  1  0.82587000  0.37381000  0.71077000  1.0
  C  C123  1  0.67413000  0.12620000  0.21077000  1.0
  C  C124  1  0.09423000  0.58870000  0.34706000  1.0
  C  C125  1  0.40576000  0.91130000  0.84706000  1.0
  C  C126  1  0.90577000  0.41130000  0.65294000  1.0
  C  C127  1  0.59423000  0.08870000  0.15294000  1.0
  C  C128  1  0.28147000  0.27911000  0.34490000  1.0
  C  C129  1  0.21853000  0.22089000  0.84490000  1.0
  C  C130  1  0.71853000  0.72089000  0.65510000  1.0
  C  C131  1  0.78147000  0.77911000  0.15510000  1.0
  C  C132  1  0.43904000  0.40718000  0.30472000  1.0
  C  C133  1  0.06096000  0.09282000  0.80472000  1.0
  C  C134  1  0.56096000  0.59282000  0.69528000  1.0
  C  C135  1  0.93904000  0.90718000  0.19528000  1.0
  C  C136  1  0.30167000  0.57181000  0.15842000  1.0
  C  C137  1  0.19833000  0.92819000  0.65842000  1.0
  C  C138  1  0.69833000  0.42819000  0.84158000  1.0
  C  C139  1  0.80167000  0.07181000  0.34158000  1.0
  C  C140  1  0.26562000  0.66960000  0.32538000  1.0
  C  C141  1  0.23438000  0.83040000  0.82538000  1.0
  C  C142  1  0.73438000  0.33040000  0.67462000  1.0
  C  C143  1  0.76562000  0.16960000  0.17462000  1.0
  C  C144  1  0.99523000  0.67004000  0.40035000  1.0
  C  C145  1  0.50477000  0.82996000  0.90035000  1.0
  C  C146  1  0.00477000  0.32996000  0.59966000  1.0
  C  C147  1  0.49523000  0.17004000  0.09965000  1.0
  O  O148  1  0.26372000  0.57763000  0.46765000  1.0
  O  O149  1  0.23628000  0.92237000  0.96765000  1.0
  O  O150  1  0.73628000  0.42237000  0.53235000  1.0
  O  O151  1  0.76372000  0.07763000  0.03235000  1.0
  O  O152  1  0.27965000  0.42292000  0.51902000  1.0
  O  O153  1  0.22035000  0.07708000  0.01902000  1.0
  O  O154  1  0.72035000  0.57708000  0.48098000  1.0
  O  O155  1  0.77965000  0.92292000  0.98098000  1.0
  O  O156  1  0.26023000  0.24499000  0.41369000  1.0
  O  O157  1  0.23977000  0.25501000  0.91369000  1.0
  O  O158  1  0.73977000  0.75501000  0.58631000  1.0
  O  O159  1  0.76022000  0.74499000  0.08631000  1.0
  O  O160  1  0.33727000  0.21871000  0.28615000  1.0
  O  O161  1  0.16273000  0.28129000  0.78615000  1.0
  O  O162  1  0.66273000  0.78129000  0.71385000  1.0
  O  O163  1  0.83727000  0.71871000  0.21385000  1.0
  O  O164  1  0.45420000  0.39268000  0.38135000  1.0
  O  O165  1  0.04580000  0.10732000  0.88135000  1.0
  O  O166  1  0.54580000  0.60732000  0.61865000  1.0
  O  O167  1  0.95420000  0.89268000  0.11865000  1.0
  O  O168  1  0.52944000  0.39900000  0.25582000  1.0
  O  O169  1  0.97056000  0.10100000  0.75582000  1.0
  O  O170  1  0.47056000  0.60100000  0.74418000  1.0
  O  O171  1  0.02944000  0.89900000  0.24418000  1.0
  O  O172  1  0.38505000  0.50539000  0.11229000  1.0
  O  O173  1  0.11495000  0.99461000  0.61229000  1.0
  O  O174  1  0.61495000  0.49461000  0.88771000  1.0
  O  O175  1  0.88505000  0.00539000  0.38771000  1.0
  O  O176  1  0.25659000  0.66924000  0.14226000  1.0
  O  O177  1  0.24341000  0.83076000  0.64226000  1.0
  O  O178  1  0.74340000  0.33076000  0.85774000  1.0
  O  O179  1  0.75659000  0.16924000  0.35774000  1.0
  O  O180  1  0.37986000  0.61808000  0.31333000  1.0
  O  O181  1  0.12014000  0.88192000  0.81333000  1.0
  O  O182  1  0.62014000  0.38192000  0.68667000  1.0
  O  O183  1  0.87985000  0.11808000  0.18667000  1.0
  O  O184  1  0.22466000  0.76061000  0.36147000  1.0
  O  O185  1  0.27534000  0.73939000  0.86147000  1.0
  O  O186  1  0.77534000  0.23939000  0.63853000  1.0
  O  O187  1  0.72466000  0.26061000  0.13853000  1.0
  O  O188  1  0.96704000  0.76929000  0.39033000  1.0
  O  O189  1  0.53296000  0.73071000  0.89033000  1.0
  O  O190  1  0.03296000  0.23071000  0.60968000  1.0
  O  O191  1  0.46704000  0.26929000  0.10967000  1.0
  O  O192  1  0.93372000  0.63544000  0.44716000  1.0
  O  O193  1  0.56628000  0.86456000  0.94716000  1.0
  O  O194  1  0.06628000  0.36456000  0.55284000  1.0
  O  O195  1  0.43372000  0.13544000  0.05284000  1.0
  O  O196  1  0.34358000  0.75514000  0.50336000  1.0
  O  O197  1  0.15642000  0.74486000  0.00336000  1.0
  O  O198  1  0.65642000  0.24486000  0.49664000  1.0
  O  O199  1  0.84358000  0.25514000  0.99664000  1.0
  O  O200  1  0.28018000  0.62682000  0.65231000  1.0
  O  O201  1  0.21982000  0.87318000  0.15232000  1.0
  O  O202  1  0.71982000  0.37318000  0.34769000  1.0
  O  O203  1  0.78018000  0.12682000  0.84769000  1.0
  O  O204  1  0.51871000  0.56337000  0.43880000  1.0
  O  O205  1  0.98129000  0.93662000  0.93880000  1.0
  O  O206  1  0.48129000  0.43662000  0.56119000  1.0
  O  O207  1  0.01871000  0.06337000  0.06119000  1.0
  O  O208  1  0.28553000  0.31813000  0.66532000  1.0
  O  O209  1  0.21447000  0.18187000  0.16532000  1.0
  O  O210  1  0.71447000  0.68187000  0.33468000  1.0
  O  O211  1  0.78553000  0.81813000  0.83468000  1.0
  O  O212  1  0.46334000  0.19983000  0.55206000  1.0
  O  O213  1  0.03666000  0.30017000  0.05206000  1.0
  O  O214  1  0.53666000  0.80017000  0.44794000  1.0
  O  O215  1  0.96334000  0.69983000  0.94794000  1.0
  O  O216  1  0.26333000  0.13396000  0.56320000  1.0
  O  O217  1  0.23667000  0.36604000  0.06320000  1.0
  O  O218  1  0.73668000  0.86604000  0.43680000  1.0
  O  O219  1  0.76333000  0.63396000  0.93680000  1.0
  O  O220  1  0.06785000  0.87523000  0.49918000  1.0
  O  O221  1  0.43215000  0.62477000  0.99918000  1.0
  O  O222  1  0.93215000  0.12477000  0.50082000  1.0
  O  O223  1  0.56785000  0.37523000  0.00082000  1.0
  O  O224  1  0.14081000  0.99173000  0.35896000  1.0
  O  O225  1  0.35919000  0.50827000  0.85896000  1.0
  O  O226  1  0.85919000  0.00826000  0.64104000  1.0
  O  O227  1  0.64081000  0.49173000  0.14104000  1.0
