# generated using pymatgen
data_ZnH8C10(S2N5)2
_symmetry_space_group_name_H-M   'P 1'
_cell_length_a   7.66497000
_cell_length_b   9.54082839
_cell_length_c   13.03830080
_cell_angle_alpha   79.34796680
_cell_angle_beta   72.90910437
_cell_angle_gamma   66.33488556
_symmetry_Int_Tables_number   1
_chemical_formula_structural   ZnH8C10(S2N5)2
_chemical_formula_sum   'Zn2 H16 C20 S8 N20'
_cell_volume   832.30609207
_cell_formula_units_Z   2
loop_
 _symmetry_equiv_pos_site_id
 _symmetry_equiv_pos_as_xyz
  1  'x, y, z'
loop_
 _atom_site_type_symbol
 _atom_site_label
 _atom_site_symmetry_multiplicity
 _atom_site_fract_x
 _atom_site_fract_y
 _atom_site_fract_z
 _atom_site_occupancy
  Zn  Zn0  1  0.64103000  0.76223000  0.74620000  1.0
  Zn  Zn1  1  0.14964000  0.23781000  0.25376000  1.0
  H  H2  1  0.24009000  0.71758000  0.89980000  1.0
  H  H3  1  0.85779000  0.28219000  0.10031000  1.0
  H  H4  1  0.81276000  0.39073000  0.80660000  1.0
  H  H5  1  0.00998000  0.60949000  0.19343000  1.0
  H  H6  1  0.55018000  0.20384000  0.03805000  1.0
  H  H7  1  0.79160000  0.79615000  0.96212000  1.0
  H  H8  1  0.75636000  0.15591000  0.92347000  1.0
  H  H9  1  0.83527000  0.84418000  0.07668000  1.0
  H  H10  1  0.85745000  0.66695000  0.50246000  1.0
  H  H11  1  0.02677000  0.33344000  0.49731000  1.0
  H  H12  1  0.25128000  0.88181000  0.63934000  1.0
  H  H13  1  0.77233000  0.11823000  0.36060000  1.0
  H  H14  1  0.30040000  0.90365000  0.35270000  1.0
  H  H15  1  0.55674000  0.09655000  0.64733000  1.0
  H  H16  1  0.12832000  0.87694000  0.47343000  1.0
  H  H17  1  0.47887000  0.12291000  0.52656000  1.0
  C  C18  1  0.36497000  0.60911000  0.89523000  1.0
  C  C19  1  0.86945000  0.39076000  0.10486000  1.0
  C  C20  1  0.65895000  0.44632000  0.84624000  1.0
  C  C21  1  0.95150000  0.55377000  0.15381000  1.0
  C  C22  1  0.59567000  0.21383000  0.94947000  1.0
  C  C23  1  0.75862000  0.78610000  0.05069000  1.0
  C  C24  1  0.50157000  0.13988000  0.90182000  1.0
  C  C25  1  0.54298000  0.85990000  0.09837000  1.0
  C  C26  1  0.29490000  0.04180000  0.84625000  1.0
  C  C27  1  0.18269000  0.95805000  0.15390000  1.0
  C  C28  1  0.69962000  0.71526000  0.51302000  1.0
  C  C29  1  0.92777000  0.28506000  0.48681000  1.0
  C  C30  1  0.39157000  0.82627000  0.58386000  1.0
  C  C31  1  0.80169000  0.17376000  0.41607000  1.0
  C  C32  1  0.27539000  0.82277000  0.42206000  1.0
  C  C33  1  0.52029000  0.17725000  0.57788000  1.0
  C  C34  1  0.28337000  0.67962000  0.38553000  1.0
  C  C35  1  0.34854000  0.32042000  0.61429000  1.0
  C  C36  1  0.33753000  0.44531000  0.31466000  1.0
  C  C37  1  0.09742000  0.55466000  0.68515000  1.0
  S  S38  1  0.25107000  0.20023000  0.91375000  1.0
  S  S39  1  0.36471000  0.79954000  0.08649000  1.0
  S  S40  1  0.11682000  0.00333000  0.82180000  1.0
  S  S41  1  0.94172000  0.99650000  0.17836000  1.0
  S  S42  1  0.49312000  0.52682000  0.33400000  1.0
  S  S43  1  0.35384000  0.47336000  0.66583000  1.0
  S  S44  1  0.42881000  0.26786000  0.26503000  1.0
  S  S45  1  0.96160000  0.73204000  0.73485000  1.0
  N  N46  1  0.54903000  0.59534000  0.83339000  1.0
  N  N47  1  0.97791000  0.40469000  0.16664000  1.0
  N  N48  1  0.54480000  0.37605000  0.91391000  1.0
  N  N49  1  0.83460000  0.62391000  0.08621000  1.0
  N  N50  1  0.35675000  0.47740000  0.94596000  1.0
  N  N51  1  0.78004000  0.52243000  0.05420000  1.0
  N  N52  1  0.60481000  0.01590000  0.85046000  1.0
  N  N53  1  0.47096000  0.98395000  0.14968000  1.0
  N  N54  1  0.49146000  0.96029000  0.81914000  1.0
  N  N55  1  0.27072000  0.03962000  0.18094000  1.0
  N  N56  1  0.56875000  0.77773000  0.60495000  1.0
  N  N57  1  0.95135000  0.22244000  0.39493000  1.0
  N  N58  1  0.41886000  0.79415000  0.48309000  1.0
  N  N59  1  0.69610000  0.20596000  0.51683000  1.0
  N  N60  1  0.61340000  0.72426000  0.43643000  1.0
  N  N61  1  0.77408000  0.27599000  0.56343000  1.0
  N  N62  1  0.12099000  0.66527000  0.38506000  1.0
  N  N63  1  0.17143000  0.33461000  0.61474000  1.0
  N  N64  1  0.14912000  0.53401000  0.34473000  1.0
  N  N65  1  0.02793000  0.46584000  0.65504000  1.0
