# generated using pymatgen
data_LiH11(C7O2)2
_symmetry_space_group_name_H-M   'P 1'
_cell_length_a   5.31498000
_cell_length_b   8.27809000
_cell_length_c   13.66110000
_cell_angle_alpha   99.15990000
_cell_angle_beta   92.91890000
_cell_angle_gamma   93.87060000
_symmetry_Int_Tables_number   1
_chemical_formula_structural   LiH11(C7O2)2
_chemical_formula_sum   'Li2 H22 C28 O8'
_cell_volume   590.87975805
_cell_formula_units_Z   2
loop_
 _symmetry_equiv_pos_site_id
 _symmetry_equiv_pos_as_xyz
  1  'x, y, z'
loop_
 _atom_site_type_symbol
 _atom_site_label
 _atom_site_symmetry_multiplicity
 _atom_site_fract_x
 _atom_site_fract_y
 _atom_site_fract_z
 _atom_site_occupancy
  Li  Li0  1  0.30159000  0.43834000  0.43807000  1.0
  Li  Li1  1  0.69837000  0.56167000  0.56193000  1.0
  H  H2  1  0.91548000  0.26881000  0.54251000  1.0
  H  H3  1  0.08448000  0.73118000  0.45749000  1.0
  H  H4  1  0.57236000  0.72589000  0.72124000  1.0
  H  H5  1  0.42762000  0.27411000  0.27875000  1.0
  H  H6  1  0.87804000  0.49125000  0.79653000  1.0
  H  H7  1  0.12194000  0.50876000  0.20348000  1.0
  H  H8  1  0.53136000  0.93711000  0.42341000  1.0
  H  H9  1  0.46862000  0.06288000  0.57658000  1.0
  H  H10  1  0.64446000  0.87193000  0.89430000  1.0
  H  H11  1  0.35554000  0.12806000  0.10569000  1.0
  H  H12  1  0.33446000  0.82862000  0.01963000  1.0
  H  H13  1  0.66557000  0.17138000  0.98037000  1.0
  H  H14  1  0.53000000  0.66528000  0.12759000  1.0
  H  H15  1  0.47006000  0.33473000  0.87239000  1.0
  H  H16  1  0.94941000  0.63628000  0.97041000  1.0
  H  H17  1  0.05061000  0.36372000  0.02960000  1.0
  H  H18  1  0.12403000  0.04221000  0.23465000  1.0
  H  H19  1  0.87599000  0.95782000  0.76536000  1.0
  H  H20  1  0.33432000  0.72152000  0.29097000  1.0
  H  H21  1  0.66570000  0.27847000  0.70901000  1.0
  H  H22  1  0.92284000  0.82759000  0.09883000  1.0
  H  H23  1  0.07722000  0.17244000  0.90117000  1.0
  C  C24  1  0.22189000  0.59647000  0.74808000  1.0
  C  C25  1  0.77808000  0.40352000  0.25193000  1.0
  C  C26  1  0.17735000  0.50595000  0.64375000  1.0
  C  C27  1  0.82262000  0.49405000  0.35625000  1.0
  C  C28  1  0.43744000  0.70453000  0.77603000  1.0
  C  C29  1  0.56255000  0.29546000  0.22397000  1.0
  C  C30  1  0.84087000  0.00280000  0.33688000  1.0
  C  C31  1  0.15913000  0.99720000  0.66312000  1.0
  C  C32  1  0.04606000  0.57416000  0.81879000  1.0
  C  C33  1  0.95394000  0.42583000  0.18121000  1.0
  C  C34  1  0.96019000  0.13658000  0.41367000  1.0
  C  C35  1  0.03981000  0.86342000  0.58633000  1.0
  C  C36  1  0.61773000  0.91288000  0.35263000  1.0
  C  C37  1  0.38227000  0.08710000  0.64737000  1.0
  C  C38  1  0.47664000  0.78788000  0.87324000  1.0
  C  C39  1  0.52337000  0.21211000  0.12676000  1.0
  C  C40  1  0.30193000  0.76389000  0.94355000  1.0
  C  C41  1  0.69809000  0.23610000  0.05645000  1.0
  C  C42  1  0.61594000  0.76105000  0.18617000  1.0
  C  C43  1  0.38410000  0.23896000  0.81382000  1.0
  C  C44  1  0.08657000  0.65652000  0.91607000  1.0
  C  C45  1  0.91345000  0.34347000  0.08393000  1.0
  C  C46  1  0.95100000  0.97095000  0.24536000  1.0
  C  C47  1  0.04902000  0.02906000  0.75465000  1.0
  C  C48  1  0.50631000  0.79178000  0.27743000  1.0
  C  C49  1  0.49371000  0.20821000  0.72256000  1.0
  C  C50  1  0.83785000  0.85117000  0.17014000  1.0
  C  C51  1  0.16220000  0.14885000  0.82986000  1.0
  O  O52  1  0.35240000  0.50901000  0.58408000  1.0
  O  O53  1  0.64754000  0.49100000  0.41592000  1.0
  O  O54  1  0.95821000  0.43105000  0.61868000  1.0
  O  O55  1  0.04175000  0.56894000  0.38133000  1.0
  O  O56  1  0.84037000  0.16328000  0.49672000  1.0
  O  O57  1  0.15959000  0.83672000  0.50329000  1.0
  O  O58  1  0.15487000  0.21958000  0.39940000  1.0
  O  O59  1  0.84510000  0.78042000  0.60062000  1.0
