# generated using pymatgen
data_MnH16C19(NO4)2
_symmetry_space_group_name_H-M   'P 1'
_cell_length_a   7.49625000
_cell_length_b   9.63941000
_cell_length_c   14.54342357
_cell_angle_alpha   103.39875745
_cell_angle_beta   97.47727683
_cell_angle_gamma   112.61700000
_symmetry_Int_Tables_number   1
_chemical_formula_structural   MnH16C19(NO4)2
_chemical_formula_sum   'Mn2 H32 C38 N4 O16'
_cell_volume   915.11622499
_cell_formula_units_Z   2
loop_
 _symmetry_equiv_pos_site_id
 _symmetry_equiv_pos_as_xyz
  1  'x, y, z'
loop_
 _atom_site_type_symbol
 _atom_site_label
 _atom_site_symmetry_multiplicity
 _atom_site_fract_x
 _atom_site_fract_y
 _atom_site_fract_z
 _atom_site_occupancy
  Mn  Mn0  1  0.04292000  0.52352000  0.79953000  1.0
  Mn  Mn1  1  0.74360000  0.72363000  0.20070000  1.0
  H  H2  1  0.56538000  0.85604000  0.82216000  1.0
  H  H3  1  0.24249000  0.03268000  0.17783000  1.0
  H  H4  1  0.73349000  0.74958000  0.55188000  1.0
  H  H5  1  0.68049000  0.19629000  0.44812000  1.0
  H  H6  1  0.68762000  0.17836000  0.73983000  1.0
  H  H7  1  0.44784000  0.43731000  0.25979000  1.0
  H  H8  1  0.67272000  0.48184000  0.56155000  1.0
  H  H9  1  0.61078000  0.91906000  0.43841000  1.0
  H  H10  1  0.96404000  0.76151000  0.98043000  1.0
  H  H11  1  0.48313000  0.78138000  0.01983000  1.0
  H  H12  1  0.06450000  0.42939000  0.58397000  1.0
  H  H13  1  0.97971000  0.84483000  0.41622000  1.0
  H  H14  1  0.17019000  0.55786000  0.45496000  1.0
  H  H15  1  0.21475000  0.10217000  0.54508000  1.0
  H  H16  1  0.25133000  0.10890000  0.78734000  1.0
  H  H17  1  0.96496000  0.32116000  0.21242000  1.0
  H  H18  1  0.03847000  0.04622000  0.04278000  1.0
  H  H19  1  0.49593000  0.00383000  0.95738000  1.0
  H  H20  1  0.19098000  0.22524000  0.94476000  1.0
  H  H21  1  0.74714000  0.28057000  0.05513000  1.0
  H  H22  1  0.20057000  0.30497000  0.70918000  1.0
  H  H23  1  0.99144000  0.59513000  0.29119000  1.0
  H  H24  1  0.96258000  0.22096000  0.67280000  1.0
  H  H25  1  0.78969000  0.54739000  0.32753000  1.0
  H  H26  1  0.27617000  0.84852000  0.49408000  1.0
  H  H27  1  0.28219000  0.35360000  0.50571000  1.0
  H  H28  1  0.26148000  0.99855000  0.65551000  1.0
  H  H29  1  0.10638000  0.34245000  0.34430000  1.0
  H  H30  1  0.00492000  0.51888000  0.98514000  1.0
  H  H31  1  0.52030000  0.53415000  0.01488000  1.0
  H  H32  1  0.79493000  0.48431000  0.91699000  1.0
  H  H33  1  0.37850000  0.56746000  0.08313000  1.0
  C  C34  1  0.13409000  0.87140000  0.79929000  1.0
  C  C35  1  0.83520000  0.07178000  0.20061000  1.0
  C  C36  1  0.56342000  0.36085000  0.70728000  1.0
  C  C37  1  0.35623000  0.65248000  0.29264000  1.0
  C  C38  1  0.59169000  0.52029000  0.69987000  1.0
  C  C39  1  0.39167000  0.81930000  0.30012000  1.0
  C  C40  1  0.58940000  0.77381000  0.76558000  1.0
  C  C41  1  0.32309000  0.00703000  0.23441000  1.0
  C  C42  1  0.68420000  0.71339000  0.61330000  1.0
  C  C43  1  0.57002000  0.09880000  0.38666000  1.0
  C  C44  1  0.55580000  0.62402000  0.77229000  1.0
  C  C45  1  0.28315000  0.85060000  0.22775000  1.0
  C  C46  1  0.65813000  0.82045000  0.68773000  1.0
  C  C47  1  0.46951000  0.13146000  0.31222000  1.0
  C  C48  1  0.65065000  0.56397000  0.61931000  1.0
  C  C49  1  0.53087000  0.94346000  0.38067000  1.0
  C  C50  1  0.02693000  0.84104000  0.93888000  1.0
  C  C51  1  0.58806000  0.90230000  0.06126000  1.0
  C  C52  1  0.70652000  0.98267000  0.68266000  1.0
  C  C53  1  0.52322000  0.29876000  0.31721000  1.0
  C  C54  1  0.10808000  0.55492000  0.59565000  1.0
  C  C55  1  0.01196000  0.95870000  0.40448000  1.0
  C  C56  1  0.16779000  0.62623000  0.52521000  1.0
  C  C57  1  0.14212000  0.10034000  0.47482000  1.0
  C  C58  1  0.15340000  0.79172000  0.70365000  1.0
  C  C59  1  0.94983000  0.08750000  0.29625000  1.0
  C  C60  1  0.18532000  0.03385000  0.83077000  1.0
  C  C61  1  0.85539000  0.20284000  0.16908000  1.0
  C  C62  1  0.06933000  0.00068000  0.97382000  1.0
  C  C63  1  0.59587000  0.02713000  0.02629000  1.0
  C  C64  1  0.15231000  0.09924000  0.91924000  1.0
  C  C65  1  0.73375000  0.18008000  0.08074000  1.0
  C  C66  1  0.48679000  0.57848000  0.85811000  1.0
  C  C67  1  0.12864000  0.71941000  0.14189000  1.0
  C  C68  1  0.22455000  0.78806000  0.54678000  1.0
  C  C69  1  0.17759000  0.24056000  0.45310000  1.0
  C  C70  1  0.21603000  0.87182000  0.63657000  1.0
  C  C71  1  0.07952000  0.23456000  0.36324000  1.0
  N  N72  1  0.05944000  0.77717000  0.85405000  1.0
  N  N73  1  0.70542000  0.92298000  0.14601000  1.0
  N  N74  1  0.10221000  0.63520000  0.68300000  1.0
  N  N75  1  0.91902000  0.95167000  0.31705000  1.0
  O  O76  1  0.39040000  0.25924000  0.69970000  1.0
  O  O77  1  0.19076000  0.55843000  0.30019000  1.0
  O  O78  1  0.78335000  0.02978000  0.61820000  1.0
  O  O79  1  0.66417000  0.41020000  0.38177000  1.0
  O  O80  1  0.72053000  0.33707000  0.71929000  1.0
  O  O81  1  0.50135000  0.61672000  0.28061000  1.0
  O  O82  1  0.66410000  0.07177000  0.75226000  1.0
  O  O83  1  0.41182000  0.31833000  0.24734000  1.0
  O  O84  1  0.07752000  0.32163000  0.71299000  1.0
  O  O85  1  0.86486000  0.60831000  0.28759000  1.0
  O  O86  1  0.58024000  0.52353000  0.90714000  1.0
  O  O87  1  0.17334000  0.61584000  0.09266000  1.0
  O  O88  1  0.91637000  0.46590000  0.91730000  1.0
  O  O89  1  0.49978000  0.54893000  0.08278000  1.0
  O  O90  1  0.33826000  0.60186000  0.87907000  1.0
  O  O91  1  0.95904000  0.72170000  0.12099000  1.0
