# generated using pymatgen
data_Zn4H4C24S4N2Cl2O17
_symmetry_space_group_name_H-M   'P 1'
_cell_length_a   19.61220000
_cell_length_b   19.64440000
_cell_length_c   33.29660000
_cell_angle_alpha   79.09300000
_cell_angle_beta   79.26320000
_cell_angle_gamma   63.81380000
_symmetry_Int_Tables_number   1
_chemical_formula_structural   Zn4H4C24S4N2Cl2O17
_chemical_formula_sum   'Zn16 H16 C96 S16 N8 Cl8 O68'
_cell_volume   11226.41727645
_cell_formula_units_Z   4
loop_
 _symmetry_equiv_pos_site_id
 _symmetry_equiv_pos_as_xyz
  1  'x, y, z'
loop_
 _atom_site_type_symbol
 _atom_site_label
 _atom_site_symmetry_multiplicity
 _atom_site_fract_x
 _atom_site_fract_y
 _atom_site_fract_z
 _atom_site_occupancy
  Zn  Zn0  1  0.59841000  0.94500000  0.52309000  1.0
  Zn  Zn1  1  0.51608000  0.01336000  0.43966000  1.0
  Zn  Zn2  1  0.43731000  0.94232000  0.51844000  1.0
  Zn  Zn3  1  0.44595000  0.10049000  0.51989000  1.0
  Zn  Zn4  1  0.65056000  0.30451000  0.72785000  1.0
  Zn  Zn5  1  0.81004000  0.31074000  0.73422000  1.0
  Zn  Zn6  1  0.73469000  0.22837000  0.80970000  1.0
  Zn  Zn7  1  0.80725000  0.15260000  0.72611000  1.0
  Zn  Zn8  1  0.23397000  0.73355000  0.31150000  1.0
  Zn  Zn9  1  0.30401000  0.65071000  0.22934000  1.0
  Zn  Zn10  1  0.15036000  0.80660000  0.23022000  1.0
  Zn  Zn11  1  0.31400000  0.80696000  0.23362000  1.0
  Zn  Zn12  1  0.93971000  0.43904000  0.01671000  1.0
  Zn  Zn13  1  0.94666000  0.59779000  0.02296000  1.0
  Zn  Zn14  1  0.10063000  0.44151000  0.02154000  1.0
  Zn  Zn15  1  0.01860000  0.51632000  0.94025000  1.0
  H  H16  1  0.54793000  0.25044000  0.65150000  1.0
  H  H17  1  0.69650000  0.99862000  0.60133000  1.0
  H  H18  1  0.30689000  0.79127000  0.39928000  1.0
  H  H19  1  0.44157000  0.95826000  0.35306000  1.0
  H  H20  1  0.76058000  0.53574000  0.65794000  1.0
  H  H21  1  0.29867000  0.51747000  0.40016000  1.0
  H  H22  1  0.02046000  0.79524000  0.40075000  1.0
  H  H23  1  0.03639000  0.04986000  0.65647000  1.0
  H  H24  1  0.84763000  0.35410000  0.95156000  1.0
  H  H25  1  0.89235000  0.40055000  0.80036000  1.0
  H  H26  1  0.23121000  0.45770000  0.85140000  1.0
  H  H27  1  0.85802000  0.84031000  0.95860000  1.0
  H  H28  1  0.00441000  0.69777000  0.09699000  1.0
  H  H29  1  0.25267000  0.55209000  0.15204000  1.0
  H  H30  1  0.71672000  0.70138000  0.09661000  1.0
  H  H31  1  0.98879000  0.21147000  0.09320000  1.0
  C  C32  1  0.68198000  0.93592000  0.44084000  1.0
  C  C33  1  0.42886000  0.92947000  0.43343000  1.0
  C  C34  1  0.55826000  0.82006000  0.56303000  1.0
  C  C35  1  0.31816000  0.06504000  0.56095000  1.0
  C  C36  1  0.56811000  0.07111000  0.56831000  1.0
  C  C37  1  0.43948000  0.17935000  0.43728000  1.0
  C  C38  1  0.68998000  0.43210000  0.68706000  1.0
  C  C39  1  0.81084000  0.32167000  0.82123000  1.0
  C  C40  1  0.56882000  0.30603000  0.81026000  1.0
  C  C41  1  0.81502000  0.06431000  0.80762000  1.0
  C  C42  1  0.68126000  0.18242000  0.67981000  1.0
  C  C43  1  0.93806000  0.18825000  0.69164000  1.0
  C  C44  1  0.30941000  0.56632000  0.31290000  1.0
  C  C45  1  0.17971000  0.68326000  0.18177000  1.0
  C  C46  1  0.06612000  0.81307000  0.31361000  1.0
  C  C47  1  0.19033000  0.93242000  0.19170000  1.0
  C  C48  1  0.32503000  0.81487000  0.31886000  1.0
  C  C49  1  0.43054000  0.68849000  0.18727000  1.0
  C  C50  1  0.81672000  0.56177000  0.06204000  1.0
  C  C51  1  0.07534000  0.56562000  0.06857000  1.0
  C  C52  1  0.06006000  0.31465000  0.06212000  1.0
  C  C53  1  0.18554000  0.43703000  0.93822000  1.0
  C  C54  1  0.93149000  0.43111000  0.93043000  1.0
  C  C55  1  0.93717000  0.68427000  0.93981000  1.0
  C  C56  1  0.59281000  0.10100000  0.59849000  1.0
  C  C57  1  0.65333000  0.14972000  0.65267000  1.0
  C  C58  1  0.54977000  0.17245000  0.61350000  1.0
  C  C59  1  0.69517000  0.07705000  0.63885000  1.0
  C  C60  1  0.58073000  0.19529000  0.64002000  1.0
  C  C61  1  0.66434000  0.05439000  0.61219000  1.0
  C  C62  1  0.39958000  0.89964000  0.40545000  1.0
  C  C63  1  0.35180000  0.84711000  0.34686000  1.0
  C  C64  1  0.36048000  0.85225000  0.41859000  1.0
  C  C65  1  0.38983000  0.89545000  0.33373000  1.0
  C  C66  1  0.33738000  0.82739000  0.38924000  1.0
  C  C67  1  0.41263000  0.92070000  0.36305000  1.0
  C  C68  1  0.54446000  0.69466000  0.59769000  1.0
  C  C69  1  0.70348000  0.55265000  0.65005000  1.0
  C  C70  1  0.58273000  0.74179000  0.58522000  1.0
  C  C71  1  0.66385000  0.50743000  0.66210000  1.0
  C  C72  1  0.65920000  0.62133000  0.62683000  1.0
  C  C73  1  0.58705000  0.62655000  0.62203000  1.0
  C  C74  1  0.42024000  0.27228000  0.36844000  1.0
  C  C75  1  0.32675000  0.47374000  0.37946000  1.0
  C  C76  1  0.41210000  0.25360000  0.41103000  1.0
  C  C77  1  0.33535000  0.49034000  0.33707000  1.0
  C  C78  1  0.35869000  0.39387000  0.39076000  1.0
  C  C79  1  0.39109000  0.35206000  0.35666000  1.0
  C  C80  1  0.77316000  0.92800000  0.37221000  1.0
  C  C81  1  0.97566000  0.82560000  0.38065000  1.0
  C  C82  1  0.75620000  0.91675000  0.41476000  1.0
  C  C83  1  0.99059000  0.83780000  0.33829000  1.0
  C  C84  1  0.89601000  0.85809000  0.39281000  1.0
  C  C85  1  0.85259000  0.89372000  0.35934000  1.0
  C  C86  1  0.19817000  0.16279000  0.60136000  1.0
  C  C87  1  0.05520000  0.09560000  0.65099000  1.0
  C  C88  1  0.24174000  0.09399000  0.58496000  1.0
  C  C89  1  0.01307000  0.16468000  0.66661000  1.0
  C  C90  1  0.12336000  0.09492000  0.62765000  1.0
  C  C91  1  0.13126000  0.16332000  0.62632000  1.0
  C  C92  1  0.83901000  0.34934000  0.85095000  1.0
  C  C93  1  0.90117000  0.40508000  0.90097000  1.0
  C  C94  1  0.82611000  0.33639000  0.89434000  1.0
  C  C95  1  0.91338000  0.41860000  0.85757000  1.0
  C  C96  1  0.85736000  0.36417000  0.91817000  1.0
  C  C97  1  0.88253000  0.39054000  0.83375000  1.0
  C  C98  1  0.47854000  0.32370000  0.87980000  1.0
  C  C99  1  0.27603000  0.42555000  0.87135000  1.0
  C  C100  1  0.49550000  0.33488000  0.83718000  1.0
  C  C101  1  0.26113000  0.41202000  0.91365000  1.0
  C  C102  1  0.35560000  0.39192000  0.85910000  1.0
  C  C103  1  0.39894000  0.35434000  0.89248000  1.0
  C  C104  1  0.88220000  0.91464000  0.82021000  1.0
  C  C105  1  0.87482000  0.83070000  0.92642000  1.0
  C  C106  1  0.84369000  0.98797000  0.83198000  1.0
  C  C107  1  0.91271000  0.75865000  0.91379000  1.0
  C  C108  1  0.86243000  0.88740000  0.89198000  1.0
  C  C109  1  0.89157000  0.85696000  0.85411000  1.0
  C  C110  1  0.15072000  0.65637000  0.15209000  1.0
  C  C111  1  0.10571000  0.59298000  0.09736000  1.0
  C  C112  1  0.07989000  0.69806000  0.13599000  1.0
  C  C113  1  0.17696000  0.55154000  0.11317000  1.0
  C  C114  1  0.05903000  0.66577000  0.10929000  1.0
  C  C115  1  0.19779000  0.58390000  0.13993000  1.0
  C  C116  1  0.54745000  0.59447000  0.14327000  1.0
  C  C117  1  0.69747000  0.65607000  0.10114000  1.0
  C  C118  1  0.50334000  0.66328000  0.15965000  1.0
  C  C119  1  0.74049000  0.58663000  0.08597000  1.0
  C  C120  1  0.62743000  0.65815000  0.12258000  1.0
  C  C121  1  0.61897000  0.59035000  0.12295000  1.0
  C  C122  1  0.20787000  0.05208000  0.15059000  1.0
  C  C123  1  0.04605000  0.19497000  0.10072000  1.0
  C  C124  1  0.16909000  0.00579000  0.16457000  1.0
  C  C125  1  0.08582000  0.23991000  0.08761000  1.0
  C  C126  1  0.09042000  0.12708000  0.12446000  1.0
  C  C127  1  0.16285000  0.12213000  0.12856000  1.0
  S  S128  1  0.67203000  0.70102000  0.60236000  1.0
  S  S129  1  0.57309000  0.54769000  0.64599000  1.0
  S  S130  1  0.36649000  0.33423000  0.43645000  1.0
  S  S131  1  0.38277000  0.41021000  0.31076000  1.0
  S  S132  1  0.83814000  0.86600000  0.43908000  1.0
  S  S133  1  0.90902000  0.88723000  0.31299000  1.0
  S  S134  1  0.19931000  0.03094000  0.59925000  1.0
  S  S135  1  0.05578000  0.22834000  0.65389000  1.0
  S  S136  1  0.41350000  0.38588000  0.81293000  1.0
  S  S137  1  0.34252000  0.35852000  0.93873000  1.0
  S  S138  1  0.82148000  0.98584000  0.88489000  1.0
  S  S139  1  0.93262000  0.75901000  0.86049000  1.0
  S  S140  1  0.54867000  0.72403000  0.14855000  1.0
  S  S141  1  0.69706000  0.52353000  0.09775000  1.0
  S  S142  1  0.07822000  0.04725000  0.14929000  1.0
  S  S143  1  0.17613000  0.20116000  0.10420000  1.0
  N  N144  1  0.47124000  0.70687000  0.58639000  1.0
  N  N145  1  0.44941000  0.21999000  0.33719000  1.0
  N  N146  1  0.71926000  0.97337000  0.34225000  1.0
  N  N147  1  0.21276000  0.23098000  0.59311000  1.0
  N  N148  1  0.53268000  0.28956000  0.91032000  1.0
  N  N149  1  0.91561000  0.89448000  0.77888000  1.0
  N  N150  1  0.52539000  0.53264000  0.14325000  1.0
  N  N151  1  0.28745000  0.03298000  0.15426000  1.0
  Cl  Cl152  1  0.45844000  0.23377000  0.60228000  1.0
  Cl  Cl153  1  0.78255000  0.01165000  0.65401000  1.0
  Cl  Cl154  1  0.33753000  0.82301000  0.46940000  1.0
  Cl  Cl155  1  0.40790000  0.92845000  0.28294000  1.0
  Cl  Cl156  1  0.77374000  0.28744000  0.92066000  1.0
  Cl  Cl157  1  0.96404000  0.46931000  0.83087000  1.0
  Cl  Cl158  1  0.01608000  0.78904000  0.14642000  1.0
  Cl  Cl159  1  0.24166000  0.46144000  0.10211000  1.0
  O  O160  1  0.50039000  0.99959000  0.50036000  1.0
  O  O161  1  0.68395000  0.93579000  0.47912000  1.0
  O  O162  1  0.45270000  0.98038000  0.41660000  1.0
  O  O163  1  0.48706000  0.86034000  0.56182000  1.0
  O  O164  1  0.62443000  0.94812000  0.42360000  1.0
  O  O165  1  0.61255000  0.84036000  0.54813000  1.0
  O  O166  1  0.42875000  0.90193000  0.47124000  1.0
  O  O167  1  0.33408000  0.00722000  0.54255000  1.0
  O  O168  1  0.51527000  0.11912000  0.54718000  1.0
  O  O169  1  0.36142000  0.09731000  0.56172000  1.0
  O  O170  1  0.60372000  0.99937000  0.56568000  1.0
  O  O171  1  0.49256000  0.12183000  0.42171000  1.0
  O  O172  1  0.40745000  0.18151000  0.47461000  1.0
  O  O173  1  0.75017000  0.25010000  0.74938000  1.0
  O  O174  1  0.64550000  0.39843000  0.69229000  1.0
  O  O175  1  0.83542000  0.33233000  0.78329000  1.0
  O  O176  1  0.62571000  0.25037000  0.82528000  1.0
  O  O177  1  0.75410000  0.40775000  0.70102000  1.0
  O  O178  1  0.56688000  0.33916000  0.77317000  1.0
  O  O179  1  0.76548000  0.29018000  0.83556000  1.0
  O  O180  1  0.79588000  0.12013000  0.82829000  1.0
  O  O181  1  0.75262000  0.15211000  0.68268000  1.0
  O  O182  1  0.80961000  0.06850000  0.76973000  1.0
  O  O183  1  0.63075000  0.23968000  0.69738000  1.0
  O  O184  1  0.90794000  0.25627000  0.70143000  1.0
  O  O185  1  0.90999000  0.13894000  0.70098000  1.0
  O  O186  1  0.25015000  0.74985000  0.25114000  1.0
  O  O187  1  0.28082000  0.62431000  0.33276000  1.0
  O  O188  1  0.25011000  0.64431000  0.18730000  1.0
  O  O189  1  0.06574000  0.83499000  0.27486000  1.0
  O  O190  1  0.31797000  0.56659000  0.27383000  1.0
  O  O191  1  0.12438000  0.77261000  0.33286000  1.0
  O  O192  1  0.13262000  0.74119000  0.19938000  1.0
  O  O193  1  0.14788000  0.89778000  0.19242000  1.0
  O  O194  1  0.35485000  0.81314000  0.28148000  1.0
  O  O195  1  0.24592000  0.91161000  0.21241000  1.0
  O  O196  1  0.27453000  0.79031000  0.33538000  1.0
  O  O197  1  0.40842000  0.63789000  0.20595000  1.0
  O  O198  1  0.39792000  0.76014000  0.19081000  1.0
  O  O199  1  0.00055000  0.49919000  0.00058000  1.0
  O  O200  1  0.84517000  0.49440000  0.05147000  1.0
  O  O201  1  0.00688000  0.60850000  0.06041000  1.0
  O  O202  1  0.10606000  0.34680000  0.05569000  1.0
  O  O203  1  0.84715000  0.60915000  0.05399000  1.0
  O  O204  1  0.99526000  0.34019000  0.04871000  1.0
  O  O205  1  0.11927000  0.50289000  0.05442000  1.0
  O  O206  1  0.18532000  0.41415000  0.97683000  1.0
  O  O207  1  0.97739000  0.46166000  0.91548000  1.0
  O  O208  1  0.12757000  0.47910000  0.91893000  1.0
  O  O209  1  0.90874000  0.41981000  0.96862000  1.0
  O  O210  1  0.92484000  0.68492000  0.97876000  1.0
  O  O211  1  0.96921000  0.62558000  0.92027000  1.0
  O  O212  1  0.43542000  0.67510000  0.61158000  1.0
  O  O213  1  0.45108000  0.74380000  0.55300000  1.0
  O  O214  1  0.47731000  0.24334000  0.30374000  1.0
  O  O215  1  0.44173000  0.15962000  0.34487000  1.0
  O  O216  1  0.73888000  0.95239000  0.30724000  1.0
  O  O217  1  0.66125000  0.02966000  0.35255000  1.0
  O  O218  1  0.18574000  0.27354000  0.62091000  1.0
  O  O219  1  0.24696000  0.24397000  0.55959000  1.0
  O  O220  1  0.50986000  0.25988000  0.94335000  1.0
  O  O221  1  0.59443000  0.29470000  0.90268000  1.0
  O  O222  1  0.92040000  0.83221000  0.77200000  1.0
  O  O223  1  0.93945000  0.93711000  0.75450000  1.0
  O  O224  1  0.57948000  0.46810000  0.14150000  1.0
  O  O225  1  0.45730000  0.54774000  0.14306000  1.0
  O  O226  1  0.30143000  0.08817000  0.15620000  1.0
  O  O227  1  0.33513000  0.96601000  0.15330000  1.0
