# generated using pymatgen
data_CdH18C18(BrN3)2
_symmetry_space_group_name_H-M   'P 1'
_cell_length_a   7.74586000
_cell_length_b   8.50986000
_cell_length_c   16.71400000
_cell_angle_alpha   90.00030000
_cell_angle_beta   90.00000000
_cell_angle_gamma   113.12400000
_symmetry_Int_Tables_number   1
_chemical_formula_structural   CdH18C18(BrN3)2
_chemical_formula_sum   'Cd2 H36 C36 Br4 N12'
_cell_volume   1013.20744560
_cell_formula_units_Z   2
loop_
 _symmetry_equiv_pos_site_id
 _symmetry_equiv_pos_as_xyz
  1  'x, y, z'
loop_
 _atom_site_type_symbol
 _atom_site_label
 _atom_site_symmetry_multiplicity
 _atom_site_fract_x
 _atom_site_fract_y
 _atom_site_fract_z
 _atom_site_occupancy
  Cd  Cd0  1  0.00000000  0.00000000  0.00000000  1.0
  Cd  Cd1  1  0.00000000  0.50000000  0.50000000  1.0
  H  H2  1  0.51913000  0.33575000  0.55562000  1.0
  H  H3  1  0.48087000  0.16424000  0.05562000  1.0
  H  H4  1  0.48087000  0.66424000  0.44438000  1.0
  H  H5  1  0.51913000  0.83576000  0.94438000  1.0
  H  H6  1  0.55135000  0.86788000  0.62329000  1.0
  H  H7  1  0.44865000  0.63212000  0.12329000  1.0
  H  H8  1  0.44865000  0.13212000  0.37671000  1.0
  H  H9  1  0.55135000  0.36788000  0.87671000  1.0
  H  H10  1  0.89624000  0.08909000  0.56316000  1.0
  H  H11  1  0.10376000  0.41091000  0.06316000  1.0
  H  H12  1  0.10376000  0.91091000  0.43684000  1.0
  H  H13  1  0.89624000  0.58909000  0.93684000  1.0
  H  H14  1  0.21401000  0.88591000  0.59686000  1.0
  H  H15  1  0.78599000  0.61409000  0.09686000  1.0
  H  H16  1  0.78599000  0.11409000  0.40315000  1.0
  H  H17  1  0.21401000  0.38591000  0.90314000  1.0
  H  H18  1  0.21879000  0.09209000  0.58231000  1.0
  H  H19  1  0.78121000  0.40791000  0.08231000  1.0
  H  H20  1  0.78122000  0.90791000  0.41769000  1.0
  H  H21  1  0.21878000  0.59209000  0.91769000  1.0
  H  H22  1  0.40145000  0.06036000  0.89626000  1.0
  H  H23  1  0.59855000  0.43964000  0.39626000  1.0
  H  H24  1  0.59855000  0.93964000  0.10374000  1.0
  H  H25  1  0.40145000  0.56036000  0.60374000  1.0
  H  H26  1  0.50926000  0.06632000  0.75556000  1.0
  H  H27  1  0.49073000  0.43368000  0.25556000  1.0
  H  H28  1  0.49074000  0.93368000  0.24445000  1.0
  H  H29  1  0.50926000  0.56632000  0.74444000  1.0
  H  H30  1  0.86706000  0.99822000  0.82404000  1.0
  H  H31  1  0.13293000  0.50178000  0.32404000  1.0
  H  H32  1  0.13294000  0.00178000  0.17596000  1.0
  H  H33  1  0.86706000  0.49822000  0.67596000  1.0
  H  H34  1  0.94667000  0.98405000  0.67991000  1.0
  H  H35  1  0.05333000  0.51596000  0.17992000  1.0
  H  H36  1  0.05333000  0.01596000  0.32008000  1.0
  H  H37  1  0.94667000  0.48405000  0.82008000  1.0
  C  C38  1  0.57926000  0.24243000  0.56761000  1.0
  C  C39  1  0.42074000  0.25757000  0.06761000  1.0
  C  C40  1  0.42074000  0.75757000  0.43239000  1.0
  C  C41  1  0.57926000  0.74243000  0.93239000  1.0
  C  C42  1  0.59815000  0.99854000  0.60260000  1.0
  C  C43  1  0.40186000  0.50146000  0.10260000  1.0
  C  C44  1  0.40186000  0.00146000  0.39740000  1.0
  C  C45  1  0.59814000  0.49854000  0.89740000  1.0
  C  C46  1  0.76813000  0.10912000  0.57324000  1.0
  C  C47  1  0.23187000  0.39088000  0.07323000  1.0
  C  C48  1  0.23187000  0.89088000  0.42677000  1.0
  C  C49  1  0.76813000  0.60912000  0.92677000  1.0
  C  C50  1  0.23585000  0.02558000  0.70534000  1.0
  C  C51  1  0.76415000  0.47443000  0.20534000  1.0
  C  C52  1  0.76415000  0.97442000  0.29467000  1.0
  C  C53  1  0.23585000  0.52558000  0.79466000  1.0
  C  C54  1  0.28082000  0.01872000  0.61802000  1.0
  C  C55  1  0.71918000  0.48128000  0.11802000  1.0
  C  C56  1  0.71919000  0.98128000  0.38198000  1.0
  C  C57  1  0.28082000  0.51872000  0.88198000  1.0
  C  C58  1  0.30499000  0.04667000  0.84647000  1.0
  C  C59  1  0.69501000  0.45333000  0.34647000  1.0
  C  C60  1  0.69501000  0.95333000  0.15353000  1.0
  C  C61  1  0.30499000  0.54667000  0.65353000  1.0
  C  C62  1  0.36423000  0.04815000  0.76751000  1.0
  C  C63  1  0.63577000  0.45185000  0.26751000  1.0
  C  C64  1  0.63577000  0.95185000  0.23249000  1.0
  C  C65  1  0.36423000  0.54815000  0.73249000  1.0
  C  C66  1  0.00669000  0.00907000  0.80588000  1.0
  C  C67  1  0.99331000  0.49093000  0.30589000  1.0
  C  C68  1  0.99331000  0.99093000  0.19411000  1.0
  C  C69  1  0.00669000  0.50907000  0.69411000  1.0
  C  C70  1  0.05275000  0.00434000  0.72594000  1.0
  C  C71  1  0.94725000  0.49566000  0.22594000  1.0
  C  C72  1  0.94725000  0.99565000  0.27406000  1.0
  C  C73  1  0.05275000  0.50434000  0.77406000  1.0
  Br  Br74  1  0.79876000  0.19532000  0.95492000  1.0
  Br  Br75  1  0.20124000  0.30468000  0.45492000  1.0
  Br  Br76  1  0.20124000  0.80469000  0.04508000  1.0
  Br  Br77  1  0.79876000  0.69531000  0.54508000  1.0
  N  N78  1  0.75425000  0.26024000  0.55162000  1.0
  N  N79  1  0.24575000  0.23976000  0.05162000  1.0
  N  N80  1  0.24575000  0.73976000  0.44838000  1.0
  N  N81  1  0.75425000  0.76024000  0.94838000  1.0
  N  N82  1  0.47964000  0.08487000  0.59858000  1.0
  N  N83  1  0.52036000  0.41513000  0.09858000  1.0
  N  N84  1  0.52036000  0.91513000  0.40142000  1.0
  N  N85  1  0.47964000  0.58487000  0.90142000  1.0
  N  N86  1  0.12987000  0.02891000  0.86563000  1.0
  N  N87  1  0.87013000  0.47109000  0.36563000  1.0
  N  N88  1  0.87013000  0.97109000  0.13437000  1.0
  N  N89  1  0.12987000  0.52891000  0.63437000  1.0
