# generated using pymatgen
data_CoH20C24N8(ClO2)2
_symmetry_space_group_name_H-M   'P 1'
_cell_length_a   8.27572000
_cell_length_b   9.46138259
_cell_length_c   9.93781000
_cell_angle_alpha   117.97215278
_cell_angle_beta   93.89850000
_cell_angle_gamma   95.21864293
_symmetry_Int_Tables_number   1
_chemical_formula_structural   CoH20C24N8(ClO2)2
_chemical_formula_sum   'Co1 H20 C24 N8 Cl2 O4'
_cell_volume   678.93733869
_cell_formula_units_Z   1
loop_
 _symmetry_equiv_pos_site_id
 _symmetry_equiv_pos_as_xyz
  1  'x, y, z'
loop_
 _atom_site_type_symbol
 _atom_site_label
 _atom_site_symmetry_multiplicity
 _atom_site_fract_x
 _atom_site_fract_y
 _atom_site_fract_z
 _atom_site_occupancy
  Co  Co0  1  0.99999000  0.50000000  0.00000000  1.0
  H  H1  1  0.96476000  0.14811000  0.84243000  1.0
  H  H2  1  0.03526000  0.85188000  0.15756000  1.0
  H  H3  1  0.83545000  0.49045000  0.72100000  1.0
  H  H4  1  0.16453000  0.50954000  0.27900000  1.0
  H  H5  1  0.78540000  0.66302000  0.88567000  1.0
  H  H6  1  0.21459000  0.33698000  0.11432000  1.0
  H  H7  1  0.79875000  0.55207000  0.24183000  1.0
  H  H8  1  0.20125000  0.44793000  0.75817000  1.0
  H  H9  1  0.84882000  0.92306000  0.58317000  1.0
  H  H10  1  0.15119000  0.07693000  0.41682000  1.0
  H  H11  1  0.54599000  0.67753000  0.32769000  1.0
  H  H12  1  0.45403000  0.32249000  0.67232000  1.0
  H  H13  1  0.70177000  0.98682000  0.39214000  1.0
  H  H14  1  0.29824000  0.01317000  0.60785000  1.0
  H  H15  1  0.62717000  0.40865000  0.51051000  1.0
  H  H16  1  0.37283000  0.59134000  0.48949000  1.0
  H  H17  1  0.39965000  0.83585000  0.95722000  1.0
  H  H18  1  0.60034000  0.16415000  0.04278000  1.0
  H  H19  1  0.39260000  0.77517000  0.16563000  1.0
  H  H20  1  0.60740000  0.22485000  0.83439000  1.0
  C  C21  1  0.90652000  0.17152000  0.75483000  1.0
  C  C22  1  0.09349000  0.82848000  0.24517000  1.0
  C  C23  1  0.82767000  0.36372000  0.69091000  1.0
  C  C24  1  0.17233000  0.63627000  0.30909000  1.0
  C  C25  1  0.72113000  0.65483000  0.97369000  1.0
  C  C26  1  0.27886000  0.34517000  0.02630000  1.0
  C  C27  1  0.73376000  0.60432000  0.18096000  1.0
  C  C28  1  0.26624000  0.39569000  0.81903000  1.0
  C  C29  1  0.83840000  0.04760000  0.61103000  1.0
  C  C30  1  0.16161000  0.95239000  0.38896000  1.0
  C  C31  1  0.74950000  0.24445000  0.54704000  1.0
  C  C32  1  0.25050000  0.75554000  0.45295000  1.0
  C  C33  1  0.57201000  0.71419000  0.00646000  1.0
  C  C34  1  0.42799000  0.28581000  0.99354000  1.0
  C  C35  1  0.59150000  0.67174000  0.22537000  1.0
  C  C36  1  0.40851000  0.32827000  0.77463000  1.0
  C  C37  1  0.75690000  0.08176000  0.50464000  1.0
  C  C38  1  0.24312000  0.91823000  0.49536000  1.0
  C  C39  1  0.50668000  0.72554000  0.13658000  1.0
  C  C40  1  0.49331000  0.27447000  0.86343000  1.0
  C  C41  1  0.61800000  0.20803000  0.30148000  1.0
  C  C42  1  0.38200000  0.79195000  0.69851000  1.0
  C  C43  1  0.49106000  0.70748000  0.76085000  1.0
  C  C44  1  0.50893000  0.29252000  0.23915000  1.0
  N  N45  1  0.09990000  0.67090000  0.20488000  1.0
  N  N46  1  0.90010000  0.32910000  0.79512000  1.0
  N  N47  1  0.79743000  0.59480000  0.05550000  1.0
  N  N48  1  0.20257000  0.40521000  0.94450000  1.0
  N  N49  1  0.66330000  0.29604000  0.45572000  1.0
  N  N50  1  0.33670000  0.70395000  0.54427000  1.0
  N  N51  1  0.49000000  0.76601000  0.91368000  1.0
  N  N52  1  0.50999000  0.23400000  0.08633000  1.0
  Cl  Cl53  1  0.08387000  0.69546000  0.88706000  1.0
  Cl  Cl54  1  0.91613000  0.30454000  0.11295000  1.0
  O  O55  1  0.65188000  0.07237000  0.21608000  1.0
  O  O56  1  0.34813000  0.92762000  0.78390000  1.0
  O  O57  1  0.57161000  0.60247000  0.67730000  1.0
  O  O58  1  0.42837000  0.39752000  0.32272000  1.0
