# generated using pymatgen
data_TlH2(CN)4
_symmetry_space_group_name_H-M   'P 1'
_cell_length_a   4.08734000
_cell_length_b   12.60533070
_cell_length_c   12.93150000
_cell_angle_alpha   62.81158218
_cell_angle_beta   89.93120000
_cell_angle_gamma   80.78140479
_symmetry_Int_Tables_number   1
_chemical_formula_structural   TlH2(CN)4
_chemical_formula_sum   'Tl4 H8 C16 N16'
_cell_volume   583.01985367
_cell_formula_units_Z   4
loop_
 _symmetry_equiv_pos_site_id
 _symmetry_equiv_pos_as_xyz
  1  'x, y, z'
loop_
 _atom_site_type_symbol
 _atom_site_label
 _atom_site_symmetry_multiplicity
 _atom_site_fract_x
 _atom_site_fract_y
 _atom_site_fract_z
 _atom_site_occupancy
  Tl  Tl0  1  0.46897000  0.12037000  0.56895000  1.0
  Tl  Tl1  1  0.59033000  0.88094000  0.93036000  1.0
  Tl  Tl2  1  0.53103000  0.87963000  0.43105000  1.0
  Tl  Tl3  1  0.40968000  0.11906000  0.06964000  1.0
  H  H4  1  0.17252000  0.47486000  0.19546000  1.0
  H  H5  1  0.64960000  0.52555000  0.30449000  1.0
  H  H6  1  0.82747000  0.52514000  0.80454000  1.0
  H  H7  1  0.35040000  0.47445000  0.69551000  1.0
  H  H8  1  0.76758000  0.33926000  0.98015000  1.0
  H  H9  1  0.10576000  0.66003000  0.51994000  1.0
  H  H10  1  0.23242000  0.66074000  0.01985000  1.0
  H  H11  1  0.89424000  0.33997000  0.48006000  1.0
  C  C12  1  0.93913000  0.28256000  0.20661000  1.0
  C  C13  1  0.22287000  0.71701000  0.29344000  1.0
  C  C14  1  0.06086000  0.71744000  0.79339000  1.0
  C  C15  1  0.77713000  0.28299000  0.70656000  1.0
  C  C16  1  0.96703000  0.39329000  0.10133000  1.0
  C  C17  1  0.36135000  0.60658000  0.39872000  1.0
  C  C18  1  0.03296000  0.60671000  0.89867000  1.0
  C  C19  1  0.63865000  0.39342000  0.60128000  1.0
  C  C20  1  0.09531000  0.48629000  0.10979000  1.0
  C  C21  1  0.58290000  0.51395000  0.39018000  1.0
  C  C22  1  0.90468000  0.51371000  0.89020000  1.0
  C  C23  1  0.41710000  0.48605000  0.60982000  1.0
  C  C24  1  0.87268000  0.40867000  0.98996000  1.0
  C  C25  1  0.28091000  0.59095000  0.51011000  1.0
  C  C26  1  0.12731000  0.59132000  0.01004000  1.0
  C  C27  1  0.71909000  0.40905000  0.48989000  1.0
  N  N28  1  0.02970000  0.25985000  0.31629000  1.0
  N  N29  1  0.28923000  0.73940000  0.18366000  1.0
  N  N30  1  0.97030000  0.74015000  0.68371000  1.0
  N  N31  1  0.71078000  0.26060000  0.81634000  1.0
  N  N32  1  0.97354000  0.14756000  0.38504000  1.0
  N  N33  1  0.11966000  0.85119000  0.11493000  1.0
  N  N34  1  0.02646000  0.85244000  0.61496000  1.0
  N  N35  1  0.88034000  0.14881000  0.88507000  1.0
  N  N36  1  0.85381000  0.10274000  0.32055000  1.0
  N  N37  1  0.95615000  0.89606000  0.17957000  1.0
  N  N38  1  0.14620000  0.89726000  0.67945000  1.0
  N  N39  1  0.04386000  0.10394000  0.82043000  1.0
  N  N40  1  0.82939000  0.18596000  0.20791000  1.0
  N  N41  1  0.01668000  0.81332000  0.29225000  1.0
  N  N42  1  0.17061000  0.81404000  0.79209000  1.0
  N  N43  1  0.98332000  0.18668000  0.70774000  1.0
