# generated using pymatgen
data_Zn2H2C10O9
_symmetry_space_group_name_H-M   'P 1'
_cell_length_a   11.54350000
_cell_length_b   13.06850000
_cell_length_c   16.08060000
_cell_angle_alpha   90.00020000
_cell_angle_beta   89.99650000
_cell_angle_gamma   90.00070000
_symmetry_Int_Tables_number   1
_chemical_formula_structural   Zn2H2C10O9
_chemical_formula_sum   'Zn16 H16 C80 O72'
_cell_volume   2425.85868340
_cell_formula_units_Z   8
loop_
 _symmetry_equiv_pos_site_id
 _symmetry_equiv_pos_as_xyz
  1  'x, y, z'
loop_
 _atom_site_type_symbol
 _atom_site_label
 _atom_site_symmetry_multiplicity
 _atom_site_fract_x
 _atom_site_fract_y
 _atom_site_fract_z
 _atom_site_occupancy
  Zn  Zn0  1  0.00301000  0.00016000  0.81072000  1.0
  Zn  Zn1  1  0.99700000  0.49983000  0.81070000  1.0
  Zn  Zn2  1  0.50300000  0.49984000  0.68931000  1.0
  Zn  Zn3  1  0.49698000  0.00018000  0.68927000  1.0
  Zn  Zn4  1  0.99697000  0.99983000  0.18928000  1.0
  Zn  Zn5  1  0.00302000  0.50019000  0.18929000  1.0
  Zn  Zn6  1  0.49701000  0.50016000  0.31070000  1.0
  Zn  Zn7  1  0.50301000  0.99980000  0.31073000  1.0
  Zn  Zn8  1  0.24999000  0.87145000  0.75000000  1.0
  Zn  Zn9  1  0.75000000  0.62855000  0.75000000  1.0
  Zn  Zn10  1  0.75000000  0.12853000  0.25000000  1.0
  Zn  Zn11  1  0.25000000  0.37146000  0.25000000  1.0
  Zn  Zn12  1  0.00001000  0.25001000  0.15772000  1.0
  Zn  Zn13  1  0.49999000  0.24999000  0.34230000  1.0
  Zn  Zn14  1  0.99999000  0.75000000  0.84229000  1.0
  Zn  Zn15  1  0.50001000  0.75000000  0.65771000  1.0
  H  H16  1  0.91831000  0.12440000  0.56627000  1.0
  H  H17  1  0.92895000  0.15869000  0.41405000  1.0
  H  H18  1  0.08168000  0.37558000  0.56623000  1.0
  H  H19  1  0.07103000  0.34129000  0.41402000  1.0
  H  H20  1  0.41832000  0.37559000  0.93378000  1.0
  H  H21  1  0.42897000  0.34131000  0.08599000  1.0
  H  H22  1  0.58166000  0.12442000  0.93373000  1.0
  H  H23  1  0.57104000  0.15869000  0.08595000  1.0
  H  H24  1  0.08168000  0.87560000  0.43373000  1.0
  H  H25  1  0.07104000  0.84131000  0.58594000  1.0
  H  H26  1  0.91835000  0.62445000  0.43374000  1.0
  H  H27  1  0.92897000  0.65872000  0.58596000  1.0
  H  H28  1  0.58170000  0.62442000  0.06623000  1.0
  H  H29  1  0.57105000  0.65870000  0.91401000  1.0
  H  H30  1  0.41832000  0.87556000  0.06627000  1.0
  H  H31  1  0.42894000  0.84131000  0.91405000  1.0
  C  C32  1  0.99947000  0.11544000  0.53251000  1.0
  C  C33  1  0.09596000  0.07902000  0.57505000  1.0
  C  C34  1  0.08440000  0.04791000  0.66336000  1.0
  C  C35  1  0.20233000  0.06523000  0.53286000  1.0
  C  C36  1  0.21191000  0.09622000  0.44976000  1.0
  C  C37  1  0.32918000  0.09607000  0.40890000  1.0
  C  C38  1  0.11253000  0.12987000  0.40637000  1.0
  C  C39  1  0.11848000  0.18175000  0.32226000  1.0
  C  C40  1  0.00617000  0.13537000  0.44783000  1.0
  C  C41  1  0.30508000  0.02560000  0.58114000  1.0
  C  C42  1  0.00052000  0.38454000  0.53248000  1.0
  C  C43  1  0.90403000  0.42095000  0.57504000  1.0
  C  C44  1  0.91561000  0.45211000  0.66334000  1.0
  C  C45  1  0.79764000  0.43473000  0.53286000  1.0
  C  C46  1  0.78807000  0.40374000  0.44976000  1.0
  C  C47  1  0.67080000  0.40390000  0.40890000  1.0
  C  C48  1  0.88745000  0.37011000  0.40636000  1.0
  C  C49  1  0.88151000  0.31824000  0.32224000  1.0
  C  C50  1  0.99381000  0.36463000  0.44780000  1.0
  C  C51  1  0.69491000  0.47436000  0.58116000  1.0
  C  C52  1  0.49949000  0.38454000  0.96753000  1.0
  C  C53  1  0.59598000  0.42095000  0.92496000  1.0
  C  C54  1  0.58440000  0.45209000  0.83666000  1.0
  C  C55  1  0.70236000  0.43472000  0.96715000  1.0
  C  C56  1  0.71194000  0.40373000  0.05024000  1.0
  C  C57  1  0.82921000  0.40388000  0.09111000  1.0
  C  C58  1  0.61255000  0.37010000  0.09364000  1.0
  C  C59  1  0.61850000  0.31823000  0.17776000  1.0
  C  C60  1  0.50619000  0.36462000  0.05220000  1.0
  C  C61  1  0.80511000  0.47436000  0.91886000  1.0
  C  C62  1  0.50050000  0.11545000  0.96749000  1.0
  C  C63  1  0.40401000  0.07904000  0.92494000  1.0
  C  C64  1  0.41559000  0.04790000  0.83664000  1.0
  C  C65  1  0.29763000  0.06525000  0.96714000  1.0
  C  C66  1  0.28807000  0.09625000  0.05023000  1.0
  C  C67  1  0.17081000  0.09611000  0.09111000  1.0
  C  C68  1  0.38746000  0.12988000  0.09363000  1.0
  C  C69  1  0.38150000  0.18176000  0.17775000  1.0
  C  C70  1  0.49381000  0.13538000  0.05217000  1.0
  C  C71  1  0.19489000  0.02562000  0.91886000  1.0
  C  C72  1  0.00052000  0.88456000  0.46749000  1.0
  C  C73  1  0.90403000  0.92096000  0.42494000  1.0
  C  C74  1  0.91559000  0.95208000  0.33663000  1.0
  C  C75  1  0.79765000  0.93474000  0.46714000  1.0
  C  C76  1  0.78808000  0.90376000  0.55023000  1.0
  C  C77  1  0.67081000  0.90391000  0.59110000  1.0
  C  C78  1  0.88747000  0.87012000  0.59362000  1.0
  C  C79  1  0.88152000  0.81825000  0.67774000  1.0
  C  C80  1  0.99382000  0.86463000  0.55217000  1.0
  C  C81  1  0.69491000  0.97437000  0.41885000  1.0
  C  C82  1  0.99950000  0.61548000  0.46750000  1.0
  C  C83  1  0.09599000  0.57907000  0.42494000  1.0
  C  C84  1  0.08441000  0.54792000  0.33664000  1.0
  C  C85  1  0.20237000  0.56528000  0.46714000  1.0
  C  C86  1  0.21193000  0.59626000  0.55024000  1.0
  C  C87  1  0.32920000  0.59611000  0.59111000  1.0
  C  C88  1  0.11255000  0.62989000  0.59363000  1.0
  C  C89  1  0.11848000  0.68176000  0.67775000  1.0
  C  C90  1  0.00620000  0.63539000  0.55218000  1.0
  C  C91  1  0.30511000  0.52565000  0.41884000  1.0
  C  C92  1  0.50053000  0.61546000  0.03248000  1.0
  C  C93  1  0.40405000  0.57906000  0.07504000  1.0
  C  C94  1  0.41563000  0.54791000  0.16335000  1.0
  C  C95  1  0.29766000  0.56529000  0.03286000  1.0
  C  C96  1  0.28808000  0.59627000  0.94977000  1.0
  C  C97  1  0.17082000  0.59613000  0.90890000  1.0
  C  C98  1  0.38747000  0.62990000  0.90636000  1.0
  C  C99  1  0.38152000  0.68176000  0.82224000  1.0
  C  C100  1  0.49383000  0.63538000  0.94780000  1.0
  C  C101  1  0.19492000  0.52566000  0.08116000  1.0
  C  C102  1  0.49947000  0.88453000  0.03251000  1.0
  C  C103  1  0.59596000  0.92095000  0.07506000  1.0
  C  C104  1  0.58437000  0.95209000  0.16336000  1.0
  C  C105  1  0.70234000  0.93473000  0.03287000  1.0
  C  C106  1  0.71191000  0.90375000  0.94977000  1.0
  C  C107  1  0.82917000  0.90389000  0.90889000  1.0
  C  C108  1  0.61252000  0.87012000  0.90637000  1.0
  C  C109  1  0.61848000  0.81825000  0.82225000  1.0
  C  C110  1  0.50617000  0.86462000  0.94783000  1.0
  C  C111  1  0.80509000  0.97437000  0.08115000  1.0
  O  O112  1  0.99315000  0.07321000  0.70384000  1.0
  O  O113  1  0.16556000  0.99532000  0.69433000  1.0
  O  O114  1  0.31180000  0.92223000  0.58140000  1.0
  O  O115  1  0.37668000  0.08221000  0.61519000  1.0
  O  O116  1  0.35640000  0.01384000  0.37073000  1.0
  O  O117  1  0.38865000  0.17623000  0.41800000  1.0
  O  O118  1  0.18206000  0.26043000  0.32331000  1.0
  O  O119  1  0.05516000  0.15280000  0.26152000  1.0
  O  O120  1  0.38147000  0.88747000  0.65340000  1.0
  O  O121  1  0.00683000  0.42677000  0.70382000  1.0
  O  O122  1  0.83447000  0.50473000  0.69430000  1.0
  O  O123  1  0.68818000  0.57774000  0.58139000  1.0
  O  O124  1  0.62334000  0.41777000  0.61525000  1.0
  O  O125  1  0.64360000  0.48612000  0.37071000  1.0
  O  O126  1  0.61132000  0.32375000  0.41801000  1.0
  O  O127  1  0.81795000  0.23955000  0.32329000  1.0
  O  O128  1  0.94484000  0.34720000  0.26150000  1.0
  O  O129  1  0.61853000  0.61253000  0.65340000  1.0
  O  O130  1  0.49318000  0.42675000  0.79618000  1.0
  O  O131  1  0.66553000  0.50474000  0.80571000  1.0
  O  O132  1  0.81182000  0.57774000  0.91862000  1.0
  O  O133  1  0.87667000  0.41776000  0.88476000  1.0
  O  O134  1  0.85643000  0.48610000  0.12928000  1.0
  O  O135  1  0.88868000  0.32372000  0.08200000  1.0
  O  O136  1  0.68204000  0.23953000  0.17670000  1.0
  O  O137  1  0.55519000  0.34718000  0.23852000  1.0
  O  O138  1  0.88148000  0.61252000  0.84661000  1.0
  O  O139  1  0.50679000  0.07327000  0.79614000  1.0
  O  O140  1  0.33446000  0.99525000  0.80571000  1.0
  O  O141  1  0.18816000  0.92224000  0.91862000  1.0
  O  O142  1  0.12333000  0.08222000  0.88478000  1.0
  O  O143  1  0.14357000  0.01387000  0.12926000  1.0
  O  O144  1  0.11136000  0.17628000  0.08202000  1.0
  O  O145  1  0.31797000  0.26046000  0.17670000  1.0
  O  O146  1  0.44480000  0.15279000  0.23850000  1.0
  O  O147  1  0.11851000  0.88747000  0.84661000  1.0
  O  O148  1  0.00684000  0.92680000  0.29616000  1.0
  O  O149  1  0.83443000  0.00467000  0.30567000  1.0
  O  O150  1  0.68819000  0.07774000  0.41860000  1.0
  O  O151  1  0.62331000  0.91777000  0.38479000  1.0
  O  O152  1  0.64362000  0.98614000  0.62930000  1.0
  O  O153  1  0.61132000  0.82377000  0.58199000  1.0
  O  O154  1  0.81794000  0.73958000  0.67669000  1.0
  O  O155  1  0.94484000  0.84720000  0.73848000  1.0
  O  O156  1  0.61852000  0.11252000  0.34660000  1.0
  O  O157  1  0.99318000  0.57324000  0.29617000  1.0
  O  O158  1  0.16556000  0.49530000  0.30569000  1.0
  O  O159  1  0.31182000  0.42227000  0.41861000  1.0
  O  O160  1  0.37667000  0.58224000  0.38474000  1.0
  O  O161  1  0.35640000  0.51389000  0.62931000  1.0
  O  O162  1  0.38869000  0.67626000  0.58199000  1.0
  O  O163  1  0.18204000  0.76045000  0.67671000  1.0
  O  O164  1  0.05515000  0.65280000  0.73849000  1.0
  O  O165  1  0.38148000  0.38747000  0.34660000  1.0
  O  O166  1  0.50686000  0.57324000  0.20382000  1.0
  O  O167  1  0.33450000  0.49526000  0.19430000  1.0
  O  O168  1  0.18818000  0.42228000  0.08139000  1.0
  O  O169  1  0.12337000  0.58226000  0.11526000  1.0
  O  O170  1  0.14360000  0.51390000  0.87071000  1.0
  O  O171  1  0.11134000  0.67628000  0.91801000  1.0
  O  O172  1  0.31797000  0.76045000  0.82330000  1.0
  O  O173  1  0.44484000  0.65281000  0.76150000  1.0
  O  O174  1  0.11853000  0.38749000  0.15340000  1.0
  O  O175  1  0.49317000  0.92673000  0.20385000  1.0
  O  O176  1  0.66550000  0.00474000  0.19430000  1.0
  O  O177  1  0.81182000  0.07775000  0.08138000  1.0
  O  O178  1  0.87663000  0.91777000  0.11524000  1.0
  O  O179  1  0.85639000  0.98611000  0.87071000  1.0
  O  O180  1  0.88865000  0.82374000  0.91800000  1.0
  O  O181  1  0.68204000  0.73957000  0.82330000  1.0
  O  O182  1  0.55517000  0.84721000  0.76151000  1.0
  O  O183  1  0.88147000  0.11253000  0.15340000  1.0
