# generated using pymatgen
data_Cd2H26C25(N3O5)2
_symmetry_space_group_name_H-M   'P 1'
_cell_length_a   10.18850000
_cell_length_b   12.11230000
_cell_length_c   12.64180000
_cell_angle_alpha   98.95800000
_cell_angle_beta   90.63960000
_cell_angle_gamma   114.04500000
_symmetry_Int_Tables_number   1
_chemical_formula_structural   Cd2H26C25(N3O5)2
_chemical_formula_sum   'Cd4 H52 C50 N12 O20'
_cell_volume   1402.50271324
_cell_formula_units_Z   2
loop_
 _symmetry_equiv_pos_site_id
 _symmetry_equiv_pos_as_xyz
  1  'x, y, z'
loop_
 _atom_site_type_symbol
 _atom_site_label
 _atom_site_symmetry_multiplicity
 _atom_site_fract_x
 _atom_site_fract_y
 _atom_site_fract_z
 _atom_site_occupancy
  Cd  Cd0  1  0.71931000  0.81591000  0.05120000  1.0
  Cd  Cd1  1  0.28069000  0.18409000  0.94880000  1.0
  Cd  Cd2  1  0.55485000  0.00336000  0.23130000  1.0
  Cd  Cd3  1  0.44515000  0.99664000  0.76870000  1.0
  H  H4  1  0.75607000  0.99283000  0.90463000  1.0
  H  H5  1  0.24393000  0.00717000  0.09537000  1.0
  H  H6  1  0.89405000  0.06938000  0.98401000  1.0
  H  H7  1  0.10595000  0.93062000  0.01599000  1.0
  H  H8  1  0.59893000  0.13355000  0.04580000  1.0
  H  H9  1  0.40107000  0.86645000  0.95420000  1.0
  H  H10  1  0.70966000  0.07706000  0.06283000  1.0
  H  H11  1  0.29034000  0.92294000  0.93717000  1.0
  H  H12  1  0.20568000  0.80698000  0.05705000  1.0
  H  H13  1  0.79433000  0.19302000  0.94295000  1.0
  H  H14  1  0.85401000  0.50365000  0.14879000  1.0
  H  H15  1  0.14599000  0.49635000  0.85122000  1.0
  H  H16  1  0.27939000  0.50883000  0.14674000  1.0
  H  H17  1  0.72061000  0.49117000  0.85326000  1.0
  H  H18  1  0.00714000  0.38622000  0.28144000  1.0
  H  H19  1  0.99286000  0.61378000  0.71855000  1.0
  H  H20  1  0.07483000  0.32207000  0.17128000  1.0
  H  H21  1  0.92518000  0.67793000  0.82872000  1.0
  H  H22  1  0.89586000  0.30996000  0.15973000  1.0
  H  H23  1  0.10415000  0.69004000  0.84028000  1.0
  H  H24  1  0.03417000  0.97870000  0.22291000  1.0
  H  H25  1  0.96583000  0.02130000  0.77708000  1.0
  H  H26  1  0.77946000  0.84257000  0.47991000  1.0
  H  H27  1  0.22054000  0.15744000  0.52009000  1.0
  H  H28  1  0.18900000  0.82101000  0.45048000  1.0
  H  H29  1  0.81100000  0.17898000  0.54952000  1.0
  H  H30  1  0.85308000  0.74412000  0.60418000  1.0
  H  H31  1  0.14692000  0.25587000  0.39582000  1.0
  H  H32  1  0.04311000  0.80530000  0.63460000  1.0
  H  H33  1  0.95689000  0.19470000  0.36539000  1.0
  H  H34  1  0.95256000  0.66238000  0.54722000  1.0
  H  H35  1  0.04744000  0.33762000  0.45278000  1.0
  H  H36  1  0.49215000  0.10223000  0.49210000  1.0
  H  H37  1  0.50785000  0.89777000  0.50790000  1.0
  H  H38  1  0.75691000  0.32951000  0.28955000  1.0
  H  H39  1  0.24309000  0.67049000  0.71045000  1.0
  H  H40  1  0.68274000  0.41389000  0.65866000  1.0
  H  H41  1  0.31726000  0.58611000  0.34134000  1.0
  H  H42  1  0.54285000  0.26520000  0.65923000  1.0
  H  H43  1  0.45715000  0.73480000  0.34078000  1.0
  H  H44  1  0.38248000  0.31934000  0.53927000  1.0
  H  H45  1  0.61752000  0.68066000  0.46073000  1.0
  H  H46  1  0.52067000  0.46774000  0.55121000  1.0
  H  H47  1  0.47933000  0.53226000  0.44880000  1.0
  H  H48  1  0.31094000  0.44407000  0.66393000  1.0
  H  H49  1  0.68906000  0.55593000  0.33607000  1.0
  H  H50  1  0.37318000  0.36658000  0.74722000  1.0
  H  H51  1  0.62682000  0.63341000  0.25279000  1.0
  H  H52  1  0.45943000  0.53272000  0.91575000  1.0
  H  H53  1  0.54057000  0.46728000  0.08425000  1.0
  H  H54  1  0.74990000  0.81860000  0.77223000  1.0
  H  H55  1  0.25009000  0.18140000  0.22777000  1.0
  C  C56  1  0.25908000  0.66549000  0.10263000  1.0
  C  C57  1  0.74092000  0.33451000  0.89737000  1.0
  C  C58  1  0.16483000  0.71893000  0.08337000  1.0
  C  C59  1  0.83517000  0.28107000  0.91663000  1.0
  C  C60  1  0.01887000  0.66011000  0.09956000  1.0
  C  C61  1  0.98113000  0.33989000  0.90044000  1.0
  C  C62  1  0.96820000  0.54762000  0.13614000  1.0
  C  C63  1  0.03180000  0.45238000  0.86386000  1.0
  C  C64  1  0.06013000  0.49117000  0.15377000  1.0
  C  C65  1  0.93987000  0.50883000  0.84623000  1.0
  C  C66  1  0.20527000  0.55102000  0.13549000  1.0
  C  C67  1  0.79474000  0.44898000  0.86451000  1.0
  C  C68  1  0.41686000  0.72993000  0.09228000  1.0
  C  C69  1  0.58315000  0.27007000  0.90772000  1.0
  C  C70  1  0.91589000  0.71558000  0.07955000  1.0
  C  C71  1  0.08411000  0.28442000  0.92045000  1.0
  C  C72  1  0.00631000  0.37086000  0.19329000  1.0
  C  C73  1  0.99370000  0.62915000  0.80671000  1.0
  C  C74  1  0.12722000  0.90475000  0.33324000  1.0
  C  C75  1  0.87278000  0.09525000  0.66676000  1.0
  C  C76  1  0.01958000  0.93513000  0.29357000  1.0
  C  C77  1  0.98042000  0.06487000  0.70643000  1.0
  C  C78  1  0.89248000  0.90894000  0.34537000  1.0
  C  C79  1  0.10752000  0.09106000  0.65463000  1.0
  C  C80  1  0.87555000  0.85502000  0.43756000  1.0
  C  C81  1  0.12445000  0.14498000  0.56244000  1.0
  C  C82  1  0.97849000  0.81907000  0.47550000  1.0
  C  C83  1  0.02151000  0.18093000  0.52450000  1.0
  C  C84  1  0.10437000  0.84492000  0.42206000  1.0
  C  C85  1  0.89563000  0.15508000  0.57794000  1.0
  C  C86  1  0.26874000  0.93767000  0.28497000  1.0
  C  C87  1  0.73126000  0.06233000  0.71503000  1.0
  C  C88  1  0.77267000  0.93652000  0.30539000  1.0
  C  C89  1  0.22733000  0.06348000  0.69461000  1.0
  C  C90  1  0.95552000  0.75482000  0.57069000  1.0
  C  C91  1  0.04448000  0.24518000  0.42931000  1.0
  C  C92  1  0.56539000  0.17958000  0.45842000  1.0
  C  C93  1  0.43461000  0.82042000  0.54158000  1.0
  C  C94  1  0.70003000  0.29848000  0.35856000  1.0
  C  C95  1  0.29997000  0.70152000  0.64144000  1.0
  C  C96  1  0.58362000  0.34200000  0.61511000  1.0
  C  C97  1  0.41638000  0.65801000  0.38489000  1.0
  C  C98  1  0.47104000  0.39062000  0.59371000  1.0
  C  C99  1  0.52895000  0.60938000  0.40629000  1.0
  C  C100  1  0.40618000  0.43179000  0.69125000  1.0
  C  C101  1  0.59382000  0.56821000  0.30875000  1.0
  C  C102  1  0.52218000  0.58839000  0.85955000  1.0
  C  C103  1  0.47782000  0.41161000  0.14045000  1.0
  C  C104  1  0.66921000  0.73038000  0.78389000  1.0
  C  C105  1  0.33079000  0.26962000  0.21611000  1.0
  N  N106  1  0.61416000  0.17821000  0.36058000  1.0
  N  N107  1  0.38583000  0.82179000  0.63942000  1.0
  N  N108  1  0.62156000  0.29578000  0.51187000  1.0
  N  N109  1  0.37844000  0.70421000  0.48813000  1.0
  N  N110  1  0.70742000  0.37367000  0.44919000  1.0
  N  N111  1  0.29258000  0.62633000  0.55081000  1.0
  N  N112  1  0.50808000  0.54936000  0.75295000  1.0
  N  N113  1  0.49191000  0.45064000  0.24705000  1.0
  N  N114  1  0.60067000  0.63909000  0.70307000  1.0
  N  N115  1  0.39933000  0.36091000  0.29693000  1.0
  N  N116  1  0.62426000  0.70374000  0.88188000  1.0
  N  N117  1  0.37574000  0.29626000  0.11812000  1.0
  O  O118  1  0.46859000  0.83919000  0.06816000  1.0
  O  O119  1  0.53141000  0.16081000  0.93184000  1.0
  O  O120  1  0.49812000  0.67728000  0.10885000  1.0
  O  O121  1  0.50188000  0.32272000  0.89115000  1.0
  O  O122  1  0.95630000  0.81215000  0.03551000  1.0
  O  O123  1  0.04370000  0.18785000  0.96449000  1.0
  O  O124  1  0.78805000  0.66550000  0.10669000  1.0
  O  O125  1  0.21195000  0.33450000  0.89331000  1.0
  O  O126  1  0.30246000  0.00900000  0.21539000  1.0
  O  O127  1  0.69755000  0.99100000  0.78461000  1.0
  O  O128  1  0.35624000  0.89704000  0.31838000  1.0
  O  O129  1  0.64376000  0.10296000  0.68162000  1.0
  O  O130  1  0.77104000  0.95992000  0.20859000  1.0
  O  O131  1  0.22896000  0.04008000  0.79141000  1.0
  O  O132  1  0.67487000  0.93705000  0.36569000  1.0
  O  O133  1  0.32513000  0.06295000  0.63431000  1.0
  O  O134  1  0.79438000  0.00225000  0.98069000  1.0
  O  O135  1  0.20562000  0.99775000  0.01931000  1.0
  O  O136  1  0.65615000  0.12080000  0.10354000  1.0
  O  O137  1  0.34385000  0.87920000  0.89646000  1.0
