# generated using pymatgen
data_Cd2H10C3(SeN)2
_symmetry_space_group_name_H-M   'P 1'
_cell_length_a   6.73911000
_cell_length_b   6.77557000
_cell_length_c   10.93595628
_cell_angle_alpha   71.96217561
_cell_angle_beta   89.99948044
_cell_angle_gamma   89.99900000
_symmetry_Int_Tables_number   1
_chemical_formula_structural   Cd2H10C3(SeN)2
_chemical_formula_sum   'Cd4 H20 C6 Se4 N4'
_cell_volume   474.80820140
_cell_formula_units_Z   2
loop_
 _symmetry_equiv_pos_site_id
 _symmetry_equiv_pos_as_xyz
  1  'x, y, z'
loop_
 _atom_site_type_symbol
 _atom_site_label
 _atom_site_symmetry_multiplicity
 _atom_site_fract_x
 _atom_site_fract_y
 _atom_site_fract_z
 _atom_site_occupancy
  Cd  Cd0  1  0.55563000  0.93300000  0.42091000  1.0
  Cd  Cd1  1  0.55574000  0.35388000  0.57927000  1.0
  Cd  Cd2  1  0.05574000  0.64613000  0.42073000  1.0
  Cd  Cd3  1  0.05563000  0.06700000  0.57909000  1.0
  H  H4  1  0.42265000  0.32228000  0.25116000  1.0
  H  H5  1  0.42260000  0.57315000  0.74913000  1.0
  H  H6  1  0.92259000  0.42684000  0.25088000  1.0
  H  H7  1  0.92265000  0.67770000  0.74884000  1.0
  H  H8  1  0.25486000  0.14301000  0.25290000  1.0
  H  H9  1  0.25456000  0.39595000  0.74709000  1.0
  H  H10  1  0.75457000  0.60402000  0.25293000  1.0
  H  H11  1  0.75483000  0.85699000  0.74708000  1.0
  H  H12  1  0.46398000  0.99785000  0.12246000  1.0
  H  H13  1  0.46303000  0.11986000  0.87763000  1.0
  H  H14  1  0.96298000  0.88012000  0.12238000  1.0
  H  H15  1  0.96392000  0.00218000  0.87753000  1.0
  H  H16  1  0.64266000  0.18956000  0.11884000  1.0
  H  H17  1  0.64226000  0.30751000  0.88123000  1.0
  H  H18  1  0.14222000  0.69249000  0.11876000  1.0
  H  H19  1  0.14262000  0.81043000  0.88118000  1.0
  H  H20  1  0.39935000  0.46795000  0.99996000  1.0
  H  H21  1  0.89927000  0.53207000  0.00003000  1.0
  H  H22  1  0.22443000  0.27236000  0.00028000  1.0
  H  H23  1  0.72437000  0.72767000  0.99972000  1.0
  C  C24  1  0.48154000  0.16046000  0.12086000  1.0
  C  C25  1  0.48103000  0.28082000  0.87926000  1.0
  C  C26  1  0.98100000  0.71917000  0.12074000  1.0
  C  C27  1  0.98149000  0.83953000  0.87915000  1.0
  C  C28  1  0.38469000  0.30567000  0.00013000  1.0
  C  C29  1  0.88465000  0.69431000  0.99991000  1.0
  Se  Se30  1  0.93054000  0.03891000  0.35794000  1.0
  Se  Se31  1  0.93069000  0.39707000  0.64197000  1.0
  Se  Se32  1  0.43068000  0.60294000  0.35803000  1.0
  Se  Se33  1  0.43054000  0.96109000  0.64206000  1.0
  N  N34  1  0.40438000  0.17599000  0.24298000  1.0
  N  N35  1  0.40411000  0.41880000  0.75708000  1.0
  N  N36  1  0.90409000  0.58120000  0.24289000  1.0
  N  N37  1  0.90435000  0.82402000  0.75698000  1.0
