# generated using pymatgen
data_Al4H12C29O24
_symmetry_space_group_name_H-M   'P 1'
_cell_length_a   6.67887000
_cell_length_b   16.82660000
_cell_length_c   18.66940000
_cell_angle_alpha   74.87550000
_cell_angle_beta   89.42690000
_cell_angle_gamma   89.96650000
_symmetry_Int_Tables_number   1
_chemical_formula_structural   Al4H12C29O24
_chemical_formula_sum   'Al4 H12 C29 O24'
_cell_volume   2025.33495014
_cell_formula_units_Z   1
loop_
 _symmetry_equiv_pos_site_id
 _symmetry_equiv_pos_as_xyz
  1  'x, y, z'
loop_
 _atom_site_type_symbol
 _atom_site_label
 _atom_site_symmetry_multiplicity
 _atom_site_fract_x
 _atom_site_fract_y
 _atom_site_fract_z
 _atom_site_occupancy
  Al  Al0  1  0.10511000  0.49970000  0.50012000  1.0
  Al  Al1  1  0.60686000  0.49996000  0.50065000  1.0
  Al  Al2  1  0.62896000  0.00139000  0.99976000  1.0
  Al  Al3  1  0.13179000  0.00227000  0.99798000  1.0
  H  H4  1  0.58553000  0.81482000  0.19236000  1.0
  H  H5  1  0.01099000  0.69940000  0.30175000  1.0
  H  H6  1  0.07947000  0.17783000  0.80064000  1.0
  H  H7  1  0.54068000  0.19320000  0.79095000  1.0
  H  H8  1  0.49050000  0.32403000  0.71874000  1.0
  H  H9  1  0.16083000  0.84196000  0.16319000  1.0
  H  H10  1  0.41717000  0.73503000  0.27590000  1.0
  H  H11  1  0.94872000  0.24382000  0.57029000  1.0
  H  H12  1  0.35790000  0.60132000  0.45381000  1.0
  H  H13  1  0.85175000  0.40233000  0.55749000  1.0
  H  H14  1  0.38159000  0.90616000  0.98074000  1.0
  H  H15  1  0.87968000  0.10765000  0.98987000  1.0
  C  C16  1  0.35693000  0.41078000  0.41689000  1.0
  C  C17  1  0.35629000  0.39053000  0.61448000  1.0
  C  C18  1  0.85589000  0.58595000  0.58698000  1.0
  C  C19  1  0.85620000  0.61026000  0.38861000  1.0
  C  C20  1  0.72321000  0.78785000  0.21926000  1.0
  C  C21  1  0.89082000  0.82354000  0.18310000  1.0
  C  C22  1  0.70273000  0.72068000  0.28547000  1.0
  C  C23  1  0.86275000  0.67909000  0.32290000  1.0
  C  C24  1  0.88032000  0.86251000  0.86415000  1.0
  C  C25  1  0.87457000  0.81817000  0.82139000  1.0
  C  C26  1  0.86845000  0.76971000  0.77474000  1.0
  C  C27  1  0.86280000  0.72512000  0.73176000  1.0
  C  C28  1  0.85829000  0.67742000  0.68443000  1.0
  C  C29  1  0.85556000  0.63443000  0.64055000  1.0
  C  C30  1  0.35986000  0.36194000  0.36354000  1.0
  C  C31  1  0.36145000  0.31918000  0.31942000  1.0
  C  C32  1  0.36341000  0.27188000  0.27164000  1.0
  C  C33  1  0.36564000  0.22785000  0.22811000  1.0
  C  C34  1  0.36924000  0.18003000  0.18080000  1.0
  C  C35  1  0.37353000  0.13635000  0.13743000  1.0
  C  C36  1  0.22319000  0.20318000  0.77664000  1.0
  C  C37  1  0.39179000  0.17376000  0.81325000  1.0
  C  C38  1  0.21694000  0.26573000  0.70606000  1.0
  C  C39  1  0.36000000  0.32406000  0.68406000  1.0
  C  C40  1  0.38490000  0.11147000  0.88533000  1.0
  C  C41  1  0.37681000  0.08612000  0.08596000  1.0
  C  C42  1  0.87643000  0.89087000  0.11272000  1.0
  C  C43  1  0.88181000  0.91315000  0.91512000  1.0
  C  C44  1  0.03230000  0.26329000  0.66120000  1.0
  O  O45  1  0.52647000  0.41928000  0.58920000  1.0
  O  O46  1  0.18443000  0.43087000  0.43557000  1.0
  O  O47  1  0.02641000  0.58358000  0.41664000  1.0
  O  O48  1  0.18745000  0.41437000  0.58573000  1.0
  O  O49  1  0.02767000  0.56541000  0.56799000  1.0
  O  O50  1  0.52670000  0.42706000  0.43983000  1.0
  O  O51  1  0.35603000  0.54878000  0.49107000  1.0
  O  O52  1  0.68529000  0.57017000  0.56441000  1.0
  O  O53  1  0.68754000  0.58003000  0.41543000  1.0
  O  O54  1  0.85560000  0.44800000  0.51313000  1.0
  O  O55  1  0.20768000  0.06616000  0.06475000  1.0
  O  O56  1  0.55415000  0.08687000  0.91429000  1.0
  O  O57  1  0.71133000  0.93242000  0.93703000  1.0
  O  O58  1  0.54814000  0.06613000  0.06559000  1.0
  O  O59  1  0.70682000  0.91559000  0.08678000  1.0
  O  O60  1  0.21354000  0.08706000  0.91383000  1.0
  O  O61  1  0.37983000  0.95038000  0.00539000  1.0
  O  O62  1  0.04824000  0.91594000  0.08462000  1.0
  O  O63  1  0.05252000  0.93368000  0.93476000  1.0
  O  O64  1  0.88026000  0.04929000  0.99294000  1.0
  O  O65  1  0.08247000  0.80373000  0.20337000  1.0
  O  O66  1  0.51159000  0.69975000  0.30923000  1.0
  O  O67  1  0.86287000  0.27315000  0.68264000  1.0
  O  O68  1  0.07476000  0.24364000  0.59694000  1.0
