# generated using pymatgen
data_AlH15(C4O)6
_symmetry_space_group_name_H-M   'P 1'
_cell_length_a   3.98296000
_cell_length_b   28.53555000
_cell_length_c   28.53540000
_cell_angle_alpha   60.00052166
_cell_angle_beta   89.99970000
_cell_angle_gamma   89.99910000
_symmetry_Int_Tables_number   1
_chemical_formula_structural   AlH15(C4O)6
_chemical_formula_sum   'Al2 H30 C48 O12'
_cell_volume   2808.72404261
_cell_formula_units_Z   2
loop_
 _symmetry_equiv_pos_site_id
 _symmetry_equiv_pos_as_xyz
  1  'x, y, z'
loop_
 _atom_site_type_symbol
 _atom_site_label
 _atom_site_symmetry_multiplicity
 _atom_site_fract_x
 _atom_site_fract_y
 _atom_site_fract_z
 _atom_site_occupancy
  Al  Al0  1  0.98548000  0.50000000  0.00000000  1.0
  Al  Al1  1  0.98538000  0.16666000  0.66667000  1.0
  H  H2  1  0.78069000  0.30143000  0.51285000  1.0
  H  H3  1  0.78768000  0.34597000  0.41236000  1.0
  H  H4  1  0.24372000  0.21080000  0.42192000  1.0
  H  H5  1  0.21254000  0.16906000  0.52220000  1.0
  H  H6  1  0.24373000  0.45588000  0.24475000  1.0
  H  H7  1  0.78773000  0.32070000  0.25431000  1.0
  H  H8  1  0.78079000  0.36524000  0.15382000  1.0
  H  H9  1  0.21258000  0.49761000  0.14447000  1.0
  H  H10  1  0.49463000  0.27836000  0.33570000  1.0
  H  H11  1  0.49462000  0.38830000  0.33097000  1.0
  H  H12  1  0.78081000  0.18572000  0.80143000  1.0
  H  H13  1  0.78777000  0.24167000  0.84596000  1.0
  H  H14  1  0.24368000  0.36728000  0.71080000  1.0
  H  H15  1  0.21250000  0.30874000  0.66906000  1.0
  H  H16  1  0.24364000  0.29939000  0.95587000  1.0
  H  H17  1  0.78774000  0.42499000  0.82070000  1.0
  H  H18  1  0.78082000  0.48094000  0.86524000  1.0
  H  H19  1  0.21252000  0.35793000  0.99760000  1.0
  H  H20  1  0.49463000  0.38594000  0.77836000  1.0
  H  H21  1  0.49460000  0.28073000  0.88830000  1.0
  H  H22  1  0.78074000  0.01285000  0.68572000  1.0
  H  H23  1  0.78772000  0.91237000  0.74167000  1.0
  H  H24  1  0.24363000  0.92192000  0.86728000  1.0
  H  H25  1  0.21246000  0.02219000  0.80874000  1.0
  H  H26  1  0.24375000  0.74475000  0.79937000  1.0
  H  H27  1  0.78775000  0.75430000  0.92499000  1.0
  H  H28  1  0.78081000  0.65382000  0.98094000  1.0
  H  H29  1  0.21259000  0.64448000  0.85791000  1.0
  H  H30  1  0.49459000  0.83569000  0.88594000  1.0
  H  H31  1  0.49466000  0.83097000  0.78073000  1.0
  C  C32  1  0.48668000  0.58323000  0.95616000  1.0
  C  C33  1  0.48669000  0.46061000  0.08323000  1.0
  C  C34  1  0.48669000  0.45617000  0.96060000  1.0
  C  C35  1  0.48660000  0.20606000  0.58344000  1.0
  C  C36  1  0.48659000  0.21050000  0.70606000  1.0
  C  C37  1  0.48659000  0.08344000  0.71050000  1.0
  C  C38  1  0.49289000  0.23283000  0.52349000  1.0
  C  C39  1  0.65516000  0.28276000  0.49235000  1.0
  C  C40  1  0.65788000  0.30747000  0.43629000  1.0
  C  C41  1  0.51114000  0.28193000  0.40990000  1.0
  C  C42  1  0.35901000  0.23101000  0.44178000  1.0
  C  C43  1  0.34155000  0.20744000  0.49766000  1.0
  C  C44  1  0.51227000  0.30648000  0.35118000  1.0
  C  C45  1  0.51225000  0.36020000  0.31547000  1.0
  C  C46  1  0.35907000  0.43565000  0.22489000  1.0
  C  C47  1  0.51114000  0.38473000  0.25679000  1.0
  C  C48  1  0.65791000  0.35921000  0.23037000  1.0
  C  C49  1  0.65520000  0.38392000  0.17431000  1.0
  C  C50  1  0.49296000  0.43385000  0.14317000  1.0
  C  C51  1  0.34161000  0.45923000  0.16900000  1.0
  C  C52  1  0.49289000  0.24368000  0.73283000  1.0
  C  C53  1  0.65521000  0.22489000  0.78275000  1.0
  C  C54  1  0.65794000  0.25624000  0.80747000  1.0
  C  C55  1  0.51116000  0.30817000  0.78193000  1.0
  C  C56  1  0.35900000  0.32721000  0.73101000  1.0
  C  C57  1  0.34153000  0.29490000  0.70744000  1.0
  C  C58  1  0.51228000  0.34233000  0.80648000  1.0
  C  C59  1  0.51224000  0.32433000  0.86020000  1.0
  C  C60  1  0.35902000  0.33946000  0.93565000  1.0
  C  C61  1  0.51113000  0.35849000  0.88473000  1.0
  C  C62  1  0.65790000  0.41042000  0.85920000  1.0
  C  C63  1  0.65521000  0.44178000  0.88391000  1.0
  C  C64  1  0.49295000  0.42299000  0.93383000  1.0
  C  C65  1  0.34157000  0.37177000  0.95923000  1.0
  C  C66  1  0.49287000  0.02348000  0.74369000  1.0
  C  C67  1  0.65517000  0.99235000  0.72489000  1.0
  C  C68  1  0.65788000  0.93629000  0.75624000  1.0
  C  C69  1  0.51112000  0.90989000  0.80818000  1.0
  C  C70  1  0.35897000  0.94178000  0.82721000  1.0
  C  C71  1  0.34149000  0.99766000  0.79490000  1.0
  C  C72  1  0.51225000  0.85119000  0.84233000  1.0
  C  C73  1  0.51227000  0.81547000  0.82433000  1.0
  C  C74  1  0.35905000  0.72489000  0.83946000  1.0
  C  C75  1  0.51114000  0.75678000  0.85849000  1.0
  C  C76  1  0.65792000  0.73038000  0.91041000  1.0
  C  C77  1  0.65521000  0.67431000  0.94177000  1.0
  C  C78  1  0.49296000  0.64317000  0.92298000  1.0
  C  C79  1  0.34161000  0.66901000  0.87176000  1.0
  O  O80  1  0.24972000  0.44706000  0.99431000  1.0
  O  O81  1  0.24969000  0.55864000  0.94705000  1.0
  O  O82  1  0.24973000  0.49431000  0.05864000  1.0
  O  O83  1  0.71920000  0.49123000  0.94871000  1.0
  O  O84  1  0.71919000  0.44871000  0.06006000  1.0
  O  O85  1  0.71917000  0.56006000  0.99123000  1.0
  O  O86  1  0.24957000  0.10803000  0.71961000  1.0
  O  O87  1  0.24959000  0.17235000  0.60804000  1.0
  O  O88  1  0.24957000  0.21961000  0.67236000  1.0
  O  O89  1  0.71912000  0.10661000  0.67543000  1.0
  O  O90  1  0.71912000  0.17543000  0.71796000  1.0
  O  O91  1  0.71911000  0.21796000  0.60661000  1.0
