# generated using pymatgen
data_AlH7C13O6F
_symmetry_space_group_name_H-M   'P 1'
_cell_length_a   6.61317000
_cell_length_b   11.05632237
_cell_length_c   15.22470000
_cell_angle_alpha   92.69555381
_cell_angle_beta   100.36670000
_cell_angle_gamma   106.19089042
_symmetry_Int_Tables_number   1
_chemical_formula_structural   AlH7C13O6F
_chemical_formula_sum   'Al2 H14 C26 O12 F2'
_cell_volume   1046.00544332
_cell_formula_units_Z   2
loop_
 _symmetry_equiv_pos_site_id
 _symmetry_equiv_pos_as_xyz
  1  'x, y, z'
loop_
 _atom_site_type_symbol
 _atom_site_label
 _atom_site_symmetry_multiplicity
 _atom_site_fract_x
 _atom_site_fract_y
 _atom_site_fract_z
 _atom_site_occupancy
  Al  Al0  1  0.00813000  0.50478000  0.51067000  1.0
  Al  Al1  1  0.50690000  0.50521000  0.50890000  1.0
  H  H2  1  0.34177000  0.57323000  0.62054000  1.0
  H  H3  1  0.66221000  0.36640000  0.43145000  1.0
  H  H4  1  0.70713000  0.58404000  0.95763000  1.0
  H  H5  1  0.33664000  0.46928000  0.06372000  1.0
  H  H6  1  0.83957000  0.55148000  0.25029000  1.0
  H  H7  1  0.73521000  0.54065000  0.08621000  1.0
  H  H8  1  0.12657000  0.41557000  0.77041000  1.0
  H  H9  1  0.21251000  0.41229000  0.93399000  1.0
  H  H10  1  0.52655000  0.75985000  0.38167000  1.0
  H  H11  1  0.30283000  0.86723000  0.28745000  1.0
  H  H12  1  0.79351000  0.22208000  0.36764000  1.0
  H  H13  1  0.43881000  0.10154000  0.27982000  1.0
  H  H14  1  0.44888000  0.21472000  0.55248000  1.0
  H  H15  1  0.22024000  0.78861000  0.55582000  1.0
  C  C16  1  0.85266000  0.73173000  0.50183000  1.0
  C  C17  1  0.82722000  0.49735000  0.67096000  1.0
  C  C18  1  0.14771000  0.27231000  0.49486000  1.0
  C  C19  1  0.18490000  0.51324000  0.35010000  1.0
  C  C20  1  0.86688000  0.49583000  0.77025000  1.0
  C  C21  1  0.13914000  0.51276000  0.25072000  1.0
  C  C22  1  0.75038000  0.53985000  0.82641000  1.0
  C  C23  1  0.80026000  0.54327000  0.91916000  1.0
  C  C24  1  0.27289000  0.48871000  0.19450000  1.0
  C  C25  1  0.22123000  0.48617000  0.10189000  1.0
  C  C26  1  0.94636000  0.53329000  0.20802000  1.0
  C  C27  1  0.88979000  0.52809000  0.11540000  1.0
  C  C28  1  0.03478000  0.45089000  0.81275000  1.0
  C  C29  1  0.08380000  0.45091000  0.90517000  1.0
  C  C30  1  0.96956000  0.49909000  0.96090000  1.0
  C  C31  1  0.02645000  0.50458000  0.05982000  1.0
  C  C32  1  0.92739000  0.86536000  0.48481000  1.0
  C  C33  1  0.78804000  0.92873000  0.43339000  1.0
  C  C34  1  0.14246000  0.93269000  0.52137000  1.0
  C  C35  1  0.58402000  0.86161000  0.38062000  1.0
  C  C36  1  0.45857000  0.92221000  0.32739000  1.0
  C  C37  1  0.07512000  0.13305000  0.48078000  1.0
  C  C38  1  0.21607000  0.06789000  0.52001000  1.0
  C  C39  1  0.86334000  0.06304000  0.43062000  1.0
  C  C40  1  0.73273000  0.12155000  0.37368000  1.0
  C  C41  1  0.53400000  0.05331000  0.32341000  1.0
  O  O42  1  0.99887000  0.67592000  0.52824000  1.0
  O  O43  1  0.65289000  0.51569000  0.63189000  1.0
  O  O44  1  0.35346000  0.32783000  0.51646000  1.0
  O  O45  1  0.04556000  0.53583000  0.39106000  1.0
  O  O46  1  0.00977000  0.33342000  0.48766000  1.0
  O  O47  1  0.35537000  0.48911000  0.38761000  1.0
  O  O48  1  0.65403000  0.67546000  0.49438000  1.0
  O  O49  1  0.97480000  0.48068000  0.63234000  1.0
  O  O50  1  0.30329000  0.56109000  0.55538000  1.0
  O  O51  1  0.71340000  0.44691000  0.46831000  1.0
  O  O52  1  0.42022000  0.12288000  0.56196000  1.0
  O  O53  1  0.29096000  0.88248000  0.56291000  1.0
  F  F54  1  0.58496000  0.58547000  0.79194000  1.0
  F  F55  1  0.46147000  0.46599000  0.22878000  1.0
