# generated using pymatgen
data_AgH15C18S2Br2(NO2)2
_symmetry_space_group_name_H-M   'P 1'
_cell_length_a   7.68579000
_cell_length_b   11.44640000
_cell_length_c   12.26680000
_cell_angle_alpha   84.39370000
_cell_angle_beta   80.06440000
_cell_angle_gamma   72.75920000
_symmetry_Int_Tables_number   1
_chemical_formula_structural   AgH15C18S2Br2(NO2)2
_chemical_formula_sum   'Ag2 H30 C36 S4 Br4 N4 O8'
_cell_volume   1013.97593813
_cell_formula_units_Z   2
loop_
 _symmetry_equiv_pos_site_id
 _symmetry_equiv_pos_as_xyz
  1  'x, y, z'
loop_
 _atom_site_type_symbol
 _atom_site_label
 _atom_site_symmetry_multiplicity
 _atom_site_fract_x
 _atom_site_fract_y
 _atom_site_fract_z
 _atom_site_occupancy
  Ag  Ag0  1  0.21974000  0.59812000  0.41906000  1.0
  Ag  Ag1  1  0.78024000  0.40188000  0.58095000  1.0
  H  H2  1  0.02238000  0.58097000  0.21920000  1.0
  H  H3  1  0.97762000  0.41903000  0.78080000  1.0
  H  H4  1  0.10290000  0.64653000  0.02085000  1.0
  H  H5  1  0.89711000  0.35348000  0.97915000  1.0
  H  H6  1  0.45781000  0.28099000  0.95984000  1.0
  H  H7  1  0.54218000  0.71901000  0.04015000  1.0
  H  H8  1  0.37867000  0.21740000  0.15748000  1.0
  H  H9  1  0.62132000  0.78260000  0.84252000  1.0
  H  H10  1  0.63719000  0.05685000  0.49133000  1.0
  H  H11  1  0.36282000  0.94316000  0.50867000  1.0
  H  H12  1  0.59644000  0.94813000  0.67502000  1.0
  H  H13  1  0.40357000  0.05188000  0.32497000  1.0
  H  H14  1  0.22792000  0.28432000  0.80858000  1.0
  H  H15  1  0.77208000  0.71568000  0.19143000  1.0
  H  H16  1  0.26860000  0.39296000  0.62398000  1.0
  H  H17  1  0.73140000  0.60704000  0.37602000  1.0
  H  H18  1  0.95912000  0.86437000  0.47435000  1.0
  H  H19  1  0.04087000  0.13562000  0.52565000  1.0
  H  H20  1  0.86360000  0.06943000  0.37370000  1.0
  H  H21  1  0.13640000  0.93057000  0.62630000  1.0
  H  H22  1  0.21160000  0.90737000  0.08142000  1.0
  H  H23  1  0.78840000  0.09262000  0.91858000  1.0
  H  H24  1  0.30110000  0.71165000  0.19322000  1.0
  H  H25  1  0.69890000  0.28834000  0.80678000  1.0
  H  H26  1  0.82339000  0.16929000  0.17492000  1.0
  H  H27  1  0.17662000  0.83071000  0.82508000  1.0
  H  H28  1  0.01687000  0.12011000  0.06756000  1.0
  H  H29  1  0.98315000  0.87989000  0.93244000  1.0
  H  H30  1  0.03648000  0.19145000  0.18588000  1.0
  H  H31  1  0.96353000  0.80854000  0.81413000  1.0
  C  C32  1  0.19499000  0.39589000  0.19916000  1.0
  C  C33  1  0.80501000  0.60411000  0.80084000  1.0
  C  C34  1  0.11775000  0.51650000  0.16156000  1.0
  C  C35  1  0.88226000  0.48351000  0.83844000  1.0
  C  C36  1  0.16346000  0.55305000  0.05136000  1.0
  C  C37  1  0.83655000  0.44695000  0.94864000  1.0
  C  C38  1  0.28696000  0.46786000  0.97964000  1.0
  C  C39  1  0.71304000  0.53214000  0.02036000  1.0
  C  C40  1  0.36306000  0.34692000  0.01668000  1.0
  C  C41  1  0.63693000  0.65308000  0.98332000  1.0
  C  C42  1  0.31722000  0.31078000  0.12730000  1.0
  C  C43  1  0.68277000  0.68922000  0.87270000  1.0
  C  C44  1  0.45599000  0.23043000  0.54711000  1.0
  C  C45  1  0.54400000  0.76956000  0.45289000  1.0
  C  C46  1  0.54897000  0.10650000  0.56114000  1.0
  C  C47  1  0.45103000  0.89350000  0.43886000  1.0
  C  C48  1  0.52553000  0.04514000  0.66416000  1.0
  C  C49  1  0.47448000  0.95486000  0.33584000  1.0
  C  C50  1  0.40765000  0.11105000  0.75078000  1.0
  C  C51  1  0.59235000  0.88895000  0.24922000  1.0
  C  C52  1  0.31575000  0.23529000  0.73822000  1.0
  C  C53  1  0.68425000  0.76471000  0.26178000  1.0
  C  C54  1  0.34018000  0.29604000  0.63521000  1.0
  C  C55  1  0.65981000  0.70396000  0.36479000  1.0
  C  C56  1  0.01415000  0.87844000  0.38746000  1.0
  C  C57  1  0.98585000  0.12156000  0.61255000  1.0
  C  C58  1  0.96089000  0.99163000  0.33127000  1.0
  C  C59  1  0.03911000  0.00837000  0.66874000  1.0
  C  C60  1  0.02928000  0.00654000  0.21870000  1.0
  C  C61  1  0.97072000  0.99346000  0.78130000  1.0
  C  C62  1  0.15305000  0.90290000  0.16875000  1.0
  C  C63  1  0.84696000  0.09710000  0.83126000  1.0
  C  C64  1  0.20309000  0.79292000  0.23036000  1.0
  C  C65  1  0.79691000  0.20708000  0.76965000  1.0
  C  C66  1  0.97305000  0.12795000  0.15719000  1.0
  C  C67  1  0.02696000  0.87205000  0.84281000  1.0
  S  S68  1  0.14452000  0.35577000  0.34246000  1.0
  S  S69  1  0.85549000  0.64421000  0.65754000  1.0
  S  S70  1  0.49175000  0.30746000  0.41578000  1.0
  S  S71  1  0.50824000  0.69255000  0.58423000  1.0
  Br  Br72  1  0.34856000  0.51862000  0.82961000  1.0
  Br  Br73  1  0.65143000  0.48138000  0.17039000  1.0
  Br  Br74  1  0.37466000  0.03132000  0.89309000  1.0
  Br  Br75  1  0.62535000  0.96867000  0.10691000  1.0
  N  N76  1  0.29042000  0.39869000  0.39937000  1.0
  N  N77  1  0.70957000  0.60131000  0.60063000  1.0
  N  N78  1  0.13473000  0.77934000  0.33824000  1.0
  N  N79  1  0.86527000  0.22066000  0.66176000  1.0
  O  O80  1  0.96432000  0.43685000  0.38207000  1.0
  O  O81  1  0.03567000  0.56315000  0.61793000  1.0
  O  O82  1  0.16962000  0.22457000  0.35585000  1.0
  O  O83  1  0.83038000  0.77543000  0.64415000  1.0
  O  O84  1  0.60301000  0.38790000  0.42617000  1.0
  O  O85  1  0.39697000  0.61212000  0.57384000  1.0
  O  O86  1  0.56528000  0.21525000  0.33359000  1.0
  O  O87  1  0.43473000  0.78475000  0.66640000  1.0
