# generated using pymatgen
data_ZnH17C18N4O5
_symmetry_space_group_name_H-M   'P 1'
_cell_length_a   9.66696000
_cell_length_b   9.96112000
_cell_length_c   10.67220000
_cell_angle_alpha   83.47710000
_cell_angle_beta   64.48000000
_cell_angle_gamma   71.08570000
_symmetry_Int_Tables_number   1
_chemical_formula_structural   ZnH17C18N4O5
_chemical_formula_sum   'Zn2 H34 C36 N8 O10'
_cell_volume   876.91766276
_cell_formula_units_Z   2
loop_
 _symmetry_equiv_pos_site_id
 _symmetry_equiv_pos_as_xyz
  1  'x, y, z'
loop_
 _atom_site_type_symbol
 _atom_site_label
 _atom_site_symmetry_multiplicity
 _atom_site_fract_x
 _atom_site_fract_y
 _atom_site_fract_z
 _atom_site_occupancy
  Zn  Zn0  1  0.83788000  0.18225000  0.36569000  1.0
  Zn  Zn1  1  0.16212000  0.81775000  0.63431000  1.0
  H  H2  1  0.60525000  0.49836000  0.75503000  1.0
  H  H3  1  0.39475000  0.50163000  0.24497000  1.0
  H  H4  1  0.57374000  0.33783000  0.15746000  1.0
  H  H5  1  0.42626000  0.66217000  0.84254000  1.0
  H  H6  1  0.81180000  0.13527000  0.04184000  1.0
  H  H7  1  0.18821000  0.86473000  0.95816000  1.0
  H  H8  1  0.66063000  0.01173000  0.27969000  1.0
  H  H9  1  0.33937000  0.98827000  0.72031000  1.0
  H  H10  1  0.46797000  0.39720000  0.50877000  1.0
  H  H11  1  0.53203000  0.60280000  0.49123000  1.0
  H  H12  1  0.21680000  0.32815000  0.49104000  1.0
  H  H13  1  0.78320000  0.67185000  0.50896000  1.0
  H  H14  1  0.20445000  0.13983000  0.37217000  1.0
  H  H15  1  0.79555000  0.86017000  0.62783000  1.0
  H  H16  1  0.32641000  0.97513000  0.40088000  1.0
  H  H17  1  0.67359000  0.02487000  0.59913000  1.0
  H  H18  1  0.32935000  0.99184000  0.16162000  1.0
  H  H19  1  0.67065000  0.00816000  0.83838000  1.0
  H  H20  1  0.41829000  0.13129000  0.12500000  1.0
  H  H21  1  0.58171000  0.86871000  0.87500000  1.0
  H  H22  1  0.52902000  0.75330000  0.10713000  1.0
  H  H23  1  0.47098000  0.24669000  0.89287000  1.0
  H  H24  1  0.49215000  0.78509000  0.28068000  1.0
  H  H25  1  0.50785000  0.21491000  0.71932000  1.0
  H  H26  1  0.79166000  0.75512000  0.19641000  1.0
  H  H27  1  0.20834000  0.24488000  0.80359000  1.0
  H  H28  1  0.74207000  0.60007000  0.18936000  1.0
  H  H29  1  0.25794000  0.39993000  0.81064000  1.0
  H  H30  1  0.95358000  0.85400000  0.97062000  1.0
  H  H31  1  0.04642000  0.14600000  0.02938000  1.0
  H  H32  1  0.80993000  0.50329000  0.94459000  1.0
  H  H33  1  0.19007000  0.49671000  0.05541000  1.0
  H  H34  1  0.02248000  0.55382000  0.68083000  1.0
  H  H35  1  0.97752000  0.44618000  0.31917000  1.0
  C  C36  1  0.85552000  0.29048000  0.59826000  1.0
  C  C37  1  0.14449000  0.70952000  0.40174000  1.0
  C  C38  1  0.78253000  0.30384000  0.75454000  1.0
  C  C39  1  0.21747000  0.69616000  0.24546000  1.0
  C  C40  1  0.64853000  0.42035000  0.82055000  1.0
  C  C41  1  0.35146000  0.57965000  0.17945000  1.0
  C  C42  1  0.57040000  0.43759000  0.96605000  1.0
  C  C43  1  0.42959000  0.56241000  0.03395000  1.0
  C  C44  1  0.63104000  0.33131000  0.04445000  1.0
  C  C45  1  0.36896000  0.66869000  0.95555000  1.0
  C  C46  1  0.76638000  0.21658000  0.97969000  1.0
  C  C47  1  0.23362000  0.78342000  0.02031000  1.0
  C  C48  1  0.84472000  0.20166000  0.83443000  1.0
  C  C49  1  0.15528000  0.79834000  0.16557000  1.0
  C  C50  1  0.98899000  0.07421000  0.77262000  1.0
  C  C51  1  0.01101000  0.92579000  0.22738000  1.0
  C  C52  1  0.57480000  0.10558000  0.34223000  1.0
  C  C53  1  0.42520000  0.89442000  0.65778000  1.0
  C  C54  1  0.47060000  0.30730000  0.45845000  1.0
  C  C55  1  0.52940000  0.69270000  0.54155000  1.0
  C  C56  1  0.34585000  0.27571000  0.45111000  1.0
  C  C57  1  0.65415000  0.72429000  0.54889000  1.0
  C  C58  1  0.32956000  0.07160000  0.34007000  1.0
  C  C59  1  0.67044000  0.92840000  0.65993000  1.0
  C  C60  1  0.40739000  0.03513000  0.18495000  1.0
  C  C61  1  0.59261000  0.96487000  0.81505000  1.0
  C  C62  1  0.57167000  0.79445000  0.17101000  1.0
  C  C63  1  0.42833000  0.20554000  0.82900000  1.0
  C  C64  1  0.74252000  0.70518000  0.14553000  1.0
  C  C65  1  0.25748000  0.29482000  0.85447000  1.0
  C  C66  1  0.94686000  0.76585000  0.92443000  1.0
  C  C67  1  0.05314000  0.23415000  0.07557000  1.0
  C  C68  1  0.87251000  0.58219000  0.90895000  1.0
  C  C69  1  0.12749000  0.41781000  0.09105000  1.0
  C  C70  1  0.98018000  0.60601000  0.78020000  1.0
  C  C71  1  0.01982000  0.39399000  0.21980000  1.0
  N  N72  1  0.61298000  0.20063000  0.38951000  1.0
  N  N73  1  0.38702000  0.79936000  0.61049000  1.0
  N  N74  1  0.41447000  0.14778000  0.37698000  1.0
  N  N75  1  0.58553000  0.85222000  0.62302000  1.0
  N  N76  1  0.85288000  0.68399000  0.99837000  1.0
  N  N77  1  0.14712000  0.31601000  0.00163000  1.0
  N  N78  1  0.02654000  0.72033000  0.79143000  1.0
  N  N79  1  0.97346000  0.27967000  0.20857000  1.0
  O  O80  1  0.76279000  0.26433000  0.55166000  1.0
  O  O81  1  0.23721000  0.73568000  0.44833000  1.0
  O  O82  1  0.98897000  0.30864000  0.52750000  1.0
  O  O83  1  0.01104000  0.69135000  0.47250000  1.0
  O  O84  1  0.00568000  0.01361000  0.66394000  1.0
  O  O85  1  0.99432000  0.98639000  0.33606000  1.0
  O  O86  1  0.08159000  0.03015000  0.83286000  1.0
  O  O87  1  0.91841000  0.96986000  0.16714000  1.0
  O  O88  1  0.56794000  0.93822000  0.13770000  1.0
  O  O89  1  0.43206000  0.06178000  0.86230000  1.0
