# generated using pymatgen
data_ZnH12C27N2O11
_symmetry_space_group_name_H-M   'P 1'
_cell_length_a   9.61985000
_cell_length_b   10.71390000
_cell_length_c   23.75110000
_cell_angle_alpha   89.25570000
_cell_angle_beta   88.91590000
_cell_angle_gamma   87.84640000
_symmetry_Int_Tables_number   1
_chemical_formula_structural   ZnH12C27N2O11
_chemical_formula_sum   'Zn2 H24 C54 N4 O22'
_cell_volume   2445.58188913
_cell_formula_units_Z   2
loop_
 _symmetry_equiv_pos_site_id
 _symmetry_equiv_pos_as_xyz
  1  'x, y, z'
loop_
 _atom_site_type_symbol
 _atom_site_label
 _atom_site_symmetry_multiplicity
 _atom_site_fract_x
 _atom_site_fract_y
 _atom_site_fract_z
 _atom_site_occupancy
  Zn  Zn0  1  0.35533000  0.50891000  0.50292000  1.0
  Zn  Zn1  1  0.64608000  0.48603000  0.49666000  1.0
  H  H2  1  0.80612000  0.33374000  0.94539000  1.0
  H  H3  1  0.63342000  0.08438000  0.42103000  1.0
  H  H4  1  0.24963000  0.03913000  0.48589000  1.0
  H  H5  1  0.75123000  0.95576000  0.51453000  1.0
  H  H6  1  0.43214000  0.89735000  0.41351000  1.0
  H  H7  1  0.56910000  0.09759000  0.58690000  1.0
  H  H8  1  0.21547000  0.31184000  0.58566000  1.0
  H  H9  1  0.78696000  0.68645000  0.41388000  1.0
  H  H10  1  0.03458000  0.21512000  0.42968000  1.0
  H  H11  1  0.96524000  0.78152000  0.56936000  1.0
  H  H12  1  0.16321000  0.60262000  0.37653000  1.0
  H  H13  1  0.18857000  0.65171000  0.05459000  1.0
  H  H14  1  0.83857000  0.39267000  0.62285000  1.0
  H  H15  1  0.62228000  0.70064000  0.15816000  1.0
  H  H16  1  0.34524000  0.21190000  0.76442000  1.0
  H  H17  1  0.39325000  0.29878000  0.37655000  1.0
  H  H18  1  0.60843000  0.69499000  0.62325000  1.0
  H  H19  1  0.80684000  0.33529000  0.05209000  1.0
  H  H20  1  0.18893000  0.65152000  0.94789000  1.0
  H  H21  1  0.60534000  0.67975000  0.31594000  1.0
  H  H22  1  0.40176000  0.31274000  0.68376000  1.0
  H  H23  1  0.40331000  0.32283000  0.21843000  1.0
  H  H24  1  0.59288000  0.67359000  0.78158000  1.0
  H  H25  1  0.36741000  0.91023000  0.57942000  1.0
  C  C26  1  0.46074000  0.25950000  0.49411000  1.0
  C  C27  1  0.55551000  0.59112000  0.70144000  1.0
  C  C28  1  0.44545000  0.40253000  0.23953000  1.0
  C  C29  1  0.55284000  0.59290000  0.76051000  1.0
  C  C30  1  0.50117000  0.50034000  0.20895000  1.0
  C  C31  1  0.50003000  0.49451000  0.79139000  1.0
  C  C32  1  0.36086000  0.02079000  0.49212000  1.0
  C  C33  1  0.63999000  0.97403000  0.50831000  1.0
  C  C34  1  0.42584000  0.95097000  0.54426000  1.0
  C  C35  1  0.57489000  0.04385000  0.45620000  1.0
  C  C36  1  0.52781000  0.87273000  0.50446000  1.0
  C  C37  1  0.54007000  0.73528000  0.50643000  1.0
  C  C38  1  0.47305000  0.12205000  0.49606000  1.0
  C  C39  1  0.46159000  0.94369000  0.45205000  1.0
  C  C40  1  0.53929000  0.05104000  0.54843000  1.0
  C  C41  1  0.49976000  0.51295000  0.38947000  1.0
  C  C42  1  0.50183000  0.48113000  0.61049000  1.0
  C  C43  1  0.97642000  0.39265000  0.47208000  1.0
  C  C44  1  0.02488000  0.60390000  0.52765000  1.0
  C  C45  1  0.06378000  0.40144000  0.52596000  1.0
  C  C46  1  0.93752000  0.59508000  0.47379000  1.0
  C  C47  1  0.05581000  0.50600000  0.44837000  1.0
  C  C48  1  0.55938000  0.60106000  0.23632000  1.0
  C  C49  1  0.94547000  0.49051000  0.55135000  1.0
  C  C50  1  0.38355000  0.55364000  0.87895000  1.0
  C  C51  1  0.61552000  0.43768000  0.12096000  1.0
  C  C52  1  0.61334000  0.43390000  0.87809000  1.0
  C  C53  1  0.38330000  0.55520000  0.12196000  1.0
  C  C54  1  0.61128000  0.43504000  0.94044000  1.0
  C  C55  1  0.38432000  0.55196000  0.05965000  1.0
  C  C56  1  0.49800000  0.49362000  0.97004000  1.0
  C  C57  1  0.49778000  0.49361000  0.03004000  1.0
  C  C58  1  0.38481000  0.55192000  0.94131000  1.0
  C  C59  1  0.44478000  0.39180000  0.76409000  1.0
  C  C60  1  0.61156000  0.43599000  0.05869000  1.0
  C  C61  1  0.72093000  0.37822000  0.96954000  1.0
  C  C62  1  0.27410000  0.60774000  0.03047000  1.0
  C  C63  1  0.72123000  0.37890000  0.02865000  1.0
  C  C64  1  0.27437000  0.60772000  0.97135000  1.0
  C  C65  1  0.12740000  0.29243000  0.55812000  1.0
  C  C66  1  0.87403000  0.70491000  0.44209000  1.0
  C  C67  1  0.94363000  0.27881000  0.43922000  1.0
  C  C68  1  0.05670000  0.71790000  0.56049000  1.0
  C  C69  1  0.11338000  0.51473000  0.38903000  1.0
  C  C70  1  0.55890000  0.60157000  0.29522000  1.0
  C  C71  1  0.88773000  0.48110000  0.61061000  1.0
  C  C72  1  0.62328000  0.70594000  0.20497000  1.0
  C  C73  1  0.38305000  0.28362000  0.79373000  1.0
  C  C74  1  0.38967000  0.29401000  0.32989000  1.0
  C  C75  1  0.60705000  0.70187000  0.66990000  1.0
  C  C76  1  0.44568000  0.39141000  0.70520000  1.0
  C  C77  1  0.49977000  0.50560000  0.32642000  1.0
  C  C78  1  0.50219000  0.48849000  0.67358000  1.0
  C  C79  1  0.44334000  0.40408000  0.29848000  1.0
  N  N80  1  0.50179000  0.49894000  0.85190000  1.0
  N  N81  1  0.49976000  0.49712000  0.14824000  1.0
  N  N82  1  0.14080000  0.51622000  0.50288000  1.0
  N  N83  1  0.86054000  0.48018000  0.49691000  1.0
  O  O84  1  0.34139000  0.31656000  0.49226000  1.0
  O  O85  1  0.71227000  0.39276000  0.14851000  1.0
  O  O86  1  0.70553000  0.38126000  0.84974000  1.0
  O  O87  1  0.28990000  0.60586000  0.15039000  1.0
  O  O88  1  0.07113000  0.19224000  0.55645000  1.0
  O  O89  1  0.92942000  0.80527000  0.44512000  1.0
  O  O90  1  0.82613000  0.26038000  0.42411000  1.0
  O  O91  1  0.17347000  0.73668000  0.57637000  1.0
  O  O92  1  0.09387000  0.43064000  0.35636000  1.0
  O  O93  1  0.90625000  0.56494000  0.64356000  1.0
  O  O94  1  0.67537000  0.79381000  0.22803000  1.0
  O  O95  1  0.65943000  0.67828000  0.50814000  1.0
  O  O96  1  0.37114000  0.26929000  0.84472000  1.0
  O  O97  1  0.34580000  0.20228000  0.30686000  1.0
  O  O98  1  0.64425000  0.79628000  0.69290000  1.0
  O  O99  1  0.57627000  0.31379000  0.49536000  1.0
  O  O100  1  0.42443000  0.68103000  0.50550000  1.0
  O  O101  1  0.38259000  0.51149000  0.41525000  1.0
  O  O102  1  0.61888000  0.48287000  0.58473000  1.0
  O  O103  1  0.61750000  0.52165000  0.41223000  1.0
  O  O104  1  0.38384000  0.47259000  0.58796000  1.0
  O  O105  1  0.28751000  0.59970000  0.85130000  1.0
