# generated using pymatgen
data_ZnH6C16N3O8
_symmetry_space_group_name_H-M   'P 1'
_cell_length_a   14.35930000
_cell_length_b   15.07370000
_cell_length_c   15.15170000
_cell_angle_alpha   89.97180000
_cell_angle_beta   90.91260000
_cell_angle_gamma   89.99740000
_symmetry_Int_Tables_number   1
_chemical_formula_structural   ZnH6C16N3O8
_chemical_formula_sum   'Zn2 H12 C32 N6 O16'
_cell_volume   3279.13543486
_cell_formula_units_Z   2
loop_
 _symmetry_equiv_pos_site_id
 _symmetry_equiv_pos_as_xyz
  1  'x, y, z'
loop_
 _atom_site_type_symbol
 _atom_site_label
 _atom_site_symmetry_multiplicity
 _atom_site_fract_x
 _atom_site_fract_y
 _atom_site_fract_z
 _atom_site_occupancy
  Zn  Zn0  1  0.50003000  0.41104000  0.50004000  1.0
  Zn  Zn1  1  0.50002000  0.59999000  0.49996000  1.0
  H  H2  1  0.36584000  0.93963000  0.43134000  1.0
  H  H3  1  0.57681000  0.07034000  0.62489000  1.0
  H  H4  1  0.63415000  0.93962000  0.56866000  1.0
  H  H5  1  0.42312000  0.07045000  0.37514000  1.0
  H  H6  1  0.54501000  0.33773000  0.06163000  1.0
  H  H7  1  0.54468000  0.61086000  0.93995000  1.0
  H  H8  1  0.45493000  0.33774000  0.93850000  1.0
  H  H9  1  0.45523000  0.61083000  0.05996000  1.0
  H  H10  1  0.54203000  0.33745000  0.22537000  1.0
  H  H11  1  0.54198000  0.61094000  0.77572000  1.0
  H  H12  1  0.45790000  0.33750000  0.77476000  1.0
  H  H13  1  0.45804000  0.61093000  0.22419000  1.0
  C  C14  1  0.49972000  0.47529000  0.33290000  1.0
  C  C15  1  0.50033000  0.47532000  0.66712000  1.0
  C  C16  1  0.32192000  0.53914000  0.50469000  1.0
  C  C17  1  0.67811000  0.53914000  0.49526000  1.0
  C  C18  1  0.42694000  0.90789000  0.46073000  1.0
  C  C19  1  0.54377000  0.10209000  0.56800000  1.0
  C  C20  1  0.57309000  0.90788000  0.53925000  1.0
  C  C21  1  0.45618000  0.10216000  0.43202000  1.0
  C  C22  1  0.43350000  0.81592000  0.46012000  1.0
  C  C23  1  0.54390000  0.19407000  0.56194000  1.0
  C  C24  1  0.56661000  0.81590000  0.53983000  1.0
  C  C25  1  0.45601000  0.19412000  0.43809000  1.0
  C  C26  1  0.22173000  0.54311000  0.50521000  1.0
  C  C27  1  0.77829000  0.54313000  0.49471000  1.0
  C  C28  1  0.13630000  0.54459000  0.50355000  1.0
  C  C29  1  0.86372000  0.54460000  0.49639000  1.0
  C  C30  1  0.04297000  0.54545000  0.50122000  1.0
  C  C31  1  0.95706000  0.54543000  0.49868000  1.0
  C  C32  1  0.50001000  0.95608000  0.50000000  1.0
  C  C33  1  0.49998000  0.05395000  0.50000000  1.0
  C  C34  1  0.52409000  0.39742000  0.09679000  1.0
  C  C35  1  0.52363000  0.55122000  0.90406000  1.0
  C  C36  1  0.47586000  0.39744000  0.90327000  1.0
  C  C37  1  0.47629000  0.55121000  0.09590000  1.0
  C  C38  1  0.52350000  0.39714000  0.18852000  1.0
  C  C39  1  0.52308000  0.55159000  0.81234000  1.0
  C  C40  1  0.47643000  0.39719000  0.81155000  1.0
  C  C41  1  0.47691000  0.55157000  0.18762000  1.0
  C  C42  1  0.50018000  0.47438000  0.23475000  1.0
  C  C43  1  0.49981000  0.47441000  0.76528000  1.0
  C  C44  1  0.50011000  0.47422000  0.04869000  1.0
  C  C45  1  0.49982000  0.47424000  0.95132000  1.0
  N  N46  1  0.50006000  0.76826000  0.49997000  1.0
  N  N47  1  0.49995000  0.24169000  0.50001000  1.0
  N  N48  1  0.36159000  0.76797000  0.40641000  1.0
  N  N49  1  0.60186000  0.24245000  0.62877000  1.0
  N  N50  1  0.63859000  0.76793000  0.59348000  1.0
  N  N51  1  0.39804000  0.24254000  0.37125000  1.0
  O  O52  1  0.50671000  0.39970000  0.37265000  1.0
  O  O53  1  0.50776000  0.54935000  0.62819000  1.0
  O  O54  1  0.49334000  0.39972000  0.62744000  1.0
  O  O55  1  0.49227000  0.54932000  0.37176000  1.0
  O  O56  1  0.35934000  0.46350000  0.49896000  1.0
  O  O57  1  0.63579000  0.61438000  0.49009000  1.0
  O  O58  1  0.64069000  0.46351000  0.50105000  1.0
  O  O59  1  0.36424000  0.61437000  0.50981000  1.0
  O  O60  1  0.27986000  0.78849000  0.41973000  1.0
  O  O61  1  0.39136000  0.71623000  0.35077000  1.0
  O  O62  1  0.65826000  0.29584000  0.59973000  1.0
  O  O63  1  0.59047000  0.22059000  0.70652000  1.0
  O  O64  1  0.72028000  0.78852000  0.58008000  1.0
  O  O65  1  0.60891000  0.71614000  0.64916000  1.0
  O  O66  1  0.34163000  0.29590000  0.40028000  1.0
  O  O67  1  0.40940000  0.22071000  0.29351000  1.0
