# generated using pymatgen
data_ZnH5C14NO5
_symmetry_space_group_name_H-M   'P 1'
_cell_length_a   14.02420000
_cell_length_b   14.84930000
_cell_length_c   16.19620000
_cell_angle_alpha   90.36920000
_cell_angle_beta   90.45590000
_cell_angle_gamma   80.51750000
_symmetry_Int_Tables_number   1
_chemical_formula_structural   ZnH5C14NO5
_chemical_formula_sum   'Zn2 H10 C28 N2 O10'
_cell_volume   3326.61429504
_cell_formula_units_Z   2
loop_
 _symmetry_equiv_pos_site_id
 _symmetry_equiv_pos_as_xyz
  1  'x, y, z'
loop_
 _atom_site_type_symbol
 _atom_site_label
 _atom_site_symmetry_multiplicity
 _atom_site_fract_x
 _atom_site_fract_y
 _atom_site_fract_z
 _atom_site_occupancy
  Zn  Zn0  1  0.50543000  0.40457000  0.49974000  1.0
  Zn  Zn1  1  0.49456000  0.59545000  0.50025000  1.0
  H  H2  1  0.50157000  0.35480000  0.92192000  1.0
  H  H3  1  0.38595000  0.09839000  0.40585000  1.0
  H  H4  1  0.49843000  0.64516000  0.07806000  1.0
  H  H5  1  0.50112000  0.35436000  0.07552000  1.0
  H  H6  1  0.49887000  0.64560000  0.92447000  1.0
  H  H7  1  0.60949000  0.07049000  0.59376000  1.0
  H  H8  1  0.39054000  0.92954000  0.40627000  1.0
  H  H9  1  0.99932000  0.33071000  0.50015000  1.0
  H  H10  1  0.00068000  0.66926000  0.49985000  1.0
  H  H11  1  0.61407000  0.90163000  0.59418000  1.0
  C  C12  1  0.50002000  0.50070000  0.66076000  1.0
  C  C13  1  0.56456000  0.94512000  0.55342000  1.0
  C  C14  1  0.49678000  0.18952000  0.49934000  1.0
  C  C15  1  0.50324000  0.81051000  0.50070000  1.0
  C  C16  1  0.68847000  0.47025000  0.50117000  1.0
  C  C17  1  0.31153000  0.52975000  0.49882000  1.0
  C  C18  1  0.20769000  0.53686000  0.49872000  1.0
  C  C19  1  0.79230000  0.46313000  0.50128000  1.0
  C  C20  1  0.02046000  0.53910000  0.49988000  1.0
  C  C21  1  0.97954000  0.46086000  0.50011000  1.0
  C  C22  1  0.87955000  0.46273000  0.50083000  1.0
  C  C23  1  0.49996000  0.49934000  0.33923000  1.0
  C  C24  1  0.12044000  0.53726000  0.49917000  1.0
  C  C25  1  0.50057000  0.41787000  0.04207000  1.0
  C  C26  1  0.49942000  0.58209000  0.95792000  1.0
  C  C27  1  0.49973000  0.49970000  0.08721000  1.0
  C  C28  1  0.50027000  0.50026000  0.91278000  1.0
  C  C29  1  0.49914000  0.58183000  0.04354000  1.0
  C  C30  1  0.50086000  0.41813000  0.95645000  1.0
  C  C31  1  0.49964000  0.49939000  0.17466000  1.0
  C  C32  1  0.50035000  0.50060000  0.82532000  1.0
  C  C33  1  0.50025000  0.50084000  0.75005000  1.0
  C  C34  1  0.49974000  0.49918000  0.24994000  1.0
  C  C35  1  0.56209000  0.03892000  0.55316000  1.0
  C  C36  1  0.43793000  0.96111000  0.44687000  1.0
  C  C37  1  0.49767000  0.09365000  0.49973000  1.0
  C  C38  1  0.50236000  0.90638000  0.50031000  1.0
  C  C39  1  0.43547000  0.05490000  0.44662000  1.0
  N  N40  1  0.50203000  0.73260000  0.50066000  1.0
  N  N41  1  0.49798000  0.26743000  0.49935000  1.0
  O  O42  1  0.50565000  0.42298000  0.62555000  1.0
  O  O43  1  0.95967000  0.62235000  0.50056000  1.0
  O  O44  1  0.49434000  0.57707000  0.37443000  1.0
  O  O45  1  0.49425000  0.57819000  0.62597000  1.0
  O  O46  1  0.50572000  0.42185000  0.37402000  1.0
  O  O47  1  0.65358000  0.39618000  0.50089000  1.0
  O  O48  1  0.34640000  0.60383000  0.49909000  1.0
  O  O49  1  0.64184000  0.55154000  0.50129000  1.0
  O  O50  1  0.35815000  0.44846000  0.49871000  1.0
  O  O51  1  0.04033000  0.37762000  0.49943000  1.0
