# generated using pymatgen
data_ZnH18C22N3O5
_symmetry_space_group_name_H-M   'P 1'
_cell_length_a   8.68205000
_cell_length_b   10.76960000
_cell_length_c   12.45030000
_cell_angle_alpha   113.64100000
_cell_angle_beta   92.54450000
_cell_angle_gamma   112.30800000
_symmetry_Int_Tables_number   1
_chemical_formula_structural   ZnH18C22N3O5
_chemical_formula_sum   'Zn2 H36 C44 N6 O10'
_cell_volume   959.70115754
_cell_formula_units_Z   2
loop_
 _symmetry_equiv_pos_site_id
 _symmetry_equiv_pos_as_xyz
  1  'x, y, z'
loop_
 _atom_site_type_symbol
 _atom_site_label
 _atom_site_symmetry_multiplicity
 _atom_site_fract_x
 _atom_site_fract_y
 _atom_site_fract_z
 _atom_site_occupancy
  Zn  Zn0  1  0.51375000  0.40165000  0.72383000  1.0
  Zn  Zn1  1  0.48625000  0.59835000  0.27617000  1.0
  H  H2  1  0.20267000  0.39615000  0.41474000  1.0
  H  H3  1  0.79733000  0.60385000  0.58526000  1.0
  H  H4  1  0.97989000  0.55927000  0.71162000  1.0
  H  H5  1  0.02011000  0.44074000  0.28838000  1.0
  H  H6  1  0.94728000  0.81135000  0.78786000  1.0
  H  H7  1  0.05272000  0.18865000  0.21214000  1.0
  H  H8  1  0.81016000  0.93104000  0.12948000  1.0
  H  H9  1  0.18984000  0.06896000  0.87052000  1.0
  H  H10  1  0.43830000  0.33350000  0.41523000  1.0
  H  H11  1  0.56171000  0.66650000  0.58477000  1.0
  H  H12  1  0.43137000  0.20281000  0.19769000  1.0
  H  H13  1  0.56863000  0.79719000  0.80231000  1.0
  H  H14  1  0.55656000  0.02078000  0.12300000  1.0
  H  H15  1  0.44344000  0.97922000  0.87700000  1.0
  H  H16  1  0.69345000  0.96167000  0.26593000  1.0
  H  H17  1  0.30655000  0.03832000  0.73407000  1.0
  H  H18  1  0.90869000  0.14335000  0.73383000  1.0
  H  H19  1  0.09131000  0.85665000  0.26616000  1.0
  H  H20  1  0.96135000  0.21264000  0.95046000  1.0
  H  H21  1  0.03865000  0.78736000  0.04954000  1.0
  H  H22  1  0.82304000  0.36605000  0.08433000  1.0
  H  H23  1  0.17696000  0.63396000  0.91567000  1.0
  H  H24  1  0.63492000  0.43800000  0.98867000  1.0
  H  H25  1  0.36508000  0.56200000  0.01133000  1.0
  H  H26  1  0.71090000  0.90619000  0.42113000  1.0
  H  H27  1  0.28910000  0.09381000  0.57887000  1.0
  H  H28  1  0.75132000  0.96854000  0.57757000  1.0
  H  H29  1  0.24868000  0.03146000  0.42243000  1.0
  H  H30  1  0.04740000  0.16042000  0.59774000  1.0
  H  H31  1  0.95260000  0.83958000  0.40226000  1.0
  H  H32  1  0.99872000  0.10154000  0.44128000  1.0
  H  H33  1  0.00128000  0.89846000  0.55872000  1.0
  H  H34  1  0.24453000  0.36393000  0.78577000  1.0
  H  H35  1  0.75547000  0.63607000  0.21423000  1.0
  H  H36  1  0.33073000  0.31608000  0.87436000  1.0
  H  H37  1  0.66927000  0.68392000  0.12564000  1.0
  C  C38  1  0.20911000  0.44521000  0.64940000  1.0
  C  C39  1  0.79089000  0.55480000  0.35060000  1.0
  C  C40  1  0.10320000  0.47448000  0.57170000  1.0
  C  C41  1  0.89680000  0.52553000  0.42830000  1.0
  C  C42  1  0.11275000  0.44042000  0.45178000  1.0
  C  C43  1  0.88725000  0.55958000  0.54822000  1.0
  C  C44  1  0.98921000  0.53432000  0.61896000  1.0
  C  C45  1  0.01079000  0.46568000  0.38104000  1.0
  C  C46  1  0.71970000  0.70010000  0.90731000  1.0
  C  C47  1  0.28030000  0.29990000  0.09269000  1.0
  C  C48  1  0.86285000  0.85596000  0.95377000  1.0
  C  C49  1  0.13714000  0.14404000  0.04623000  1.0
  C  C50  1  0.97066000  0.89460000  0.88044000  1.0
  C  C51  1  0.02934000  0.10540000  0.11956000  1.0
  C  C52  1  0.89362000  0.96278000  0.07323000  1.0
  C  C53  1  0.10638000  0.03723000  0.92677000  1.0
  C  C54  1  0.57342000  0.22291000  0.46291000  1.0
  C  C55  1  0.42658000  0.77709000  0.53709000  1.0
  C  C56  1  0.49305000  0.25328000  0.38283000  1.0
  C  C57  1  0.50695000  0.74672000  0.61717000  1.0
  C  C58  1  0.49043000  0.17933000  0.26143000  1.0
  C  C59  1  0.50957000  0.82067000  0.73857000  1.0
  C  C60  1  0.56262000  0.07637000  0.21912000  1.0
  C  C61  1  0.43737000  0.92363000  0.78088000  1.0
  C  C62  1  0.64109000  0.04378000  0.29743000  1.0
  C  C63  1  0.35891000  0.95622000  0.70257000  1.0
  C  C64  1  0.64635000  0.12008000  0.41928000  1.0
  C  C65  1  0.35365000  0.87991000  0.58072000  1.0
  C  C66  1  0.68509000  0.21123000  0.61793000  1.0
  C  C67  1  0.31491000  0.78877000  0.38207000  1.0
  C  C68  1  0.73522000  0.24757000  0.74441000  1.0
  C  C69  1  0.26478000  0.75243000  0.25559000  1.0
  C  C70  1  0.84527000  0.20484000  0.79061000  1.0
  C  C71  1  0.15473000  0.79516000  0.20939000  1.0
  C  C72  1  0.87709000  0.24620000  0.91354000  1.0
  C  C73  1  0.12291000  0.75380000  0.08646000  1.0
  C  C74  1  0.80118000  0.32969000  0.98751000  1.0
  C  C75  1  0.19882000  0.67031000  0.01249000  1.0
  C  C76  1  0.69678000  0.37178000  0.93524000  1.0
  C  C77  1  0.30322000  0.62822000  0.06476000  1.0
  C  C78  1  0.78254000  0.00535000  0.50778000  1.0
  C  C79  1  0.21746000  0.99465000  0.49222000  1.0
  C  C80  1  0.97250000  0.06263000  0.51085000  1.0
  C  C81  1  0.02750000  0.93737000  0.48915000  1.0
  N  N82  1  0.59824000  0.27614000  0.58661000  1.0
  N  N83  1  0.40176000  0.72386000  0.41339000  1.0
  N  N84  1  0.71415000  0.11361000  0.51891000  1.0
  N  N85  1  0.28585000  0.88639000  0.48109000  1.0
  N  N86  1  0.66465000  0.33204000  0.81724000  1.0
  N  N87  1  0.33535000  0.66796000  0.18276000  1.0
  O  O88  1  0.33171000  0.41402000  0.61255000  1.0
  O  O89  1  0.66829000  0.58598000  0.38745000  1.0
  O  O90  1  0.16612000  0.44906000  0.74681000  1.0
  O  O91  1  0.83388000  0.55094000  0.25319000  1.0
  O  O92  1  0.68614000  0.61632000  0.79289000  1.0
  O  O93  1  0.31386000  0.38368000  0.20711000  1.0
  O  O94  1  0.64202000  0.65957000  0.97902000  1.0
  O  O95  1  0.35798000  0.34043000  0.02098000  1.0
  O  O96  1  0.31036000  0.30350000  0.79047000  1.0
  O  O97  1  0.68964000  0.69650000  0.20953000  1.0
