# generated using pymatgen
data_ZnH19C22NO5
_symmetry_space_group_name_H-M   'P 1'
_cell_length_a   11.74650000
_cell_length_b   13.21840000
_cell_length_c   17.56210000
_cell_angle_alpha   94.08400000
_cell_angle_beta   99.30870000
_cell_angle_gamma   94.73840000
_symmetry_Int_Tables_number   1
_chemical_formula_structural   ZnH19C22NO5
_chemical_formula_sum   'Zn2 H38 C44 N2 O10'
_cell_volume   2671.82312033
_cell_formula_units_Z   2
loop_
 _symmetry_equiv_pos_site_id
 _symmetry_equiv_pos_as_xyz
  1  'x, y, z'
loop_
 _atom_site_type_symbol
 _atom_site_label
 _atom_site_symmetry_multiplicity
 _atom_site_fract_x
 _atom_site_fract_y
 _atom_site_fract_z
 _atom_site_occupancy
  Zn  Zn0  1  0.61861000  0.50212000  0.50876000  1.0
  Zn  Zn1  1  0.38140000  0.49789000  0.49124000  1.0
  H  H2  1  0.34483000  0.55642000  0.73077000  1.0
  H  H3  1  0.65516000  0.44358000  0.26922000  1.0
  H  H4  1  0.78605000  0.37586000  0.59371000  1.0
  H  H5  1  0.21396000  0.62414000  0.40629000  1.0
  H  H6  1  0.00143000  0.64900000  0.39509000  1.0
  H  H7  1  0.99858000  0.35099000  0.60491000  1.0
  H  H8  1  0.29539000  0.49136000  0.23870000  1.0
  H  H9  1  0.70461000  0.50868000  0.76130000  1.0
  H  H10  1  0.37686000  0.44539000  0.98301000  1.0
  H  H11  1  0.62314000  0.55463000  0.01699000  1.0
  H  H12  1  0.71057000  0.51447000  0.90430000  1.0
  H  H13  1  0.28942000  0.48557000  0.09570000  1.0
  H  H14  1  0.66061000  0.80932000  0.42142000  1.0
  H  H15  1  0.33940000  0.19069000  0.57857000  1.0
  H  H16  1  0.33963000  0.00626000  0.60067000  1.0
  H  H17  1  0.66038000  0.99374000  0.39932000  1.0
  H  H18  1  0.80643000  0.59618000  0.43941000  1.0
  H  H19  1  0.19359000  0.40382000  0.56059000  1.0
  H  H20  1  0.79763000  0.26258000  0.05144000  1.0
  H  H21  1  0.89466000  0.32986000  0.13023000  1.0
  H  H22  1  0.84194000  0.20148000  0.13670000  1.0
  H  H23  1  0.73635000  0.31837000  0.21258000  1.0
  H  H24  1  0.63990000  0.25337000  0.13389000  1.0
  H  H25  1  0.66231000  0.40339000  0.05591000  1.0
  H  H26  1  0.75419000  0.47104000  0.13571000  1.0
  H  H27  1  0.10534000  0.67018000  0.86977000  1.0
  H  H28  1  0.20237000  0.73746000  0.94856000  1.0
  H  H29  1  0.15808000  0.79855000  0.86329000  1.0
  H  H30  1  0.36011000  0.74664000  0.86611000  1.0
  H  H31  1  0.26365000  0.68165000  0.78742000  1.0
  H  H32  1  0.24579000  0.52897000  0.86427000  1.0
  H  H33  1  0.33767000  0.59662000  0.94409000  1.0
  H  H34  1  0.50708000  0.85527000  0.69326000  1.0
  H  H35  1  0.51147000  0.73537000  0.63936000  1.0
  H  H36  1  0.38718000  0.75865000  0.68200000  1.0
  H  H37  1  0.61285000  0.24137000  0.31801000  1.0
  H  H38  1  0.48855000  0.26464000  0.36065000  1.0
  H  H39  1  0.49295000  0.14474000  0.30674000  1.0
  C  C40  1  0.47035000  0.30092000  0.49958000  1.0
  C  C41  1  0.52965000  0.69908000  0.50041000  1.0
  C  C42  1  0.53486000  0.81233000  0.49802000  1.0
  C  C43  1  0.46516000  0.18768000  0.50197000  1.0
  C  C44  1  0.39377000  0.04051000  0.56278000  1.0
  C  C45  1  0.60624000  0.95949000  0.43721000  1.0
  C  C46  1  0.39345000  0.14202000  0.55024000  1.0
  C  C47  1  0.60656000  0.85799000  0.44976000  1.0
  C  C48  1  0.53300000  0.12738000  0.46303000  1.0
  C  C49  1  0.46701000  0.87263000  0.53697000  1.0
  C  C50  1  0.53501000  0.02165000  0.47428000  1.0
  C  C51  1  0.46501000  0.97836000  0.52571000  1.0
  C  C52  1  0.04052000  0.59398000  0.43211000  1.0
  C  C53  1  0.95949000  0.40602000  0.56790000  1.0
  C  C54  1  0.15634000  0.58070000  0.43743000  1.0
  C  C55  1  0.84368000  0.41930000  0.56258000  1.0
  C  C56  1  0.14675000  0.45658000  0.52503000  1.0
  C  C57  1  0.85327000  0.54343000  0.47497000  1.0
  C  C58  1  0.02713000  0.46456000  0.52413000  1.0
  C  C59  1  0.97288000  0.53544000  0.47588000  1.0
  C  C60  1  0.51431000  0.51680000  0.65142000  1.0
  C  C61  1  0.48567000  0.48321000  0.34857000  1.0
  C  C62  1  0.52211000  0.52718000  0.73752000  1.0
  C  C63  1  0.47789000  0.47284000  0.26249000  1.0
  C  C64  1  0.42414000  0.54608000  0.77015000  1.0
  C  C65  1  0.57585000  0.45393000  0.22985000  1.0
  C  C66  1  0.42547000  0.55321000  0.85015000  1.0
  C  C67  1  0.57451000  0.44680000  0.14984000  1.0
  C  C68  1  0.52914000  0.53504000  0.89897000  1.0
  C  C69  1  0.47086000  0.46499000  0.10102000  1.0
  C  C70  1  0.62968000  0.52327000  0.86589000  1.0
  C  C71  1  0.37032000  0.47676000  0.13411000  1.0
  C  C72  1  0.62713000  0.51931000  0.78650000  1.0
  C  C73  1  0.37287000  0.48072000  0.21350000  1.0
  C  C74  1  0.53982000  0.52436000  0.98227000  1.0
  C  C75  1  0.46017000  0.47566000  0.01773000  1.0
  C  C76  1  0.67984000  0.41252000  0.11943000  1.0
  C  C77  1  0.71519000  0.31089000  0.14889000  1.0
  C  C78  1  0.81790000  0.27411000  0.11503000  1.0
  C  C79  1  0.32014000  0.58749000  0.88056000  1.0
  C  C80  1  0.28480000  0.68913000  0.85111000  1.0
  C  C81  1  0.18209000  0.72592000  0.88497000  1.0
  C  C82  1  0.45523000  0.79372000  0.65376000  1.0
  C  C83  1  0.54480000  0.20629000  0.34625000  1.0
  N  N84  1  0.79254000  0.48770000  0.51676000  1.0
  N  N85  1  0.20747000  0.51230000  0.48324000  1.0
  O  O86  1  0.57060000  0.34822000  0.50503000  1.0
  O  O87  1  0.42943000  0.65180000  0.49498000  1.0
  O  O88  1  0.37512000  0.34173000  0.49476000  1.0
  O  O89  1  0.62490000  0.65827000  0.50522000  1.0
  O  O90  1  0.60921000  0.51563000  0.62488000  1.0
  O  O91  1  0.39081000  0.48442000  0.37511000  1.0
  O  O92  1  0.41319000  0.50997000  0.61095000  1.0
  O  O93  1  0.58681000  0.49001000  0.38905000  1.0
  O  O94  1  0.39718000  0.83502000  0.58621000  1.0
  O  O95  1  0.60286000  0.16499000  0.41380000  1.0
