# generated using pymatgen
data_CaH12(C5O4)2
_symmetry_space_group_name_H-M   'P 1'
_cell_length_a   6.93071000
_cell_length_b   7.60473000
_cell_length_c   23.24000000
_cell_angle_alpha   93.31560000
_cell_angle_beta   90.00000000
_cell_angle_gamma   90.00000000
_symmetry_Int_Tables_number   1
_chemical_formula_structural   CaH12(C5O4)2
_chemical_formula_sum   'Ca4 H48 C40 O32'
_cell_volume   1222.84124475
_cell_formula_units_Z   4
loop_
 _symmetry_equiv_pos_site_id
 _symmetry_equiv_pos_as_xyz
  1  'x, y, z'
loop_
 _atom_site_type_symbol
 _atom_site_label
 _atom_site_symmetry_multiplicity
 _atom_site_fract_x
 _atom_site_fract_y
 _atom_site_fract_z
 _atom_site_occupancy
  Ca  Ca0  1  0.41369000  0.66758000  0.31637000  1.0
  Ca  Ca1  1  0.91369000  0.83243000  0.18363000  1.0
  Ca  Ca2  1  0.58631000  0.33242000  0.68363000  1.0
  Ca  Ca3  1  0.08631000  0.16758000  0.81637000  1.0
  H  H4  1  0.31916000  0.63787000  0.54235000  1.0
  H  H5  1  0.81916000  0.86212000  0.95766000  1.0
  H  H6  1  0.68084000  0.36212000  0.45765000  1.0
  H  H7  1  0.18085000  0.13789000  0.04234000  1.0
  H  H8  1  0.55292000  0.77049000  0.61268000  1.0
  H  H9  1  0.05290000  0.72952000  0.88732000  1.0
  H  H10  1  0.44708000  0.22951000  0.38732000  1.0
  H  H11  1  0.94709000  0.27050000  0.11268000  1.0
  H  H12  1  0.83287000  0.93988000  0.57909000  1.0
  H  H13  1  0.33287000  0.56014000  0.92091000  1.0
  H  H14  1  0.16713000  0.06011000  0.42091000  1.0
  H  H15  1  0.66713000  0.43988000  0.07909000  1.0
  H  H16  1  0.87984000  0.97576000  0.47396000  1.0
  H  H17  1  0.37986000  0.52427000  0.02604000  1.0
  H  H18  1  0.12016000  0.02422000  0.52604000  1.0
  H  H19  1  0.62014000  0.47575000  0.97396000  1.0
  H  H20  1  0.79013000  0.06960000  0.38407000  1.0
  H  H21  1  0.29014000  0.43040000  0.11592000  1.0
  H  H22  1  0.20988000  0.93038000  0.61593000  1.0
  H  H23  1  0.70987000  0.56961000  0.88407000  1.0
  H  H24  1  0.94108000  0.87890000  0.38506000  1.0
  H  H25  1  0.44110000  0.62111000  0.11494000  1.0
  H  H26  1  0.05893000  0.12109000  0.61494000  1.0
  H  H27  1  0.55891000  0.37889000  0.88506000  1.0
  H  H28  1  0.20515000  0.46700000  0.46930000  1.0
  H  H29  1  0.70514000  0.03300000  0.03070000  1.0
  H  H30  1  0.79484000  0.53299000  0.53070000  1.0
  H  H31  1  0.29485000  0.96701000  0.96930000  1.0
  H  H32  1  0.08822000  0.67584000  0.47102000  1.0
  H  H33  1  0.58823000  0.82416000  0.02899000  1.0
  H  H34  1  0.91178000  0.32416000  0.52898000  1.0
  H  H35  1  0.41178000  0.17585000  0.97101000  1.0
  H  H36  1  0.64539000  0.34045000  0.29592000  1.0
  H  H37  1  0.14538000  0.15956000  0.20408000  1.0
  H  H38  1  0.35461000  0.65954000  0.70408000  1.0
  H  H39  1  0.85461000  0.84045000  0.79593000  1.0
  H  H40  1  0.74452000  0.42583000  0.35387000  1.0
  H  H41  1  0.24452000  0.07417000  0.14613000  1.0
  H  H42  1  0.25548000  0.57416000  0.64613000  1.0
  H  H43  1  0.75547000  0.92584000  0.85387000  1.0
  H  H44  1  0.17889000  0.99223000  0.29783000  1.0
  H  H45  1  0.67889000  0.50777000  0.20217000  1.0
  H  H46  1  0.82111000  0.00776000  0.70217000  1.0
  H  H47  1  0.32112000  0.49223000  0.79783000  1.0
  H  H48  1  0.38060000  0.99208000  0.26743000  1.0
  H  H49  1  0.88061000  0.50793000  0.23256000  1.0
  H  H50  1  0.61940000  0.00791000  0.73257000  1.0
  H  H51  1  0.11939000  0.49208000  0.76744000  1.0
  C  C52  1  0.63241000  0.81920000  0.44899000  1.0
  C  C53  1  0.13242000  0.68082000  0.05101000  1.0
  C  C54  1  0.36760000  0.18078000  0.55101000  1.0
  C  C55  1  0.86759000  0.31921000  0.94899000  1.0
  C  C56  1  0.47141000  0.72646000  0.46835000  1.0
  C  C57  1  0.97141000  0.77355000  0.03166000  1.0
  C  C58  1  0.52859000  0.27352000  0.53166000  1.0
  C  C59  1  0.02859000  0.22647000  0.96834000  1.0
  C  C60  1  0.44347000  0.70911000  0.52704000  1.0
  C  C61  1  0.94346000  0.79089000  0.97297000  1.0
  C  C62  1  0.55653000  0.29089000  0.47296000  1.0
  C  C63  1  0.05653000  0.20911000  0.02704000  1.0
  C  C64  1  0.57502000  0.78554000  0.56684000  1.0
  C  C65  1  0.07500000  0.71445000  0.93316000  1.0
  C  C66  1  0.42498000  0.21446000  0.43316000  1.0
  C  C67  1  0.92498000  0.28555000  0.06684000  1.0
  C  C68  1  0.73265000  0.87902000  0.54784000  1.0
  C  C69  1  0.23264000  0.62100000  0.95216000  1.0
  C  C70  1  0.26735000  0.12097000  0.45216000  1.0
  C  C71  1  0.76735000  0.37902000  0.04783000  1.0
  C  C72  1  0.76155000  0.89628000  0.48880000  1.0
  C  C73  1  0.26155000  0.60374000  0.01120000  1.0
  C  C74  1  0.23846000  0.10370000  0.51120000  1.0
  C  C75  1  0.73845000  0.39628000  0.98880000  1.0
  C  C76  1  0.80307000  0.92972000  0.36934000  1.0
  C  C77  1  0.30309000  0.57028000  0.13066000  1.0
  C  C78  1  0.19693000  0.07026000  0.63066000  1.0
  C  C79  1  0.69692000  0.42972000  0.86934000  1.0
  C  C80  1  0.80804000  0.91154000  0.30406000  1.0
  C  C81  1  0.30804000  0.58845000  0.19594000  1.0
  C  C82  1  0.19197000  0.08844000  0.69594000  1.0
  C  C83  1  0.69196000  0.41155000  0.80406000  1.0
  C  C84  1  0.17288000  0.58063000  0.44386000  1.0
  C  C85  1  0.67288000  0.91937000  0.05615000  1.0
  C  C86  1  0.82712000  0.41936000  0.55614000  1.0
  C  C87  1  0.32713000  0.08063000  0.94385000  1.0
  C  C88  1  0.05497000  0.51974000  0.39102000  1.0
  C  C89  1  0.55496000  0.98027000  0.10898000  1.0
  C  C90  1  0.94503000  0.48026000  0.60898000  1.0
  C  C91  1  0.44504000  0.01973000  0.89102000  1.0
  O  O92  1  0.62633000  0.42776000  0.32753000  1.0
  O  O93  1  0.12634000  0.07225000  0.17248000  1.0
  O  O94  1  0.37367000  0.57223000  0.67247000  1.0
  O  O95  1  0.87366000  0.92776000  0.82753000  1.0
  O  O96  1  0.31984000  0.97585000  0.30466000  1.0
  O  O97  1  0.81984000  0.52416000  0.19534000  1.0
  O  O98  1  0.68016000  0.02415000  0.69534000  1.0
  O  O99  1  0.18017000  0.47585000  0.80466000  1.0
  O  O100  1  0.64619000  0.82915000  0.39007000  1.0
  O  O101  1  0.14620000  0.67084000  0.10993000  1.0
  O  O102  1  0.35381000  0.17084000  0.60993000  1.0
  O  O103  1  0.85380000  0.32915000  0.89007000  1.0
  O  O104  1  0.68688000  0.81420000  0.27679000  1.0
  O  O105  1  0.18688000  0.68579000  0.22321000  1.0
  O  O106  1  0.31312000  0.18579000  0.72321000  1.0
  O  O107  1  0.81312000  0.31421000  0.77679000  1.0
  O  O108  1  0.94095000  0.99482000  0.27928000  1.0
  O  O109  1  0.44095000  0.50517000  0.22072000  1.0
  O  O110  1  0.05905000  0.00517000  0.72072000  1.0
  O  O111  1  0.55906000  0.49483000  0.77928000  1.0
  O  O112  1  0.34842000  0.66179000  0.42555000  1.0
  O  O113  1  0.84842000  0.83821000  0.07445000  1.0
  O  O114  1  0.65158000  0.33821000  0.57445000  1.0
  O  O115  1  0.15158000  0.16179000  0.92555000  1.0
  O  O116  1  0.11328000  0.55711000  0.34144000  1.0
  O  O117  1  0.61329000  0.94290000  0.15856000  1.0
  O  O118  1  0.88672000  0.44289000  0.65856000  1.0
  O  O119  1  0.38671000  0.05710000  0.84144000  1.0
  O  O120  1  0.90201000  0.43735000  0.40207000  1.0
  O  O121  1  0.40200000  0.06266000  0.09794000  1.0
  O  O122  1  0.09800000  0.56264000  0.59794000  1.0
  O  O123  1  0.59800000  0.93735000  0.90206000  1.0
