# generated using pymatgen
data_Ag3H13(C6O7)2
_symmetry_space_group_name_H-M   'P 1'
_cell_length_a   6.37776000
_cell_length_b   9.48552000
_cell_length_c   15.25930000
_cell_angle_alpha   96.28000000
_cell_angle_beta   93.49380000
_cell_angle_gamma   100.40100000
_symmetry_Int_Tables_number   1
_chemical_formula_structural   Ag3H13(C6O7)2
_chemical_formula_sum   'Ag6 H26 C24 O28'
_cell_volume   899.43611591
_cell_formula_units_Z   2
loop_
 _symmetry_equiv_pos_site_id
 _symmetry_equiv_pos_as_xyz
  1  'x, y, z'
loop_
 _atom_site_type_symbol
 _atom_site_label
 _atom_site_symmetry_multiplicity
 _atom_site_fract_x
 _atom_site_fract_y
 _atom_site_fract_z
 _atom_site_occupancy
  Ag  Ag0  1  0.38124000  0.86000000  0.00963000  1.0
  Ag  Ag1  1  0.61878000  0.14000000  0.99037000  1.0
  Ag  Ag2  1  0.86772000  0.41394000  0.43076000  1.0
  Ag  Ag3  1  0.13228000  0.58606000  0.56924000  1.0
  Ag  Ag4  1  0.56002000  0.41764000  0.56844000  1.0
  Ag  Ag5  1  0.43998000  0.58236000  0.43156000  1.0
  H  H6  1  0.88572000  0.41761000  0.83770000  1.0
  H  H7  1  0.11428000  0.58238000  0.16231000  1.0
  H  H8  1  0.47678000  0.89483000  0.56963000  1.0
  H  H9  1  0.52321000  0.10517000  0.43037000  1.0
  H  H10  1  0.92245000  0.87654000  0.89820000  1.0
  H  H11  1  0.07755000  0.12346000  0.10180000  1.0
  H  H12  1  0.25078000  0.98535000  0.73253000  1.0
  H  H13  1  0.74922000  0.01464000  0.26747000  1.0
  H  H14  1  0.25143000  0.23386000  0.74916000  1.0
  H  H15  1  0.74857000  0.76613000  0.25084000  1.0
  H  H16  1  0.16354000  0.09413000  0.61124000  1.0
  H  H17  1  0.83646000  0.90587000  0.38875000  1.0
  H  H18  1  0.81832000  0.00336000  0.53742000  1.0
  H  H19  1  0.18167000  0.99664000  0.46258000  1.0
  H  H20  1  0.01187000  0.86239000  0.61154000  1.0
  H  H21  1  0.98813000  0.13761000  0.38846000  1.0
  H  H22  1  0.99393000  0.79213000  0.75189000  1.0
  H  H23  1  0.00607000  0.20787000  0.24811000  1.0
  H  H24  1  0.17651000  0.63171000  0.87367000  1.0
  H  H25  1  0.82348000  0.36829000  0.12634000  1.0
  H  H26  1  0.20490000  0.53538000  0.94881000  1.0
  H  H27  1  0.79510000  0.46463000  0.05119000  1.0
  H  H28  1  0.64089000  0.28383000  0.23789000  1.0
  H  H29  1  0.35911000  0.71618000  0.76211000  1.0
  H  H30  1  0.75524000  0.45199000  0.25966000  1.0
  H  H31  1  0.24476000  0.54801000  0.74034000  1.0
  C  C32  1  0.11976000  0.01733000  0.76955000  1.0
  C  C33  1  0.88024000  0.98267000  0.23045000  1.0
  C  C34  1  0.09339000  0.16281000  0.73915000  1.0
  C  C35  1  0.90661000  0.83719000  0.26085000  1.0
  C  C36  1  0.02987000  0.13922000  0.63872000  1.0
  C  C37  1  0.97013000  0.86078000  0.36128000  1.0
  C  C38  1  0.82923000  0.02396000  0.61014000  1.0
  C  C39  1  0.17078000  0.97604000  0.38986000  1.0
  C  C40  1  0.86712000  0.88185000  0.64356000  1.0
  C  C41  1  0.13287000  0.11816000  0.35644000  1.0
  C  C42  1  0.92971000  0.89054000  0.74284000  1.0
  C  C43  1  0.07028000  0.10946000  0.25716000  1.0
  C  C44  1  0.21900000  0.03348000  0.86445000  1.0
  C  C45  1  0.78100000  0.96653000  0.13555000  1.0
  C  C46  1  0.94839000  0.23385000  0.79739000  1.0
  C  C47  1  0.05159000  0.76614000  0.20261000  1.0
  C  C48  1  0.03449000  0.27372000  0.59279000  1.0
  C  C49  1  0.96551000  0.72629000  0.40721000  1.0
  C  C50  1  0.62311000  0.08030000  0.62671000  1.0
  C  C51  1  0.37689000  0.91970000  0.37329000  1.0
  C  C52  1  0.70720000  0.74545000  0.60690000  1.0
  C  C53  1  0.29280000  0.25455000  0.39310000  1.0
  C  C54  1  0.73338000  0.87406000  0.79529000  1.0
  C  C55  1  0.26661000  0.12594000  0.20470000  1.0
  O  O56  1  0.16229000  0.92825000  0.90984000  1.0
  O  O57  1  0.83770000  0.07174000  0.09016000  1.0
  O  O58  1  0.36091000  0.14366000  0.88849000  1.0
  O  O59  1  0.63908000  0.85633000  0.11151000  1.0
  O  O60  1  0.82886000  0.16991000  0.84593000  1.0
  O  O61  1  0.17115000  0.83008000  0.15406000  1.0
  O  O62  1  0.97598000  0.37767000  0.79536000  1.0
  O  O63  1  0.02403000  0.62233000  0.20464000  1.0
  O  O64  1  0.91870000  0.25691000  0.52007000  1.0
  O  O65  1  0.08130000  0.74310000  0.47993000  1.0
  O  O66  1  0.16371000  0.38871000  0.62635000  1.0
  O  O67  1  0.83630000  0.61129000  0.37365000  1.0
  O  O68  1  0.62076000  0.20447000  0.65976000  1.0
  O  O69  1  0.37924000  0.79552000  0.34024000  1.0
  O  O70  1  0.44168000  0.99169000  0.59443000  1.0
  O  O71  1  0.55832000  0.00831000  0.40557000  1.0
  O  O72  1  0.56572000  0.75583000  0.54512000  1.0
  O  O73  1  0.43427000  0.24417000  0.45488000  1.0
  O  O74  1  0.73558000  0.62837000  0.63404000  1.0
  O  O75  1  0.26441000  0.37164000  0.36596000  1.0
  O  O76  1  0.55160000  0.85930000  0.75722000  1.0
  O  O77  1  0.44841000  0.14071000  0.24278000  1.0
  O  O78  1  0.75987000  0.85681000  0.87951000  1.0
  O  O79  1  0.24014000  0.14319000  0.12049000  1.0
  O  O80  1  0.14911000  0.62074000  0.93646000  1.0
  O  O81  1  0.85089000  0.37927000  0.06354000  1.0
  O  O82  1  0.77777000  0.35474000  0.23995000  1.0
  O  O83  1  0.22223000  0.64526000  0.76005000  1.0
