# generated using pymatgen
data_ErH14C14N3O9F4
_symmetry_space_group_name_H-M   'P 1'
_cell_length_a   11.29370000
_cell_length_b   12.30913788
_cell_length_c   20.07048602
_cell_angle_alpha   73.77042022
_cell_angle_beta   73.68143031
_cell_angle_gamma   62.69827283
_symmetry_Int_Tables_number   1
_chemical_formula_structural   ErH14C14N3O9F4
_chemical_formula_sum   'Er4 H56 C56 N12 O36 F16'
_cell_volume   2342.02337822
_cell_formula_units_Z   4
loop_
 _symmetry_equiv_pos_site_id
 _symmetry_equiv_pos_as_xyz
  1  'x, y, z'
loop_
 _atom_site_type_symbol
 _atom_site_label
 _atom_site_symmetry_multiplicity
 _atom_site_fract_x
 _atom_site_fract_y
 _atom_site_fract_z
 _atom_site_occupancy
  Er  Er0  1  0.86387000  0.89067000  0.30399000  1.0
  Er  Er1  1  0.05866000  0.60929000  0.19596000  1.0
  Er  Er2  1  0.13613000  0.10933000  0.69601000  1.0
  Er  Er3  1  0.94135000  0.39071000  0.80403000  1.0
  H  H4  1  0.04193000  0.97173000  0.38634000  1.0
  H  H5  1  0.40034000  0.52800000  0.11352000  1.0
  H  H6  1  0.95807000  0.02827000  0.61366000  1.0
  H  H7  1  0.59967000  0.47200000  0.88647000  1.0
  H  H8  1  0.85363000  0.34087000  0.33859000  1.0
  H  H9  1  0.53276000  0.15891000  0.16140000  1.0
  H  H10  1  0.14636000  0.65913000  0.66141000  1.0
  H  H11  1  0.46725000  0.84109000  0.83860000  1.0
  H  H12  1  0.74767000  0.31119000  0.41920000  1.0
  H  H13  1  0.47766000  0.18864000  0.08077000  1.0
  H  H14  1  0.25232000  0.68881000  0.58080000  1.0
  H  H15  1  0.52236000  0.81135000  0.91923000  1.0
  H  H16  1  0.75641000  0.25648000  0.34319000  1.0
  H  H17  1  0.35579000  0.24359000  0.15674000  1.0
  H  H18  1  0.24360000  0.74351000  0.65681000  1.0
  H  H19  1  0.64422000  0.75640000  0.84327000  1.0
  H  H20  1  0.08261000  0.06372000  0.45090000  1.0
  H  H21  1  0.59731000  0.43586000  0.04907000  1.0
  H  H22  1  0.91739000  0.93628000  0.54910000  1.0
  H  H23  1  0.40269000  0.56414000  0.95093000  1.0
  H  H24  1  0.92985000  0.17319000  0.49325000  1.0
  H  H25  1  0.59634000  0.32637000  0.00673000  1.0
  H  H26  1  0.07015000  0.82681000  0.50675000  1.0
  H  H27  1  0.40365000  0.67364000  0.99327000  1.0
  H  H28  1  0.03685000  0.22628000  0.42272000  1.0
  H  H29  1  0.68586000  0.27331000  0.07732000  1.0
  H  H30  1  0.96314000  0.77372000  0.57728000  1.0
  H  H31  1  0.31415000  0.72669000  0.92267000  1.0
  H  H32  1  0.52200000  0.98862000  0.31963000  1.0
  H  H33  1  0.83030000  0.51121000  0.18043000  1.0
  H  H34  1  0.47801000  0.01137000  0.68037000  1.0
  H  H35  1  0.16971000  0.48879000  0.81956000  1.0
  H  H36  1  0.30840000  0.08762000  0.31908000  1.0
  H  H37  1  0.71525000  0.41197000  0.18100000  1.0
  H  H38  1  0.69161000  0.91237000  0.68093000  1.0
  H  H39  1  0.28476000  0.58802000  0.81899000  1.0
  H  H40  1  0.25168000  0.24754000  0.27605000  1.0
  H  H41  1  0.77569000  0.25206000  0.22404000  1.0
  H  H42  1  0.74832000  0.75245000  0.72396000  1.0
  H  H43  1  0.22431000  0.74794000  0.77596000  1.0
  H  H44  1  0.22850000  0.21020000  0.36966000  1.0
  H  H45  1  0.80859000  0.28940000  0.13042000  1.0
  H  H46  1  0.77151000  0.78979000  0.63035000  1.0
  H  H47  1  0.19144000  0.71059000  0.86957000  1.0
  H  H48  1  0.53738000  0.28150000  0.30527000  1.0
  H  H49  1  0.12436000  0.21854000  0.19475000  1.0
  H  H50  1  0.46263000  0.71849000  0.69473000  1.0
  H  H51  1  0.87564000  0.78146000  0.80525000  1.0
  H  H52  1  0.39043000  0.31555000  0.37345000  1.0
  H  H53  1  0.07967000  0.18446000  0.12653000  1.0
  H  H54  1  0.60958000  0.68445000  0.62655000  1.0
  H  H55  1  0.92033000  0.81554000  0.87347000  1.0
  H  H56  1  0.37047000  0.36727000  0.28335000  1.0
  H  H57  1  0.02155000  0.13257000  0.21663000  1.0
  H  H58  1  0.62952000  0.63272000  0.71666000  1.0
  H  H59  1  0.97846000  0.86743000  0.78337000  1.0
  C  C60  1  0.20274000  0.75011000  0.25006000  1.0
  C  C61  1  0.79726000  0.24988000  0.74995000  1.0
  C  C62  1  0.33696000  0.74999000  0.25011000  1.0
  C  C63  1  0.66303000  0.25001000  0.74989000  1.0
  C  C64  1  0.36315000  0.85573000  0.22204000  1.0
  C  C65  1  0.44072000  0.64412000  0.27819000  1.0
  C  C66  1  0.63685000  0.14427000  0.77796000  1.0
  C  C67  1  0.55929000  0.35588000  0.72181000  1.0
  C  C68  1  0.48698000  0.85528000  0.22147000  1.0
  C  C69  1  0.56370000  0.64428000  0.27873000  1.0
  C  C70  1  0.51302000  0.14472000  0.77853000  1.0
  C  C71  1  0.43630000  0.35572000  0.72127000  1.0
  C  C72  1  0.59047000  0.74972000  0.25009000  1.0
  C  C73  1  0.40953000  0.25028000  0.74991000  1.0
  C  C74  1  0.72427000  0.74969000  0.25009000  1.0
  C  C75  1  0.27573000  0.25031000  0.74990000  1.0
  C  C76  1  0.01884000  0.56246000  0.34707000  1.0
  C  C77  1  0.92785000  0.93752000  0.15289000  1.0
  C  C78  1  0.98115000  0.43754000  0.65293000  1.0
  C  C79  1  0.07215000  0.06248000  0.84711000  1.0
  C  C80  1  0.00918000  0.53029000  0.42589000  1.0
  C  C81  1  0.96506000  0.96967000  0.07408000  1.0
  C  C82  1  0.99081000  0.46971000  0.57411000  1.0
  C  C83  1  0.03493000  0.03034000  0.92592000  1.0
  C  C84  1  0.09412000  0.54460000  0.45824000  1.0
  C  C85  1  0.09677000  0.95514000  0.04194000  1.0
  C  C86  1  0.90587000  0.45540000  0.54176000  1.0
  C  C87  1  0.90322000  0.04487000  0.95806000  1.0
  C  C88  1  0.08515000  0.51445000  0.53113000  1.0
  C  C89  1  0.13084000  0.98533000  0.96907000  1.0
  C  C90  1  0.91484000  0.48555000  0.46887000  1.0
  C  C91  1  0.86915000  0.01468000  0.03093000  1.0
  C  C92  1  0.95677000  0.05543000  0.36676000  1.0
  C  C93  1  0.37908000  0.44442000  0.13310000  1.0
  C  C94  1  0.04323000  0.94457000  0.63324000  1.0
  C  C95  1  0.62092000  0.55558000  0.86690000  1.0
  C  C96  1  0.81378000  0.27330000  0.37194000  1.0
  C  C97  1  0.45877000  0.22655000  0.12801000  1.0
  C  C98  1  0.18622000  0.72669000  0.62806000  1.0
  C  C99  1  0.54124000  0.77345000  0.87199000  1.0
  C  C100  1  0.99751000  0.15445000  0.44249000  1.0
  C  C101  1  0.59450000  0.34514000  0.05749000  1.0
  C  C102  1  0.00249000  0.84555000  0.55751000  1.0
  C  C103  1  0.40550000  0.65486000  0.94251000  1.0
  C  C104  1  0.53837000  0.07034000  0.31927000  1.0
  C  C105  1  0.92806000  0.42955000  0.18076000  1.0
  C  C106  1  0.46163000  0.92966000  0.68073000  1.0
  C  C107  1  0.07195000  0.57045000  0.81923000  1.0
  C  C108  1  0.29629000  0.18045000  0.32093000  1.0
  C  C109  1  0.79792000  0.31921000  0.17914000  1.0
  C  C110  1  0.70371000  0.81955000  0.67908000  1.0
  C  C111  1  0.20209000  0.68079000  0.82085000  1.0
  C  C112  1  0.43207000  0.29255000  0.32021000  1.0
  C  C113  1  0.04510000  0.20739000  0.17979000  1.0
  C  C114  1  0.56793000  0.70744000  0.67980000  1.0
  C  C115  1  0.95490000  0.79261000  0.82021000  1.0
  N  N116  1  0.92487000  0.15626000  0.39252000  1.0
  N  N117  1  0.47364000  0.34349000  0.10741000  1.0
  N  N118  1  0.07513000  0.84374000  0.60748000  1.0
  N  N119  1  0.52637000  0.65650000  0.89259000  1.0
  N  N120  1  0.42793000  0.17661000  0.31898000  1.0
  N  N121  1  0.92369000  0.32322000  0.18106000  1.0
  N  N122  1  0.57208000  0.82339000  0.68102000  1.0
  N  N123  1  0.07632000  0.67678000  0.81894000  1.0
  N  N124  1  0.79739000  0.81089000  0.45302000  1.0
  N  N125  1  0.06100000  0.68912000  0.04695000  1.0
  N  N126  1  0.20262000  0.18911000  0.54699000  1.0
  N  N127  1  0.93901000  0.31088000  0.95304000  1.0
  O  O128  1  0.09858000  0.83377000  0.27804000  1.0
  O  O129  1  0.21018000  0.66652000  0.22200000  1.0
  O  O130  1  0.90142000  0.16622000  0.72197000  1.0
  O  O131  1  0.78981000  0.33348000  0.77801000  1.0
  O  O132  1  0.71790000  0.84178000  0.26940000  1.0
  O  O133  1  0.82932000  0.65767000  0.23077000  1.0
  O  O134  1  0.28211000  0.15822000  0.73060000  1.0
  O  O135  1  0.17067000  0.34234000  0.76923000  1.0
  O  O136  1  0.96920000  0.67658000  0.31873000  1.0
  O  O137  1  0.96428000  0.82338000  0.18126000  1.0
  O  O138  1  0.03079000  0.32343000  0.68127000  1.0
  O  O139  1  0.03572000  0.17663000  0.81874000  1.0
  O  O140  1  0.07611000  0.47699000  0.31105000  1.0
  O  O141  1  0.86336000  0.02301000  0.18888000  1.0
  O  O142  1  0.92388000  0.52302000  0.68895000  1.0
  O  O143  1  0.13664000  0.97699000  0.81112000  1.0
  O  O144  1  0.89621000  0.05385000  0.32363000  1.0
  O  O145  1  0.27374000  0.44620000  0.17619000  1.0
  O  O146  1  0.10380000  0.94614000  0.67637000  1.0
  O  O147  1  0.72626000  0.55380000  0.82381000  1.0
  O  O148  1  0.65486000  0.06079000  0.31799000  1.0
  O  O149  1  0.03367000  0.43917000  0.18202000  1.0
  O  O150  1  0.34514000  0.93921000  0.68202000  1.0
  O  O151  1  0.96634000  0.56083000  0.81797000  1.0
  O  O152  1  0.72633000  0.82038000  0.41039000  1.0
  O  O153  1  0.95696000  0.67952000  0.08964000  1.0
  O  O154  1  0.27367000  0.17962000  0.58961000  1.0
  O  O155  1  0.04304000  0.32049000  0.91035000  1.0
  O  O156  1  0.77204000  0.77553000  0.51723000  1.0
  O  O157  1  0.06425000  0.72451000  0.98276000  1.0
  O  O158  1  0.22797000  0.22448000  0.48278000  1.0
  O  O159  1  0.93575000  0.27549000  0.01724000  1.0
  O  O160  1  0.89948000  0.84002000  0.42444000  1.0
  O  O161  1  0.16373000  0.66009000  0.07545000  1.0
  O  O162  1  0.10052000  0.15999000  0.57556000  1.0
  O  O163  1  0.83627000  0.33990000  0.92455000  1.0
  F  F164  1  0.26876000  0.96172000  0.19284000  1.0
  F  F165  1  0.42285000  0.53826000  0.30739000  1.0
  F  F166  1  0.73124000  0.03828000  0.80716000  1.0
  F  F167  1  0.57716000  0.46174000  0.69261000  1.0
  F  F168  1  0.50594000  0.96049000  0.19061000  1.0
  F  F169  1  0.65690000  0.53898000  0.30961000  1.0
  F  F170  1  0.49405000  0.03952000  0.80939000  1.0
  F  F171  1  0.34312000  0.46102000  0.69038000  1.0
  F  F172  1  0.18808000  0.58701000  0.41858000  1.0
  F  F173  1  0.19325000  0.91248000  0.08179000  1.0
  F  F174  1  0.81192000  0.41298000  0.58142000  1.0
  F  F175  1  0.80673000  0.08755000  0.91821000  1.0
  F  F176  1  0.17115000  0.52776000  0.56051000  1.0
  F  F177  1  0.25963000  0.97178000  0.93992000  1.0
  F  F178  1  0.82885000  0.47223000  0.43949000  1.0
  F  F179  1  0.74035000  0.02823000  0.06008000  1.0
