# generated using pymatgen
data_CuH14C11I2BrN4
_symmetry_space_group_name_H-M   'P 1'
_cell_length_a   4.16792000
_cell_length_b   13.98340000
_cell_length_c   15.43760000
_cell_angle_alpha   90.00000000
_cell_angle_beta   90.00020000
_cell_angle_gamma   89.99980000
_symmetry_Int_Tables_number   1
_chemical_formula_structural   CuH14C11I2BrN4
_chemical_formula_sum   'Cu2 H28 C22 I4 Br2 N8'
_cell_volume   899.72945656
_cell_formula_units_Z   2
loop_
 _symmetry_equiv_pos_site_id
 _symmetry_equiv_pos_as_xyz
  1  'x, y, z'
loop_
 _atom_site_type_symbol
 _atom_site_label
 _atom_site_symmetry_multiplicity
 _atom_site_fract_x
 _atom_site_fract_y
 _atom_site_fract_z
 _atom_site_occupancy
  Cu  Cu0  1  0.57839000  0.89114000  0.00000000  1.0
  Cu  Cu1  1  0.42161000  0.39114000  0.50000000  1.0
  H  H2  1  0.81731000  0.92532000  0.80785000  1.0
  H  H3  1  0.18268000  0.42532000  0.69216000  1.0
  H  H4  1  0.81732000  0.92532000  0.19216000  1.0
  H  H5  1  0.18267000  0.42532000  0.30784000  1.0
  H  H6  1  0.84219000  0.85356000  0.71123000  1.0
  H  H7  1  0.15780000  0.35356000  0.78877000  1.0
  H  H8  1  0.84220000  0.85356000  0.28877000  1.0
  H  H9  1  0.15780000  0.35356000  0.21123000  1.0
  H  H10  1  0.14500000  0.84727000  0.79140000  1.0
  H  H11  1  0.85499000  0.34726000  0.70861000  1.0
  H  H12  1  0.14501000  0.84727000  0.20861000  1.0
  H  H13  1  0.85499000  0.34726000  0.29139000  1.0
  H  H14  1  0.42021000  0.49908000  0.81160000  1.0
  H  H15  1  0.57979000  0.99908000  0.68840000  1.0
  H  H16  1  0.42021000  0.49908000  0.18840000  1.0
  H  H17  1  0.57980000  0.99908000  0.31160000  1.0
  H  H18  1  0.08552000  0.53608000  0.87381000  1.0
  H  H19  1  0.91448000  0.03608000  0.62619000  1.0
  H  H20  1  0.08552000  0.53608000  0.12619000  1.0
  H  H21  1  0.91449000  0.03608000  0.37381000  1.0
  H  H22  1  0.44850000  0.50194000  0.92643000  1.0
  H  H23  1  0.55149000  0.00194000  0.57357000  1.0
  H  H24  1  0.44850000  0.50194000  0.07357000  1.0
  H  H25  1  0.55152000  0.00194000  0.42643000  1.0
  H  H26  1  0.06130000  0.76694000  0.00000000  1.0
  H  H27  1  0.93870000  0.26694000  0.50000000  1.0
  H  H28  1  0.07938000  0.63865000  0.00000000  1.0
  H  H29  1  0.92061000  0.13865000  0.50000000  1.0
  C  C30  1  0.88575000  0.85553000  0.78133000  1.0
  C  C31  1  0.11424000  0.35552000  0.71868000  1.0
  C  C32  1  0.88576000  0.85552000  0.21868000  1.0
  C  C33  1  0.11424000  0.35552000  0.28132000  1.0
  C  C34  1  0.70453000  0.77802000  0.82497000  1.0
  C  C35  1  0.29546000  0.27802000  0.67503000  1.0
  C  C36  1  0.70454000  0.77802000  0.17504000  1.0
  C  C37  1  0.29547000  0.27802000  0.32497000  1.0
  C  C38  1  0.65245000  0.68241000  0.79747000  1.0
  C  C39  1  0.34756000  0.18241000  0.70254000  1.0
  C  C40  1  0.65245000  0.68241000  0.20254000  1.0
  C  C41  1  0.34756000  0.18241000  0.29746000  1.0
  C  C42  1  0.46877000  0.63851000  0.86170000  1.0
  C  C43  1  0.53123000  0.13851000  0.63830000  1.0
  C  C44  1  0.46878000  0.63851000  0.13830000  1.0
  C  C45  1  0.53124000  0.13851000  0.36170000  1.0
  C  C46  1  0.34874000  0.53895000  0.86951000  1.0
  C  C47  1  0.65125000  0.03895000  0.63049000  1.0
  C  C48  1  0.34875000  0.53895000  0.13049000  1.0
  C  C49  1  0.65127000  0.03895000  0.36951000  1.0
  C  C50  1  0.22170000  0.70433000  0.00000000  1.0
  C  C51  1  0.77829000  0.20433000  0.50000000  1.0
  I  I52  1  0.79160000  0.61926000  0.68053000  1.0
  I  I53  1  0.20841000  0.11926000  0.81948000  1.0
  I  I54  1  0.79160000  0.61926000  0.31948000  1.0
  I  I55  1  0.20842000  0.11926000  0.18052000  1.0
  Br  Br56  1  0.06522000  0.98726000  0.00000000  1.0
  Br  Br57  1  0.93477000  0.48726000  0.50000000  1.0
  N  N58  1  0.55599000  0.79274000  0.90136000  1.0
  N  N59  1  0.44400000  0.29274000  0.59864000  1.0
  N  N60  1  0.55599000  0.79274000  0.09864000  1.0
  N  N61  1  0.44400000  0.29274000  0.40136000  1.0
  N  N62  1  0.41396000  0.70776000  0.92236000  1.0
  N  N63  1  0.58603000  0.20776000  0.57765000  1.0
  N  N64  1  0.41396000  0.70776000  0.07765000  1.0
  N  N65  1  0.58603000  0.20776000  0.42235000  1.0
