# generated using pymatgen
data_KH4C4N3O5
_symmetry_space_group_name_H-M   'P 1'
_cell_length_a   6.60002000
_cell_length_b   6.65451000
_cell_length_c   17.41980000
_cell_angle_alpha   90.00020000
_cell_angle_beta   90.00010000
_cell_angle_gamma   96.48470000
_symmetry_Int_Tables_number   1
_chemical_formula_structural   KH4C4N3O5
_chemical_formula_sum   'K4 H16 C16 N12 O20'
_cell_volume   760.18094071
_cell_formula_units_Z   4
loop_
 _symmetry_equiv_pos_site_id
 _symmetry_equiv_pos_as_xyz
  1  'x, y, z'
loop_
 _atom_site_type_symbol
 _atom_site_label
 _atom_site_symmetry_multiplicity
 _atom_site_fract_x
 _atom_site_fract_y
 _atom_site_fract_z
 _atom_site_occupancy
  K  K0  1  0.68321000  0.67958000  0.43005000  1.0
  K  K1  1  0.31679000  0.82041000  0.93005000  1.0
  K  K2  1  0.31679000  0.32043000  0.56995000  1.0
  K  K3  1  0.68322000  0.17957000  0.06995000  1.0
  H  H4  1  0.36491000  0.26983000  0.38083000  1.0
  H  H5  1  0.63509000  0.23018000  0.88083000  1.0
  H  H6  1  0.63508000  0.73017000  0.61918000  1.0
  H  H7  1  0.36492000  0.76983000  0.11918000  1.0
  H  H8  1  0.24465000  0.69578000  0.43205000  1.0
  H  H9  1  0.75536000  0.80422000  0.93205000  1.0
  H  H10  1  0.75535000  0.30422000  0.56795000  1.0
  H  H11  1  0.24466000  0.19579000  0.06795000  1.0
  H  H12  1  0.22360000  0.78447000  0.51550000  1.0
  H  H13  1  0.77641000  0.71552000  0.01550000  1.0
  H  H14  1  0.77641000  0.21553000  0.48451000  1.0
  H  H15  1  0.22360000  0.28448000  0.98450000  1.0
  H  H16  1  0.78961000  0.98755000  0.26798000  1.0
  H  H17  1  0.21038000  0.51245000  0.76798000  1.0
  H  H18  1  0.21039000  0.01246000  0.73202000  1.0
  H  H19  1  0.78961000  0.48753000  0.23202000  1.0
  C  C20  1  0.09171000  0.13560000  0.29847000  1.0
  C  C21  1  0.90829000  0.36441000  0.79846000  1.0
  C  C22  1  0.90828000  0.86440000  0.70154000  1.0
  C  C23  1  0.09170000  0.63559000  0.20153000  1.0
  C  C24  1  0.24841000  0.20735000  0.24775000  1.0
  C  C25  1  0.75158000  0.29265000  0.74775000  1.0
  C  C26  1  0.75159000  0.79265000  0.75225000  1.0
  C  C27  1  0.24841000  0.70736000  0.25224000  1.0
  C  C28  1  0.07128000  0.13332000  0.38356000  1.0
  C  C29  1  0.92871000  0.36669000  0.88356000  1.0
  C  C30  1  0.92871000  0.86668000  0.61644000  1.0
  C  C31  1  0.07128000  0.63332000  0.11644000  1.0
  C  C32  1  0.45704000  0.30669000  0.26472000  1.0
  C  C33  1  0.54296000  0.19331000  0.76472000  1.0
  C  C34  1  0.54296000  0.69330000  0.73528000  1.0
  C  C35  1  0.45703000  0.80670000  0.23528000  1.0
  N  N36  1  0.93585000  0.06302000  0.25245000  1.0
  N  N37  1  0.06415000  0.43699000  0.75245000  1.0
  N  N38  1  0.06415000  0.93699000  0.74755000  1.0
  N  N39  1  0.93585000  0.56301000  0.24755000  1.0
  N  N40  1  0.98741000  0.08592000  0.17831000  1.0
  N  N41  1  0.01258000  0.41407000  0.67831000  1.0
  N  N42  1  0.01259000  0.91408000  0.82169000  1.0
  N  N43  1  0.98741000  0.58592000  0.32169000  1.0
  N  N44  1  0.17635000  0.17399000  0.17481000  1.0
  N  N45  1  0.82365000  0.32601000  0.67481000  1.0
  N  N46  1  0.82366000  0.82601000  0.82519000  1.0
  N  N47  1  0.17634000  0.67399000  0.32519000  1.0
  O  O48  1  0.57606000  0.35674000  0.20989000  1.0
  O  O49  1  0.42394000  0.14325000  0.70989000  1.0
  O  O50  1  0.42394000  0.64325000  0.79011000  1.0
  O  O51  1  0.57605000  0.85675000  0.29011000  1.0
  O  O52  1  0.50385000  0.33927000  0.33593000  1.0
  O  O53  1  0.49615000  0.16073000  0.83593000  1.0
  O  O54  1  0.49614000  0.66072000  0.66407000  1.0
  O  O55  1  0.50386000  0.83928000  0.16407000  1.0
  O  O56  1  0.23168000  0.20843000  0.42167000  1.0
  O  O57  1  0.76831000  0.29158000  0.92167000  1.0
  O  O58  1  0.76830000  0.79157000  0.57833000  1.0
  O  O59  1  0.23169000  0.70843000  0.07833000  1.0
  O  O60  1  0.90674000  0.06339000  0.41298000  1.0
  O  O61  1  0.09327000  0.43662000  0.91298000  1.0
  O  O62  1  0.09325000  0.93662000  0.58701000  1.0
  O  O63  1  0.90674000  0.56337000  0.08701000  1.0
  O  O64  1  0.29200000  0.68614000  0.48562000  1.0
  O  O65  1  0.70801000  0.81386000  0.98562000  1.0
  O  O66  1  0.70800000  0.31386000  0.51439000  1.0
  O  O67  1  0.29200000  0.18614000  0.01438000  1.0
