# generated using pymatgen
data_ZnH12C15N3O4
_symmetry_space_group_name_H-M   'P 1'
_cell_length_a   8.55301000
_cell_length_b   10.82710000
_cell_length_c   15.74470000
_cell_angle_alpha   102.34100000
_cell_angle_beta   90.00000000
_cell_angle_gamma   89.99980000
_symmetry_Int_Tables_number   1
_chemical_formula_structural   ZnH12C15N3O4
_chemical_formula_sum   'Zn4 H48 C60 N12 O16'
_cell_volume   1424.33603994
_cell_formula_units_Z   4
loop_
 _symmetry_equiv_pos_site_id
 _symmetry_equiv_pos_as_xyz
  1  'x, y, z'
loop_
 _atom_site_type_symbol
 _atom_site_label
 _atom_site_symmetry_multiplicity
 _atom_site_fract_x
 _atom_site_fract_y
 _atom_site_fract_z
 _atom_site_occupancy
  Zn  Zn0  1  0.52507000  0.11372000  0.88531000  1.0
  Zn  Zn1  1  0.02507000  0.88627000  0.61469000  1.0
  Zn  Zn2  1  0.47493000  0.88628000  0.11469000  1.0
  Zn  Zn3  1  0.97493000  0.11372000  0.38531000  1.0
  H  H4  1  0.70488000  0.39003000  0.56844000  1.0
  H  H5  1  0.20488000  0.60997000  0.93156000  1.0
  H  H6  1  0.29511000  0.60997000  0.43156000  1.0
  H  H7  1  0.79512000  0.39003000  0.06844000  1.0
  H  H8  1  0.67973000  0.34699000  0.40992000  1.0
  H  H9  1  0.17973000  0.65301000  0.09008000  1.0
  H  H10  1  0.32027000  0.65301000  0.59008000  1.0
  H  H11  1  0.82027000  0.34699000  0.90992000  1.0
  H  H12  1  0.45760000  0.13446000  0.69643000  1.0
  H  H13  1  0.95760000  0.86554000  0.80357000  1.0
  H  H14  1  0.54241000  0.86554000  0.30357000  1.0
  H  H15  1  0.04240000  0.13446000  0.19643000  1.0
  H  H16  1  0.45044000  0.30672000  0.61667000  1.0
  H  H17  1  0.95044000  0.69328000  0.88332000  1.0
  H  H18  1  0.54956000  0.69328000  0.38333000  1.0
  H  H19  1  0.04956000  0.30672000  0.11667000  1.0
  H  H20  1  0.57723000  0.56593000  0.85813000  1.0
  H  H21  1  0.07723000  0.43406000  0.64187000  1.0
  H  H22  1  0.42277000  0.43407000  0.14187000  1.0
  H  H23  1  0.92277000  0.56593000  0.35813000  1.0
  H  H24  1  0.55845000  0.38649000  0.92879000  1.0
  H  H25  1  0.05845000  0.61351000  0.57121000  1.0
  H  H26  1  0.44155000  0.61351000  0.07121000  1.0
  H  H27  1  0.94154000  0.38649000  0.42879000  1.0
  H  H28  1  0.34484000  0.88772000  0.89342000  1.0
  H  H29  1  0.84486000  0.11228000  0.60659000  1.0
  H  H30  1  0.65515000  0.11228000  0.10658000  1.0
  H  H31  1  0.15514000  0.88772000  0.39341000  1.0
  H  H32  1  0.33572000  0.66064000  0.82060000  1.0
  H  H33  1  0.83573000  0.33936000  0.67940000  1.0
  H  H34  1  0.66427000  0.33936000  0.17940000  1.0
  H  H35  1  0.16426000  0.66064000  0.32060000  1.0
  H  H36  1  0.68735000  0.73806000  0.64167000  1.0
  H  H37  1  0.18735000  0.26194000  0.85833000  1.0
  H  H38  1  0.31266000  0.26194000  0.35833000  1.0
  H  H39  1  0.81265000  0.73806000  0.14166000  1.0
  H  H40  1  0.68440000  0.96175000  0.72228000  1.0
  H  H41  1  0.18440000  0.03825000  0.77772000  1.0
  H  H42  1  0.31561000  0.03825000  0.27773000  1.0
  H  H43  1  0.81560000  0.96174000  0.22227000  1.0
  H  H44  1  0.92434000  0.11901000  0.99210000  1.0
  H  H45  1  0.42434000  0.88099000  0.50789000  1.0
  H  H46  1  0.07566000  0.88098000  0.00790000  1.0
  H  H47  1  0.57567000  0.11902000  0.49211000  1.0
  H  H48  1  0.20838000  0.17586000  0.06067000  1.0
  H  H49  1  0.70837000  0.82415000  0.43934000  1.0
  H  H50  1  0.79162000  0.82414000  0.93933000  1.0
  H  H51  1  0.29163000  0.17586000  0.56066000  1.0
  C  C52  1  0.51236000  0.52445000  0.59044000  1.0
  C  C53  1  0.01236000  0.47556000  0.90956000  1.0
  C  C54  1  0.48763000  0.47556000  0.40957000  1.0
  C  C55  1  0.98764000  0.52445000  0.09044000  1.0
  C  C56  1  0.61438000  0.43846000  0.53942000  1.0
  C  C57  1  0.11438000  0.56154000  0.96058000  1.0
  C  C58  1  0.38561000  0.56154000  0.46058000  1.0
  C  C59  1  0.88562000  0.43846000  0.03942000  1.0
  C  C60  1  0.60061000  0.41402000  0.44951000  1.0
  C  C61  1  0.10061000  0.58598000  0.05049000  1.0
  C  C62  1  0.39939000  0.58597000  0.55049000  1.0
  C  C63  1  0.89939000  0.41403000  0.94951000  1.0
  C  C64  1  0.48282000  0.23155000  0.73018000  1.0
  C  C65  1  0.98282000  0.76845000  0.76982000  1.0
  C  C66  1  0.51718000  0.76845000  0.26983000  1.0
  C  C67  1  0.01717000  0.23155000  0.23017000  1.0
  C  C68  1  0.47962000  0.32832000  0.68533000  1.0
  C  C69  1  0.97961000  0.67168000  0.81467000  1.0
  C  C70  1  0.52039000  0.67168000  0.31467000  1.0
  C  C71  1  0.02038000  0.32832000  0.18533000  1.0
  C  C72  1  0.51396000  0.45335000  0.72855000  1.0
  C  C73  1  0.01395000  0.54664000  0.77145000  1.0
  C  C74  1  0.48605000  0.54665000  0.27145000  1.0
  C  C75  1  0.98604000  0.45335000  0.22855000  1.0
  C  C76  1  0.54610000  0.47375000  0.81843000  1.0
  C  C77  1  0.04609000  0.52625000  0.68157000  1.0
  C  C78  1  0.45391000  0.52625000  0.18157000  1.0
  C  C79  1  0.95390000  0.47375000  0.31843000  1.0
  C  C80  1  0.54068000  0.37231000  0.85885000  1.0
  C  C81  1  0.04068000  0.62769000  0.64114000  1.0
  C  C82  1  0.45932000  0.62769000  0.14115000  1.0
  C  C83  1  0.95931000  0.37231000  0.35885000  1.0
  C  C84  1  0.41853000  0.85094000  0.83724000  1.0
  C  C85  1  0.91854000  0.14905000  0.66276000  1.0
  C  C86  1  0.58146000  0.14905000  0.16276000  1.0
  C  C87  1  0.08146000  0.85095000  0.33724000  1.0
  C  C88  1  0.41524000  0.72399000  0.79696000  1.0
  C  C89  1  0.91525000  0.27601000  0.70305000  1.0
  C  C90  1  0.58475000  0.27602000  0.20305000  1.0
  C  C91  1  0.08475000  0.72398000  0.29695000  1.0
  C  C92  1  0.51497000  0.67958000  0.72652000  1.0
  C  C93  1  0.01497000  0.32041000  0.77348000  1.0
  C  C94  1  0.48504000  0.32041000  0.27348000  1.0
  C  C95  1  0.98502000  0.67959000  0.22652000  1.0
  C  C96  1  0.61037000  0.76726000  0.69741000  1.0
  C  C97  1  0.11038000  0.23275000  0.80259000  1.0
  C  C98  1  0.38963000  0.23275000  0.30260000  1.0
  C  C99  1  0.88962000  0.76725000  0.19740000  1.0
  C  C100  1  0.60764000  0.89248000  0.74162000  1.0
  C  C101  1  0.10765000  0.10751000  0.75837000  1.0
  C  C102  1  0.39236000  0.10752000  0.25838000  1.0
  C  C103  1  0.89235000  0.89248000  0.24162000  1.0
  C  C104  1  0.82929000  0.10336000  0.94266000  1.0
  C  C105  1  0.32929000  0.89664000  0.55735000  1.0
  C  C106  1  0.17071000  0.89664000  0.05735000  1.0
  C  C107  1  0.67072000  0.10337000  0.44266000  1.0
  C  C108  1  0.29828000  0.19799000  0.01508000  1.0
  C  C109  1  0.79828000  0.80201000  0.48492000  1.0
  C  C110  1  0.70172000  0.80200000  0.98492000  1.0
  C  C111  1  0.20172000  0.19799000  0.51508000  1.0
  N  N112  1  0.51855000  0.55073000  0.68350000  1.0
  N  N113  1  0.01855000  0.44927000  0.81650000  1.0
  N  N114  1  0.48145000  0.44927000  0.31650000  1.0
  N  N115  1  0.98144000  0.55073000  0.18350000  1.0
  N  N116  1  0.51278000  0.25186000  0.81639000  1.0
  N  N117  1  0.01278000  0.74814000  0.68361000  1.0
  N  N118  1  0.48723000  0.74814000  0.18361000  1.0
  N  N119  1  0.98722000  0.25186000  0.31639000  1.0
  N  N120  1  0.51507000  0.93436000  0.81120000  1.0
  N  N121  1  0.01508000  0.06564000  0.68880000  1.0
  N  N122  1  0.48493000  0.06564000  0.18880000  1.0
  N  N123  1  0.98492000  0.93436000  0.31119000  1.0
  O  O124  1  0.70050000  0.16217000  0.96861000  1.0
  O  O125  1  0.20050000  0.83783000  0.53139000  1.0
  O  O126  1  0.29950000  0.83782000  0.03140000  1.0
  O  O127  1  0.79951000  0.16218000  0.46861000  1.0
  O  O128  1  0.85315000  0.03461000  0.86978000  1.0
  O  O129  1  0.35316000  0.96538000  0.63022000  1.0
  O  O130  1  0.14684000  0.96539000  0.13022000  1.0
  O  O131  1  0.64684000  0.03462000  0.36979000  1.0
  O  O132  1  0.33663000  0.10036000  0.95597000  1.0
  O  O133  1  0.83663000  0.89964000  0.54403000  1.0
  O  O134  1  0.66337000  0.89964000  0.04403000  1.0
  O  O135  1  0.16338000  0.10036000  0.45596000  1.0
  O  O136  1  0.35081000  0.30726000  0.02445000  1.0
  O  O137  1  0.85080000  0.69275000  0.47555000  1.0
  O  O138  1  0.64919000  0.69274000  0.97555000  1.0
  O  O139  1  0.14919000  0.30726000  0.52445000  1.0
