# generated using pymatgen
data_NiH4C7O5
_symmetry_space_group_name_H-M   'P 1'
_cell_length_a   8.97423866
_cell_length_b   8.97991000
_cell_length_c   10.17800000
_cell_angle_alpha   90.01940000
_cell_angle_beta   90.00080038
_cell_angle_gamma   60.02133182
_symmetry_Int_Tables_number   1
_chemical_formula_structural   NiH4C7O5
_chemical_formula_sum   'Ni3 H12 C21 O15'
_cell_volume   710.48670979
_cell_formula_units_Z   3
loop_
 _symmetry_equiv_pos_site_id
 _symmetry_equiv_pos_as_xyz
  1  'x, y, z'
loop_
 _atom_site_type_symbol
 _atom_site_label
 _atom_site_symmetry_multiplicity
 _atom_site_fract_x
 _atom_site_fract_y
 _atom_site_fract_z
 _atom_site_occupancy
  Ni  Ni0  1  0.02822000  0.97183000  0.83317000  1.0
  Ni  Ni1  1  0.97155000  0.00000000  0.50000000  1.0
  Ni  Ni2  1  0.00005000  0.02817000  0.16683000  1.0
  H  H3  1  0.35339000  0.90040000  0.69994000  1.0
  H  H4  1  0.90053000  0.74598000  0.36627000  1.0
  H  H5  1  0.74624000  0.35330000  0.03353000  1.0
  H  H6  1  0.25378000  0.09960000  0.30005000  1.0
  H  H7  1  0.64651000  0.25401000  0.63371000  1.0
  H  H8  1  0.09952000  0.64671000  0.96646000  1.0
  H  H9  1  0.60808000  0.91299000  0.79850000  1.0
  H  H10  1  0.91321000  0.47878000  0.46478000  1.0
  H  H11  1  0.47921000  0.60790000  0.13211000  1.0
  H  H12  1  0.52106000  0.08701000  0.20152000  1.0
  H  H13  1  0.39200000  0.52120000  0.53521000  1.0
  H  H14  1  0.08709000  0.39210000  0.86789000  1.0
  C  C15  1  0.26741000  0.00000000  0.00000000  1.0
  C  C16  1  0.99973000  0.73261000  0.66640000  1.0
  C  C17  1  0.73235000  0.26739000  0.33359000  1.0
  C  C18  1  0.52608000  0.95150000  0.88552000  1.0
  C  C19  1  0.95176000  0.52226000  0.55178000  1.0
  C  C20  1  0.52259000  0.52603000  0.21915000  1.0
  C  C21  1  0.47759000  0.04849000  0.11450000  1.0
  C  C22  1  0.47403000  0.47774000  0.44820000  1.0
  C  C23  1  0.04858000  0.47399000  0.78084000  1.0
  C  C24  1  0.74418000  0.00000000  0.00001000  1.0
  C  C25  1  0.00023000  0.25583000  0.66625000  1.0
  C  C26  1  0.25606000  0.74418000  0.33374000  1.0
  C  C27  1  0.37332000  0.94815000  0.88747000  1.0
  C  C28  1  0.94817000  0.67840000  0.55379000  1.0
  C  C29  1  0.67848000  0.37322000  0.22108000  1.0
  C  C30  1  0.32148000  0.05184000  0.11253000  1.0
  C  C31  1  0.62657000  0.32161000  0.44620000  1.0
  C  C32  1  0.05168000  0.62679000  0.77891000  1.0
  C  C33  1  0.57884000  0.99998000  0.00001000  1.0
  C  C34  1  0.00026000  0.42111000  0.66628000  1.0
  C  C35  1  0.42137000  0.57891000  0.33371000  1.0
  O  O36  1  0.31219000  0.88964000  0.78610000  1.0
  O  O37  1  0.88967000  0.79789000  0.45247000  1.0
  O  O38  1  0.79805000  0.31187000  0.11968000  1.0
  O  O39  1  0.20182000  0.11038000  0.21389000  1.0
  O  O40  1  0.68755000  0.20210000  0.54752000  1.0
  O  O41  1  0.10991000  0.68814000  0.88032000  1.0
  O  O42  1  0.78775000  0.04104000  0.89212000  1.0
  O  O43  1  0.04071000  0.17147000  0.55825000  1.0
  O  O44  1  0.17172000  0.78792000  0.22572000  1.0
  O  O45  1  0.82880000  0.95895000  0.10789000  1.0
  O  O46  1  0.21219000  0.82852000  0.44175000  1.0
  O  O47  1  0.95964000  0.21208000  0.77428000  1.0
  O  O48  1  0.11947000  1.00000000  1.00000000  1.0
  O  O49  1  0.99930000  0.88069000  0.66656000  1.0
  O  O50  1  0.88000000  0.11930000  0.33342000  1.0
