# generated using pymatgen
data_CdH11C8NCl2O
_symmetry_space_group_name_H-M   'P 1'
_cell_length_a   6.45434000
_cell_length_b   11.31830000
_cell_length_c   15.07980000
_cell_angle_alpha   90.00000000
_cell_angle_beta   89.99950000
_cell_angle_gamma   105.71300000
_symmetry_Int_Tables_number   1
_chemical_formula_structural   CdH11C8NCl2O
_chemical_formula_sum   'Cd4 H44 C32 N4 Cl8 O4'
_cell_volume   1060.44502866
_cell_formula_units_Z   4
loop_
 _symmetry_equiv_pos_site_id
 _symmetry_equiv_pos_as_xyz
  1  'x, y, z'
loop_
 _atom_site_type_symbol
 _atom_site_label
 _atom_site_symmetry_multiplicity
 _atom_site_fract_x
 _atom_site_fract_y
 _atom_site_fract_z
 _atom_site_occupancy
  Cd  Cd0  1  0.78120000  0.06295000  0.54316000  1.0
  Cd  Cd1  1  0.21880000  0.43705000  0.04316000  1.0
  Cd  Cd2  1  0.21880000  0.93705000  0.45685000  1.0
  Cd  Cd3  1  0.78120000  0.56295000  0.95685000  1.0
  H  H4  1  0.73142000  0.26882000  0.42347000  1.0
  H  H5  1  0.26858000  0.23118000  0.92347000  1.0
  H  H6  1  0.26859000  0.73117000  0.57653000  1.0
  H  H7  1  0.73142000  0.76883000  0.07653000  1.0
  H  H8  1  0.72064000  0.48819000  0.41846000  1.0
  H  H9  1  0.27936000  0.01181000  0.91846000  1.0
  H  H10  1  0.27936000  0.51181000  0.58153000  1.0
  H  H11  1  0.72064000  0.98819000  0.08154000  1.0
  H  H12  1  0.73356000  0.60243000  0.56245000  1.0
  H  H13  1  0.26644000  0.89756000  0.06245000  1.0
  H  H14  1  0.26644000  0.39756000  0.43754000  1.0
  H  H15  1  0.73356000  0.10243000  0.93755000  1.0
  H  H16  1  0.75290000  0.48965000  0.70485000  1.0
  H  H17  1  0.24709000  0.01035000  0.20485000  1.0
  H  H18  1  0.24709000  0.51036000  0.29515000  1.0
  H  H19  1  0.75290000  0.98965000  0.79515000  1.0
  H  H20  1  0.68280000  0.15683000  0.71487000  1.0
  H  H21  1  0.31720000  0.34317000  0.21487000  1.0
  H  H22  1  0.31720000  0.84317000  0.28513000  1.0
  H  H23  1  0.68280000  0.65683000  0.78513000  1.0
  H  H24  1  0.68974000  0.29124000  0.77650000  1.0
  H  H25  1  0.31026000  0.20876000  0.27650000  1.0
  H  H26  1  0.31025000  0.70877000  0.22349000  1.0
  H  H27  1  0.68975000  0.79123000  0.72350000  1.0
  H  H28  1  0.08505000  0.36560000  0.76181000  1.0
  H  H29  1  0.91495000  0.13439000  0.26181000  1.0
  H  H30  1  0.91495000  0.63440000  0.23819000  1.0
  H  H31  1  0.08505000  0.86560000  0.73819000  1.0
  H  H32  1  0.99909000  0.22475000  0.81744000  1.0
  H  H33  1  0.00091000  0.27525000  0.31744000  1.0
  H  H34  1  0.00090000  0.77525000  0.18256000  1.0
  H  H35  1  0.99909000  0.72475000  0.68256000  1.0
  H  H36  1  0.16515000  0.26627000  0.62532000  1.0
  H  H37  1  0.83485000  0.23373000  0.12532000  1.0
  H  H38  1  0.83486000  0.73373000  0.37468000  1.0
  H  H39  1  0.16514000  0.76627000  0.87468000  1.0
  H  H40  1  0.29448000  0.22050000  0.71820000  1.0
  H  H41  1  0.70552000  0.27950000  0.21820000  1.0
  H  H42  1  0.70552000  0.77950000  0.28181000  1.0
  H  H43  1  0.29448000  0.72050000  0.78180000  1.0
  H  H44  1  0.13508000  0.04791000  0.64948000  1.0
  H  H45  1  0.86491000  0.45209000  0.14948000  1.0
  H  H46  1  0.86492000  0.95209000  0.35052000  1.0
  H  H47  1  0.13509000  0.54791000  0.85052000  1.0
  C  C48  1  0.73695000  0.32240000  0.48401000  1.0
  C  C49  1  0.26305000  0.17760000  0.98400000  1.0
  C  C50  1  0.26305000  0.67759000  0.51599000  1.0
  C  C51  1  0.73695000  0.82241000  0.01600000  1.0
  C  C52  1  0.72963000  0.44372000  0.48183000  1.0
  C  C53  1  0.27037000  0.05627000  0.98183000  1.0
  C  C54  1  0.27038000  0.55627000  0.51816000  1.0
  C  C55  1  0.72963000  0.94373000  0.01817000  1.0
  C  C56  1  0.73588000  0.50635000  0.56194000  1.0
  C  C57  1  0.26412000  0.99365000  0.06194000  1.0
  C  C58  1  0.26412000  0.49365000  0.43806000  1.0
  C  C59  1  0.73588000  0.00635000  0.93806000  1.0
  C  C60  1  0.74633000  0.44433000  0.64074000  1.0
  C  C61  1  0.25367000  0.05567000  0.14074000  1.0
  C  C62  1  0.25366000  0.55567000  0.35926000  1.0
  C  C63  1  0.74633000  0.94433000  0.85926000  1.0
  C  C64  1  0.75289000  0.32157000  0.63862000  1.0
  C  C65  1  0.24712000  0.17843000  0.13862000  1.0
  C  C66  1  0.24712000  0.67844000  0.36137000  1.0
  C  C67  1  0.75289000  0.82157000  0.86138000  1.0
  C  C68  1  0.76920000  0.25424000  0.72287000  1.0
  C  C69  1  0.23080000  0.24576000  0.22287000  1.0
  C  C70  1  0.23080000  0.74576000  0.27713000  1.0
  C  C71  1  0.76920000  0.75424000  0.77713000  1.0
  C  C72  1  0.00301000  0.26797000  0.75207000  1.0
  C  C73  1  0.99699000  0.23203000  0.25207000  1.0
  C  C74  1  0.99699000  0.73203000  0.24793000  1.0
  C  C75  1  0.00300000  0.76797000  0.74793000  1.0
  C  C76  1  0.13657000  0.21550000  0.68858000  1.0
  C  C77  1  0.86343000  0.28449000  0.18858000  1.0
  C  C78  1  0.86343000  0.78450000  0.31142000  1.0
  C  C79  1  0.13656000  0.71550000  0.81142000  1.0
  N  N80  1  0.75018000  0.26281000  0.56033000  1.0
  N  N81  1  0.24982000  0.23718000  0.06033000  1.0
  N  N82  1  0.24983000  0.73719000  0.43967000  1.0
  N  N83  1  0.75018000  0.76282000  0.93967000  1.0
  Cl  Cl84  1  0.59439000  0.02915000  0.38022000  1.0
  Cl  Cl85  1  0.40562000  0.47085000  0.88021000  1.0
  Cl  Cl86  1  0.40562000  0.97085000  0.61979000  1.0
  Cl  Cl87  1  0.59438000  0.52915000  0.11979000  1.0
  Cl  Cl88  1  0.84337000  0.84625000  0.53977000  1.0
  Cl  Cl89  1  0.15664000  0.65375000  0.03977000  1.0
  Cl  Cl90  1  0.15664000  0.15375000  0.46023000  1.0
  Cl  Cl91  1  0.84337000  0.34625000  0.96023000  1.0
  O  O92  1  0.02626000  0.08819000  0.67090000  1.0
  O  O93  1  0.97374000  0.41181000  0.17090000  1.0
  O  O94  1  0.97374000  0.91181000  0.32910000  1.0
  O  O95  1  0.02626000  0.58819000  0.82910000  1.0
