# generated using pymatgen
data_ZnH9C16NO4
_symmetry_space_group_name_H-M   'P 1'
_cell_length_a   18.48390000
_cell_length_b   20.67760000
_cell_length_c   20.67760000
_cell_angle_alpha   71.81370000
_cell_angle_beta   63.45250000
_cell_angle_gamma   63.45270000
_symmetry_Int_Tables_number   1
_chemical_formula_structural   ZnH9C16NO4
_chemical_formula_sum   'Zn8 H72 C128 N8 O32'
_cell_volume   6261.73148578
_cell_formula_units_Z   8
loop_
 _symmetry_equiv_pos_site_id
 _symmetry_equiv_pos_as_xyz
  1  'x, y, z'
loop_
 _atom_site_type_symbol
 _atom_site_label
 _atom_site_symmetry_multiplicity
 _atom_site_fract_x
 _atom_site_fract_y
 _atom_site_fract_z
 _atom_site_occupancy
  Zn  Zn0  1  0.94513000  0.36852000  0.73004000  1.0
  Zn  Zn1  1  0.54367000  0.13155000  0.76996000  1.0
  Zn  Zn2  1  0.45633000  0.23004000  0.86846000  1.0
  Zn  Zn3  1  0.05487000  0.26996000  0.63148000  1.0
  Zn  Zn4  1  0.05487000  0.63148000  0.26996000  1.0
  Zn  Zn5  1  0.45633000  0.86845000  0.23004000  1.0
  Zn  Zn6  1  0.54367000  0.76996000  0.13154000  1.0
  Zn  Zn7  1  0.94513000  0.73004000  0.36852000  1.0
  H  H8  1  0.46399000  0.98713000  0.98713000  1.0
  H  H9  1  0.93806000  0.51297000  0.51298000  1.0
  H  H10  1  0.06195000  0.48702000  0.48703000  1.0
  H  H11  1  0.53601000  0.01287000  0.01287000  1.0
  H  H12  1  0.10362000  0.16080000  0.99759000  1.0
  H  H13  1  0.76204000  0.33904000  0.50233000  1.0
  H  H14  1  0.23796000  0.49767000  0.66096000  1.0
  H  H15  1  0.89638000  0.00241000  0.83920000  1.0
  H  H16  1  0.89638000  0.83920000  0.00241000  1.0
  H  H17  1  0.23796000  0.66096000  0.49767000  1.0
  H  H18  1  0.76204000  0.50233000  0.33904000  1.0
  H  H19  1  0.10362000  0.99759000  0.16080000  1.0
  H  H20  1  0.26081000  0.16101000  0.72995000  1.0
  H  H21  1  0.65180000  0.33905000  0.76993000  1.0
  H  H22  1  0.34820000  0.23007000  0.66095000  1.0
  H  H23  1  0.73919000  0.27005000  0.83899000  1.0
  H  H24  1  0.73919000  0.83899000  0.27005000  1.0
  H  H25  1  0.34820000  0.66095000  0.23007000  1.0
  H  H26  1  0.65180000  0.76993000  0.33905000  1.0
  H  H27  1  0.26081000  0.72995000  0.16101000  1.0
  H  H28  1  0.02719000  0.23937000  0.91135000  1.0
  H  H29  1  0.67790000  0.26051000  0.58868000  1.0
  H  H30  1  0.32209000  0.41132000  0.73948000  1.0
  H  H31  1  0.97281000  0.08865000  0.76063000  1.0
  H  H32  1  0.97281000  0.76063000  0.08865000  1.0
  H  H33  1  0.32210000  0.73949000  0.41132000  1.0
  H  H34  1  0.67790000  0.58868000  0.26052000  1.0
  H  H35  1  0.02719000  0.91135000  0.23937000  1.0
  H  H36  1  0.33932000  0.08527000  0.81501000  1.0
  H  H37  1  0.73974000  0.41469000  0.68481000  1.0
  H  H38  1  0.26026000  0.31519000  0.58531000  1.0
  H  H39  1  0.66068000  0.18499000  0.91473000  1.0
  H  H40  1  0.66068000  0.91473000  0.18499000  1.0
  H  H41  1  0.26026000  0.58531000  0.31519000  1.0
  H  H42  1  0.73974000  0.68481000  0.41469000  1.0
  H  H43  1  0.33932000  0.81501000  0.08527000  1.0
  H  H44  1  0.16609000  0.02413000  0.02413000  1.0
  H  H45  1  0.71459000  0.47561000  0.47561000  1.0
  H  H46  1  0.28541000  0.52439000  0.52439000  1.0
  H  H47  1  0.83391000  0.97587000  0.97587000  1.0
  H  H48  1  0.90817000  0.36750000  0.88441000  1.0
  H  H49  1  0.66003000  0.13255000  0.61571000  1.0
  H  H50  1  0.33997000  0.38429000  0.86745000  1.0
  H  H51  1  0.09183000  0.11559000  0.63250000  1.0
  H  H52  1  0.09183000  0.63250000  0.11559000  1.0
  H  H53  1  0.33997000  0.86745000  0.38429000  1.0
  H  H54  1  0.66003000  0.61571000  0.13255000  1.0
  H  H55  1  0.90817000  0.88440000  0.36750000  1.0
  H  H56  1  0.72712000  0.61564000  0.81266000  1.0
  H  H57  1  0.65519000  0.88446000  0.68733000  1.0
  H  H58  1  0.34481000  0.31267000  0.11553000  1.0
  H  H59  1  0.27289000  0.18734000  0.38436000  1.0
  H  H60  1  0.27289000  0.38436000  0.18733000  1.0
  H  H61  1  0.34481000  0.11553000  0.31267000  1.0
  H  H62  1  0.65519000  0.68733000  0.88447000  1.0
  H  H63  1  0.72711000  0.81266000  0.61564000  1.0
  H  H64  1  0.81826000  0.45165000  0.97785000  1.0
  H  H65  1  0.74772000  0.04841000  0.52225000  1.0
  H  H66  1  0.25228000  0.47775000  0.95159000  1.0
  H  H67  1  0.18174000  0.02215000  0.54835000  1.0
  H  H68  1  0.18174000  0.54836000  0.02215000  1.0
  H  H69  1  0.25228000  0.95159000  0.47775000  1.0
  H  H70  1  0.74772000  0.52225000  0.04841000  1.0
  H  H71  1  0.81826000  0.97785000  0.45165000  1.0
  H  H72  1  0.82001000  0.52278000  0.72763000  1.0
  H  H73  1  0.57028000  0.97729000  0.77242000  1.0
  H  H74  1  0.42972000  0.22758000  0.02271000  1.0
  H  H75  1  0.17999000  0.27237000  0.47722000  1.0
  H  H76  1  0.17999000  0.47722000  0.27237000  1.0
  H  H77  1  0.42972000  0.02271000  0.22758000  1.0
  H  H78  1  0.57028000  0.77242000  0.97729000  1.0
  H  H79  1  0.82001000  0.72763000  0.52278000  1.0
  C  C80  1  0.40409000  0.10181000  0.89901000  1.0
  C  C81  1  0.90486000  0.39820000  0.60097000  1.0
  C  C82  1  0.09514000  0.39903000  0.60180000  1.0
  C  C83  1  0.59590000  0.10100000  0.89820000  1.0
  C  C84  1  0.59591000  0.89820000  0.10100000  1.0
  C  C85  1  0.09514000  0.60180000  0.39903000  1.0
  C  C86  1  0.90486000  0.60097000  0.39819000  1.0
  C  C87  1  0.40409000  0.89900000  0.10180000  1.0
  C  C88  1  0.35545000  0.05348000  0.95290000  1.0
  C  C89  1  0.86179000  0.44651000  0.54708000  1.0
  C  C90  1  0.13821000  0.45292000  0.55349000  1.0
  C  C91  1  0.64454000  0.04711000  0.94652000  1.0
  C  C92  1  0.64454000  0.94652000  0.04711000  1.0
  C  C93  1  0.13821000  0.55349000  0.45293000  1.0
  C  C94  1  0.86179000  0.54707000  0.44651000  1.0
  C  C95  1  0.35546000  0.95289000  0.05348000  1.0
  C  C96  1  0.39725000  0.99680000  0.99680000  1.0
  C  C97  1  0.89073000  0.50324000  0.50324000  1.0
  C  C98  1  0.10927000  0.49676000  0.49676000  1.0
  C  C99  1  0.60275000  0.00320000  0.00320000  1.0
  C  C100  1  0.13835000  0.16102000  0.93880000  1.0
  C  C101  1  0.73820000  0.33887000  0.56111000  1.0
  C  C102  1  0.26180000  0.43890000  0.66112000  1.0
  C  C103  1  0.86165000  0.06120000  0.83899000  1.0
  C  C104  1  0.86165000  0.83898000  0.06120000  1.0
  C  C105  1  0.26180000  0.66112000  0.43890000  1.0
  C  C106  1  0.73820000  0.56111000  0.33888000  1.0
  C  C107  1  0.13835000  0.93880000  0.16101000  1.0
  C  C108  1  0.09109000  0.24861000  0.76428000  1.0
  C  C109  1  0.60391000  0.25147000  0.73569000  1.0
  C  C110  1  0.39608000  0.26432000  0.74854000  1.0
  C  C111  1  0.90891000  0.23572000  0.75139000  1.0
  C  C112  1  0.90891000  0.75139000  0.23572000  1.0
  C  C113  1  0.39609000  0.74853000  0.26431000  1.0
  C  C114  1  0.60391000  0.73568000  0.25147000  1.0
  C  C115  1  0.09109000  0.76428000  0.24861000  1.0
  C  C116  1  0.76361000  0.54272000  0.90425000  1.0
  C  C117  1  0.71045000  0.95735000  0.59581000  1.0
  C  C118  1  0.28955000  0.40419000  0.04264000  1.0
  C  C119  1  0.23639000  0.09575000  0.45728000  1.0
  C  C120  1  0.23639000  0.45728000  0.09575000  1.0
  C  C121  1  0.28955000  0.04264000  0.40419000  1.0
  C  C122  1  0.71045000  0.59581000  0.95736000  1.0
  C  C123  1  0.76361000  0.90425000  0.54272000  1.0
  C  C124  1  0.13910000  0.20474000  0.81520000  1.0
  C  C125  1  0.65904000  0.29526000  0.68474000  1.0
  C  C126  1  0.34095000  0.31526000  0.70474000  1.0
  C  C127  1  0.86090000  0.18480000  0.79526000  1.0
  C  C128  1  0.86090000  0.79526000  0.18480000  1.0
  C  C129  1  0.34095000  0.70474000  0.31526000  1.0
  C  C130  1  0.65905000  0.68474000  0.29526000  1.0
  C  C131  1  0.13910000  0.81520000  0.20474000  1.0
  C  C132  1  0.22724000  0.16138000  0.78863000  1.0
  C  C133  1  0.67731000  0.33862000  0.71126000  1.0
  C  C134  1  0.32268000  0.28874000  0.66138000  1.0
  C  C135  1  0.77277000  0.21137000  0.83861000  1.0
  C  C136  1  0.77276000  0.83861000  0.21137000  1.0
  C  C137  1  0.32268000  0.66138000  0.28874000  1.0
  C  C138  1  0.67731000  0.71126000  0.33862000  1.0
  C  C139  1  0.22723000  0.78863000  0.16139000  1.0
  C  C140  1  0.09553000  0.20506000  0.89081000  1.0
  C  C141  1  0.69140000  0.29487000  0.60916000  1.0
  C  C142  1  0.30859000  0.39085000  0.70512000  1.0
  C  C143  1  0.90447000  0.10919000  0.79494000  1.0
  C  C144  1  0.90447000  0.79494000  0.10919000  1.0
  C  C145  1  0.30859000  0.70513000  0.39085000  1.0
  C  C146  1  0.69141000  0.60916000  0.29488000  1.0
  C  C147  1  0.09553000  0.89081000  0.20506000  1.0
  C  C148  1  0.22652000  0.11680000  0.91245000  1.0
  C  C149  1  0.75586000  0.38309000  0.58741000  1.0
  C  C150  1  0.24414000  0.41259000  0.61691000  1.0
  C  C151  1  0.77348000  0.08755000  0.88320000  1.0
  C  C152  1  0.77348000  0.88320000  0.08755000  1.0
  C  C153  1  0.24414000  0.61691000  0.41259000  1.0
  C  C154  1  0.75586000  0.58741000  0.38310000  1.0
  C  C155  1  0.22652000  0.91245000  0.11680000  1.0
  C  C156  1  0.27035000  0.06467000  0.96306000  1.0
  C  C157  1  0.79818000  0.43520000  0.53679000  1.0
  C  C158  1  0.20182000  0.46321000  0.56480000  1.0
  C  C159  1  0.72965000  0.03695000  0.93534000  1.0
  C  C160  1  0.72965000  0.93534000  0.03695000  1.0
  C  C161  1  0.20182000  0.56480000  0.46321000  1.0
  C  C162  1  0.79818000  0.53679000  0.43520000  1.0
  C  C163  1  0.27035000  0.96305000  0.06466000  1.0
  C  C164  1  0.27075000  0.11889000  0.83649000  1.0
  C  C165  1  0.72624000  0.38106000  0.66336000  1.0
  C  C166  1  0.27376000  0.33664000  0.61894000  1.0
  C  C167  1  0.72925000  0.16351000  0.88111000  1.0
  C  C168  1  0.72925000  0.88111000  0.16351000  1.0
  C  C169  1  0.27376000  0.61894000  0.33664000  1.0
  C  C170  1  0.72624000  0.66336000  0.38106000  1.0
  C  C171  1  0.27075000  0.83649000  0.11889000  1.0
  C  C172  1  0.22981000  0.01892000  0.01892000  1.0
  C  C173  1  0.76785000  0.48086000  0.48086000  1.0
  C  C174  1  0.23215000  0.51914000  0.51914000  1.0
  C  C175  1  0.77019000  0.98108000  0.98108000  1.0
  C  C176  1  0.86602000  0.42312000  0.87199000  1.0
  C  C177  1  0.66101000  0.07694000  0.62809000  1.0
  C  C178  1  0.33899000  0.37191000  0.92306000  1.0
  C  C179  1  0.13399000  0.12801000  0.57687000  1.0
  C  C180  1  0.13399000  0.57687000  0.12802000  1.0
  C  C181  1  0.33899000  0.92306000  0.37191000  1.0
  C  C182  1  0.66101000  0.62809000  0.07694000  1.0
  C  C183  1  0.86601000  0.87198000  0.42313000  1.0
  C  C184  1  0.76539000  0.56146000  0.83223000  1.0
  C  C185  1  0.65888000  0.93864000  0.66778000  1.0
  C  C186  1  0.34112000  0.33222000  0.06135000  1.0
  C  C187  1  0.23461000  0.16777000  0.43853000  1.0
  C  C188  1  0.23461000  0.43854000  0.16777000  1.0
  C  C189  1  0.34112000  0.06136000  0.33222000  1.0
  C  C190  1  0.65888000  0.66778000  0.93864000  1.0
  C  C191  1  0.76539000  0.83223000  0.56146000  1.0
  C  C192  1  0.81563000  0.47112000  0.92333000  1.0
  C  C193  1  0.70999000  0.02896000  0.57673000  1.0
  C  C194  1  0.29001000  0.42328000  0.97103000  1.0
  C  C195  1  0.18437000  0.07666000  0.52888000  1.0
  C  C196  1  0.18437000  0.52888000  0.07666000  1.0
  C  C197  1  0.29001000  0.97103000  0.42328000  1.0
  C  C198  1  0.70999000  0.57672000  0.02896000  1.0
  C  C199  1  0.81563000  0.92333000  0.47112000  1.0
  C  C200  1  0.81712000  0.51041000  0.78385000  1.0
  C  C201  1  0.61121000  0.98966000  0.71619000  1.0
  C  C202  1  0.38879000  0.28381000  0.01034000  1.0
  C  C203  1  0.18288000  0.21615000  0.48959000  1.0
  C  C204  1  0.18288000  0.48959000  0.21614000  1.0
  C  C205  1  0.38879000  0.01034000  0.28381000  1.0
  C  C206  1  0.61121000  0.71619000  0.98966000  1.0
  C  C207  1  0.81712000  0.78385000  0.51041000  1.0
  N  N208  1  0.86686000  0.44241000  0.80333000  1.0
  N  N209  1  0.61250000  0.05765000  0.69672000  1.0
  N  N210  1  0.38750000  0.30328000  0.94235000  1.0
  N  N211  1  0.13314000  0.19666000  0.55759000  1.0
  N  N212  1  0.13314000  0.55759000  0.19666000  1.0
  N  N213  1  0.38750000  0.94235000  0.30328000  1.0
  N  N214  1  0.61250000  0.69672000  0.05765000  1.0
  N  N215  1  0.86686000  0.80333000  0.44241000  1.0
  O  O216  1  0.47367000  0.07105000  0.84835000  1.0
  O  O217  1  0.89284000  0.42894000  0.65173000  1.0
  O  O218  1  0.10717000  0.34827000  0.57106000  1.0
  O  O219  1  0.52632000  0.15165000  0.92896000  1.0
  O  O220  1  0.52632000  0.92896000  0.15166000  1.0
  O  O221  1  0.10716000  0.57106000  0.34828000  1.0
  O  O222  1  0.89284000  0.65173000  0.42894000  1.0
  O  O223  1  0.47368000  0.84834000  0.07104000  1.0
  O  O224  1  0.37567000  0.16714000  0.90991000  1.0
  O  O225  1  0.95287000  0.33293000  0.58997000  1.0
  O  O226  1  0.04714000  0.41003000  0.66707000  1.0
  O  O227  1  0.62432000  0.09010000  0.83286000  1.0
  O  O228  1  0.62433000  0.83286000  0.09010000  1.0
  O  O229  1  0.04713000  0.66708000  0.41003000  1.0
  O  O230  1  0.95287000  0.58996000  0.33292000  1.0
  O  O231  1  0.37568000  0.90990000  0.16714000  1.0
  O  O232  1  0.01560000  0.29580000  0.79149000  1.0
  O  O233  1  0.60282000  0.20426000  0.70848000  1.0
  O  O234  1  0.39718000  0.29152000  0.79573000  1.0
  O  O235  1  0.98440000  0.20851000  0.70420000  1.0
  O  O236  1  0.98440000  0.70420000  0.20851000  1.0
  O  O237  1  0.39718000  0.79574000  0.29152000  1.0
  O  O238  1  0.60282000  0.70848000  0.20426000  1.0
  O  O239  1  0.01560000  0.79149000  0.29581000  1.0
  O  O240  1  0.12686000  0.23576000  0.69855000  1.0
  O  O241  1  0.56110000  0.26435000  0.80139000  1.0
  O  O242  1  0.43891000  0.19861000  0.73565000  1.0
  O  O243  1  0.87314000  0.30145000  0.76424000  1.0
  O  O244  1  0.87314000  0.76424000  0.30145000  1.0
  O  O245  1  0.43891000  0.73565000  0.19861000  1.0
  O  O246  1  0.56109000  0.80139000  0.26436000  1.0
  O  O247  1  0.12686000  0.69855000  0.23576000  1.0
