# generated using pymatgen
data_ZnH5C7NO5
_symmetry_space_group_name_H-M   'P 1'
_cell_length_a   11.36440000
_cell_length_b   11.96180000
_cell_length_c   16.67930000
_cell_angle_alpha   89.99980000
_cell_angle_beta   106.19500000
_cell_angle_gamma   89.99980000
_symmetry_Int_Tables_number   1
_chemical_formula_structural   ZnH5C7NO5
_chemical_formula_sum   'Zn8 H40 C56 N8 O40'
_cell_volume   2177.38862893
_cell_formula_units_Z   8
loop_
 _symmetry_equiv_pos_site_id
 _symmetry_equiv_pos_as_xyz
  1  'x, y, z'
loop_
 _atom_site_type_symbol
 _atom_site_label
 _atom_site_symmetry_multiplicity
 _atom_site_fract_x
 _atom_site_fract_y
 _atom_site_fract_z
 _atom_site_occupancy
  Zn  Zn0  1  0.41177000  0.49956000  0.19038000  1.0
  Zn  Zn1  1  0.08823000  0.99956000  0.30962000  1.0
  Zn  Zn2  1  0.58823000  0.50044000  0.80961000  1.0
  Zn  Zn3  1  0.91177000  0.00044000  0.69038000  1.0
  Zn  Zn4  1  0.24416000  0.73413000  0.09587000  1.0
  Zn  Zn5  1  0.25584000  0.23414000  0.40413000  1.0
  Zn  Zn6  1  0.75584000  0.26586000  0.90413000  1.0
  Zn  Zn7  1  0.74416000  0.76586000  0.59587000  1.0
  H  H8  1  0.40821000  0.08682000  0.22061000  1.0
  H  H9  1  0.09177000  0.58681000  0.27938000  1.0
  H  H10  1  0.59176000  0.91319000  0.77938000  1.0
  H  H11  1  0.90823000  0.41319000  0.72062000  1.0
  H  H12  1  0.50167000  0.03545000  0.10241000  1.0
  H  H13  1  0.99831000  0.53545000  0.39758000  1.0
  H  H14  1  0.49831000  0.96455000  0.89758000  1.0
  H  H15  1  0.00168000  0.46456000  0.60242000  1.0
  H  H16  1  0.54504000  0.38862000  0.06815000  1.0
  H  H17  1  0.95498000  0.88863000  0.43186000  1.0
  H  H18  1  0.45498000  0.61138000  0.93186000  1.0
  H  H19  1  0.04503000  0.11138000  0.56815000  1.0
  H  H20  1  0.04550000  0.42939000  0.89042000  1.0
  H  H21  1  0.45450000  0.92940000  0.60957000  1.0
  H  H22  1  0.95450000  0.57061000  0.10957000  1.0
  H  H23  1  0.54550000  0.07060000  0.39043000  1.0
  H  H24  1  0.93363000  0.55999000  0.77282000  1.0
  H  H25  1  0.56637000  0.05998000  0.72718000  1.0
  H  H26  1  0.06636000  0.44001000  0.22718000  1.0
  H  H27  1  0.43363000  0.94001000  0.27282000  1.0
  H  H28  1  0.07856000  0.83754000  0.93301000  1.0
  H  H29  1  0.42145000  0.33754000  0.56700000  1.0
  H  H30  1  0.92145000  0.16246000  0.06700000  1.0
  H  H31  1  0.57855000  0.66246000  0.43300000  1.0
  H  H32  1  0.60206000  0.61122000  0.15083000  1.0
  H  H33  1  0.89794000  0.11122000  0.34917000  1.0
  H  H34  1  0.39794000  0.38878000  0.84917000  1.0
  H  H35  1  0.10206000  0.88878000  0.65083000  1.0
  H  H36  1  0.47955000  0.63794000  0.08103000  1.0
  H  H37  1  0.02046000  0.13795000  0.41897000  1.0
  H  H38  1  0.52046000  0.36205000  0.91897000  1.0
  H  H39  1  0.97955000  0.86206000  0.58103000  1.0
  H  H40  1  0.27249000  0.93079000  0.05287000  1.0
  H  H41  1  0.22751000  0.43079000  0.44714000  1.0
  H  H42  1  0.72750000  0.06921000  0.94713000  1.0
  H  H43  1  0.77250000  0.56921000  0.55287000  1.0
  H  H44  1  0.19873000  0.93307000  0.12630000  1.0
  H  H45  1  0.30126000  0.43307000  0.37370000  1.0
  H  H46  1  0.80127000  0.06693000  0.87370000  1.0
  H  H47  1  0.69873000  0.56693000  0.62630000  1.0
  C  C48  1  0.43211000  0.26136000  0.20478000  1.0
  C  C49  1  0.06789000  0.76136000  0.29522000  1.0
  C  C50  1  0.56789000  0.73864000  0.79522000  1.0
  C  C51  1  0.93212000  0.23864000  0.70478000  1.0
  C  C52  1  0.44178000  0.14927000  0.18510000  1.0
  C  C53  1  0.05820000  0.64927000  0.31489000  1.0
  C  C54  1  0.55820000  0.85073000  0.81489000  1.0
  C  C55  1  0.94179000  0.35073000  0.68511000  1.0
  C  C56  1  0.49272000  0.12173000  0.12093000  1.0
  C  C57  1  0.00727000  0.62173000  0.37906000  1.0
  C  C58  1  0.50726000  0.87827000  0.87906000  1.0
  C  C59  1  0.99273000  0.37827000  0.62094000  1.0
  C  C60  1  0.53226000  0.20781000  0.07795000  1.0
  C  C61  1  0.96774000  0.70781000  0.42205000  1.0
  C  C62  1  0.46774000  0.79219000  0.92205000  1.0
  C  C63  1  0.03226000  0.29219000  0.57795000  1.0
  C  C64  1  0.51709000  0.31852000  0.10019000  1.0
  C  C65  1  0.98291000  0.81852000  0.39981000  1.0
  C  C66  1  0.48291000  0.68149000  0.89981000  1.0
  C  C67  1  0.01710000  0.18148000  0.60020000  1.0
  C  C68  1  0.59396000  0.18133000  0.01114000  1.0
  C  C69  1  0.90605000  0.68133000  0.48887000  1.0
  C  C70  1  0.40604000  0.81867000  0.98887000  1.0
  C  C71  1  0.09396000  0.31867000  0.51114000  1.0
  C  C72  1  0.37843000  0.29678000  0.27388000  1.0
  C  C73  1  0.12157000  0.79677000  0.22612000  1.0
  C  C74  1  0.62157000  0.70322000  0.72612000  1.0
  C  C75  1  0.87843000  0.20322000  0.77388000  1.0
  C  C76  1  0.12233000  0.56791000  0.97051000  1.0
  C  C77  1  0.37768000  0.06791000  0.52949000  1.0
  C  C78  1  0.87767000  0.43209000  0.02949000  1.0
  C  C79  1  0.62233000  0.93209000  0.47051000  1.0
  C  C80  1  0.05151000  0.52006000  0.89644000  1.0
  C  C81  1  0.44849000  0.02006000  0.60356000  1.0
  C  C82  1  0.94849000  0.47994000  0.10356000  1.0
  C  C83  1  0.55151000  0.97994000  0.39644000  1.0
  C  C84  1  0.00316000  0.70694000  0.84233000  1.0
  C  C85  1  0.49684000  0.20693000  0.65767000  1.0
  C  C86  1  0.99684000  0.29307000  0.15767000  1.0
  C  C87  1  0.50316000  0.79307000  0.34233000  1.0
  C  C88  1  0.99081000  0.59117000  0.83219000  1.0
  C  C89  1  0.50919000  0.09116000  0.66781000  1.0
  C  C90  1  0.00919000  0.40884000  0.16781000  1.0
  C  C91  1  0.49081000  0.90883000  0.33219000  1.0
  C  C92  1  0.06982000  0.74812000  0.92007000  1.0
  C  C93  1  0.43019000  0.24812000  0.57993000  1.0
  C  C94  1  0.93018000  0.25188000  0.07993000  1.0
  C  C95  1  0.56981000  0.75188000  0.42007000  1.0
  C  C96  1  0.94797000  0.78284000  0.76981000  1.0
  C  C97  1  0.55203000  0.28284000  0.73019000  1.0
  C  C98  1  0.05203000  0.21716000  0.23019000  1.0
  C  C99  1  0.44797000  0.71716000  0.26981000  1.0
  C  C100  1  0.20156000  0.49669000  0.04011000  1.0
  C  C101  1  0.29845000  0.99668000  0.45989000  1.0
  C  C102  1  0.79845000  0.50331000  0.95989000  1.0
  C  C103  1  0.70155000  0.00332000  0.54011000  1.0
  N  N104  1  0.46825000  0.34431000  0.16240000  1.0
  N  N105  1  0.03175000  0.84432000  0.33760000  1.0
  N  N106  1  0.53175000  0.65569000  0.83760000  1.0
  N  N107  1  0.96825000  0.15569000  0.66240000  1.0
  N  N108  1  0.12717000  0.67951000  0.98212000  1.0
  N  N109  1  0.37284000  0.17951000  0.51788000  1.0
  N  N110  1  0.87284000  0.32049000  0.01788000  1.0
  N  N111  1  0.62716000  0.82049000  0.48212000  1.0
  O  O112  1  0.34856000  0.39953000  0.27543000  1.0
  O  O113  1  0.15142000  0.89953000  0.22457000  1.0
  O  O114  1  0.65142000  0.60047000  0.72457000  1.0
  O  O115  1  0.84857000  0.10047000  0.77543000  1.0
  O  O116  1  0.36792000  0.22100000  0.32423000  1.0
  O  O117  1  0.13208000  0.72099000  0.17577000  1.0
  O  O118  1  0.63208000  0.77901000  0.67577000  1.0
  O  O119  1  0.86792000  0.27901000  0.82423000  1.0
  O  O120  1  0.62607000  0.08211000  0.00447000  1.0
  O  O121  1  0.87394000  0.58211000  0.49554000  1.0
  O  O122  1  0.37393000  0.91789000  0.99553000  1.0
  O  O123  1  0.12607000  0.41789000  0.50447000  1.0
  O  O124  1  0.61277000  0.26480000  0.96733000  1.0
  O  O125  1  0.88723000  0.76480000  0.53268000  1.0
  O  O126  1  0.38723000  0.73520000  0.03268000  1.0
  O  O127  1  0.11278000  0.23520000  0.46733000  1.0
  O  O128  1  0.26430000  0.55511000  0.10485000  1.0
  O  O129  1  0.23571000  0.05512000  0.39514000  1.0
  O  O130  1  0.73570000  0.44488000  0.89515000  1.0
  O  O131  1  0.76430000  0.94488000  0.60485000  1.0
  O  O132  1  0.20543000  0.39437000  0.03245000  1.0
  O  O133  1  0.29458000  0.89437000  0.46754000  1.0
  O  O134  1  0.79457000  0.60563000  0.96754000  1.0
  O  O135  1  0.70542000  0.10563000  0.53246000  1.0
  O  O136  1  0.88753000  0.73585000  0.70338000  1.0
  O  O137  1  0.61247000  0.23585000  0.79662000  1.0
  O  O138  1  0.11247000  0.26415000  0.29662000  1.0
  O  O139  1  0.38752000  0.76415000  0.20338000  1.0
  O  O140  1  0.97018000  0.88766000  0.78107000  1.0
  O  O141  1  0.52982000  0.38765000  0.71893000  1.0
  O  O142  1  0.02982000  0.11235000  0.21893000  1.0
  O  O143  1  0.47018000  0.61234000  0.28107000  1.0
  O  O144  1  0.52854000  0.57587000  0.11594000  1.0
  O  O145  1  0.97147000  0.07587000  0.38407000  1.0
  O  O146  1  0.47147000  0.42413000  0.88407000  1.0
  O  O147  1  0.02853000  0.92413000  0.61593000  1.0
  O  O148  1  0.20127000  0.90326000  0.07176000  1.0
  O  O149  1  0.29873000  0.40327000  0.42824000  1.0
  O  O150  1  0.79873000  0.09673000  0.92824000  1.0
  O  O151  1  0.70127000  0.59673000  0.57176000  1.0
