# generated using pymatgen
data_NiP2H38C24S4(NO)4
_symmetry_space_group_name_H-M   'P 1'
_cell_length_a   8.56296000
_cell_length_b   8.64293000
_cell_length_c   11.07350000
_cell_angle_alpha   88.54260000
_cell_angle_beta   81.52540000
_cell_angle_gamma   89.65150000
_symmetry_Int_Tables_number   1
_chemical_formula_structural   NiP2H38C24S4(NO)4
_chemical_formula_sum   'Ni1 P2 H38 C24 S4 N4 O4'
_cell_volume   810.32658283
_cell_formula_units_Z   1
loop_
 _symmetry_equiv_pos_site_id
 _symmetry_equiv_pos_as_xyz
  1  'x, y, z'
loop_
 _atom_site_type_symbol
 _atom_site_label
 _atom_site_symmetry_multiplicity
 _atom_site_fract_x
 _atom_site_fract_y
 _atom_site_fract_z
 _atom_site_occupancy
  Ni  Ni0  1  0.50000000  0.50000000  0.50000000  1.0
  P  P1  1  0.64522000  0.57595000  0.71771000  1.0
  P  P2  1  0.35478000  0.42405000  0.28229000  1.0
  H  H3  1  0.77606000  0.32838000  0.81685000  1.0
  H  H4  1  0.22394000  0.67161000  0.18316000  1.0
  H  H5  1  0.52232000  0.19237000  0.87535000  1.0
  H  H6  1  0.47768000  0.80763000  0.12465000  1.0
  H  H7  1  0.49670000  0.27885000  0.02191000  1.0
  H  H8  1  0.50330000  0.72115000  0.97809000  1.0
  H  H9  1  0.65358000  0.14469000  0.98084000  1.0
  H  H10  1  0.34642000  0.85531000  0.01916000  1.0
  H  H11  1  0.85070000  0.54263000  0.94674000  1.0
  H  H12  1  0.14930000  0.45737000  0.05326000  1.0
  H  H13  1  0.85883000  0.35881000  0.02265000  1.0
  H  H14  1  0.14117000  0.64119000  0.97735000  1.0
  H  H15  1  0.69569000  0.48536000  0.06531000  1.0
  H  H16  1  0.30431000  0.51464000  0.93469000  1.0
  H  H17  1  0.78827000  0.79489000  0.57916000  1.0
  H  H18  1  0.21173000  0.20511000  0.42084000  1.0
  H  H19  1  0.04075000  0.67156000  0.59523000  1.0
  H  H20  1  0.95924000  0.32845000  0.40478000  1.0
  H  H21  1  0.06844000  0.78531000  0.72301000  1.0
  H  H22  1  0.93156000  0.21469000  0.27699000  1.0
  H  H23  1  0.07494000  0.87386000  0.57522000  1.0
  H  H24  1  0.92506000  0.12614000  0.42478000  1.0
  H  H25  1  0.66424000  0.98193000  0.72903000  1.0
  H  H26  1  0.33575000  0.01807000  0.27097000  1.0
  H  H27  1  0.84192000  0.06310000  0.65013000  1.0
  H  H28  1  0.15808000  0.93690000  0.34987000  1.0
  H  H29  1  0.83633000  0.98563000  0.80135000  1.0
  H  H30  1  0.16366000  0.01437000  0.19865000  1.0
  H  H31  1  0.53398000  0.16570000  0.56290000  1.0
  H  H32  1  0.46603000  0.83430000  0.43709000  1.0
  H  H33  1  0.39854000  0.97070000  0.71278000  1.0
  H  H34  1  0.60145000  0.02931000  0.28722000  1.0
  H  H35  1  0.05150000  0.32225000  0.82985000  1.0
  H  H36  1  0.94851000  0.67776000  0.17015000  1.0
  H  H37  1  0.19762000  0.49934000  0.67139000  1.0
  H  H38  1  0.80239000  0.50066000  0.32860000  1.0
  H  H39  1  0.19151000  0.90424000  0.87885000  1.0
  H  H40  1  0.80849000  0.09577000  0.12115000  1.0
  C  C41  1  0.69264000  0.36974000  0.89493000  1.0
  C  C42  1  0.30736000  0.63026000  0.10507000  1.0
  C  C43  1  0.58395000  0.23870000  0.94656000  1.0
  C  C44  1  0.41605000  0.76130000  0.05344000  1.0
  C  C45  1  0.77968000  0.44446000  0.98817000  1.0
  C  C46  1  0.22032000  0.55554000  0.01183000  1.0
  C  C47  1  0.84044000  0.81265000  0.66310000  1.0
  C  C48  1  0.15956000  0.18735000  0.33690000  1.0
  C  C49  1  0.01690000  0.78403000  0.63793000  1.0
  C  C50  1  0.98310000  0.21597000  0.36207000  1.0
  C  C51  1  0.79309000  0.97017000  0.71399000  1.0
  C  C52  1  0.20690000  0.02983000  0.28601000  1.0
  C  C53  1  0.42598000  0.19473000  0.62307000  1.0
  C  C54  1  0.57402000  0.80527000  0.37692000  1.0
  C  C55  1  0.35064000  0.08759000  0.70723000  1.0
  C  C56  1  0.64935000  0.91241000  0.29277000  1.0
  C  C57  1  0.21493000  0.13190000  0.78603000  1.0
  C  C58  1  0.78507000  0.86810000  0.21397000  1.0
  C  C59  1  0.15716000  0.28275000  0.77194000  1.0
  C  C60  1  0.84284000  0.71725000  0.22806000  1.0
  C  C61  1  0.23824000  0.38154000  0.68433000  1.0
  C  C62  1  0.76178000  0.61846000  0.31566000  1.0
  C  C63  1  0.14271000  0.02220000  0.87886000  1.0
  C  C64  1  0.85729000  0.97780000  0.12114000  1.0
  S  S65  1  0.74104000  0.43406000  0.58718000  1.0
  S  S66  1  0.25896000  0.56594000  0.41282000  1.0
  S  S67  1  0.45831000  0.68561000  0.66825000  1.0
  S  S68  1  0.54169000  0.31439000  0.33175000  1.0
  N  N69  1  0.37234000  0.34025000  0.61214000  1.0
  N  N70  1  0.62766000  0.65975000  0.38786000  1.0
  N  N71  1  0.02496000  0.06088000  0.96009000  1.0
  N  N72  1  0.97503000  0.93912000  0.03991000  1.0
  O  O73  1  0.59187000  0.48787000  0.84539000  1.0
  O  O74  1  0.40813000  0.51213000  0.15462000  1.0
  O  O75  1  0.77281000  0.69557000  0.75479000  1.0
  O  O76  1  0.22719000  0.30443000  0.24521000  1.0
