# generated using pymatgen
data_NaErH12(CO)12
_symmetry_space_group_name_H-M   'P 1'
_cell_length_a   6.82710000
_cell_length_b   7.44567000
_cell_length_c   15.58656909
_cell_angle_alpha   89.99936858
_cell_angle_beta   77.35305716
_cell_angle_gamma   89.99970000
_symmetry_Int_Tables_number   1
_chemical_formula_structural   NaErH12(CO)12
_chemical_formula_sum   'Na2 Er2 H24 C24 O24'
_cell_volume   773.07862586
_cell_formula_units_Z   2
loop_
 _symmetry_equiv_pos_site_id
 _symmetry_equiv_pos_as_xyz
  1  'x, y, z'
loop_
 _atom_site_type_symbol
 _atom_site_label
 _atom_site_symmetry_multiplicity
 _atom_site_fract_x
 _atom_site_fract_y
 _atom_site_fract_z
 _atom_site_occupancy
  Na  Na0  1  0.35842000  0.74990000  0.28303000  1.0
  Na  Na1  1  0.64156000  0.24989000  0.71698000  1.0
  Er  Er2  1  0.19592000  0.25002000  0.60814000  1.0
  Er  Er3  1  0.80409000  0.75001000  0.39186000  1.0
  H  H4  1  0.26278000  0.75149000  0.10417000  1.0
  H  H5  1  0.73721000  0.25148000  0.89584000  1.0
  H  H6  1  0.63293000  0.74862000  0.10410000  1.0
  H  H7  1  0.36706000  0.24863000  0.89591000  1.0
  H  H8  1  0.34507000  0.74581000  0.94025000  1.0
  H  H9  1  0.65492000  0.24581000  0.05976000  1.0
  H  H10  1  0.71474000  0.75425000  0.94016000  1.0
  H  H11  1  0.28525000  0.25426000  0.05984000  1.0
  H  H12  1  0.98514000  0.73263000  0.58462000  1.0
  H  H13  1  0.01488000  0.23263000  0.41538000  1.0
  H  H14  1  0.43025000  0.76748000  0.58459000  1.0
  H  H15  1  0.56976000  0.26746000  0.41541000  1.0
  H  H16  1  0.04339000  0.88739000  0.70055000  1.0
  H  H17  1  0.95661000  0.38738000  0.29945000  1.0
  H  H18  1  0.25611000  0.61270000  0.70056000  1.0
  H  H19  1  0.74390000  0.11270000  0.29944000  1.0
  H  H20  1  0.28716000  0.41315000  0.19627000  1.0
  H  H21  1  0.71282000  0.91314000  0.80372000  1.0
  H  H22  1  0.51629000  0.08672000  0.19633000  1.0
  H  H23  1  0.48372000  0.58671000  0.80367000  1.0
  H  H24  1  0.50945000  0.40065000  0.20937000  1.0
  H  H25  1  0.49055000  0.90064000  0.79061000  1.0
  H  H26  1  0.28094000  0.09923000  0.20943000  1.0
  H  H27  1  0.71906000  0.59923000  0.79057000  1.0
  C  C28  1  0.89428000  0.75001000  0.21135000  1.0
  C  C29  1  0.10572000  0.25001000  0.78866000  1.0
  C  C30  1  0.94305000  0.75001000  0.11373000  1.0
  C  C31  1  0.05694000  0.25002000  0.88627000  1.0
  C  C32  1  0.12296000  0.81384000  0.57416000  1.0
  C  C33  1  0.87705000  0.31383000  0.42584000  1.0
  C  C34  1  0.30296000  0.68620000  0.57414000  1.0
  C  C35  1  0.69706000  0.18618000  0.42586000  1.0
  C  C36  1  0.14607000  0.91303000  0.48715000  1.0
  C  C37  1  0.85393000  0.41302000  0.51284000  1.0
  C  C38  1  0.36675000  0.58697000  0.48715000  1.0
  C  C39  1  0.63327000  0.08694000  0.51284000  1.0
  C  C40  1  0.14397000  0.74987000  0.06769000  1.0
  C  C41  1  0.85601000  0.24987000  0.93232000  1.0
  C  C42  1  0.78823000  0.75017000  0.06765000  1.0
  C  C43  1  0.21177000  0.25018000  0.93235000  1.0
  C  C44  1  0.03499000  0.75000000  0.92994000  1.0
  C  C45  1  0.96499000  0.25001000  0.07007000  1.0
  C  C46  1  0.18938000  0.74752000  0.97636000  1.0
  C  C47  1  0.81060000  0.24753000  0.02365000  1.0
  C  C48  1  0.83424000  0.75245000  0.97632000  1.0
  C  C49  1  0.16575000  0.25245000  0.02368000  1.0
  C  C50  1  0.08410000  0.75004000  0.83175000  1.0
  C  C51  1  0.91591000  0.25006000  0.16825000  1.0
  O  O52  1  0.10664000  0.94609000  0.64182000  1.0
  O  O53  1  0.89336000  0.44608000  0.35818000  1.0
  O  O54  1  0.25181000  0.55394000  0.64181000  1.0
  O  O55  1  0.74823000  0.05394000  0.35819000  1.0
  O  O56  1  0.40554000  0.48501000  0.20099000  1.0
  O  O57  1  0.59447000  0.98499000  0.79898000  1.0
  O  O58  1  0.39319000  0.01485000  0.20111000  1.0
  O  O59  1  0.60682000  0.51485000  0.79889000  1.0
  O  O60  1  0.03437000  0.75813000  0.25412000  1.0
  O  O61  1  0.96561000  0.25814000  0.74588000  1.0
  O  O62  1  0.71140000  0.74186000  0.25412000  1.0
  O  O63  1  0.28859000  0.24185000  0.74588000  1.0
  O  O64  1  0.10231000  0.83042000  0.42219000  1.0
  O  O65  1  0.89770000  0.33041000  0.57781000  1.0
  O  O66  1  0.47563000  0.66949000  0.42221000  1.0
  O  O67  1  0.52436000  0.16945000  0.57779000  1.0
  O  O68  1  0.20872000  0.07280000  0.48415000  1.0
  O  O69  1  0.79126000  0.57278000  0.51585000  1.0
  O  O70  1  0.30687000  0.42726000  0.48415000  1.0
  O  O71  1  0.69314000  0.92725000  0.51585000  1.0
  O  O72  1  0.94693000  0.79152000  0.79070000  1.0
  O  O73  1  0.05307000  0.29154000  0.20930000  1.0
  O  O74  1  0.26229000  0.70856000  0.79070000  1.0
  O  O75  1  0.73771000  0.20859000  0.20931000  1.0
