# generated using pymatgen
data_CoH5C5O4
_symmetry_space_group_name_H-M   'P 1'
_cell_length_a   6.55131000
_cell_length_b   15.28080000
_cell_length_c   15.28380000
_cell_angle_alpha   117.97700000
_cell_angle_beta   98.23640000
_cell_angle_gamma   98.21920000
_symmetry_Int_Tables_number   1
_chemical_formula_structural   CoH5C5O4
_chemical_formula_sum   'Co6 H30 C30 O24'
_cell_volume   1298.06803902
_cell_formula_units_Z   6
loop_
 _symmetry_equiv_pos_site_id
 _symmetry_equiv_pos_as_xyz
  1  'x, y, z'
loop_
 _atom_site_type_symbol
 _atom_site_label
 _atom_site_symmetry_multiplicity
 _atom_site_fract_x
 _atom_site_fract_y
 _atom_site_fract_z
 _atom_site_occupancy
  Co  Co0  1  0.96508000  0.27876000  0.60091000  1.0
  Co  Co1  1  0.68622000  0.32211000  0.72123000  1.0
  Co  Co2  1  0.36433000  0.39914000  0.67792000  1.0
  Co  Co3  1  0.03493000  0.72125000  0.39912000  1.0
  Co  Co4  1  0.31379000  0.67791000  0.27878000  1.0
  Co  Co5  1  0.63570000  0.60087000  0.32210000  1.0
  H  H6  1  0.31064000  0.43007000  0.45287000  1.0
  H  H7  1  0.88075000  0.02278000  0.56987000  1.0
  H  H8  1  0.85807000  0.54720000  0.97747000  1.0
  H  H9  1  0.68933000  0.56990000  0.54712000  1.0
  H  H10  1  0.11931000  0.97722000  0.43015000  1.0
  H  H11  1  0.14199000  0.45282000  0.02259000  1.0
  H  H12  1  0.62472000  0.14297000  0.30573000  1.0
  H  H13  1  0.48125000  0.16300000  0.85736000  1.0
  H  H14  1  0.31871000  0.69436000  0.83714000  1.0
  H  H15  1  0.37541000  0.85707000  0.69428000  1.0
  H  H16  1  0.51860000  0.83701000  0.14266000  1.0
  H  H17  1  0.68130000  0.30567000  0.16275000  1.0
  H  H18  1  0.60467000  0.06945000  0.36942000  1.0
  H  H19  1  0.53483000  0.30021000  0.93064000  1.0
  H  H20  1  0.23466000  0.63065000  0.69995000  1.0
  H  H21  1  0.39526000  0.93058000  0.63055000  1.0
  H  H22  1  0.46530000  0.69979000  0.06937000  1.0
  H  H23  1  0.76515000  0.36930000  0.29997000  1.0
  H  H24  1  0.85947000  0.12480000  0.36510000  1.0
  H  H25  1  0.73433000  0.24041000  0.87556000  1.0
  H  H26  1  0.49410000  0.63520000  0.75956000  1.0
  H  H27  1  0.14052000  0.87519000  0.63493000  1.0
  H  H28  1  0.26558000  0.75946000  0.12439000  1.0
  H  H29  1  0.50576000  0.36479000  0.24027000  1.0
  H  H30  1  0.58876000  0.23044000  0.48803000  1.0
  H  H31  1  0.35827000  0.25763000  0.76949000  1.0
  H  H32  1  0.10086000  0.51192000  0.74238000  1.0
  H  H33  1  0.41123000  0.76955000  0.51196000  1.0
  H  H34  1  0.64177000  0.74240000  0.23054000  1.0
  H  H35  1  0.89917000  0.48810000  0.25762000  1.0
  C  C36  1  0.06256000  0.42981000  0.53012000  1.0
  C  C37  1  0.63285000  0.10029000  0.57015000  1.0
  C  C38  1  0.53266000  0.46988000  0.89977000  1.0
  C  C39  1  0.93738000  0.57015000  0.46986000  1.0
  C  C40  1  0.36718000  0.89971000  0.42986000  1.0
  C  C41  1  0.46735000  0.53014000  0.10026000  1.0
  C  C42  1  0.88433000  0.47170000  0.55747000  1.0
  C  C43  1  0.41262000  0.08572000  0.52827000  1.0
  C  C44  1  0.32697000  0.44254000  0.91423000  1.0
  C  C45  1  0.11561000  0.52826000  0.44251000  1.0
  C  C46  1  0.58742000  0.91428000  0.47175000  1.0
  C  C47  1  0.67303000  0.55749000  0.08581000  1.0
  C  C48  1  0.75768000  0.44784000  0.61947000  1.0
  C  C49  1  0.30966000  0.17154000  0.55215000  1.0
  C  C50  1  0.13826000  0.38055000  0.82835000  1.0
  C  C51  1  0.24235000  0.55216000  0.38054000  1.0
  C  C52  1  0.69037000  0.82844000  0.44786000  1.0
  C  C53  1  0.86178000  0.61947000  0.17168000  1.0
  C  C54  1  0.17309000  0.46025000  0.47318000  1.0
  C  C55  1  0.71296000  0.01294000  0.53972000  1.0
  C  C56  1  0.70013000  0.52685000  0.98722000  1.0
  C  C57  1  0.82685000  0.53971000  0.52680000  1.0
  C  C58  1  0.28708000  0.98707000  0.46031000  1.0
  C  C59  1  0.29992000  0.47317000  0.01282000  1.0
  C  C60  1  0.69912000  0.13560000  0.37047000  1.0
  C  C61  1  0.56315000  0.23503000  0.86462000  1.0
  C  C62  1  0.32836000  0.62967000  0.76503000  1.0
  C  C63  1  0.30089000  0.86441000  0.62953000  1.0
  C  C64  1  0.43682000  0.76493000  0.13537000  1.0
  C  C65  1  0.67156000  0.37034000  0.23487000  1.0
  O  O66  1  0.13054000  0.36322000  0.55415000  1.0
  O  O67  1  0.76729000  0.19091000  0.63678000  1.0
  O  O68  1  0.57657000  0.44589000  0.80920000  1.0
  O  O69  1  0.86945000  0.63677000  0.44586000  1.0
  O  O70  1  0.23274000  0.80910000  0.36324000  1.0
  O  O71  1  0.42347000  0.55414000  0.19084000  1.0
  O  O72  1  0.84669000  0.40959000  0.67199000  1.0
  O  O73  1  0.43682000  0.26232000  0.59031000  1.0
  O  O74  1  0.17475000  0.32801000  0.73764000  1.0
  O  O75  1  0.15336000  0.59043000  0.32804000  1.0
  O  O76  1  0.56316000  0.73767000  0.40967000  1.0
  O  O77  1  0.82529000  0.67201000  0.26239000  1.0
  O  O78  1  0.57714000  0.46635000  0.62402000  1.0
  O  O79  1  0.11062000  0.15758000  0.53373000  1.0
  O  O80  1  0.95314000  0.37599000  0.84225000  1.0
  O  O81  1  0.42286000  0.53363000  0.37598000  1.0
  O  O82  1  0.88942000  0.84241000  0.46632000  1.0
  O  O83  1  0.04689000  0.62402000  0.15776000  1.0
  O  O84  1  0.72151000  0.22831000  0.46473000  1.0
  O  O85  1  0.49308000  0.23640000  0.77177000  1.0
  O  O86  1  0.25695000  0.53535000  0.76352000  1.0
  O  O87  1  0.27846000  0.77167000  0.53526000  1.0
  O  O88  1  0.50690000  0.76358000  0.22825000  1.0
  O  O89  1  0.74309000  0.46471000  0.23648000  1.0
