# generated using pymatgen
data_Zn3H14(C3O4)4
_symmetry_space_group_name_H-M   'P 1'
_cell_length_a   6.68347000
_cell_length_b   6.96196000
_cell_length_c   9.72268000
_cell_angle_alpha   85.21980000
_cell_angle_beta   77.30000000
_cell_angle_gamma   80.70750000
_symmetry_Int_Tables_number   1
_chemical_formula_structural   Zn3H14(C3O4)4
_chemical_formula_sum   'Zn3 H14 C12 O16'
_cell_volume   434.99915566
_cell_formula_units_Z   1
loop_
 _symmetry_equiv_pos_site_id
 _symmetry_equiv_pos_as_xyz
  1  'x, y, z'
loop_
 _atom_site_type_symbol
 _atom_site_label
 _atom_site_symmetry_multiplicity
 _atom_site_fract_x
 _atom_site_fract_y
 _atom_site_fract_z
 _atom_site_occupancy
  Zn  Zn0  1  0.00000000  0.00000000  0.00000000  1.0
  Zn  Zn1  1  0.55505000  0.22644000  0.66944000  1.0
  Zn  Zn2  1  0.44496000  0.77356000  0.33056000  1.0
  H  H3  1  0.10440000  0.40829000  0.37077000  1.0
  H  H4  1  0.89560000  0.59171000  0.62923000  1.0
  H  H5  1  0.93337000  0.54405000  0.27479000  1.0
  H  H6  1  0.06662000  0.45596000  0.72521000  1.0
  H  H7  1  0.18238000  0.51952000  0.05638000  1.0
  H  H8  1  0.81762000  0.48049000  0.94362000  1.0
  H  H9  1  0.37925000  0.37025000  0.12298000  1.0
  H  H10  1  0.62075000  0.62975000  0.87702000  1.0
  H  H11  1  0.29004000  0.04418000  0.60868000  1.0
  H  H12  1  0.70996000  0.95582000  0.39133000  1.0
  H  H13  1  0.34933000  0.18576000  0.47761000  1.0
  H  H14  1  0.65067000  0.81424000  0.52240000  1.0
  H  H15  1  0.79633000  0.22646000  0.19383000  1.0
  H  H16  1  0.20367000  0.77353000  0.80617000  1.0
  C  C17  1  0.80474000  0.31629000  0.40805000  1.0
  C  C18  1  0.19526000  0.68371000  0.59195000  1.0
  C  C19  1  0.98748000  0.39418000  0.31052000  1.0
  C  C20  1  0.01251000  0.60582000  0.68948000  1.0
  C  C21  1  0.07901000  0.26975000  0.18204000  1.0
  C  C22  1  0.92099000  0.73025000  0.81796000  1.0
  C  C23  1  0.24410000  0.36621000  0.07654000  1.0
  C  C24  1  0.75590000  0.63379000  0.92346000  1.0
  C  C25  1  0.32179000  0.27581000  0.93425000  1.0
  C  C26  1  0.67820000  0.72419000  0.06576000  1.0
  C  C27  1  0.17396000  0.06216000  0.22794000  1.0
  C  C28  1  0.82605000  0.93784000  0.77206000  1.0
  O  O29  1  0.70915000  0.20069000  0.36007000  1.0
  O  O30  1  0.29085000  0.79930000  0.63993000  1.0
  O  O31  1  0.75243000  0.37199000  0.53445000  1.0
  O  O32  1  0.24757000  0.62801000  0.46555000  1.0
  O  O33  1  0.27302000  0.11713000  0.90602000  1.0
  O  O34  1  0.72698000  0.88287000  0.09398000  1.0
  O  O35  1  0.44342000  0.37096000  0.84232000  1.0
  O  O36  1  0.55658000  0.62904000  0.15768000  1.0
  O  O37  1  0.29707000  0.04982000  0.31372000  1.0
  O  O38  1  0.70294000  0.95018000  0.68627000  1.0
  O  O39  1  0.13280000  0.91561000  0.17747000  1.0
  O  O40  1  0.86720000  0.08440000  0.82253000  1.0
  O  O41  1  0.91284000  0.25400000  0.11149000  1.0
  O  O42  1  0.08716000  0.74600000  0.88850000  1.0
  O  O43  1  0.31793000  0.18014000  0.58143000  1.0
  O  O44  1  0.68207000  0.81986000  0.41858000  1.0
