# generated using pymatgen
data_Zn4H8C24S4N4O13F4
_symmetry_space_group_name_H-M   'P 1'
_cell_length_a   19.73500000
_cell_length_b   19.80700000
_cell_length_c   33.56670000
_cell_angle_alpha   78.40300000
_cell_angle_beta   78.61940000
_cell_angle_gamma   63.60050000
_symmetry_Int_Tables_number   1
_chemical_formula_structural   Zn4H8C24S4N4O13F4
_chemical_formula_sum   'Zn16 H32 C96 S16 N16 O52 F16'
_cell_volume   11425.24637655
_cell_formula_units_Z   4
loop_
 _symmetry_equiv_pos_site_id
 _symmetry_equiv_pos_as_xyz
  1  'x, y, z'
loop_
 _atom_site_type_symbol
 _atom_site_label
 _atom_site_symmetry_multiplicity
 _atom_site_fract_x
 _atom_site_fract_y
 _atom_site_fract_z
 _atom_site_occupancy
  Zn  Zn0  1  0.05419000  0.40193000  0.47847000  1.0
  Zn  Zn1  1  0.98521000  0.48338000  0.55999000  1.0
  Zn  Zn2  1  0.05874000  0.56127000  0.48393000  1.0
  Zn  Zn3  1  0.90209000  0.55351000  0.47819000  1.0
  Zn  Zn4  1  0.69516000  0.34760000  0.27211000  1.0
  Zn  Zn5  1  0.69008000  0.19003000  0.26610000  1.0
  Zn  Zn6  1  0.76731000  0.26479000  0.19005000  1.0
  Zn  Zn7  1  0.84787000  0.19712000  0.27201000  1.0
  Zn  Zn8  1  0.26582000  0.76546000  0.69015000  1.0
  Zn  Zn9  1  0.34858000  0.69724000  0.77124000  1.0
  Zn  Zn10  1  0.19508000  0.84753000  0.77220000  1.0
  Zn  Zn11  1  0.19011000  0.68990000  0.76615000  1.0
  Zn  Zn12  1  0.55870000  0.06122000  0.98393000  1.0
  Zn  Zn13  1  0.40281000  0.05349000  0.97735000  1.0
  Zn  Zn14  1  0.55411000  0.90186000  0.97851000  1.0
  Zn  Zn15  1  0.48402000  0.98399000  0.05999000  1.0
  H  H16  1  0.79796000  0.53448000  0.42146000  1.0
  H  H17  1  0.72404000  0.52838000  0.40489000  1.0
  H  H18  1  0.94653000  0.21130000  0.33359000  1.0
  H  H19  1  0.99632000  0.19361000  0.37395000  1.0
  H  H20  1  0.71471000  0.45318000  0.32849000  1.0
  H  H21  1  0.72157000  0.52653000  0.34485000  1.0
  H  H22  1  0.04008000  0.30304000  0.41617000  1.0
  H  H23  1  0.05667000  0.25296000  0.37626000  1.0
  H  H24  1  0.14556000  0.63605000  0.52180000  1.0
  H  H25  1  0.21470000  0.65679000  0.53337000  1.0
  H  H26  1  0.11394000  0.60427000  0.72835000  1.0
  H  H27  1  0.09228000  0.53585000  0.71683000  1.0
  H  H28  1  0.22357000  0.73274000  0.60969000  1.0
  H  H29  1  0.18846000  0.74512000  0.56449000  1.0
  H  H30  1  0.01712000  0.52645000  0.64038000  1.0
  H  H31  1  0.00389000  0.56226000  0.68529000  1.0
  H  H32  1  0.72330000  0.23300000  0.10949000  1.0
  H  H33  1  0.68805000  0.24537000  0.06437000  1.0
  H  H34  1  0.51689000  0.02696000  0.14050000  1.0
  H  H35  1  0.50452000  0.06208000  0.18555000  1.0
  H  H36  1  0.64566000  0.13561000  0.02178000  1.0
  H  H37  1  0.71450000  0.15690000  0.03325000  1.0
  H  H38  1  0.61471000  0.10413000  0.22827000  1.0
  H  H39  1  0.59324000  0.03556000  0.21682000  1.0
  H  H40  1  0.21507000  0.95253000  0.82848000  1.0
  H  H41  1  0.22183000  0.02584000  0.84499000  1.0
  H  H42  1  0.54043000  0.80232000  0.91621000  1.0
  H  H43  1  0.55722000  0.75235000  0.87623000  1.0
  H  H44  1  0.29852000  0.03423000  0.92115000  1.0
  H  H45  1  0.22454000  0.02765000  0.90498000  1.0
  H  H46  1  0.44671000  0.71060000  0.83367000  1.0
  H  H47  1  0.49650000  0.69294000  0.87402000  1.0
  C  C48  1  0.06141000  0.31658000  0.56161000  1.0
  C  C49  1  0.07029000  0.56995000  0.56970000  1.0
  C  C50  1  0.18273000  0.44042000  0.43910000  1.0
  C  C51  1  0.93711000  0.68358000  0.43876000  1.0
  C  C52  1  0.93047000  0.42982000  0.43026000  1.0
  C  C53  1  0.81775000  0.56044000  0.56153000  1.0
  C  C54  1  0.56637000  0.30984000  0.31134000  1.0
  C  C55  1  0.68062000  0.17961000  0.18021000  1.0
  C  C56  1  0.68944000  0.43201000  0.18847000  1.0
  C  C57  1  0.93436000  0.18834000  0.18927000  1.0
  C  C58  1  0.81899000  0.32114000  0.31975000  1.0
  C  C59  1  0.81162000  0.06748000  0.31129000  1.0
  C  C60  1  0.43305000  0.68999000  0.68809000  1.0
  C  C61  1  0.31956000  0.82062000  0.81955000  1.0
  C  C62  1  0.18830000  0.93233000  0.68873000  1.0
  C  C63  1  0.06638000  0.80963000  0.81145000  1.0
  C  C64  1  0.18014000  0.67948000  0.68043000  1.0
  C  C65  1  0.31275000  0.56740000  0.81086000  1.0
  C  C66  1  0.43758000  0.18381000  0.93862000  1.0
  C  C67  1  0.43121000  0.92947000  0.92985000  1.0
  C  C68  1  0.68269000  0.94035000  0.93916000  1.0
  C  C69  1  0.56091000  0.81700000  0.06189000  1.0
  C  C70  1  0.56965000  0.07026000  0.06981000  1.0
  C  C71  1  0.31672000  0.06063000  0.06026000  1.0
  C  C72  1  0.90227000  0.40229000  0.40229000  1.0
  C  C73  1  0.84719000  0.34868000  0.34770000  1.0
  C  C74  1  0.82895000  0.44734000  0.38877000  1.0
  C  C75  1  0.91979000  0.30290000  0.36192000  1.0
  C  C76  1  0.80255000  0.42160000  0.36120000  1.0
  C  C77  1  0.94759000  0.33003000  0.38812000  1.0
  C  C78  1  0.09792000  0.59788000  0.59771000  1.0
  C  C79  1  0.15218000  0.65193000  0.65240000  1.0
  C  C80  1  0.14188000  0.64066000  0.58206000  1.0
  C  C81  1  0.10929000  0.60806000  0.66805000  1.0
  C  C82  1  0.16740000  0.66855000  0.60900000  1.0
  C  C83  1  0.08129000  0.58264000  0.64111000  1.0
  C  C84  1  0.30405000  0.45320000  0.40057000  1.0
  C  C85  1  0.44516000  0.29689000  0.34994000  1.0
  C  C86  1  0.25745000  0.41538000  0.41412000  1.0
  C  C87  1  0.49161000  0.33486000  0.33628000  1.0
  C  C88  1  0.37648000  0.33961000  0.37324000  1.0
  C  C89  1  0.37244000  0.41074000  0.37700000  1.0
  C  C90  1  0.72536000  0.57679000  0.62860000  1.0
  C  C91  1  0.52525000  0.67360000  0.62093000  1.0
  C  C92  1  0.74287000  0.58536000  0.58631000  1.0
  C  C93  1  0.50785000  0.66471000  0.66322000  1.0
  C  C94  1  0.60437000  0.64143000  0.60794000  1.0
  C  C95  1  0.64624000  0.60838000  0.64156000  1.0
  C  C96  1  0.07710000  0.22415000  0.62879000  1.0
  C  C97  1  0.17307000  0.02468000  0.62152000  1.0
  C  C98  1  0.08636000  0.24177000  0.58650000  1.0
  C  C99  1  0.16395000  0.00708000  0.66381000  1.0
  C  C100  1  0.14198000  0.10362000  0.60840000  1.0
  C  C101  1  0.10881000  0.14522000  0.64190000  1.0
  C  C102  1  0.84437000  0.80171000  0.39725000  1.0
  C  C103  1  0.90429000  0.94943000  0.35285000  1.0
  C  C104  1  0.91233000  0.75839000  0.41386000  1.0
  C  C105  1  0.83647000  0.99261000  0.33608000  1.0
  C  C106  1  0.90800000  0.87956000  0.37502000  1.0
  C  C107  1  0.84098000  0.87127000  0.37477000  1.0
  C  C108  1  0.65256000  0.15192000  0.15226000  1.0
  C  C109  1  0.59783000  0.09788000  0.09774000  1.0
  C  C110  1  0.66756000  0.16847000  0.10885000  1.0
  C  C111  1  0.58148000  0.08268000  0.14115000  1.0
  C  C112  1  0.64195000  0.14050000  0.08199000  1.0
  C  C113  1  0.60976000  0.10799000  0.16801000  1.0
  C  C114  1  0.67368000  0.52478000  0.12133000  1.0
  C  C115  1  0.57671000  0.72412000  0.12899000  1.0
  C  C116  1  0.66465000  0.50684000  0.16360000  1.0
  C  C117  1  0.58598000  0.74208000  0.08672000  1.0
  C  C118  1  0.60871000  0.64512000  0.14194000  1.0
  C  C119  1  0.64215000  0.60378000  0.10834000  1.0
  C  C120  1  0.08120000  0.12412000  0.17667000  1.0
  C  C121  1  0.16988000  0.12433000  0.07281000  1.0
  C  C122  1  0.00904000  0.16325000  0.16425000  1.0
  C  C123  1  0.24204000  0.08557000  0.08525000  1.0
  C  C124  1  0.11080000  0.13900000  0.10585000  1.0
  C  C125  1  0.14024000  0.10992000  0.14360000  1.0
  C  C126  1  0.34770000  0.84806000  0.84760000  1.0
  C  C127  1  0.40286000  0.90176000  0.90207000  1.0
  C  C128  1  0.30299000  0.92094000  0.86114000  1.0
  C  C129  1  0.44809000  0.82940000  0.88799000  1.0
  C  C130  1  0.32947000  0.94677000  0.88865000  1.0
  C  C131  1  0.42029000  0.80227000  0.86182000  1.0
  C  C132  1  0.40522000  0.44948000  0.85265000  1.0
  C  C133  1  0.34502000  0.30195000  0.89707000  1.0
  C  C134  1  0.33751000  0.49266000  0.83581000  1.0
  C  C135  1  0.41290000  0.25863000  0.91376000  1.0
  C  C136  1  0.34175000  0.37145000  0.87458000  1.0
  C  C137  1  0.40878000  0.37970000  0.87489000  1.0
  C  C138  1  0.94507000  0.79674000  0.84998000  1.0
  C  C139  1  0.80402000  0.95307000  0.90063000  1.0
  C  C140  1  0.99156000  0.83468000  0.83635000  1.0
  C  C141  1  0.75739000  0.91527000  0.91418000  1.0
  C  C142  1  0.87237000  0.91061000  0.87704000  1.0
  C  C143  1  0.87638000  0.83950000  0.87327000  1.0
  S  S144  1  0.29755000  0.32587000  0.39788000  1.0
  S  S145  1  0.45110000  0.42472000  0.35216000  1.0
  S  S146  1  0.66126000  0.63302000  0.56153000  1.0
  S  S147  1  0.58942000  0.61623000  0.68798000  1.0
  S  S148  1  0.13472000  0.16053000  0.56193000  1.0
  S  S149  1  0.11646000  0.08834000  0.68839000  1.0
  S  S150  1  0.97378000  0.80313000  0.40202000  1.0
  S  S151  1  0.77546000  0.94739000  0.34749000  1.0
  S  S152  1  0.61659000  0.58790000  0.18833000  1.0
  S  S153  1  0.63471000  0.66106000  0.06198000  1.0
  S  S154  1  0.01275000  0.18325000  0.11107000  1.0
  S  S155  1  0.23832000  0.06628000  0.13842000  1.0
  S  S156  1  0.27635000  0.44759000  0.84723000  1.0
  S  S157  1  0.47439000  0.30332000  0.90200000  1.0
  S  S158  1  0.95107000  0.92454000  0.85222000  1.0
  S  S159  1  0.79744000  0.82578000  0.89794000  1.0
  N  N160  1  0.77997000  0.51885000  0.39994000  1.0
  N  N161  1  0.96888000  0.23148000  0.35068000  1.0
  N  N162  1  0.73074000  0.47086000  0.34997000  1.0
  N  N163  1  0.01927000  0.28068000  0.39945000  1.0
  N  N164  1  0.16087000  0.65992000  0.54055000  1.0
  N  N165  1  0.08988000  0.58924000  0.70954000  1.0
  N  N166  1  0.20915000  0.70977000  0.59006000  1.0
  N  N167  1  0.03981000  0.54115000  0.66006000  1.0
  N  N168  1  0.70915000  0.20986000  0.08982000  1.0
  N  N169  1  0.54004000  0.04116000  0.16018000  1.0
  N  N170  1  0.66080000  0.15974000  0.04046000  1.0
  N  N171  1  0.59060000  0.08903000  0.20952000  1.0
  N  N172  1  0.23116000  0.97014000  0.84997000  1.0
  N  N173  1  0.51971000  0.78001000  0.89940000  1.0
  N  N174  1  0.28043000  0.01822000  0.89984000  1.0
  N  N175  1  0.46929000  0.73073000  0.85065000  1.0
  O  O176  1  0.00031000  0.49981000  0.49995000  1.0
  O  O177  1  0.08022000  0.31605000  0.52285000  1.0
  O  O178  1  0.03764000  0.52495000  0.58475000  1.0
  O  O179  1  0.15677000  0.50452000  0.45217000  1.0
  O  O180  1  0.02369000  0.37447000  0.58061000  1.0
  O  O181  1  0.15100000  0.39449000  0.44534000  1.0
  O  O182  1  0.07936000  0.59102000  0.53077000  1.0
  O  O183  1  0.00462000  0.65587000  0.44876000  1.0
  O  O184  1  0.89050000  0.49757000  0.44011000  1.0
  O  O185  1  0.88992000  0.65351000  0.44808000  1.0
  O  O186  1  0.99445000  0.38561000  0.44429000  1.0
  O  O187  1  0.87617000  0.53005000  0.58068000  1.0
  O  O188  1  0.81670000  0.57213000  0.52265000  1.0
  O  O189  1  0.74972000  0.25027000  0.25005000  1.0
  O  O190  1  0.59510000  0.35847000  0.30205000  1.0
  O  O191  1  0.66056000  0.16938000  0.21916000  1.0
  O  O192  1  0.72138000  0.37391000  0.16939000  1.0
  O  O193  1  0.59549000  0.24294000  0.30136000  1.0
  O  O194  1  0.67611000  0.43286000  0.22735000  1.0
  O  O195  1  0.72462000  0.21345000  0.16513000  1.0
  O  O196  1  0.87665000  0.22573000  0.16939000  1.0
  O  O197  1  0.86353000  0.25810000  0.30531000  1.0
  O  O198  1  0.93371000  0.17084000  0.22796000  1.0
  O  O199  1  0.75048000  0.36058000  0.31031000  1.0
  O  O200  1  0.74740000  0.09180000  0.29772000  1.0
  O  O201  1  0.85545000  0.10109000  0.30568000  1.0
  O  O202  1  0.24967000  0.75022000  0.75017000  1.0
  O  O203  1  0.37469000  0.72742000  0.66910000  1.0
  O  O204  1  0.36425000  0.75781000  0.80490000  1.0
  O  O205  1  0.17588000  0.93307000  0.72762000  1.0
  O  O206  1  0.43409000  0.67167000  0.72688000  1.0
  O  O207  1  0.21903000  0.87432000  0.66960000  1.0
  O  O208  1  0.25097000  0.86000000  0.81026000  1.0
  O  O209  1  0.09513000  0.85826000  0.80224000  1.0
  O  O210  1  0.16007000  0.66925000  0.71939000  1.0
  O  O211  1  0.09552000  0.74275000  0.80145000  1.0
  O  O212  1  0.22419000  0.71324000  0.66537000  1.0
  O  O213  1  0.35703000  0.60063000  0.80470000  1.0
  O  O214  1  0.24812000  0.59193000  0.79772000  1.0
  O  O215  1  0.50027000  0.99979000  0.99997000  1.0
  O  O216  1  0.50492000  0.15608000  0.94886000  1.0
  O  O217  1  0.39189000  0.99775000  0.93901000  1.0
  O  O218  1  0.65100000  0.89436000  0.94549000  1.0
  O  O219  1  0.39044000  0.15367000  0.94768000  1.0
  O  O220  1  0.65667000  0.00454000  0.95215000  1.0
  O  O221  1  0.49466000  0.88499000  0.94438000  1.0
  O  O222  1  0.57980000  0.81641000  0.02314000  1.0
  O  O223  1  0.53551000  0.02657000  0.08493000  1.0
  O  O224  1  0.52311000  0.87494000  0.08085000  1.0
  O  O225  1  0.57974000  0.09040000  0.03084000  1.0
  O  O226  1  0.31723000  0.07128000  0.02150000  1.0
  O  O227  1  0.37452000  0.03014000  0.08024000  1.0
  F  F228  1  0.28727000  0.52314000  0.40845000  1.0
  F  F229  1  0.46214000  0.22682000  0.34223000  1.0
  F  F230  1  0.77705000  0.54206000  0.65525000  1.0
  F  F231  1  0.47352000  0.70878000  0.59434000  1.0
  F  F232  1  0.04202000  0.27553000  0.65530000  1.0
  F  F233  1  0.20791000  0.97320000  0.59503000  1.0
  F  F234  1  0.78681000  0.78110000  0.40153000  1.0
  F  F235  1  0.96165000  0.97031000  0.34878000  1.0
  F  F236  1  0.70880000  0.47351000  0.09472000  1.0
  F  F237  1  0.54136000  0.77530000  0.15561000  1.0
  F  F238  1  0.09530000  0.10149000  0.21581000  1.0
  F  F239  1  0.15586000  0.14675000  0.03362000  1.0
  F  F240  1  0.46263000  0.47028000  0.84862000  1.0
  F  F241  1  0.28746000  0.28139000  0.90127000  1.0
  F  F242  1  0.96201000  0.72670000  0.84227000  1.0
  F  F243  1  0.78730000  0.02299000  0.90853000  1.0
