# generated using pymatgen
data_Zn2H15C24Br5(N3O4)2
_symmetry_space_group_name_H-M   'P 1'
_cell_length_a   10.10870000
_cell_length_b   11.05600000
_cell_length_c   12.15630000
_cell_angle_alpha   90.56440000
_cell_angle_beta   106.82100000
_cell_angle_gamma   98.94280000
_symmetry_Int_Tables_number   1
_chemical_formula_structural   Zn2H15C24Br5(N3O4)2
_chemical_formula_sum   'Zn2 H15 C24 Br5 N6 O8'
_cell_volume   1282.50911947
_cell_formula_units_Z   1
loop_
 _symmetry_equiv_pos_site_id
 _symmetry_equiv_pos_as_xyz
  1  'x, y, z'
loop_
 _atom_site_type_symbol
 _atom_site_label
 _atom_site_symmetry_multiplicity
 _atom_site_fract_x
 _atom_site_fract_y
 _atom_site_fract_z
 _atom_site_occupancy
  Zn  Zn0  1  0.87939000  0.50157000  0.52095000  1.0
  Zn  Zn1  1  0.13179000  0.51227000  0.45527000  1.0
  H  H2  1  0.93146000  0.40117000  0.07358000  1.0
  H  H3  1  0.19390000  0.03234000  0.50774000  1.0
  H  H4  1  0.25278000  0.89546000  0.54417000  1.0
  H  H5  1  0.51530000  0.44487000  0.69688000  1.0
  H  H6  1  0.35433000  0.49912000  0.65968000  1.0
  H  H7  1  0.21550000  0.19654000  0.71423000  1.0
  H  H8  1  0.11594000  0.30138000  0.73859000  1.0
  H  H9  1  0.83927000  0.86560000  0.35457000  1.0
  H  H10  1  0.68035000  0.59833000  0.57327000  1.0
  H  H11  1  0.61525000  0.51523000  0.20078000  1.0
  H  H12  1  0.08092000  0.65118000  0.88627000  1.0
  H  H13  1  0.46577000  0.61832000  0.14211000  1.0
  H  H14  1  0.24337000  0.69986000  0.08640000  1.0
  H  H15  1  0.91684000  0.13588000  0.64578000  1.0
  H  H16  1  0.93512000  0.99632000  0.59891000  1.0
  C  C17  1  0.03290000  0.74187000  0.47612000  1.0
  C  C18  1  0.19734000  0.52167000  0.84322000  1.0
  C  C19  1  0.04425000  0.87844000  0.46770000  1.0
  C  C20  1  0.11794000  0.52326000  0.71782000  1.0
  C  C21  1  0.93213000  0.92803000  0.40464000  1.0
  C  C22  1  0.95904000  0.13448000  0.49396000  1.0
  C  C23  1  0.93871000  0.05926000  0.39922000  1.0
  C  C24  1  0.43779000  0.47689000  0.52724000  1.0
  C  C25  1  0.56778000  0.44402000  0.50669000  1.0
  C  C26  1  0.97944000  0.27205000  0.49800000  1.0
  C  C27  1  0.87438000  0.47264000  0.27250000  1.0
  C  C28  1  0.41210000  0.49332000  0.99163000  1.0
  C  C29  1  0.72227000  0.37178000  0.95565000  1.0
  C  C30  1  0.77900000  0.45006000  0.15240000  1.0
  C  C31  1  0.17089000  0.60466000  0.91805000  1.0
  C  C32  1  0.26343000  0.63338000  0.02890000  1.0
  C  C33  1  0.38568000  0.58335000  0.06226000  1.0
  C  C34  1  0.31167000  0.45647000  0.88336000  1.0
  C  C35  1  0.54444000  0.44727000  0.02238000  1.0
  C  C36  1  0.57729000  0.37669000  0.93671000  1.0
  C  C37  1  0.46076000  0.31701000  0.84467000  1.0
  C  C38  1  0.32697000  0.34722000  0.82284000  1.0
  C  C39  1  0.64332000  0.47449000  0.13057000  1.0
  C  C40  1  0.82146000  0.40675000  0.06100000  1.0
  Br  Br41  1  0.54971000  0.28435000  0.44417000  1.0
  Br  Br42  1  0.34589000  0.50773000  0.29500000  1.0
  Br  Br43  1  0.47123000  0.16867000  0.76699000  1.0
  Br  Br44  1  0.79252000  0.33715000  0.83008000  1.0
  Br  Br45  1  0.90685000  0.12289000  0.24834000  1.0
  N  N46  1  0.32856000  0.49863000  0.44574000  1.0
  N  N47  1  0.68548000  0.51523000  0.53765000  1.0
  N  N48  1  0.96732000  0.08880000  0.60256000  1.0
  N  N49  1  0.17238000  0.94381000  0.52770000  1.0
  N  N50  1  0.44488000  0.48689000  0.63896000  1.0
  N  N51  1  0.21160000  0.27775000  0.75167000  1.0
  O  O52  1  0.91638000  0.68299000  0.48023000  1.0
  O  O53  1  0.14314000  0.69684000  0.48016000  1.0
  O  O54  1  0.99224000  0.54255000  0.69141000  1.0
  O  O55  1  0.18544000  0.51124000  0.64525000  1.0
  O  O56  1  0.90995000  0.32204000  0.55331000  1.0
  O  O57  1  0.06829000  0.32710000  0.45284000  1.0
  O  O58  1  0.81259000  0.45524000  0.35029000  1.0
  O  O59  1  0.00533000  0.50625000  0.28921000  1.0
