# generated using pymatgen
data_Cu2H15C27I2N3
_symmetry_space_group_name_H-M   'P 1'
_cell_length_a   10.01080000
_cell_length_b   10.63480000
_cell_length_c   16.34570000
_cell_angle_alpha   100.31000000
_cell_angle_beta   97.77240000
_cell_angle_gamma   117.08900000
_symmetry_Int_Tables_number   1
_chemical_formula_structural   Cu2H15C27I2N3
_chemical_formula_sum   'Cu4 H30 C54 I4 N6'
_cell_volume   1476.89349565
_cell_formula_units_Z   2
loop_
 _symmetry_equiv_pos_site_id
 _symmetry_equiv_pos_as_xyz
  1  'x, y, z'
loop_
 _atom_site_type_symbol
 _atom_site_label
 _atom_site_symmetry_multiplicity
 _atom_site_fract_x
 _atom_site_fract_y
 _atom_site_fract_z
 _atom_site_occupancy
  Cu  Cu0  1  0.94842000  0.58885000  0.02538000  1.0
  Cu  Cu1  1  0.05158000  0.41115000  0.97462000  1.0
  Cu  Cu2  1  0.80667000  0.93978000  0.01672000  1.0
  Cu  Cu3  1  0.19333000  0.06022000  0.98328000  1.0
  H  H4  1  0.00214000  0.57900000  0.20711000  1.0
  H  H5  1  0.99785000  0.42100000  0.79288000  1.0
  H  H6  1  0.84198000  0.51016000  0.31366000  1.0
  H  H7  1  0.15801000  0.48984000  0.68634000  1.0
  H  H8  1  0.45929000  0.46518000  0.12869000  1.0
  H  H9  1  0.54072000  0.53482000  0.87131000  1.0
  H  H10  1  0.63746000  0.53892000  0.03107000  1.0
  H  H11  1  0.36254000  0.46108000  0.96894000  1.0
  H  H12  1  0.43585000  0.32439000  0.47973000  1.0
  H  H13  1  0.56415000  0.67560000  0.52027000  1.0
  H  H14  1  0.44290000  0.20852000  0.73867000  1.0
  H  H15  1  0.55710000  0.79147000  0.26133000  1.0
  H  H16  1  0.43327000  0.15779000  0.87865000  1.0
  H  H17  1  0.56673000  0.84221000  0.12135000  1.0
  H  H18  1  0.96872000  0.03816000  0.84183000  1.0
  H  H19  1  0.03128000  0.96185000  0.15817000  1.0
  H  H20  1  0.95667000  0.08074000  0.69626000  1.0
  H  H21  1  0.04334000  0.91926000  0.30374000  1.0
  H  H22  1  0.94843000  0.17526000  0.45491000  1.0
  H  H23  1  0.05158000  0.82475000  0.54510000  1.0
  H  H24  1  0.16218000  0.33648000  0.25570000  1.0
  H  H25  1  0.83781000  0.66352000  0.74430000  1.0
  H  H26  1  0.76143000  0.23284000  0.09350000  1.0
  H  H27  1  0.23857000  0.76716000  0.90650000  1.0
  H  H28  1  0.52721000  0.18051000  0.99210000  1.0
  H  H29  1  0.47278000  0.81948000  0.00790000  1.0
  H  H30  1  0.24838000  0.00810000  0.15433000  1.0
  H  H31  1  0.75162000  0.99189000  0.84567000  1.0
  H  H32  1  0.47589000  0.06443000  0.26722000  1.0
  H  H33  1  0.52411000  0.93557000  0.73278000  1.0
  C  C34  1  0.88132000  0.55354000  0.19302000  1.0
  C  C35  1  0.11868000  0.44647000  0.80698000  1.0
  C  C36  1  0.79226000  0.51536000  0.25171000  1.0
  C  C37  1  0.20774000  0.48465000  0.74828000  1.0
  C  C38  1  0.63632000  0.48101000  0.22974000  1.0
  C  C39  1  0.36369000  0.51899000  0.77026000  1.0
  C  C40  1  0.57909000  0.49000000  0.14848000  1.0
  C  C41  1  0.42091000  0.51001000  0.85152000  1.0
  C  C42  1  0.67715000  0.53042000  0.09432000  1.0
  C  C43  1  0.32285000  0.46958000  0.90568000  1.0
  C  C44  1  0.53703000  0.43722000  0.28484000  1.0
  C  C45  1  0.46297000  0.56279000  0.71516000  1.0
  C  C46  1  0.44154000  0.39435000  0.32689000  1.0
  C  C47  1  0.55846000  0.60564000  0.67311000  1.0
  C  C48  1  0.31445000  0.33884000  0.36444000  1.0
  C  C49  1  0.68555000  0.66115000  0.63556000  1.0
  C  C50  1  0.32542000  0.30535000  0.44373000  1.0
  C  C51  1  0.67458000  0.69464000  0.55627000  1.0
  C  C52  1  0.19324000  0.24660000  0.47648000  1.0
  C  C53  1  0.80676000  0.75339000  0.52352000  1.0
  C  C54  1  0.20009000  0.21002000  0.55551000  1.0
  C  C55  1  0.79991000  0.78998000  0.44449000  1.0
  C  C56  1  0.19929000  0.17830000  0.62366000  1.0
  C  C57  1  0.80071000  0.82170000  0.37635000  1.0
  C  C58  1  0.19907000  0.14768000  0.70412000  1.0
  C  C59  1  0.80094000  0.85232000  0.29588000  1.0
  C  C60  1  0.33392000  0.16866000  0.75781000  1.0
  C  C61  1  0.66608000  0.83134000  0.24219000  1.0
  C  C62  1  0.32859000  0.14114000  0.83728000  1.0
  C  C63  1  0.67141000  0.85886000  0.16272000  1.0
  C  C64  1  0.07027000  0.07471000  0.81563000  1.0
  C  C65  1  0.92973000  0.92529000  0.18437000  1.0
  C  C66  1  0.06431000  0.09877000  0.73516000  1.0
  C  C67  1  0.93569000  0.90124000  0.26484000  1.0
  C  C68  1  0.05081000  0.22281000  0.43002000  1.0
  C  C69  1  0.94920000  0.77719000  0.56998000  1.0
  C  C70  1  0.03943000  0.25611000  0.35082000  1.0
  C  C71  1  0.96056000  0.74389000  0.64918000  1.0
  C  C72  1  0.17140000  0.31406000  0.31817000  1.0
  C  C73  1  0.82860000  0.68594000  0.68182000  1.0
  C  C74  1  0.89601000  0.22584000  0.30087000  1.0
  C  C75  1  0.10399000  0.77415000  0.69913000  1.0
  C  C76  1  0.77483000  0.19414000  0.25236000  1.0
  C  C77  1  0.22516000  0.80585000  0.74765000  1.0
  C  C78  1  0.63992000  0.15694000  0.19118000  1.0
  C  C79  1  0.36008000  0.84305000  0.80882000  1.0
  C  C80  1  0.65063000  0.18531000  0.11059000  1.0
  C  C81  1  0.34936000  0.81469000  0.88941000  1.0
  C  C82  1  0.51777000  0.15409000  0.05309000  1.0
  C  C83  1  0.48223000  0.84591000  0.94691000  1.0
  C  C84  1  0.36437000  0.06093000  0.14424000  1.0
  C  C85  1  0.63563000  0.93907000  0.85576000  1.0
  C  C86  1  0.49150000  0.09150000  0.20678000  1.0
  C  C87  1  0.50850000  0.90849000  0.79322000  1.0
  I  I88  1  0.22912000  0.65744000  0.10237000  1.0
  I  I89  1  0.77087000  0.34257000  0.89762000  1.0
  I  I90  1  0.94263000  0.78877000  0.94835000  1.0
  I  I91  1  0.05737000  0.21123000  0.05165000  1.0
  N  N92  1  0.82612000  0.56103000  0.11498000  1.0
  N  N93  1  0.17388000  0.43897000  0.88502000  1.0
  N  N94  1  0.19997000  0.09517000  0.86735000  1.0
  N  N95  1  0.80003000  0.90483000  0.13265000  1.0
  N  N96  1  0.37478000  0.09347000  0.06833000  1.0
  N  N97  1  0.62522000  0.90652000  0.93167000  1.0
