# generated using pymatgen
data_Cd2H33C28N5O11
_symmetry_space_group_name_H-M   'P 1'
_cell_length_a   14.38460000
_cell_length_b   14.47740000
_cell_length_c   22.65930000
_cell_angle_alpha   77.68400000
_cell_angle_beta   89.99940000
_cell_angle_gamma   89.99910000
_symmetry_Int_Tables_number   1
_chemical_formula_structural   Cd2H33C28N5O11
_chemical_formula_sum   'Cd8 H132 C112 N20 O44'
_cell_volume   4610.23659939
_cell_formula_units_Z   4
loop_
 _symmetry_equiv_pos_site_id
 _symmetry_equiv_pos_as_xyz
  1  'x, y, z'
loop_
 _atom_site_type_symbol
 _atom_site_label
 _atom_site_symmetry_multiplicity
 _atom_site_fract_x
 _atom_site_fract_y
 _atom_site_fract_z
 _atom_site_occupancy
  Cd  Cd0  1  0.75679000  0.74329000  0.23837000  1.0
  Cd  Cd1  1  0.62671000  0.81121000  0.35737000  1.0
  Cd  Cd2  1  0.25679000  0.25669000  0.26164000  1.0
  Cd  Cd3  1  0.12672000  0.18878000  0.14263000  1.0
  Cd  Cd4  1  0.24322000  0.25669000  0.76164000  1.0
  Cd  Cd5  1  0.37328000  0.18879000  0.64262000  1.0
  Cd  Cd6  1  0.74322000  0.74328000  0.73837000  1.0
  Cd  Cd7  1  0.87329000  0.81123000  0.85737000  1.0
  H  H8  1  0.48906000  0.50571000  0.25162000  1.0
  H  H9  1  0.37697000  0.37883000  0.42619000  1.0
  H  H10  1  0.57857000  0.60315000  0.40955000  1.0
  H  H11  1  0.36635000  0.12350000  0.06643000  1.0
  H  H12  1  0.49058000  0.03496000  0.24212000  1.0
  H  H13  1  0.59438000  0.92514000  0.09290000  1.0
  H  H14  1  0.71529000  0.55891000  0.48056000  1.0
  H  H15  1  0.83399000  0.59743000  0.48037000  1.0
  H  H16  1  0.76407000  0.62774000  0.41371000  1.0
  H  H17  1  0.68190000  0.86266000  0.49939000  1.0
  H  H18  1  0.79563000  0.88621000  0.52547000  1.0
  H  H19  1  0.71230000  0.82315000  0.57782000  1.0
  H  H20  1  0.83711000  0.62967000  0.57632000  1.0
  H  H21  1  0.86378000  0.74201000  0.59009000  1.0
  H  H22  1  0.91408000  0.70713000  0.52618000  1.0
  H  H23  1  0.48829000  0.72589000  0.46415000  1.0
  H  H24  1  0.36878000  0.69266000  0.47187000  1.0
  H  H25  1  0.40474000  0.80455000  0.48437000  1.0
  H  H26  1  0.25545000  0.80525000  0.45601000  1.0
  H  H27  1  0.18006000  0.82706000  0.39227000  1.0
  H  H28  1  0.23826000  0.92311000  0.41368000  1.0
  H  H29  1  0.35834000  0.84959000  0.28017000  1.0
  H  H30  1  0.32195000  0.95776000  0.29920000  1.0
  H  H31  1  0.23772000  0.86924000  0.29460000  1.0
  H  H32  1  0.72254000  0.11276000  0.37311000  1.0
  H  H33  1  0.69264000  0.09139000  0.30108000  1.0
  H  H34  1  0.74148000  0.99898000  0.35712000  1.0
  H  H35  1  0.43131000  0.98069000  0.39206000  1.0
  H  H36  1  0.38445000  0.09435000  0.35719000  1.0
  H  H37  1  0.42441000  0.07222000  0.43370000  1.0
  H  H38  1  0.49322000  0.20704000  0.29951000  1.0
  H  H39  1  0.60920000  0.20821000  0.32778000  1.0
  H  H40  1  0.51309000  0.23087000  0.37237000  1.0
  H  H41  1  0.98904000  0.49427000  0.24839000  1.0
  H  H42  1  0.87697000  0.62116000  0.07381000  1.0
  H  H43  1  0.07859000  0.39685000  0.09045000  1.0
  H  H44  1  0.86633000  0.87651000  0.43356000  1.0
  H  H45  1  0.99058000  0.96505000  0.25787000  1.0
  H  H46  1  0.09435000  0.07486000  0.40709000  1.0
  H  H47  1  0.21529000  0.44108000  0.01944000  1.0
  H  H48  1  0.33399000  0.40257000  0.01962000  1.0
  H  H49  1  0.26408000  0.37227000  0.08629000  1.0
  H  H50  1  0.18191000  0.13734000  0.00062000  1.0
  H  H51  1  0.29564000  0.11378000  0.97453000  1.0
  H  H52  1  0.21231000  0.17686000  0.92218000  1.0
  H  H53  1  0.33712000  0.37033000  0.92368000  1.0
  H  H54  1  0.36379000  0.25798000  0.90991000  1.0
  H  H55  1  0.41409000  0.29287000  0.97382000  1.0
  H  H56  1  0.98830000  0.27411000  0.03585000  1.0
  H  H57  1  0.86879000  0.30734000  0.02813000  1.0
  H  H58  1  0.90476000  0.19545000  0.01563000  1.0
  H  H59  1  0.75545000  0.19477000  0.04400000  1.0
  H  H60  1  0.68007000  0.17296000  0.10774000  1.0
  H  H61  1  0.73826000  0.07690000  0.08633000  1.0
  H  H62  1  0.85834000  0.15043000  0.21984000  1.0
  H  H63  1  0.82195000  0.04226000  0.20081000  1.0
  H  H64  1  0.73772000  0.13079000  0.20540000  1.0
  H  H65  1  0.22254000  0.88724000  0.12689000  1.0
  H  H66  1  0.19265000  0.90860000  0.19892000  1.0
  H  H67  1  0.24148000  0.00102000  0.14288000  1.0
  H  H68  1  0.93131000  0.01932000  0.10795000  1.0
  H  H69  1  0.88445000  0.90566000  0.14282000  1.0
  H  H70  1  0.92441000  0.92779000  0.06631000  1.0
  H  H71  1  0.99323000  0.79296000  0.20049000  1.0
  H  H72  1  0.10920000  0.79179000  0.17222000  1.0
  H  H73  1  0.01309000  0.76914000  0.12762000  1.0
  H  H74  1  0.51096000  0.49428000  0.74838000  1.0
  H  H75  1  0.62302000  0.62118000  0.57380000  1.0
  H  H76  1  0.42142000  0.39685000  0.59045000  1.0
  H  H77  1  0.63365000  0.87649000  0.93357000  1.0
  H  H78  1  0.50944000  0.96504000  0.75787000  1.0
  H  H79  1  0.40563000  0.07484000  0.90709000  1.0
  H  H80  1  0.28471000  0.44108000  0.51944000  1.0
  H  H81  1  0.16601000  0.40257000  0.51963000  1.0
  H  H82  1  0.23593000  0.37226000  0.58629000  1.0
  H  H83  1  0.31808000  0.13734000  0.50062000  1.0
  H  H84  1  0.20436000  0.11378000  0.47454000  1.0
  H  H85  1  0.28769000  0.17685000  0.42219000  1.0
  H  H86  1  0.16288000  0.37034000  0.42368000  1.0
  H  H87  1  0.13621000  0.25799000  0.40991000  1.0
  H  H88  1  0.08590000  0.29287000  0.47383000  1.0
  H  H89  1  0.51171000  0.27410000  0.53585000  1.0
  H  H90  1  0.63122000  0.30733000  0.52813000  1.0
  H  H91  1  0.59526000  0.19544000  0.51563000  1.0
  H  H92  1  0.74455000  0.19476000  0.54399000  1.0
  H  H93  1  0.81994000  0.17295000  0.60774000  1.0
  H  H94  1  0.76174000  0.07689000  0.58633000  1.0
  H  H95  1  0.64166000  0.15042000  0.71983000  1.0
  H  H96  1  0.67805000  0.04225000  0.70081000  1.0
  H  H97  1  0.76228000  0.13077000  0.70540000  1.0
  H  H98  1  0.27746000  0.88723000  0.62688000  1.0
  H  H99  1  0.30734000  0.90861000  0.69892000  1.0
  H  H100  1  0.25852000  0.00102000  0.64288000  1.0
  H  H101  1  0.56869000  0.01932000  0.60795000  1.0
  H  H102  1  0.61555000  0.90565000  0.64281000  1.0
  H  H103  1  0.57559000  0.92778000  0.56631000  1.0
  H  H104  1  0.50678000  0.79295000  0.70050000  1.0
  H  H105  1  0.39080000  0.79179000  0.67222000  1.0
  H  H106  1  0.48691000  0.76913000  0.62763000  1.0
  H  H107  1  0.01094000  0.50571000  0.75162000  1.0
  H  H108  1  0.12302000  0.37881000  0.92619000  1.0
  H  H109  1  0.92143000  0.60314000  0.90956000  1.0
  H  H110  1  0.13365000  0.12351000  0.56643000  1.0
  H  H111  1  0.00943000  0.03494000  0.74212000  1.0
  H  H112  1  0.90564000  0.92515000  0.59290000  1.0
  H  H113  1  0.78471000  0.55892000  0.98056000  1.0
  H  H114  1  0.66601000  0.59744000  0.98037000  1.0
  H  H115  1  0.73593000  0.62774000  0.91371000  1.0
  H  H116  1  0.81808000  0.86266000  0.99938000  1.0
  H  H117  1  0.70435000  0.88622000  0.02546000  1.0
  H  H118  1  0.78768000  0.82316000  0.07781000  1.0
  H  H119  1  0.66289000  0.62967000  0.07632000  1.0
  H  H120  1  0.63622000  0.74201000  0.09009000  1.0
  H  H121  1  0.58591000  0.70713000  0.02618000  1.0
  H  H122  1  0.01171000  0.72590000  0.96415000  1.0
  H  H123  1  0.13121000  0.69267000  0.97187000  1.0
  H  H124  1  0.09525000  0.80456000  0.98437000  1.0
  H  H125  1  0.24455000  0.80524000  0.95601000  1.0
  H  H126  1  0.31994000  0.82706000  0.89227000  1.0
  H  H127  1  0.26174000  0.92311000  0.91367000  1.0
  H  H128  1  0.14167000  0.84958000  0.78017000  1.0
  H  H129  1  0.17805000  0.95776000  0.79919000  1.0
  H  H130  1  0.26228000  0.86923000  0.79460000  1.0
  H  H131  1  0.77746000  0.11277000  0.87312000  1.0
  H  H132  1  0.80734000  0.09140000  0.80108000  1.0
  H  H133  1  0.75851000  0.99899000  0.85712000  1.0
  H  H134  1  0.06869000  0.98068000  0.89205000  1.0
  H  H135  1  0.11554000  0.09434000  0.85719000  1.0
  H  H136  1  0.07559000  0.07221000  0.93370000  1.0
  H  H137  1  0.00678000  0.20704000  0.79951000  1.0
  H  H138  1  0.89080000  0.20821000  0.82778000  1.0
  H  H139  1  0.98691000  0.23087000  0.87238000  1.0
  C  C140  1  0.36882000  0.37037000  0.30824000  1.0
  C  C141  1  0.55031000  0.97526000  0.17114000  1.0
  C  C142  1  0.54096000  0.56137000  0.32662000  1.0
  C  C143  1  0.47714000  0.49069000  0.42465000  1.0
  C  C144  1  0.48576000  0.50137000  0.30015000  1.0
  C  C145  1  0.42218000  0.43069000  0.39824000  1.0
  C  C146  1  0.53655000  0.55643000  0.38868000  1.0
  C  C147  1  0.48092000  0.02533000  0.07218000  1.0
  C  C148  1  0.41847000  0.08239000  0.09559000  1.0
  C  C149  1  0.42680000  0.43566000  0.33601000  1.0
  C  C150  1  0.48818000  0.03312000  0.19436000  1.0
  C  C151  1  0.54685000  0.97135000  0.11029000  1.0
  C  C152  1  0.61841000  0.91329000  0.21194000  1.0
  C  C153  1  0.42186000  0.08636000  0.15666000  1.0
  C  C154  1  0.60748000  0.62775000  0.28835000  1.0
  C  C155  1  0.35165000  0.14530000  0.18111000  1.0
  C  C156  1  0.76408000  0.61696000  0.46319000  1.0
  C  C157  1  0.72610000  0.70521000  0.47907000  1.0
  C  C158  1  0.73771000  0.83541000  0.53117000  1.0
  C  C159  1  0.85128000  0.70333000  0.55428000  1.0
  C  C160  1  0.40399000  0.79402000  0.39023000  1.0
  C  C161  1  0.41695000  0.75200000  0.45666000  1.0
  C  C162  1  0.24544000  0.84848000  0.41068000  1.0
  C  C163  1  0.30970000  0.88096000  0.30743000  1.0
  C  C164  1  0.69460000  0.05979000  0.34957000  1.0
  C  C165  1  0.43660000  0.05694000  0.38879000  1.0
  C  C166  1  0.59959000  0.02610000  0.37304000  1.0
  C  C167  1  0.53721000  0.18922000  0.34003000  1.0
  C  C168  1  0.86880000  0.62960000  0.19176000  1.0
  C  C169  1  0.05029000  0.02474000  0.32886000  1.0
  C  C170  1  0.04096000  0.43862000  0.17338000  1.0
  C  C171  1  0.97716000  0.50930000  0.07535000  1.0
  C  C172  1  0.98575000  0.49861000  0.19984000  1.0
  C  C173  1  0.92219000  0.56930000  0.10175000  1.0
  C  C174  1  0.03657000  0.44357000  0.11131000  1.0
  C  C175  1  0.98090000  0.97468000  0.42782000  1.0
  C  C176  1  0.91845000  0.91761000  0.40441000  1.0
  C  C177  1  0.92679000  0.56432000  0.16399000  1.0
  C  C178  1  0.98817000  0.96688000  0.30563000  1.0
  C  C179  1  0.04683000  0.02866000  0.38970000  1.0
  C  C180  1  0.11840000  0.08671000  0.28806000  1.0
  C  C181  1  0.92185000  0.91364000  0.34333000  1.0
  C  C182  1  0.10749000  0.37225000  0.21165000  1.0
  C  C183  1  0.85164000  0.85470000  0.31889000  1.0
  C  C184  1  0.26409000  0.38303000  0.03680000  1.0
  C  C185  1  0.22612000  0.29479000  0.02093000  1.0
  C  C186  1  0.23772000  0.16459000  0.96884000  1.0
  C  C187  1  0.35129000  0.29666000  0.94572000  1.0
  C  C188  1  0.90400000  0.20598000  0.10977000  1.0
  C  C189  1  0.91696000  0.24800000  0.04334000  1.0
  C  C190  1  0.74544000  0.15154000  0.08933000  1.0
  C  C191  1  0.80970000  0.11906000  0.19258000  1.0
  C  C192  1  0.19460000  0.94021000  0.15043000  1.0
  C  C193  1  0.93660000  0.94307000  0.11121000  1.0
  C  C194  1  0.09959000  0.97390000  0.12696000  1.0
  C  C195  1  0.03721000  0.81079000  0.15997000  1.0
  C  C196  1  0.63120000  0.62962000  0.69175000  1.0
  C  C197  1  0.44970000  0.02472000  0.82886000  1.0
  C  C198  1  0.45905000  0.43863000  0.67338000  1.0
  C  C199  1  0.52285000  0.50931000  0.57535000  1.0
  C  C200  1  0.51425000  0.49862000  0.69985000  1.0
  C  C201  1  0.57781000  0.56931000  0.60175000  1.0
  C  C202  1  0.46345000  0.44358000  0.61132000  1.0
  C  C203  1  0.51908000  0.97466000  0.92782000  1.0
  C  C204  1  0.58154000  0.91760000  0.90441000  1.0
  C  C205  1  0.57321000  0.56433000  0.66399000  1.0
  C  C206  1  0.51183000  0.96687000  0.80563000  1.0
  C  C207  1  0.45316000  0.02864000  0.88970000  1.0
  C  C208  1  0.38159000  0.08671000  0.78806000  1.0
  C  C209  1  0.57815000  0.91363000  0.84333000  1.0
  C  C210  1  0.39252000  0.37227000  0.71165000  1.0
  C  C211  1  0.64836000  0.85469000  0.81889000  1.0
  C  C212  1  0.23592000  0.38304000  0.53681000  1.0
  C  C213  1  0.27389000  0.29479000  0.52093000  1.0
  C  C214  1  0.26228000  0.16458000  0.46884000  1.0
  C  C215  1  0.14871000  0.29667000  0.44572000  1.0
  C  C216  1  0.59600000  0.20597000  0.60977000  1.0
  C  C217  1  0.58305000  0.24800000  0.54334000  1.0
  C  C218  1  0.75456000  0.15153000  0.58933000  1.0
  C  C219  1  0.69030000  0.11904000  0.69258000  1.0
  C  C220  1  0.30540000  0.94021000  0.65043000  1.0
  C  C221  1  0.56340000  0.94306000  0.61122000  1.0
  C  C222  1  0.40041000  0.97390000  0.62696000  1.0
  C  C223  1  0.46279000  0.81078000  0.65998000  1.0
  C  C224  1  0.13119000  0.37037000  0.80824000  1.0
  C  C225  1  0.94970000  0.97526000  0.67113000  1.0
  C  C226  1  0.95904000  0.56137000  0.82662000  1.0
  C  C227  1  0.02285000  0.49068000  0.92465000  1.0
  C  C228  1  0.01424000  0.50137000  0.80016000  1.0
  C  C229  1  0.07781000  0.43068000  0.89825000  1.0
  C  C230  1  0.96345000  0.55642000  0.88869000  1.0
  C  C231  1  0.01908000  0.02534000  0.57217000  1.0
  C  C232  1  0.08154000  0.08240000  0.59558000  1.0
  C  C233  1  0.07320000  0.43566000  0.83601000  1.0
  C  C234  1  0.01182000  0.03312000  0.69436000  1.0
  C  C235  1  0.95316000  0.97135000  0.61029000  1.0
  C  C236  1  0.88159000  0.91329000  0.71194000  1.0
  C  C237  1  0.07814000  0.08637000  0.65667000  1.0
  C  C238  1  0.89252000  0.62774000  0.78835000  1.0
  C  C239  1  0.14836000  0.14530000  0.68111000  1.0
  C  C240  1  0.73592000  0.61697000  0.96319000  1.0
  C  C241  1  0.77389000  0.70522000  0.97907000  1.0
  C  C242  1  0.76227000  0.83542000  0.03116000  1.0
  C  C243  1  0.64872000  0.70334000  0.05428000  1.0
  C  C244  1  0.09600000  0.79403000  0.89023000  1.0
  C  C245  1  0.08305000  0.75200000  0.95666000  1.0
  C  C246  1  0.25456000  0.84847000  0.91067000  1.0
  C  C247  1  0.19030000  0.88096000  0.80742000  1.0
  C  C248  1  0.80540000  0.05980000  0.84957000  1.0
  C  C249  1  0.06340000  0.05693000  0.88879000  1.0
  C  C250  1  0.90041000  0.02611000  0.87304000  1.0
  C  C251  1  0.96279000  0.18921000  0.84003000  1.0
  N  N252  1  0.46728000  0.48178000  0.48764000  1.0
  N  N253  1  0.47056000  0.02512000  0.01020000  1.0
  N  N254  1  0.77116000  0.74618000  0.51874000  1.0
  N  N255  1  0.32226000  0.83665000  0.37111000  1.0
  N  N256  1  0.52897000  0.08857000  0.36677000  1.0
  N  N257  1  0.96731000  0.51822000  0.01236000  1.0
  N  N258  1  0.97053000  0.97489000  0.48979000  1.0
  N  N259  1  0.27118000  0.25382000  0.98127000  1.0
  N  N260  1  0.82227000  0.16336000  0.12890000  1.0
  N  N261  1  0.02897000  0.91143000  0.13323000  1.0
  N  N262  1  0.53270000  0.51822000  0.51236000  1.0
  N  N263  1  0.52945000  0.97487000  0.98979000  1.0
  N  N264  1  0.22882000  0.25382000  0.48127000  1.0
  N  N265  1  0.67773000  0.16335000  0.62890000  1.0
  N  N266  1  0.47103000  0.91143000  0.63324000  1.0
  N  N267  1  0.03271000  0.48176000  0.98764000  1.0
  N  N268  1  0.02945000  0.02513000  0.51020000  1.0
  N  N269  1  0.72882000  0.74618000  0.01873000  1.0
  N  N270  1  0.17774000  0.83666000  0.87110000  1.0
  N  N271  1  0.97102000  0.08857000  0.86677000  1.0
  O  O272  1  0.61745000  0.91726000  0.26747000  1.0
  O  O273  1  0.65671000  0.68226000  0.31573000  1.0
  O  O274  1  0.65004000  0.73943000  0.45565000  1.0
  O  O275  1  0.36578000  0.38229000  0.25104000  1.0
  O  O276  1  0.36141000  0.15337000  0.23567000  1.0
  O  O277  1  0.32459000  0.30408000  0.34384000  1.0
  O  O278  1  0.61875000  0.62745000  0.23373000  1.0
  O  O279  1  0.28772000  0.18270000  0.14510000  1.0
  O  O280  1  0.46714000  0.78928000  0.35250000  1.0
  O  O281  1  0.67055000  0.86244000  0.18653000  1.0
  O  O282  1  0.58660000  0.94072000  0.39905000  1.0
  O  O283  1  0.11744000  0.08273000  0.23253000  1.0
  O  O284  1  0.15673000  0.31773000  0.18427000  1.0
  O  O285  1  0.15006000  0.26056000  0.04436000  1.0
  O  O286  1  0.86575000  0.61768000  0.24896000  1.0
  O  O287  1  0.86141000  0.84663000  0.26432000  1.0
  O  O288  1  0.82459000  0.69590000  0.15616000  1.0
  O  O289  1  0.11877000  0.37255000  0.26627000  1.0
  O  O290  1  0.78771000  0.81731000  0.35489000  1.0
  O  O291  1  0.96715000  0.21072000  0.14751000  1.0
  O  O292  1  0.17054000  0.13755000  0.31346000  1.0
  O  O293  1  0.08660000  0.05928000  0.10096000  1.0
  O  O294  1  0.38256000  0.08274000  0.73253000  1.0
  O  O295  1  0.34328000  0.31775000  0.68428000  1.0
  O  O296  1  0.34995000  0.26057000  0.54435000  1.0
  O  O297  1  0.63425000  0.61769000  0.74896000  1.0
  O  O298  1  0.63859000  0.84662000  0.76432000  1.0
  O  O299  1  0.67541000  0.69591000  0.65616000  1.0
  O  O300  1  0.38124000  0.37257000  0.76627000  1.0
  O  O301  1  0.71230000  0.81730000  0.85489000  1.0
  O  O302  1  0.53285000  0.21071000  0.64750000  1.0
  O  O303  1  0.32947000  0.13755000  0.81346000  1.0
  O  O304  1  0.41340000  0.05928000  0.60095000  1.0
  O  O305  1  0.88256000  0.91727000  0.76747000  1.0
  O  O306  1  0.84329000  0.68225000  0.81574000  1.0
  O  O307  1  0.84995000  0.73944000  0.95564000  1.0
  O  O308  1  0.13424000  0.38229000  0.75103000  1.0
  O  O309  1  0.13860000  0.15335000  0.73568000  1.0
  O  O310  1  0.17541000  0.30408000  0.84384000  1.0
  O  O311  1  0.88125000  0.62745000  0.73373000  1.0
  O  O312  1  0.21229000  0.18270000  0.64510000  1.0
  O  O313  1  0.03286000  0.78929000  0.85250000  1.0
  O  O314  1  0.82946000  0.86244000  0.68654000  1.0
  O  O315  1  0.91339000  0.94072000  0.89904000  1.0
