# generated using pymatgen
data_CuH8C6(N2O)4
_symmetry_space_group_name_H-M   'P 1'
_cell_length_a   5.60112000
_cell_length_b   7.49881000
_cell_length_c   7.63099000
_cell_angle_alpha   64.09300000
_cell_angle_beta   83.87680000
_cell_angle_gamma   71.47480000
_symmetry_Int_Tables_number   1
_chemical_formula_structural   CuH8C6(N2O)4
_chemical_formula_sum   'Cu1 H8 C6 N8 O4'
_cell_volume   273.17142631
_cell_formula_units_Z   1
loop_
 _symmetry_equiv_pos_site_id
 _symmetry_equiv_pos_as_xyz
  1  'x, y, z'
loop_
 _atom_site_type_symbol
 _atom_site_label
 _atom_site_symmetry_multiplicity
 _atom_site_fract_x
 _atom_site_fract_y
 _atom_site_fract_z
 _atom_site_occupancy
  Cu  Cu0  1  0.99999000  0.99999000  0.00001000  1.0
  H  H1  1  0.43690000  0.72585000  0.57204000  1.0
  H  H2  1  0.56312000  0.27413000  0.42795000  1.0
  H  H3  1  0.19137000  0.41144000  0.79150000  1.0
  H  H4  1  0.80865000  0.58857000  0.20849000  1.0
  H  H5  1  0.81308000  0.89879000  0.42657000  1.0
  H  H6  1  0.18694000  0.10121000  0.57344000  1.0
  H  H7  1  0.85338000  0.88935000  0.64674000  1.0
  H  H8  1  0.14662000  0.11064000  0.35327000  1.0
  C  C9  1  0.46553000  0.02090000  0.09273000  1.0
  C  C10  1  0.53448000  0.97911000  0.90728000  1.0
  C  C11  1  0.60423000  0.60340000  0.65165000  1.0
  C  C12  1  0.39574000  0.39661000  0.34833000  1.0
  C  C13  1  0.99234000  0.44105000  0.76548000  1.0
  C  C14  1  0.00763000  0.55894000  0.23452000  1.0
  N  N15  1  0.86277000  0.30574000  0.83255000  1.0
  N  N16  1  0.13725000  0.69427000  0.16746000  1.0
  N  N17  1  0.61823000  0.40653000  0.76015000  1.0
  N  N18  1  0.38179000  0.59347000  0.23985000  1.0
  N  N19  1  0.83535000  0.63054000  0.65098000  1.0
  N  N20  1  0.16468000  0.36946000  0.34902000  1.0
  N  N21  1  0.90990000  0.81105000  0.55913000  1.0
  N  N22  1  0.09010000  0.18894000  0.44087000  1.0
  O  O23  1  0.23356000  0.05606000  0.13690000  1.0
  O  O24  1  0.76641000  0.94393000  0.86311000  1.0
  O  O25  1  0.36383000  0.97937000  0.81350000  1.0
  O  O26  1  0.63612000  0.02066000  0.18648000  1.0
